MODEL 1
REMARK VINA RESULT:     -15.2      0.000      0.000
REMARK SMILES Cc1oc2cc3c(cc2c1C)[C@H](C)[C@@H](CC(=O)N[C@H](CC1=c2ccccc2=NC1)C(=O)NCCCCNC(=O)c1ccc(-c2c4nc(c(-c5cc(S(=O)(=O)[O-])ccc5F)c5ccc([nH]5)c(-c5cc(S(=O)(=O)[O-])ccc5F)c5nc(c(-c6cc(S(=O)(=O)[O-])ccc6F)c6ccc2[nH]6)C=C5)C=C4)cc1)C(=O)O3
REMARK SMILES IDX 34 1 33 2 32 3 30 4 31 5 19 7 18 8 16 9 17 10 15 12 14 13
REMARK SMILES IDX 1 14 2 15 3 16 10 17 4 18 9 19 11 20 5 21 8 22 6 23 7 24
REMARK SMILES IDX 105 25 12 26 103 27 13 28 104 29 20 30 21 31 22 32 29 33
REMARK SMILES IDX 23 34 27 35 28 36 24 37 26 38 25 39 35 40 36 41 37 42 38 43
REMARK SMILES IDX 39 45 40 46 41 47 102 48 42 49 101 50 43 51 44 52 45 53
REMARK SMILES IDX 95 54 46 55 100 56 94 57 96 58 47 59 99 60 93 61 92 62 48 64
REMARK SMILES IDX 80 65 60 66 79 67 61 68 64 69 78 70 97 71 62 72 63 73 77 75
REMARK SMILES IDX 98 76 65 77 49 78 50 79 58 80 51 81 57 82 59 83 56 84 52 85
REMARK SMILES IDX 53 86 54 87 55 88 81 89 82 90 90 91 83 92 89 93 91 94 88 95
REMARK SMILES IDX 84 96 85 97 86 98 87 99 66 100 67 101 75 102 68 103 74 104
REMARK SMILES IDX 76 105 73 106 69 107 70 108 71 109 72 110
REMARK H PARENT 32 6 18 11 37 44 96 63 64 74
REMARK Flexibility Score: inf
ROOT
ATOM      1  C   UNL A   1      33.423  29.367  27.295  1.00  0.00     0.023 C 
ENDROOT
BRANCH   1   2
ATOM      2  C   UNL A   1      31.463  28.334  27.038  1.00  0.00     0.116 C 
BRANCH   2   3
ATOM      3  N   UNL A   1      31.288  26.557  26.709  1.00  0.00    -0.354 N 
ATOM      4  C   UNL A   1      30.187  25.809  26.137  1.00  0.00     0.242 C 
ATOM      5  O   UNL A   1      29.850  24.763  26.705  1.00  0.00    -0.273 OA
ATOM      6  H   UNL A   1      32.068  26.012  26.961  1.00  0.00     0.163 HD
BRANCH   4   7
ATOM      7  C   UNL A   1      29.544  26.212  24.665  1.00  0.00     0.175 C 
BRANCH   7   8
ATOM      8  N   UNL A   1      30.161  24.934  23.984  1.00  0.00    -0.344 N 
ATOM      9  C   UNL A   1      31.235  24.257  23.583  1.00  0.00     0.221 C 
ATOM     10  O   UNL A   1      31.028  23.095  23.199  1.00  0.00    -0.275 OA
ATOM     11  H   UNL A   1      29.392  24.370  23.741  1.00  0.00     0.164 HD
BRANCH   9  12
ATOM     12  C   UNL A   1      32.649  24.730  23.575  1.00  0.00     0.116 C 
BRANCH  12  13
ATOM     13  C   UNL A   1      33.660  23.873  24.288  1.00  0.00     0.116 C 
ATOM     14  C   UNL A   1      41.154  21.440  27.197  1.00  0.00     0.088 C 
ATOM     15  C   UNL A   1      39.962  22.115  26.659  1.00  0.00     0.105 A 
ATOM     16  O   UNL A   1      39.203  21.339  25.843  1.00  0.00    -0.461 OA
ATOM     17  C   UNL A   1      39.367  23.350  26.852  1.00  0.00    -0.002 A 
ATOM     18  C   UNL A   1      38.076  22.036  25.577  1.00  0.00     0.138 A 
ATOM     19  C   UNL A   1      38.157  23.316  26.105  1.00  0.00     0.024 A 
ATOM     20  C   UNL A   1      39.780  24.456  27.747  1.00  0.00     0.049 C 
ATOM     21  C   UNL A   1      36.974  21.517  24.935  1.00  0.00     0.095 A 
ATOM     22  C   UNL A   1      37.104  24.221  25.885  1.00  0.00     0.020 A 
ATOM     23  C   UNL A   1      35.889  22.379  24.876  1.00  0.00     0.138 A 
ATOM     24  C   UNL A   1      35.942  23.741  25.278  1.00  0.00    -0.001 A 
ATOM     25  O   UNL A   1      34.728  21.808  24.370  1.00  0.00    -0.426 OA
ATOM     26  C   UNL A   1      34.812  24.691  24.894  1.00  0.00     0.035 C 
ATOM     27  C   UNL A   1      34.350  22.784  23.502  1.00  0.00     0.315 C 
ATOM     28  C   UNL A   1      34.319  25.584  26.035  1.00  0.00     0.014 C 
ATOM     29  O   UNL A   1      34.824  22.845  22.385  1.00  0.00    -0.251 OA
ENDBRANCH  12  13
ENDBRANCH   9  12
ENDBRANCH   7   8
BRANCH   7  30
ATOM     30  C   UNL A   1      29.694  27.929  24.009  1.00  0.00     0.068 C 
BRANCH  30  31
ATOM     31  C   UNL A   1      28.629  28.455  22.592  1.00  0.00    -0.037 C 
ATOM     32  C   UNL A   1      28.088  29.722  22.359  1.00  0.00     0.001 A 
ATOM     33  C   UNL A   1      29.737  28.584  21.732  1.00  0.00     0.174 C 
ATOM     34  C   UNL A   1      28.182  31.047  21.022  1.00  0.00     0.010 A 
ATOM     35  C   UNL A   1      29.040  30.181  23.510  1.00  0.00     0.065 A 
ATOM     36  N   UNL A   1      30.123  29.613  22.701  1.00  0.00    -0.280 NA
ATOM     37  C   UNL A   1      28.496  32.635  21.343  1.00  0.00     0.001 A 
ATOM     38  C   UNL A   1      29.102  32.017  24.274  1.00  0.00     0.028 A 
ATOM     39  C   UNL A   1      28.959  33.205  23.178  1.00  0.00     0.002 A 
ENDBRANCH  30  31
ENDBRANCH   7  30
ENDBRANCH   4   7
ENDBRANCH   2   3
ENDBRANCH   1   2
BRANCH   1  40
ATOM     40  C   UNL A   1      33.742  31.151  27.374  1.00  0.00     0.023 C 
BRANCH  40  41
ATOM     41  C   UNL A   1      34.975  31.841  28.059  1.00  0.00     0.116 C 
BRANCH  41  42
ATOM     42  N   UNL A   1      34.786  32.521  29.344  1.00  0.00    -0.352 N 
ATOM     43  C   UNL A   1      35.745  32.770  30.297  1.00  0.00     0.251 C 
ATOM     44  H   UNL A   1      33.874  32.833  29.545  1.00  0.00     0.163 HD
ATOM     45  O   UNL A   1      35.606  33.609  31.172  1.00  0.00    -0.269 OA
BRANCH  43  46
ATOM     46  C   UNL A   1      36.908  31.890  30.206  1.00  0.00     0.039 A 
ATOM     47  C   UNL A   1      36.698  30.542  30.516  1.00  0.00     0.014 A 
ATOM     48  C   UNL A   1      38.121  32.544  30.433  1.00  0.00     0.014 A 
ATOM     49  C   UNL A   1      37.657  29.914  31.287  1.00  0.00     0.010 A 
ATOM     50  C   UNL A   1      39.105  31.880  31.138  1.00  0.00     0.010 A 
ATOM     51  C   UNL A   1      38.840  30.595  31.623  1.00  0.00    -0.014 A 
BRANCH  51  52
ATOM     52  C   UNL A   1      39.873  29.737  32.206  1.00  0.00     0.031 A 
ATOM     53  C   UNL A   1      41.065  29.872  31.303  1.00  0.00     0.074 A 
ATOM     54  C   UNL A   1      40.021  29.480  33.520  1.00  0.00     0.049 A 
ATOM     55  N   UNL A   1      41.773  30.964  31.318  1.00  0.00    -0.248 NA
ATOM     56  C   UNL A   1      41.187  29.110  30.058  1.00  0.00     0.031 C 
ATOM     57  C   UNL A   1      39.696  30.396  34.621  1.00  0.00     0.029 A 
ATOM     58  N   UNL A   1      40.687  28.439  34.128  1.00  0.00    -0.354 N 
ATOM     59  C   UNL A   1      42.365  31.089  30.075  1.00  0.00     0.074 A 
ATOM     60  C   UNL A   1      41.976  29.915  29.328  1.00  0.00     0.031 C 
ATOM     61  C   UNL A   1      40.370  29.996  35.720  1.00  0.00     0.029 A 
ATOM     62  C   UNL A   1      41.066  28.740  35.436  1.00  0.00     0.049 A 
ATOM     63  H   UNL A   1      40.875  27.579  33.688  1.00  0.00     0.167 HD
ATOM     64  C   UNL A   1      43.120  32.168  29.736  1.00  0.00     0.034 A 
ATOM     65  C   UNL A   1      42.276  28.367  35.941  1.00  0.00     0.034 A 
ATOM     66  C   UNL A   1      43.275  33.149  30.773  1.00  0.00     0.049 A 
ATOM     67  C   UNL A   1      43.172  29.410  35.292  1.00  0.00     0.074 A 
ATOM     68  C   UNL A   1      42.827  34.417  31.061  1.00  0.00     0.029 A 
ATOM     69  N   UNL A   1      44.038  32.793  31.863  1.00  0.00    -0.354 N 
ATOM     70  N   UNL A   1      43.281  30.669  35.638  1.00  0.00    -0.248 NA
ATOM     71  C   UNL A   1      43.697  29.108  33.958  1.00  0.00     0.031 C 
ATOM     72  C   UNL A   1      42.984  34.565  32.478  1.00  0.00     0.029 A 
ATOM     73  C   UNL A   1      43.474  33.357  32.979  1.00  0.00     0.049 A 
ATOM     74  H   UNL A   1      44.846  32.232  31.844  1.00  0.00     0.167 HD
ATOM     75  C   UNL A   1      43.618  31.358  34.463  1.00  0.00     0.074 A 
ATOM     76  C   UNL A   1      43.907  30.330  33.488  1.00  0.00     0.031 C 
ATOM     77  C   UNL A   1      43.467  32.707  34.281  1.00  0.00     0.034 A 
BRANCH  64  78
ATOM     78  C   UNL A   1      43.981  32.214  28.534  1.00  0.00     0.023 A 
ATOM     79  C   UNL A   1      43.737  32.992  27.394  1.00  0.00     0.031 A 
ATOM     80  C   UNL A   1      45.199  31.514  28.632  1.00  0.00     0.131 A 
ATOM     81  C   UNL A   1      44.732  33.062  26.401  1.00  0.00     0.055 A 
ATOM     82  C   UNL A   1      46.184  31.604  27.659  1.00  0.00     0.041 A 
ATOM     83  F   UNL A   1      45.453  30.749  29.710  1.00  0.00    -0.206 F 
ATOM     84  C   UNL A   1      45.955  32.388  26.538  1.00  0.00     0.022 A 
BRANCH  81  85
ATOM     85  S   UNL A   1      44.518  34.044  24.888  1.00  0.00     0.124 S 
ATOM     86  O   UNL A   1      43.406  34.922  25.242  1.00  0.00    -0.237 OA
ATOM     87  O   UNL A   1      45.818  34.702  24.769  1.00  0.00    -0.237 OA
ATOM     88  O   UNL A   1      44.229  33.048  23.861  1.00  0.00    -0.744 OA
ENDBRANCH  81  85
ENDBRANCH  64  78
BRANCH  65  89
ATOM     89  C   UNL A   1      42.506  26.879  35.884  1.00  0.00     0.023 A 
ATOM     90  C   UNL A   1      43.456  26.233  35.081  1.00  0.00     0.031 A 
ATOM     91  C   UNL A   1      41.625  26.044  36.614  1.00  0.00     0.131 A 
ATOM     92  C   UNL A   1      43.371  24.847  34.862  1.00  0.00     0.055 A 
ATOM     93  C   UNL A   1      41.586  24.657  36.447  1.00  0.00     0.041 A 
ATOM     94  F   UNL A   1      40.750  26.578  37.484  1.00  0.00    -0.206 F 
ATOM     95  C   UNL A   1      42.437  24.055  35.533  1.00  0.00     0.022 A 
BRANCH  92  96
ATOM     96  S   UNL A   1      44.398  24.048  33.596  1.00  0.00     0.124 S 
ATOM     97  O   UNL A   1      43.560  22.928  33.178  1.00  0.00    -0.237 OA
ATOM     98  O   UNL A   1      44.544  25.128  32.624  1.00  0.00    -0.237 OA
ATOM     99  O   UNL A   1      45.611  23.690  34.323  1.00  0.00    -0.744 OA
ENDBRANCH  92  96
ENDBRANCH  65  89
BRANCH  77 100
ATOM    100  C   UNL A   1      43.096  33.522  35.483  1.00  0.00     0.023 A 
ATOM    101  C   UNL A   1      41.758  33.889  35.729  1.00  0.00     0.031 A 
ATOM    102  C   UNL A   1      44.095  34.078  36.295  1.00  0.00     0.131 A 
ATOM    103  C   UNL A   1      41.465  34.863  36.690  1.00  0.00     0.055 A 
ATOM    104  C   UNL A   1      43.792  34.995  37.301  1.00  0.00     0.041 A 
ATOM    105  F   UNL A   1      45.391  33.793  36.080  1.00  0.00    -0.206 F 
ATOM    106  C   UNL A   1      42.475  35.410  37.488  1.00  0.00     0.022 A 
BRANCH 103 107
ATOM    107  S   UNL A   1      39.786  35.527  36.867  1.00  0.00     0.124 S 
ATOM    108  O   UNL A   1      39.776  36.004  38.249  1.00  0.00    -0.237 OA
ATOM    109  O   UNL A   1      39.767  36.573  35.848  1.00  0.00    -0.237 OA
ATOM    110  O   UNL A   1      38.922  34.379  36.605  1.00  0.00    -0.744 OA
ENDBRANCH 103 107
ENDBRANCH  77 100
ENDBRANCH  51  52
ENDBRANCH  43  46
ENDBRANCH  41  42
ENDBRANCH  40  41
ENDBRANCH   1  40
TORSDOF 19
ENDMDL
MODEL 2
REMARK VINA RESULT:     -15.1      3.652      5.971
REMARK SMILES Cc1oc2cc3c(cc2c1C)[C@H](C)[C@@H](CC(=O)N[C@H](CC1=c2ccccc2=NC1)C(=O)NCCCCNC(=O)c1ccc(-c2c4nc(c(-c5cc(S(=O)(=O)[O-])ccc5F)c5ccc([nH]5)c(-c5cc(S(=O)(=O)[O-])ccc5F)c5nc(c(-c6cc(S(=O)(=O)[O-])ccc6F)c6ccc2[nH]6)C=C5)C=C4)cc1)C(=O)O3
REMARK SMILES IDX 34 1 33 2 32 3 30 4 31 5 19 7 18 8 16 9 17 10 15 12 14 13
REMARK SMILES IDX 1 14 2 15 3 16 10 17 4 18 9 19 11 20 5 21 8 22 6 23 7 24
REMARK SMILES IDX 105 25 12 26 103 27 13 28 104 29 20 30 21 31 22 32 29 33
REMARK SMILES IDX 23 34 27 35 28 36 24 37 26 38 25 39 35 40 36 41 37 42 38 43
REMARK SMILES IDX 39 45 40 46 41 47 102 48 42 49 101 50 43 51 44 52 45 53
REMARK SMILES IDX 95 54 46 55 100 56 94 57 96 58 47 59 99 60 93 61 92 62 48 64
REMARK SMILES IDX 80 65 60 66 79 67 61 68 64 69 78 70 97 71 62 72 63 73 77 75
REMARK SMILES IDX 98 76 65 77 49 78 50 79 58 80 51 81 57 82 59 83 56 84 52 85
REMARK SMILES IDX 53 86 54 87 55 88 81 89 82 90 90 91 83 92 89 93 91 94 88 95
REMARK SMILES IDX 84 96 85 97 86 98 87 99 66 100 67 101 75 102 68 103 74 104
REMARK SMILES IDX 76 105 73 106 69 107 70 108 71 109 72 110
REMARK H PARENT 32 6 18 11 37 44 96 63 64 74
REMARK Flexibility Score: inf
ROOT
ATOM      1  C   UNL A   1      34.300  29.127  26.814  1.00  0.00     0.023 C 
ENDROOT
BRANCH   1   2
ATOM      2  C   UNL A   1      32.200  28.425  26.551  1.00  0.00     0.116 C 
BRANCH   2   3
ATOM      3  N   UNL A   1      31.721  26.677  26.431  1.00  0.00    -0.354 N 
ATOM      4  C   UNL A   1      30.449  26.070  26.095  1.00  0.00     0.242 C 
ATOM      5  O   UNL A   1      30.054  25.138  26.807  1.00  0.00    -0.273 OA
ATOM      6  H   UNL A   1      32.443  26.037  26.626  1.00  0.00     0.163 HD
BRANCH   4   7
ATOM      7  C   UNL A   1      29.655  26.452  24.692  1.00  0.00     0.175 C 
BRANCH   7   8
ATOM      8  N   UNL A   1      30.133  25.124  23.995  1.00  0.00    -0.344 N 
ATOM      9  C   UNL A   1      31.127  24.365  23.541  1.00  0.00     0.221 C 
ATOM     10  O   UNL A   1      30.812  23.217  23.188  1.00  0.00    -0.275 OA
ATOM     11  H   UNL A   1      29.311  24.617  23.807  1.00  0.00     0.164 HD
BRANCH   9  12
ATOM     12  C   UNL A   1      32.570  24.730  23.443  1.00  0.00     0.116 C 
BRANCH  12  13
ATOM     13  C   UNL A   1      33.555  23.808  24.109  1.00  0.00     0.116 C 
ATOM     14  C   UNL A   1      40.949  21.076  27.008  1.00  0.00     0.088 C 
ATOM     15  C   UNL A   1      39.777  21.803  26.496  1.00  0.00     0.105 A 
ATOM     16  O   UNL A   1      39.036  21.104  25.598  1.00  0.00    -0.461 OA
ATOM     17  C   UNL A   1      39.185  23.024  26.774  1.00  0.00    -0.002 A 
ATOM     18  C   UNL A   1      37.921  21.831  25.361  1.00  0.00     0.138 A 
ATOM     19  C   UNL A   1      37.996  23.062  25.994  1.00  0.00     0.024 A 
ATOM     20  C   UNL A   1      39.581  24.048  27.768  1.00  0.00     0.049 C 
ATOM     21  C   UNL A   1      36.834  21.376  24.648  1.00  0.00     0.095 A 
ATOM     22  C   UNL A   1      36.956  23.991  25.822  1.00  0.00     0.020 A 
ATOM     23  C   UNL A   1      35.756  22.250  24.632  1.00  0.00     0.138 A 
ATOM     24  C   UNL A   1      35.807  23.574  25.146  1.00  0.00    -0.001 A 
ATOM     25  O   UNL A   1      34.606  21.733  24.049  1.00  0.00    -0.426 OA
ATOM     26  C   UNL A   1      34.695  24.562  24.811  1.00  0.00     0.035 C 
ATOM     27  C   UNL A   1      34.259  22.781  23.255  1.00  0.00     0.315 C 
ATOM     28  C   UNL A   1      34.177  25.363  26.009  1.00  0.00     0.014 C 
ATOM     29  O   UNL A   1      34.764  22.929  22.161  1.00  0.00    -0.251 OA
ENDBRANCH  12  13
ENDBRANCH   9  12
ENDBRANCH   7   8
BRANCH   7  30
ATOM     30  C   UNL A   1      29.800  28.137  23.957  1.00  0.00     0.068 C 
BRANCH  30  31
ATOM     31  C   UNL A   1      28.657  28.631  22.589  1.00  0.00    -0.037 C 
ATOM     32  C   UNL A   1      28.086  29.887  22.370  1.00  0.00     0.001 A 
ATOM     33  C   UNL A   1      29.719  28.766  21.674  1.00  0.00     0.174 C 
ATOM     34  C   UNL A   1      28.093  31.198  21.016  1.00  0.00     0.010 A 
ATOM     35  C   UNL A   1      29.087  30.374  23.467  1.00  0.00     0.065 A 
ATOM     36  N   UNL A   1      30.137  29.812  22.611  1.00  0.00    -0.280 NA
ATOM     37  C   UNL A   1      28.397  32.794  21.303  1.00  0.00     0.001 A 
ATOM     38  C   UNL A   1      29.159  32.219  24.207  1.00  0.00     0.028 A 
ATOM     39  C   UNL A   1      28.943  33.392  23.107  1.00  0.00     0.002 A 
ENDBRANCH  30  31
ENDBRANCH   7  30
ENDBRANCH   4   7
ENDBRANCH   2   3
ENDBRANCH   1   2
BRANCH   1  40
ATOM     40  C   UNL A   1      34.908  30.440  27.907  1.00  0.00     0.023 C 
BRANCH  40  41
ATOM     41  C   UNL A   1      36.222  30.395  28.765  1.00  0.00     0.116 C 
BRANCH  41  42
ATOM     42  N   UNL A   1      36.309  29.451  29.883  1.00  0.00    -0.352 N 
ATOM     43  C   UNL A   1      37.451  28.905  30.419  1.00  0.00     0.251 C 
ATOM     44  H   UNL A   1      35.457  29.178  30.295  1.00  0.00     0.163 HD
ATOM     45  O   UNL A   1      37.486  28.400  31.529  1.00  0.00    -0.269 OA
BRANCH  43  46
ATOM     46  C   UNL A   1      38.595  28.923  29.509  1.00  0.00     0.039 A 
ATOM     47  C   UNL A   1      38.450  28.221  28.308  1.00  0.00     0.014 A 
ATOM     48  C   UNL A   1      39.822  29.076  30.159  1.00  0.00     0.014 A 
ATOM     49  C   UNL A   1      39.524  27.461  27.886  1.00  0.00     0.010 A 
ATOM     50  C   UNL A   1      40.911  28.373  29.684  1.00  0.00     0.010 A 
ATOM     51  C   UNL A   1      40.738  27.513  28.593  1.00  0.00    -0.014 A 
BRANCH  51  52
ATOM     52  C   UNL A   1      41.858  26.880  27.896  1.00  0.00     0.031 A 
ATOM     53  C   UNL A   1      42.700  28.009  27.377  1.00  0.00     0.074 A 
ATOM     54  C   UNL A   1      42.409  25.695  28.225  1.00  0.00     0.049 A 
ATOM     55  N   UNL A   1      43.430  28.708  28.196  1.00  0.00    -0.248 NA
ATOM     56  C   UNL A   1      42.374  28.714  26.134  1.00  0.00     0.031 C 
ATOM     57  C   UNL A   1      42.505  25.133  29.578  1.00  0.00     0.029 A 
ATOM     58  N   UNL A   1      43.181  24.857  27.452  1.00  0.00    -0.354 N 
ATOM     59  C   UNL A   1      43.595  29.961  27.636  1.00  0.00     0.074 A 
ATOM     60  C   UNL A   1      42.926  29.917  26.357  1.00  0.00     0.031 C 
ATOM     61  C   UNL A   1      43.476  24.195  29.581  1.00  0.00     0.029 A 
ATOM     62  C   UNL A   1      43.976  24.006  28.219  1.00  0.00     0.049 A 
ATOM     63  H   UNL A   1      43.173  24.858  26.468  1.00  0.00     0.167 HD
ATOM     64  C   UNL A   1      44.255  30.962  28.279  1.00  0.00     0.034 A 
ATOM     65  C   UNL A   1      45.264  23.718  27.876  1.00  0.00     0.034 A 
ATOM     66  C   UNL A   1      44.786  30.608  29.565  1.00  0.00     0.049 A 
ATOM     67  C   UNL A   1      45.955  24.997  28.321  1.00  0.00     0.074 A 
ATOM     68  C   UNL A   1      44.522  30.865  30.891  1.00  0.00     0.029 A 
ATOM     69  N   UNL A   1      45.841  29.723  29.585  1.00  0.00    -0.354 N 
ATOM     70  N   UNL A   1      46.234  25.344  29.554  1.00  0.00    -0.248 NA
ATOM     71  C   UNL A   1      46.005  26.102  27.362  1.00  0.00     0.031 C 
ATOM     72  C   UNL A   1      45.135  29.792  31.617  1.00  0.00     0.029 A 
ATOM     73  C   UNL A   1      45.698  28.917  30.686  1.00  0.00     0.049 A 
ATOM     74  H   UNL A   1      46.569  29.677  28.926  1.00  0.00     0.167 HD
ATOM     75  C   UNL A   1      46.209  26.747  29.568  1.00  0.00     0.074 A 
ATOM     76  C   UNL A   1      46.115  27.140  28.179  1.00  0.00     0.031 C 
ATOM     77  C   UNL A   1      46.077  27.512  30.696  1.00  0.00     0.034 A 
BRANCH  64  78
ATOM     78  C   UNL A   1      44.682  32.212  27.615  1.00  0.00     0.023 A 
ATOM     79  C   UNL A   1      44.036  33.450  27.728  1.00  0.00     0.031 A 
ATOM     80  C   UNL A   1      45.914  32.147  26.933  1.00  0.00     0.131 A 
ATOM     81  C   UNL A   1      44.656  34.588  27.176  1.00  0.00     0.055 A 
ATOM     82  C   UNL A   1      46.529  33.276  26.410  1.00  0.00     0.041 A 
ATOM     83  F   UNL A   1      46.549  30.969  26.798  1.00  0.00    -0.206 F 
ATOM     84  C   UNL A   1      45.901  34.506  26.537  1.00  0.00     0.022 A 
BRANCH  81  85
ATOM     85  S   UNL A   1      43.903  36.238  27.271  1.00  0.00     0.124 S 
ATOM     86  O   UNL A   1      42.823  36.144  26.293  1.00  0.00    -0.237 OA
ATOM     87  O   UNL A   1      43.475  36.293  28.668  1.00  0.00    -0.237 OA
ATOM     88  O   UNL A   1      44.994  37.141  26.920  1.00  0.00    -0.744 OA
ENDBRANCH  81  85
ENDBRANCH  64  78
BRANCH  65  89
ATOM     89  C   UNL A   1      45.387  23.105  26.505  1.00  0.00     0.023 A 
ATOM     90  C   UNL A   1      44.703  21.966  26.059  1.00  0.00     0.031 A 
ATOM     91  C   UNL A   1      46.349  23.650  25.620  1.00  0.00     0.131 A 
ATOM     92  C   UNL A   1      45.125  21.299  24.896  1.00  0.00     0.055 A 
ATOM     93  C   UNL A   1      46.721  23.021  24.428  1.00  0.00     0.041 A 
ATOM     94  F   UNL A   1      46.980  24.797  25.926  1.00  0.00    -0.206 F 
ATOM     95  C   UNL A   1      46.135  21.813  24.081  1.00  0.00     0.022 A 
BRANCH  92  96
ATOM     96  S   UNL A   1      44.451  19.667  24.473  1.00  0.00     0.124 S 
ATOM     97  O   UNL A   1      44.516  19.673  23.015  1.00  0.00    -0.237 OA
ATOM     98  O   UNL A   1      45.398  18.784  25.147  1.00  0.00    -0.237 OA
ATOM     99  O   UNL A   1      43.108  19.700  25.043  1.00  0.00    -0.744 OA
ENDBRANCH  92  96
ENDBRANCH  65  89
BRANCH  77 100
ATOM    100  C   UNL A   1      46.157  26.804  32.016  1.00  0.00     0.023 A 
ATOM    101  C   UNL A   1      44.998  26.311  32.648  1.00  0.00     0.031 A 
ATOM    102  C   UNL A   1      47.366  26.769  32.726  1.00  0.00     0.131 A 
ATOM    103  C   UNL A   1      45.052  25.901  33.984  1.00  0.00     0.055 A 
ATOM    104  C   UNL A   1      47.428  26.292  34.035  1.00  0.00     0.041 A 
ATOM    105  F   UNL A   1      48.493  27.262  32.186  1.00  0.00    -0.206 F 
ATOM    106  C   UNL A   1      46.265  25.876  34.679  1.00  0.00     0.022 A 
BRANCH 103 107
ATOM    107  S   UNL A   1      43.539  25.485  34.896  1.00  0.00     0.124 S 
ATOM    108  O   UNL A   1      43.966  25.600  36.290  1.00  0.00    -0.237 OA
ATOM    109  O   UNL A   1      42.619  26.523  34.441  1.00  0.00    -0.237 OA
ATOM    110  O   UNL A   1      43.223  24.128  34.457  1.00  0.00    -0.744 OA
ENDBRANCH 103 107
ENDBRANCH  77 100
ENDBRANCH  51  52
ENDBRANCH  43  46
ENDBRANCH  41  42
ENDBRANCH  40  41
ENDBRANCH   1  40
TORSDOF 19
ENDMDL
MODEL 3
REMARK VINA RESULT:     -14.6      3.332      5.625
REMARK SMILES Cc1oc2cc3c(cc2c1C)[C@H](C)[C@@H](CC(=O)N[C@H](CC1=c2ccccc2=NC1)C(=O)NCCCCNC(=O)c1ccc(-c2c4nc(c(-c5cc(S(=O)(=O)[O-])ccc5F)c5ccc([nH]5)c(-c5cc(S(=O)(=O)[O-])ccc5F)c5nc(c(-c6cc(S(=O)(=O)[O-])ccc6F)c6ccc2[nH]6)C=C5)C=C4)cc1)C(=O)O3
REMARK SMILES IDX 34 1 33 2 32 3 30 4 31 5 19 7 18 8 16 9 17 10 15 12 14 13
REMARK SMILES IDX 1 14 2 15 3 16 10 17 4 18 9 19 11 20 5 21 8 22 6 23 7 24
REMARK SMILES IDX 105 25 12 26 103 27 13 28 104 29 20 30 21 31 22 32 29 33
REMARK SMILES IDX 23 34 27 35 28 36 24 37 26 38 25 39 35 40 36 41 37 42 38 43
REMARK SMILES IDX 39 45 40 46 41 47 102 48 42 49 101 50 43 51 44 52 45 53
REMARK SMILES IDX 95 54 46 55 100 56 94 57 96 58 47 59 99 60 93 61 92 62 48 64
REMARK SMILES IDX 80 65 60 66 79 67 61 68 64 69 78 70 97 71 62 72 63 73 77 75
REMARK SMILES IDX 98 76 65 77 49 78 50 79 58 80 51 81 57 82 59 83 56 84 52 85
REMARK SMILES IDX 53 86 54 87 55 88 81 89 82 90 90 91 83 92 89 93 91 94 88 95
REMARK SMILES IDX 84 96 85 97 86 98 87 99 66 100 67 101 75 102 68 103 74 104
REMARK SMILES IDX 76 105 73 106 69 107 70 108 71 109 72 110
REMARK H PARENT 32 6 18 11 37 44 96 63 64 74
REMARK Flexibility Score: inf
ROOT
ATOM      1  C   UNL A   1      33.710  29.183  26.520  1.00  0.00     0.023 C 
ENDROOT
BRANCH   1   2
ATOM      2  C   UNL A   1      31.718  28.259  26.908  1.00  0.00     0.116 C 
BRANCH   2   3
ATOM      3  N   UNL A   1      31.353  26.496  26.670  1.00  0.00    -0.354 N 
ATOM      4  C   UNL A   1      30.176  25.841  26.136  1.00  0.00     0.242 C 
ATOM      5  O   UNL A   1      29.732  24.867  26.757  1.00  0.00    -0.273 OA
ATOM      6  H   UNL A   1      32.072  25.884  26.949  1.00  0.00     0.163 HD
BRANCH   4   7
ATOM      7  C   UNL A   1      29.571  26.235  24.645  1.00  0.00     0.175 C 
BRANCH   7   8
ATOM      8  N   UNL A   1      30.202  24.951  23.989  1.00  0.00    -0.344 N 
ATOM      9  C   UNL A   1      31.283  24.274  23.610  1.00  0.00     0.221 C 
ATOM     10  O   UNL A   1      31.086  23.106  23.240  1.00  0.00    -0.275 OA
ATOM     11  H   UNL A   1      29.438  24.380  23.746  1.00  0.00     0.164 HD
BRANCH   9  12
ATOM     12  C   UNL A   1      32.695  24.754  23.612  1.00  0.00     0.116 C 
BRANCH  12  13
ATOM     13  C   UNL A   1      33.710  23.887  24.308  1.00  0.00     0.116 C 
ATOM     14  C   UNL A   1      41.209  21.445  27.196  1.00  0.00     0.088 C 
ATOM     15  C   UNL A   1      40.014  22.123  26.669  1.00  0.00     0.105 A 
ATOM     16  O   UNL A   1      39.267  21.362  25.828  1.00  0.00    -0.461 OA
ATOM     17  C   UNL A   1      39.407  23.348  26.891  1.00  0.00    -0.002 A 
ATOM     18  C   UNL A   1      38.135  22.056  25.574  1.00  0.00     0.138 A 
ATOM     19  C   UNL A   1      38.202  23.322  26.135  1.00  0.00     0.024 A 
ATOM     20  C   UNL A   1      39.805  24.433  27.817  1.00  0.00     0.049 C 
ATOM     21  C   UNL A   1      37.041  21.544  24.912  1.00  0.00     0.095 A 
ATOM     22  C   UNL A   1      37.142  24.223  25.934  1.00  0.00     0.020 A 
ATOM     23  C   UNL A   1      35.949  22.398  24.870  1.00  0.00     0.138 A 
ATOM     24  C   UNL A   1      35.987  23.749  25.307  1.00  0.00    -0.001 A 
ATOM     25  O   UNL A   1      34.796  21.830  24.342  1.00  0.00    -0.426 OA
ATOM     26  C   UNL A   1      34.851  24.699  24.942  1.00  0.00     0.035 C 
ATOM     27  C   UNL A   1      34.414  22.825  23.498  1.00  0.00     0.315 C 
ATOM     28  C   UNL A   1      34.344  25.558  26.103  1.00  0.00     0.014 C 
ATOM     29  O   UNL A   1      34.894  22.920  22.386  1.00  0.00    -0.251 OA
ENDBRANCH  12  13
ENDBRANCH   9  12
ENDBRANCH   7   8
BRANCH   7  30
ATOM     30  C   UNL A   1      29.742  27.948  23.982  1.00  0.00     0.068 C 
BRANCH  30  31
ATOM     31  C   UNL A   1      28.687  28.480  22.560  1.00  0.00    -0.037 C 
ATOM     32  C   UNL A   1      28.135  29.743  22.336  1.00  0.00     0.001 A 
ATOM     33  C   UNL A   1      29.802  28.629  21.714  1.00  0.00     0.174 C 
ATOM     34  C   UNL A   1      28.230  31.084  21.015  1.00  0.00     0.010 A 
ATOM     35  C   UNL A   1      29.071  30.199  23.502  1.00  0.00     0.065 A 
ATOM     36  N   UNL A   1      30.168  29.651  22.697  1.00  0.00    -0.280 NA
ATOM     37  C   UNL A   1      28.523  32.672  21.357  1.00  0.00     0.001 A 
ATOM     38  C   UNL A   1      29.106  32.026  24.288  1.00  0.00     0.028 A 
ATOM     39  C   UNL A   1      28.962  33.226  23.204  1.00  0.00     0.002 A 
ENDBRANCH  30  31
ENDBRANCH   7  30
ENDBRANCH   4   7
ENDBRANCH   2   3
ENDBRANCH   1   2
BRANCH   1  40
ATOM     40  C   UNL A   1      34.501  30.546  27.418  1.00  0.00     0.023 C 
BRANCH  40  41
ATOM     41  C   UNL A   1      35.870  30.477  28.184  1.00  0.00     0.116 C 
BRANCH  41  42
ATOM     42  N   UNL A   1      35.986  29.601  29.354  1.00  0.00    -0.352 N 
ATOM     43  C   UNL A   1      37.134  29.292  30.045  1.00  0.00     0.251 C 
ATOM     44  H   UNL A   1      35.153  29.190  29.679  1.00  0.00     0.163 HD
ATOM     45  O   UNL A   1      37.123  28.837  31.177  1.00  0.00    -0.269 OA
BRANCH  43  46
ATOM     46  C   UNL A   1      38.358  29.491  29.271  1.00  0.00     0.039 A 
ATOM     47  C   UNL A   1      38.590  28.592  28.225  1.00  0.00     0.014 A 
ATOM     48  C   UNL A   1      39.387  30.093  30.002  1.00  0.00     0.014 A 
ATOM     49  C   UNL A   1      39.878  28.115  28.075  1.00  0.00     0.010 A 
ATOM     50  C   UNL A   1      40.682  29.665  29.789  1.00  0.00     0.010 A 
ATOM     51  C   UNL A   1      40.911  28.627  28.878  1.00  0.00    -0.014 A 
BRANCH  51  52
ATOM     52  C   UNL A   1      42.252  28.238  28.439  1.00  0.00     0.031 A 
ATOM     53  C   UNL A   1      43.078  29.491  28.506  1.00  0.00     0.074 A 
ATOM     54  C   UNL A   1      42.811  27.026  28.626  1.00  0.00     0.049 A 
ATOM     55  N   UNL A   1      43.447  29.967  29.659  1.00  0.00    -0.248 NA
ATOM     56  C   UNL A   1      43.058  30.491  27.436  1.00  0.00     0.031 C 
ATOM     57  C   UNL A   1      42.563  26.126  29.759  1.00  0.00     0.029 A 
ATOM     58  N   UNL A   1      43.867  26.449  27.957  1.00  0.00    -0.354 N 
ATOM     59  C   UNL A   1      43.628  31.328  29.504  1.00  0.00     0.074 A 
ATOM     60  C   UNL A   1      43.379  31.608  28.109  1.00  0.00     0.031 C 
ATOM     61  C   UNL A   1      43.589  25.252  29.841  1.00  0.00     0.029 A 
ATOM     62  C   UNL A   1      44.489  25.450  28.705  1.00  0.00     0.049 A 
ATOM     63  H   UNL A   1      44.152  26.713  27.053  1.00  0.00     0.167 HD
ATOM     64  C   UNL A   1      43.949  32.142  30.547  1.00  0.00     0.034 A 
ATOM     65  C   UNL A   1      45.845  25.304  28.728  1.00  0.00     0.034 A 
ATOM     66  C   UNL A   1      44.110  31.474  31.807  1.00  0.00     0.049 A 
ATOM     67  C   UNL A   1      46.223  26.438  29.667  1.00  0.00     0.074 A 
ATOM     68  C   UNL A   1      43.436  31.358  33.001  1.00  0.00     0.029 A 
ATOM     69  N   UNL A   1      45.204  30.649  31.944  1.00  0.00    -0.354 N 
ATOM     70  N   UNL A   1      46.082  26.452  30.970  1.00  0.00    -0.248 NA
ATOM     71  C   UNL A   1      46.430  27.760  29.074  1.00  0.00     0.031 C 
ATOM     72  C   UNL A   1      43.923  30.150  33.599  1.00  0.00     0.029 A 
ATOM     73  C   UNL A   1      44.832  29.573  32.710  1.00  0.00     0.049 A 
ATOM     74  H   UNL A   1      46.096  30.803  31.559  1.00  0.00     0.167 HD
ATOM     75  C   UNL A   1      45.895  27.798  31.317  1.00  0.00     0.074 A 
ATOM     76  C   UNL A   1      46.175  28.545  30.111  1.00  0.00     0.031 C 
ATOM     77  C   UNL A   1      45.348  28.229  32.496  1.00  0.00     0.034 A 
BRANCH  64  78
ATOM     78  C   UNL A   1      44.411  33.536  30.378  1.00  0.00     0.023 A 
ATOM     79  C   UNL A   1      45.724  33.924  30.080  1.00  0.00     0.031 A 
ATOM     80  C   UNL A   1      43.399  34.516  30.392  1.00  0.00     0.131 A 
ATOM     81  C   UNL A   1      45.977  35.276  29.781  1.00  0.00     0.055 A 
ATOM     82  C   UNL A   1      43.652  35.844  30.076  1.00  0.00     0.041 A 
ATOM     83  F   UNL A   1      42.132  34.174  30.687  1.00  0.00    -0.206 F 
ATOM     84  C   UNL A   1      44.947  36.228  29.761  1.00  0.00     0.022 A 
BRANCH  81  85
ATOM     85  S   UNL A   1      47.642  35.880  29.379  1.00  0.00     0.124 S 
ATOM     86  O   UNL A   1      47.410  36.637  28.152  1.00  0.00    -0.237 OA
ATOM     87  O   UNL A   1      47.961  36.686  30.556  1.00  0.00    -0.237 OA
ATOM     88  O   UNL A   1      48.430  34.662  29.228  1.00  0.00    -0.744 OA
ENDBRANCH  81  85
ENDBRANCH  64  78
BRANCH  65  89
ATOM     89  C   UNL A   1      46.438  25.084  27.360  1.00  0.00     0.023 A 
ATOM     90  C   UNL A   1      47.135  26.044  26.612  1.00  0.00     0.031 A 
ATOM     91  C   UNL A   1      46.185  23.847  26.719  1.00  0.00     0.131 A 
ATOM     92  C   UNL A   1      47.360  25.843  25.239  1.00  0.00     0.055 A 
ATOM     93  C   UNL A   1      46.471  23.623  25.369  1.00  0.00     0.041 A 
ATOM     94  F   UNL A   1      45.611  22.838  27.395  1.00  0.00    -0.206 F 
ATOM     95  C   UNL A   1      47.025  24.643  24.610  1.00  0.00     0.022 A 
BRANCH  92  96
ATOM     96  S   UNL A   1      47.985  27.194  24.200  1.00  0.00     0.124 S 
ATOM     97  O   UNL A   1      48.890  26.495  23.294  1.00  0.00    -0.237 OA
ATOM     98  O   UNL A   1      46.748  27.691  23.603  1.00  0.00    -0.237 OA
ATOM     99  O   UNL A   1      48.622  28.089  25.160  1.00  0.00    -0.744 OA
ENDBRANCH  92  96
ENDBRANCH  65  89
BRANCH  77 100
ATOM    100  C   UNL A   1      45.111  27.197  33.558  1.00  0.00     0.023 A 
ATOM    101  C   UNL A   1      43.808  26.760  33.870  1.00  0.00     0.031 A 
ATOM    102  C   UNL A   1      46.167  26.772  34.378  1.00  0.00     0.131 A 
ATOM    103  C   UNL A   1      43.582  26.010  35.030  1.00  0.00     0.055 A 
ATOM    104  C   UNL A   1      45.945  25.965  35.493  1.00  0.00     0.041 A 
ATOM    105  F   UNL A   1      47.424  27.190  34.149  1.00  0.00    -0.206 F 
ATOM    106  C   UNL A   1      44.646  25.599  35.837  1.00  0.00     0.022 A 
BRANCH 103 107
ATOM    107  S   UNL A   1      41.895  25.634  35.584  1.00  0.00     0.124 S 
ATOM    108  O   UNL A   1      41.084  26.545  34.778  1.00  0.00    -0.237 OA
ATOM    109  O   UNL A   1      41.772  24.221  35.236  1.00  0.00    -0.237 OA
ATOM    110  O   UNL A   1      41.918  25.929  37.014  1.00  0.00    -0.744 OA
ENDBRANCH 103 107
ENDBRANCH  77 100
ENDBRANCH  51  52
ENDBRANCH  43  46
ENDBRANCH  41  42
ENDBRANCH  40  41
ENDBRANCH   1  40
TORSDOF 19
ENDMDL
