MODEL 1
REMARK VINA RESULT:     -10.9      0.000      0.000
REMARK SMILES NC(=O)CC[C@H](NC(=O)N[C@H]1CCOC1)C(=O)NCCCCNC(=O)c1ccc(-c2c3nc(c(-c4cc(S(=O)(=O)[O-])ccc4F)c4ccc([nH]4)c(-c4cc(S(=O)(=O)[O-])ccc4F)c4nc(c(-c5cc(S(=O)(=O)[O-])ccc5F)c5ccc2[nH]5)C=C4)C=C3)cc1
REMARK SMILES IDX 20 1 19 2 18 3 16 4 17 5 6 7 5 8 4 9 2 10 1 11 3 14 7 15
REMARK SMILES IDX 8 16 9 18 10 19 11 21 12 22 15 23 13 24 14 25 21 26 22 27
REMARK SMILES IDX 23 28 24 29 25 31 26 32 27 33 88 34 28 35 87 36 29 37 30 38
REMARK SMILES IDX 31 39 81 40 32 41 86 42 80 43 82 44 33 45 85 46 79 47 78 48
REMARK SMILES IDX 34 50 66 51 46 52 65 53 47 54 50 55 64 56 83 57 48 58 49 59
REMARK SMILES IDX 63 61 84 62 51 63 35 64 36 65 44 66 37 67 43 68 45 69 42 70
REMARK SMILES IDX 38 71 39 72 40 73 41 74 67 75 68 76 76 77 69 78 75 79 77 80
REMARK SMILES IDX 74 81 70 82 71 83 72 84 73 85 52 86 53 87 61 88 54 89 60 90
REMARK SMILES IDX 62 91 59 92 55 93 56 94 57 95 58 96
REMARK H PARENT 18 6 1 12 1 13 7 17 10 20 23 30 82 49 50 60
REMARK Flexibility Score: inf
ROOT
ATOM      1  C   UNL A   1      35.872  23.115  26.129  1.00  0.00     0.023 C 
ENDROOT
BRANCH   1   2
ATOM      2  C   UNL A   1      35.227  24.089  25.152  1.00  0.00     0.116 C 
BRANCH   2   3
ATOM      3  N   UNL A   1      34.487  25.087  25.882  1.00  0.00    -0.354 N 
ATOM      4  C   UNL A   1      33.282  25.642  25.660  1.00  0.00     0.242 C 
ATOM      5  O   UNL A   1      33.035  26.648  26.330  1.00  0.00    -0.273 OA
ATOM      6  H   UNL A   1      34.946  25.423  26.687  1.00  0.00     0.163 HD
BRANCH   4   7
ATOM      7  C   UNL A   1      32.214  24.968  24.799  1.00  0.00     0.173 C 
BRANCH   7   8
ATOM      8  C   UNL A   1      31.693  25.890  23.675  1.00  0.00     0.045 C 
BRANCH   8   9
ATOM      9  C   UNL A   1      32.718  26.292  22.607  1.00  0.00     0.102 C 
BRANCH   9  10
ATOM     10  C   UNL A   1      32.760  25.339  21.434  1.00  0.00     0.217 C 
ATOM     11  N   UNL A   1      32.156  25.764  20.294  1.00  0.00    -0.370 N 
ATOM     12  H   UNL A   1      32.150  25.187  19.495  1.00  0.00     0.159 HD
ATOM     13  H   UNL A   1      31.723  26.648  20.266  1.00  0.00     0.159 HD
ATOM     14  O   UNL A   1      33.335  24.258  21.484  1.00  0.00    -0.275 OA
ENDBRANCH   9  10
ENDBRANCH   8   9
ENDBRANCH   7   8
BRANCH   7  15
ATOM     15  N   UNL A   1      31.135  24.456  25.624  1.00  0.00    -0.326 N 
ATOM     16  C   UNL A   1      31.002  23.330  26.318  1.00  0.00     0.315 C 
ATOM     17  H   UNL A   1      30.356  25.055  25.680  1.00  0.00     0.166 HD
ATOM     18  O   UNL A   1      30.147  23.332  27.210  1.00  0.00    -0.249 OA
ATOM     19  N   UNL A   1      31.698  22.210  26.159  1.00  0.00    -0.333 N 
ATOM     20  H   UNL A   1      31.578  21.639  26.952  1.00  0.00     0.165 HD
BRANCH  19  21
ATOM     21  C   UNL A   1      32.585  21.532  25.208  1.00  0.00     0.112 C 
ATOM     22  C   UNL A   1      33.088  20.146  25.532  1.00  0.00     0.056 C 
ATOM     23  C   UNL A   1      32.146  21.494  23.754  1.00  0.00     0.185 C 
ATOM     24  C   UNL A   1      32.749  19.304  24.314  1.00  0.00     0.162 C 
ATOM     25  O   UNL A   1      32.209  20.142  23.296  1.00  0.00    -0.379 OA
ENDBRANCH  19  21
ENDBRANCH   7  15
ENDBRANCH   4   7
ENDBRANCH   2   3
ENDBRANCH   1   2
BRANCH   1  26
ATOM     26  C   UNL A   1      36.482  21.867  25.475  1.00  0.00     0.023 C 
BRANCH  26  27
ATOM     27  C   UNL A   1      37.979  21.928  25.194  1.00  0.00     0.116 C 
BRANCH  27  28
ATOM     28  N   UNL A   1      38.722  20.866  25.842  1.00  0.00    -0.352 N 
ATOM     29  C   UNL A   1      39.832  20.967  26.636  1.00  0.00     0.251 C 
ATOM     30  H   UNL A   1      38.384  19.954  25.692  1.00  0.00     0.163 HD
ATOM     31  O   UNL A   1      40.389  19.949  27.040  1.00  0.00    -0.269 OA
BRANCH  29  32
ATOM     32  C   UNL A   1      40.374  22.303  26.947  1.00  0.00     0.039 A 
ATOM     33  C   UNL A   1      39.935  23.385  26.185  1.00  0.00     0.014 A 
ATOM     34  C   UNL A   1      41.272  22.490  28.004  1.00  0.00     0.014 A 
ATOM     35  C   UNL A   1      40.372  24.668  26.504  1.00  0.00     0.010 A 
ATOM     36  C   UNL A   1      41.644  23.780  28.368  1.00  0.00     0.010 A 
ATOM     37  C   UNL A   1      41.211  24.879  27.610  1.00  0.00    -0.014 A 
BRANCH  37  38
ATOM     38  C   UNL A   1      41.684  26.245  27.946  1.00  0.00     0.031 A 
ATOM     39  C   UNL A   1      43.057  26.683  27.517  1.00  0.00     0.074 A 
ATOM     40  C   UNL A   1      40.884  27.078  28.642  1.00  0.00     0.049 A 
ATOM     41  N   UNL A   1      43.666  27.822  27.726  1.00  0.00    -0.248 NA
ATOM     42  C   UNL A   1      43.863  25.699  26.779  1.00  0.00     0.031 C 
ATOM     43  C   UNL A   1      39.545  26.746  29.134  1.00  0.00     0.029 A 
ATOM     44  N   UNL A   1      41.074  28.373  29.050  1.00  0.00    -0.354 N 
ATOM     45  C   UNL A   1      44.925  27.690  27.149  1.00  0.00     0.074 A 
ATOM     46  C   UNL A   1      45.019  26.332  26.655  1.00  0.00     0.031 C 
ATOM     47  C   UNL A   1      39.020  27.823  29.740  1.00  0.00     0.029 A 
ATOM     48  C   UNL A   1      40.000  28.905  29.724  1.00  0.00     0.049 A 
ATOM     49  H   UNL A   1      41.903  28.876  28.875  1.00  0.00     0.167 HD
ATOM     50  C   UNL A   1      45.899  28.622  27.013  1.00  0.00     0.034 A 
ATOM     51  C   UNL A   1      39.829  30.126  30.267  1.00  0.00     0.034 A 
ATOM     52  C   UNL A   1      45.781  29.972  27.507  1.00  0.00     0.049 A 
ATOM     53  C   UNL A   1      40.943  31.137  30.137  1.00  0.00     0.074 A 
ATOM     54  C   UNL A   1      46.692  31.009  27.409  1.00  0.00     0.029 A 
ATOM     55  N   UNL A   1      44.683  30.472  28.196  1.00  0.00    -0.354 N 
ATOM     56  N   UNL A   1      42.115  31.006  29.556  1.00  0.00    -0.248 NA
ATOM     57  C   UNL A   1      40.704  32.462  30.719  1.00  0.00     0.031 C 
ATOM     58  C   UNL A   1      46.175  32.113  28.097  1.00  0.00     0.029 A 
ATOM     59  C   UNL A   1      44.904  31.795  28.549  1.00  0.00     0.049 A 
ATOM     60  H   UNL A   1      43.867  29.963  28.404  1.00  0.00     0.167 HD
ATOM     61  C   UNL A   1      42.732  32.250  29.668  1.00  0.00     0.074 A 
ATOM     62  C   UNL A   1      41.797  33.115  30.356  1.00  0.00     0.031 C 
ATOM     63  C   UNL A   1      43.958  32.644  29.235  1.00  0.00     0.034 A 
BRANCH  50  64
ATOM     64  C   UNL A   1      47.175  28.198  26.324  1.00  0.00     0.023 A 
ATOM     65  C   UNL A   1      47.326  28.295  24.929  1.00  0.00     0.031 A 
ATOM     66  C   UNL A   1      48.241  27.656  27.062  1.00  0.00     0.131 A 
ATOM     67  C   UNL A   1      48.476  27.784  24.310  1.00  0.00     0.055 A 
ATOM     68  C   UNL A   1      49.421  27.233  26.449  1.00  0.00     0.041 A 
ATOM     69  F   UNL A   1      48.149  27.514  28.394  1.00  0.00    -0.206 F 
ATOM     70  C   UNL A   1      49.538  27.279  25.063  1.00  0.00     0.022 A 
BRANCH  67  71
ATOM     71  S   UNL A   1      48.496  27.646  22.502  1.00  0.00     0.124 S 
ATOM     72  O   UNL A   1      47.210  28.242  22.147  1.00  0.00    -0.237 OA
ATOM     73  O   UNL A   1      49.680  28.417  22.139  1.00  0.00    -0.237 OA
ATOM     74  O   UNL A   1      48.593  26.207  22.269  1.00  0.00    -0.744 OA
ENDBRANCH  67  71
ENDBRANCH  50  64
BRANCH  51  75
ATOM     75  C   UNL A   1      38.565  30.475  30.979  1.00  0.00     0.023 A 
ATOM     76  C   UNL A   1      37.527  31.154  30.320  1.00  0.00     0.031 A 
ATOM     77  C   UNL A   1      38.397  30.186  32.345  1.00  0.00     0.131 A 
ATOM     78  C   UNL A   1      36.399  31.579  31.039  1.00  0.00     0.055 A 
ATOM     79  C   UNL A   1      37.244  30.554  33.042  1.00  0.00     0.041 A 
ATOM     80  F   UNL A   1      39.353  29.534  33.024  1.00  0.00    -0.206 F 
ATOM     81  C   UNL A   1      36.244  31.272  32.392  1.00  0.00     0.022 A 
BRANCH  78  82
ATOM     82  S   UNL A   1      35.186  32.638  30.204  1.00  0.00     0.124 S 
ATOM     83  O   UNL A   1      35.989  33.812  29.884  1.00  0.00    -0.237 OA
ATOM     84  O   UNL A   1      34.785  31.805  29.074  1.00  0.00    -0.237 OA
ATOM     85  O   UNL A   1      34.157  32.843  31.221  1.00  0.00    -0.744 OA
ENDBRANCH  78  82
ENDBRANCH  51  75
BRANCH  63  86
ATOM     86  C   UNL A   1      44.323  34.096  29.438  1.00  0.00     0.023 A 
ATOM     87  C   UNL A   1      43.929  35.098  28.536  1.00  0.00     0.031 A 
ATOM     88  C   UNL A   1      45.098  34.474  30.549  1.00  0.00     0.131 A 
ATOM     89  C   UNL A   1      44.368  36.417  28.721  1.00  0.00     0.055 A 
ATOM     90  C   UNL A   1      45.472  35.801  30.768  1.00  0.00     0.041 A 
ATOM     91  F   UNL A   1      45.506  33.560  31.443  1.00  0.00    -0.206 F 
ATOM     92  C   UNL A   1      45.121  36.778  29.841  1.00  0.00     0.022 A 
BRANCH  89  93
ATOM     93  S   UNL A   1      44.039  37.634  27.417  1.00  0.00     0.124 S 
ATOM     94  O   UNL A   1      42.831  37.098  26.799  1.00  0.00    -0.237 OA
ATOM     95  O   UNL A   1      43.872  38.868  28.178  1.00  0.00    -0.237 OA
ATOM     96  O   UNL A   1      45.239  37.576  26.584  1.00  0.00    -0.744 OA
ENDBRANCH  89  93
ENDBRANCH  63  86
ENDBRANCH  37  38
ENDBRANCH  29  32
ENDBRANCH  27  28
ENDBRANCH  26  27
ENDBRANCH   1  26
TORSDOF 19
ENDMDL
MODEL 2
REMARK VINA RESULT:     -10.9      4.778      9.587
REMARK SMILES NC(=O)CC[C@H](NC(=O)N[C@H]1CCOC1)C(=O)NCCCCNC(=O)c1ccc(-c2c3nc(c(-c4cc(S(=O)(=O)[O-])ccc4F)c4ccc([nH]4)c(-c4cc(S(=O)(=O)[O-])ccc4F)c4nc(c(-c5cc(S(=O)(=O)[O-])ccc5F)c5ccc2[nH]5)C=C4)C=C3)cc1
REMARK SMILES IDX 20 1 19 2 18 3 16 4 17 5 6 7 5 8 4 9 2 10 1 11 3 14 7 15
REMARK SMILES IDX 8 16 9 18 10 19 11 21 12 22 15 23 13 24 14 25 21 26 22 27
REMARK SMILES IDX 23 28 24 29 25 31 26 32 27 33 88 34 28 35 87 36 29 37 30 38
REMARK SMILES IDX 31 39 81 40 32 41 86 42 80 43 82 44 33 45 85 46 79 47 78 48
REMARK SMILES IDX 34 50 66 51 46 52 65 53 47 54 50 55 64 56 83 57 48 58 49 59
REMARK SMILES IDX 63 61 84 62 51 63 35 64 36 65 44 66 37 67 43 68 45 69 42 70
REMARK SMILES IDX 38 71 39 72 40 73 41 74 67 75 68 76 76 77 69 78 75 79 77 80
REMARK SMILES IDX 74 81 70 82 71 83 72 84 73 85 52 86 53 87 61 88 54 89 60 90
REMARK SMILES IDX 62 91 59 92 55 93 56 94 57 95 58 96
REMARK H PARENT 18 6 1 12 1 13 7 17 10 20 23 30 82 49 50 60
REMARK Flexibility Score: inf
ROOT
ATOM      1  C   UNL A   1      33.881  26.464  25.634  1.00  0.00     0.023 C 
ENDROOT
BRANCH   1   2
ATOM      2  C   UNL A   1      32.582  25.732  25.322  1.00  0.00     0.116 C 
BRANCH   2   3
ATOM      3  N   UNL A   1      32.199  24.925  26.452  1.00  0.00    -0.354 N 
ATOM      4  C   UNL A   1      32.328  23.607  26.691  1.00  0.00     0.242 C 
ATOM      5  O   UNL A   1      31.676  23.180  27.646  1.00  0.00    -0.273 OA
ATOM      6  H   UNL A   1      31.765  25.428  27.180  1.00  0.00     0.163 HD
BRANCH   4   7
ATOM      7  C   UNL A   1      33.359  22.740  25.968  1.00  0.00     0.173 C 
BRANCH   7   8
ATOM      8  C   UNL A   1      34.795  22.977  26.483  1.00  0.00     0.045 C 
BRANCH   8   9
ATOM      9  C   UNL A   1      35.794  23.528  25.456  1.00  0.00     0.102 C 
BRANCH   9  10
ATOM     10  C   UNL A   1      36.861  22.528  25.070  1.00  0.00     0.217 C 
ATOM     11  N   UNL A   1      37.672  22.099  26.073  1.00  0.00    -0.370 N 
ATOM     12  H   UNL A   1      38.386  21.448  25.883  1.00  0.00     0.159 HD
ATOM     13  H   UNL A   1      37.546  22.440  26.988  1.00  0.00     0.159 HD
ATOM     14  O   UNL A   1      36.975  22.094  23.930  1.00  0.00    -0.275 OA
ENDBRANCH   9  10
ENDBRANCH   8   9
ENDBRANCH   7   8
BRANCH   7  15
ATOM     15  N   UNL A   1      33.263  22.918  24.530  1.00  0.00    -0.326 N 
ATOM     16  C   UNL A   1      32.795  22.131  23.565  1.00  0.00     0.315 C 
ATOM     17  H   UNL A   1      33.608  23.782  24.210  1.00  0.00     0.166 HD
ATOM     18  O   UNL A   1      32.502  22.683  22.500  1.00  0.00    -0.249 OA
ATOM     19  N   UNL A   1      32.603  20.818  23.632  1.00  0.00    -0.333 N 
ATOM     20  H   UNL A   1      32.022  20.538  22.887  1.00  0.00     0.165 HD
BRANCH  19  21
ATOM     21  C   UNL A   1      32.958  19.642  24.433  1.00  0.00     0.112 C 
ATOM     22  C   UNL A   1      32.415  18.291  24.037  1.00  0.00     0.056 C 
ATOM     23  C   UNL A   1      34.431  19.433  24.745  1.00  0.00     0.185 C 
ATOM     24  C   UNL A   1      33.630  17.383  23.949  1.00  0.00     0.162 C 
ATOM     25  O   UNL A   1      34.785  18.096  24.385  1.00  0.00    -0.379 OA
ENDBRANCH  19  21
ENDBRANCH   7  15
ENDBRANCH   4   7
ENDBRANCH   2   3
ENDBRANCH   1   2
BRANCH   1  26
ATOM     26  C   UNL A   1      33.725  27.978  25.840  1.00  0.00     0.023 C 
BRANCH  26  27
ATOM     27  C   UNL A   1      33.565  28.438  27.285  1.00  0.00     0.116 C 
BRANCH  27  28
ATOM     28  N   UNL A   1      33.361  29.868  27.406  1.00  0.00    -0.352 N 
ATOM     29  C   UNL A   1      34.226  30.813  27.889  1.00  0.00     0.251 C 
ATOM     30  H   UNL A   1      32.488  30.203  27.099  1.00  0.00     0.163 HD
ATOM     31  O   UNL A   1      33.857  31.979  27.998  1.00  0.00    -0.269 OA
BRANCH  29  32
ATOM     32  C   UNL A   1      35.572  30.399  28.324  1.00  0.00     0.039 A 
ATOM     33  C   UNL A   1      35.713  29.857  29.601  1.00  0.00     0.014 A 
ATOM     34  C   UNL A   1      36.674  30.506  27.467  1.00  0.00     0.014 A 
ATOM     35  C   UNL A   1      36.959  29.388  30.011  1.00  0.00     0.010 A 
ATOM     36  C   UNL A   1      37.897  29.966  27.851  1.00  0.00     0.010 A 
ATOM     37  C   UNL A   1      38.055  29.418  29.133  1.00  0.00    -0.014 A 
BRANCH  37  38
ATOM     38  C   UNL A   1      39.384  28.926  29.573  1.00  0.00     0.031 A 
ATOM     39  C   UNL A   1      40.098  29.620  30.701  1.00  0.00     0.074 A 
ATOM     40  C   UNL A   1      39.946  27.871  28.951  1.00  0.00     0.049 A 
ATOM     41  N   UNL A   1      41.269  29.362  31.223  1.00  0.00    -0.248 NA
ATOM     42  C   UNL A   1      39.413  30.773  31.304  1.00  0.00     0.031 C 
ATOM     43  C   UNL A   1      39.356  27.142  27.826  1.00  0.00     0.029 A 
ATOM     44  N   UNL A   1      41.133  27.222  29.179  1.00  0.00    -0.354 N 
ATOM     45  C   UNL A   1      41.463  30.322  32.210  1.00  0.00     0.074 A 
ATOM     46  C   UNL A   1      40.324  31.213  32.158  1.00  0.00     0.031 C 
ATOM     47  C   UNL A   1      40.164  26.123  27.490  1.00  0.00     0.029 A 
ATOM     48  C   UNL A   1      41.350  26.153  28.341  1.00  0.00     0.049 A 
ATOM     49  H   UNL A   1      41.770  27.496  29.878  1.00  0.00     0.167 HD
ATOM     50  C   UNL A   1      42.479  30.431  33.101  1.00  0.00     0.034 A 
ATOM     51  C   UNL A   1      42.389  25.298  28.268  1.00  0.00     0.034 A 
ATOM     52  C   UNL A   1      43.602  29.525  33.140  1.00  0.00     0.049 A 
ATOM     53  C   UNL A   1      43.527  25.462  29.246  1.00  0.00     0.074 A 
ATOM     54  C   UNL A   1      44.678  29.523  34.010  1.00  0.00     0.029 A 
ATOM     55  N   UNL A   1      43.794  28.461  32.267  1.00  0.00    -0.354 N 
ATOM     56  N   UNL A   1      43.679  26.355  30.199  1.00  0.00    -0.248 NA
ATOM     57  C   UNL A   1      44.626  24.493  29.150  1.00  0.00     0.031 C 
ATOM     58  C   UNL A   1      45.553  28.502  33.621  1.00  0.00     0.029 A 
ATOM     59  C   UNL A   1      44.982  27.811  32.564  1.00  0.00     0.049 A 
ATOM     60  H   UNL A   1      43.178  28.205  31.544  1.00  0.00     0.167 HD
ATOM     61  C   UNL A   1      44.869  26.024  30.842  1.00  0.00     0.074 A 
ATOM     62  C   UNL A   1      45.384  24.844  30.177  1.00  0.00     0.031 C 
ATOM     63  C   UNL A   1      45.479  26.634  31.891  1.00  0.00     0.034 A 
BRANCH  50  64
ATOM     64  C   UNL A   1      42.423  31.578  34.081  1.00  0.00     0.023 A 
ATOM     65  C   UNL A   1      41.647  31.510  35.253  1.00  0.00     0.031 A 
ATOM     66  C   UNL A   1      43.123  32.770  33.828  1.00  0.00     0.131 A 
ATOM     67  C   UNL A   1      41.525  32.635  36.080  1.00  0.00     0.055 A 
ATOM     68  C   UNL A   1      43.070  33.856  34.704  1.00  0.00     0.041 A 
ATOM     69  F   UNL A   1      43.861  32.907  32.716  1.00  0.00    -0.206 F 
ATOM     70  C   UNL A   1      42.253  33.800  35.829  1.00  0.00     0.022 A 
BRANCH  67  71
ATOM     71  S   UNL A   1      40.280  32.608  37.399  1.00  0.00     0.124 S 
ATOM     72  O   UNL A   1      39.372  31.566  36.925  1.00  0.00    -0.237 OA
ATOM     73  O   UNL A   1      41.073  32.275  38.577  1.00  0.00    -0.237 OA
ATOM     74  O   UNL A   1      39.729  33.961  37.379  1.00  0.00    -0.744 OA
ENDBRANCH  67  71
ENDBRANCH  50  64
BRANCH  51  75
ATOM     75  C   UNL A   1      42.412  24.211  27.247  1.00  0.00     0.023 A 
ATOM     76  C   UNL A   1      41.741  22.997  27.467  1.00  0.00     0.031 A 
ATOM     77  C   UNL A   1      43.155  24.344  26.061  1.00  0.00     0.131 A 
ATOM     78  C   UNL A   1      41.878  21.944  26.550  1.00  0.00     0.055 A 
ATOM     79  C   UNL A   1      43.236  23.316  25.119  1.00  0.00     0.041 A 
ATOM     80  F   UNL A   1      43.813  25.484  25.795  1.00  0.00    -0.206 F 
ATOM     81  C   UNL A   1      42.608  22.100  25.370  1.00  0.00     0.022 A 
BRANCH  78  82
ATOM     82  S   UNL A   1      41.174  20.326  26.974  1.00  0.00     0.124 S 
ATOM     83  O   UNL A   1      42.308  19.441  26.740  1.00  0.00    -0.237 OA
ATOM     84  O   UNL A   1      40.787  20.522  28.368  1.00  0.00    -0.237 OA
ATOM     85  O   UNL A   1      40.064  20.182  26.035  1.00  0.00    -0.744 OA
ENDBRANCH  78  82
ENDBRANCH  51  75
BRANCH  63  86
ATOM     86  C   UNL A   1      46.739  25.990  32.421  1.00  0.00     0.023 A 
ATOM     87  C   UNL A   1      46.711  25.033  33.449  1.00  0.00     0.031 A 
ATOM     88  C   UNL A   1      47.990  26.360  31.896  1.00  0.00     0.131 A 
ATOM     89  C   UNL A   1      47.913  24.530  33.968  1.00  0.00     0.055 A 
ATOM     90  C   UNL A   1      49.180  25.802  32.367  1.00  0.00     0.041 A 
ATOM     91  F   UNL A   1      48.078  27.272  30.914  1.00  0.00    -0.206 F 
ATOM     92  C   UNL A   1      49.146  24.894  33.421  1.00  0.00     0.022 A 
BRANCH  89  93
ATOM     93  S   UNL A   1      47.851  23.480  35.446  1.00  0.00     0.124 S 
ATOM     94  O   UNL A   1      47.766  22.144  34.865  1.00  0.00    -0.237 OA
ATOM     95  O   UNL A   1      49.106  23.806  36.113  1.00  0.00    -0.237 OA
ATOM     96  O   UNL A   1      46.645  23.932  36.137  1.00  0.00    -0.744 OA
ENDBRANCH  89  93
ENDBRANCH  63  86
ENDBRANCH  37  38
ENDBRANCH  29  32
ENDBRANCH  27  28
ENDBRANCH  26  27
ENDBRANCH   1  26
TORSDOF 19
ENDMDL
MODEL 3
REMARK VINA RESULT:     -10.9      4.520      9.374
REMARK SMILES NC(=O)CC[C@H](NC(=O)N[C@H]1CCOC1)C(=O)NCCCCNC(=O)c1ccc(-c2c3nc(c(-c4cc(S(=O)(=O)[O-])ccc4F)c4ccc([nH]4)c(-c4cc(S(=O)(=O)[O-])ccc4F)c4nc(c(-c5cc(S(=O)(=O)[O-])ccc5F)c5ccc2[nH]5)C=C4)C=C3)cc1
REMARK SMILES IDX 20 1 19 2 18 3 16 4 17 5 6 7 5 8 4 9 2 10 1 11 3 14 7 15
REMARK SMILES IDX 8 16 9 18 10 19 11 21 12 22 15 23 13 24 14 25 21 26 22 27
REMARK SMILES IDX 23 28 24 29 25 31 26 32 27 33 88 34 28 35 87 36 29 37 30 38
REMARK SMILES IDX 31 39 81 40 32 41 86 42 80 43 82 44 33 45 85 46 79 47 78 48
REMARK SMILES IDX 34 50 66 51 46 52 65 53 47 54 50 55 64 56 83 57 48 58 49 59
REMARK SMILES IDX 63 61 84 62 51 63 35 64 36 65 44 66 37 67 43 68 45 69 42 70
REMARK SMILES IDX 38 71 39 72 40 73 41 74 67 75 68 76 76 77 69 78 75 79 77 80
REMARK SMILES IDX 74 81 70 82 71 83 72 84 73 85 52 86 53 87 61 88 54 89 60 90
REMARK SMILES IDX 62 91 59 92 55 93 56 94 57 95 58 96
REMARK H PARENT 18 6 1 12 1 13 7 17 10 20 23 30 82 49 50 60
REMARK Flexibility Score: inf
ROOT
ATOM      1  C   UNL A   1      33.786  26.354  25.749  1.00  0.00     0.023 C 
ENDROOT
BRANCH   1   2
ATOM      2  C   UNL A   1      32.484  25.671  25.351  1.00  0.00     0.116 C 
BRANCH   2   3
ATOM      3  N   UNL A   1      32.016  24.850  26.440  1.00  0.00    -0.354 N 
ATOM      4  C   UNL A   1      32.130  23.530  26.673  1.00  0.00     0.242 C 
ATOM      5  O   UNL A   1      31.407  23.092  27.570  1.00  0.00    -0.273 OA
ATOM      6  H   UNL A   1      31.525  25.344  27.137  1.00  0.00     0.163 HD
BRANCH   4   7
ATOM      7  C   UNL A   1      33.216  22.673  26.024  1.00  0.00     0.173 C 
BRANCH   7   8
ATOM      8  C   UNL A   1      34.579  22.805  26.739  1.00  0.00     0.045 C 
BRANCH   8   9
ATOM      9  C   UNL A   1      35.695  23.488  25.937  1.00  0.00     0.102 C 
BRANCH   9  10
ATOM     10  C   UNL A   1      36.673  22.510  25.328  1.00  0.00     0.217 C 
ATOM     11  N   UNL A   1      37.776  22.224  26.069  1.00  0.00    -0.370 N 
ATOM     12  H   UNL A   1      38.450  21.594  25.726  1.00  0.00     0.159 HD
ATOM     13  H   UNL A   1      37.901  22.649  26.949  1.00  0.00     0.159 HD
ATOM     14  O   UNL A   1      36.477  21.970  24.245  1.00  0.00    -0.275 OA
ENDBRANCH   9  10
ENDBRANCH   8   9
ENDBRANCH   7   8
BRANCH   7  15
ATOM     15  N   UNL A   1      33.319  22.962  24.605  1.00  0.00    -0.326 N 
ATOM     16  C   UNL A   1      32.933  22.285  23.528  1.00  0.00     0.315 C 
ATOM     17  H   UNL A   1      33.758  23.820  24.402  1.00  0.00     0.166 HD
ATOM     18  O   UNL A   1      32.816  22.933  22.483  1.00  0.00    -0.249 OA
ATOM     19  N   UNL A   1      32.651  20.988  23.462  1.00  0.00    -0.333 N 
ATOM     20  H   UNL A   1      32.155  20.807  22.631  1.00  0.00     0.165 HD
BRANCH  19  21
ATOM     21  C   UNL A   1      32.823  19.734  24.203  1.00  0.00     0.112 C 
ATOM     22  C   UNL A   1      32.280  18.454  23.617  1.00  0.00     0.056 C 
ATOM     23  C   UNL A   1      34.220  19.411  24.706  1.00  0.00     0.185 C 
ATOM     24  C   UNL A   1      33.448  17.482  23.629  1.00  0.00     0.162 C 
ATOM     25  O   UNL A   1      34.558  18.087  24.287  1.00  0.00    -0.379 OA
ENDBRANCH  19  21
ENDBRANCH   7  15
ENDBRANCH   4   7
ENDBRANCH   2   3
ENDBRANCH   1   2
BRANCH   1  26
ATOM     26  C   UNL A   1      33.690  27.881  25.876  1.00  0.00     0.023 C 
BRANCH  26  27
ATOM     27  C   UNL A   1      33.539  28.423  27.293  1.00  0.00     0.116 C 
BRANCH  27  28
ATOM     28  N   UNL A   1      33.391  29.864  27.338  1.00  0.00    -0.352 N 
ATOM     29  C   UNL A   1      34.283  30.796  27.793  1.00  0.00     0.251 C 
ATOM     30  H   UNL A   1      32.538  30.218  26.995  1.00  0.00     0.163 HD
ATOM     31  O   UNL A   1      33.960  31.981  27.835  1.00  0.00    -0.269 OA
BRANCH  29  32
ATOM     32  C   UNL A   1      35.602  30.352  28.279  1.00  0.00     0.039 A 
ATOM     33  C   UNL A   1      35.680  29.800  29.557  1.00  0.00     0.014 A 
ATOM     34  C   UNL A   1      36.739  30.441  27.468  1.00  0.00     0.014 A 
ATOM     35  C   UNL A   1      36.899  29.303  30.013  1.00  0.00     0.010 A 
ATOM     36  C   UNL A   1      37.935  29.873  27.896  1.00  0.00     0.010 A 
ATOM     37  C   UNL A   1      38.029  29.315  29.180  1.00  0.00    -0.014 A 
BRANCH  37  38
ATOM     38  C   UNL A   1      39.329  28.793  29.669  1.00  0.00     0.031 A 
ATOM     39  C   UNL A   1      39.968  29.408  30.884  1.00  0.00     0.074 A 
ATOM     40  C   UNL A   1      39.933  27.781  29.015  1.00  0.00     0.049 A 
ATOM     41  N   UNL A   1      41.105  29.114  31.461  1.00  0.00    -0.248 NA
ATOM     42  C   UNL A   1      39.243  30.519  31.519  1.00  0.00     0.031 C 
ATOM     43  C   UNL A   1      39.418  27.130  27.809  1.00  0.00     0.029 A 
ATOM     44  N   UNL A   1      41.104  27.117  29.274  1.00  0.00    -0.354 N 
ATOM     45  C   UNL A   1      41.233  30.005  32.521  1.00  0.00     0.074 A 
ATOM     46  C   UNL A   1      40.097  30.900  32.457  1.00  0.00     0.031 C 
ATOM     47  C   UNL A   1      40.248  26.135  27.457  1.00  0.00     0.029 A 
ATOM     48  C   UNL A   1      41.377  26.106  28.382  1.00  0.00     0.049 A 
ATOM     49  H   UNL A   1      41.695  27.343  30.029  1.00  0.00     0.167 HD
ATOM     50  C   UNL A   1      42.190  30.053  33.480  1.00  0.00     0.034 A 
ATOM     51  C   UNL A   1      42.421  25.256  28.318  1.00  0.00     0.034 A 
ATOM     52  C   UNL A   1      43.310  29.146  33.529  1.00  0.00     0.049 A 
ATOM     53  C   UNL A   1      43.495  25.352  29.375  1.00  0.00     0.074 A 
ATOM     54  C   UNL A   1      44.329  29.083  34.464  1.00  0.00     0.029 A 
ATOM     55  N   UNL A   1      43.561  28.142  32.601  1.00  0.00    -0.354 N 
ATOM     56  N   UNL A   1      43.583  26.179  30.394  1.00  0.00    -0.248 NA
ATOM     57  C   UNL A   1      44.600  24.391  29.284  1.00  0.00     0.031 C 
ATOM     58  C   UNL A   1      45.230  28.090  34.064  1.00  0.00     0.029 A 
ATOM     59  C   UNL A   1      44.729  27.471  32.929  1.00  0.00     0.049 A 
ATOM     60  H   UNL A   1      42.992  27.936  31.825  1.00  0.00     0.167 HD
ATOM     61  C   UNL A   1      44.731  25.804  31.087  1.00  0.00     0.074 A 
ATOM     62  C   UNL A   1      45.290  24.671  30.378  1.00  0.00     0.031 C 
ATOM     63  C   UNL A   1      45.271  26.341  32.211  1.00  0.00     0.034 A 
BRANCH  50  64
ATOM     64  C   UNL A   1      42.068  31.133  34.529  1.00  0.00     0.023 A 
ATOM     65  C   UNL A   1      42.669  32.394  34.362  1.00  0.00     0.031 A 
ATOM     66  C   UNL A   1      41.375  30.891  35.728  1.00  0.00     0.131 A 
ATOM     67  C   UNL A   1      42.636  33.331  35.405  1.00  0.00     0.055 A 
ATOM     68  C   UNL A   1      41.268  31.862  36.725  1.00  0.00     0.041 A 
ATOM     69  F   UNL A   1      40.801  29.700  35.958  1.00  0.00    -0.206 F 
ATOM     70  C   UNL A   1      41.915  33.085  36.575  1.00  0.00     0.022 A 
BRANCH  67  71
ATOM     71  S   UNL A   1      43.677  34.810  35.272  1.00  0.00     0.124 S 
ATOM     72  O   UNL A   1      43.229  35.372  34.001  1.00  0.00    -0.237 OA
ATOM     73  O   UNL A   1      43.314  35.562  36.468  1.00  0.00    -0.237 OA
ATOM     74  O   UNL A   1      45.036  34.272  35.262  1.00  0.00    -0.744 OA
ENDBRANCH  67  71
ENDBRANCH  50  64
BRANCH  51  75
ATOM     75  C   UNL A   1      42.513  24.240  27.230  1.00  0.00     0.023 A 
ATOM     76  C   UNL A   1      41.899  22.983  27.360  1.00  0.00     0.031 A 
ATOM     77  C   UNL A   1      43.265  24.486  26.067  1.00  0.00     0.131 A 
ATOM     78  C   UNL A   1      42.100  22.000  26.379  1.00  0.00     0.055 A 
ATOM     79  C   UNL A   1      43.409  23.526  25.063  1.00  0.00     0.041 A 
ATOM     80  F   UNL A   1      43.869  25.671  25.887  1.00  0.00    -0.206 F 
ATOM     81  C   UNL A   1      42.838  22.267  25.225  1.00  0.00     0.022 A 
BRANCH  78  82
ATOM     82  S   UNL A   1      41.472  20.326  26.687  1.00  0.00     0.124 S 
ATOM     83  O   UNL A   1      40.042  20.571  26.838  1.00  0.00    -0.237 OA
ATOM     84  O   UNL A   1      41.879  19.623  25.475  1.00  0.00    -0.237 OA
ATOM     85  O   UNL A   1      42.168  19.921  27.906  1.00  0.00    -0.744 OA
ENDBRANCH  78  82
ENDBRANCH  51  75
BRANCH  63  86
ATOM     86  C   UNL A   1      46.497  25.662  32.776  1.00  0.00     0.023 A 
ATOM     87  C   UNL A   1      47.791  25.956  32.315  1.00  0.00     0.031 A 
ATOM     88  C   UNL A   1      46.358  24.688  33.780  1.00  0.00     0.131 A 
ATOM     89  C   UNL A   1      48.889  25.235  32.808  1.00  0.00     0.055 A 
ATOM     90  C   UNL A   1      47.461  24.024  34.319  1.00  0.00     0.041 A 
ATOM     91  F   UNL A   1      45.146  24.364  34.257  1.00  0.00    -0.206 F 
ATOM     92  C   UNL A   1      48.734  24.284  33.820  1.00  0.00     0.022 A 
BRANCH  89  93
ATOM     93  S   UNL A   1      50.508  25.473  32.027  1.00  0.00     0.124 S 
ATOM     94  O   UNL A   1      51.378  25.660  33.183  1.00  0.00    -0.237 OA
ATOM     95  O   UNL A   1      50.685  24.226  31.291  1.00  0.00    -0.237 OA
ATOM     96  O   UNL A   1      50.317  26.661  31.197  1.00  0.00    -0.744 OA
ENDBRANCH  89  93
ENDBRANCH  63  86
ENDBRANCH  37  38
ENDBRANCH  29  32
ENDBRANCH  27  28
ENDBRANCH  26  27
ENDBRANCH   1  26
TORSDOF 19
ENDMDL
