MODEL 1
REMARK VINA RESULT:     -12.6      0.000      0.000
REMARK SMILES O=C(NCCCCNC(=O)[C@H]1C[C@H]2CCCC[C@@H]2[N@@H+]1CCn1ccnc1)c1ccc(-c2c3nc(c(-c4cc(S(=O)(=O)[O-])ccc4F)c4ccc([nH]4)c(-c4cc(S(=O)(=O)[O-])ccc4F)c4nc(c(-c5cc(S(=O)(=O)[O-])ccc5F)c5ccc2[nH]5)C=C4)C=C3)cc1
REMARK SMILES IDX 5 1 4 2 3 3 1 4 2 5 27 7 28 8 89 9 29 10 88 11 30 12 31 13
REMARK SMILES IDX 32 14 82 15 33 16 87 17 81 18 83 19 34 20 86 21 80 22 79 23
REMARK SMILES IDX 35 25 67 26 47 27 66 28 48 29 51 30 65 31 84 32 49 33 50 34
REMARK SMILES IDX 64 36 85 37 52 38 36 39 37 40 45 41 38 42 44 43 46 44 43 45
REMARK SMILES IDX 39 46 40 47 41 48 42 49 68 50 69 51 77 52 70 53 76 54 78 55
REMARK SMILES IDX 75 56 71 57 72 58 73 59 74 60 53 61 54 62 62 63 55 64 61 65
REMARK SMILES IDX 63 66 60 67 56 68 57 69 58 70 59 71 6 72 7 73 8 74 9 75
REMARK SMILES IDX 10 77 11 78 12 79 19 80 13 81 18 82 14 84 17 85 15 86 16 87
REMARK SMILES IDX 20 88 21 89 22 90 23 91 26 92 24 93 25 94
REMARK H PARENT 3 6 83 24 51 35 8 76 19 83
REMARK Flexibility Score: inf
ROOT
ATOM      1  C   UNL A   1      32.306  30.236  27.175  1.00  0.00     0.023 C 
ENDROOT
BRANCH   1   2
ATOM      2  C   UNL A   1      33.825  30.385  27.041  1.00  0.00     0.116 C 
BRANCH   2   3
ATOM      3  N   UNL A   1      34.375  31.609  27.592  1.00  0.00    -0.352 N 
ATOM      4  O   UNL A   1      35.751  33.210  28.224  1.00  0.00    -0.269 OA
ATOM      5  C   UNL A   1      35.615  31.999  28.024  1.00  0.00     0.251 C 
ATOM      6  H   UNL A   1      33.702  32.323  27.675  1.00  0.00     0.163 HD
BRANCH   5   7
ATOM      7  C   UNL A   1      36.763  31.090  28.306  1.00  0.00     0.039 A 
ATOM      8  C   UNL A   1      36.823  29.735  27.987  1.00  0.00     0.014 A 
ATOM      9  C   UNL A   1      37.855  31.659  28.992  1.00  0.00     0.014 A 
ATOM     10  C   UNL A   1      37.903  28.957  28.401  1.00  0.00     0.010 A 
ATOM     11  C   UNL A   1      38.948  30.889  29.393  1.00  0.00     0.010 A 
ATOM     12  C   UNL A   1      38.960  29.525  29.121  1.00  0.00    -0.014 A 
BRANCH  12  13
ATOM     13  C   UNL A   1      40.124  28.682  29.403  1.00  0.00     0.031 A 
ATOM     14  C   UNL A   1      40.469  28.575  30.852  1.00  0.00     0.074 A 
ATOM     15  C   UNL A   1      40.799  27.942  28.498  1.00  0.00     0.049 A 
ATOM     16  N   UNL A   1      41.542  28.974  31.452  1.00  0.00    -0.248 NA
ATOM     17  C   UNL A   1      39.435  28.062  31.765  1.00  0.00     0.031 C 
ATOM     18  C   UNL A   1      40.463  27.690  27.097  1.00  0.00     0.029 A 
ATOM     19  N   UNL A   1      41.917  27.176  28.688  1.00  0.00    -0.354 N 
ATOM     20  C   UNL A   1      41.411  28.591  32.786  1.00  0.00     0.074 A 
ATOM     21  C   UNL A   1      40.046  28.166  32.945  1.00  0.00     0.031 C 
ATOM     22  C   UNL A   1      41.229  26.676  26.628  1.00  0.00     0.029 A 
ATOM     23  C   UNL A   1      42.203  26.303  27.641  1.00  0.00     0.049 A 
ATOM     24  H   UNL A   1      42.473  27.236  29.498  1.00  0.00     0.167 HD
ATOM     25  C   UNL A   1      42.489  28.490  33.615  1.00  0.00     0.034 A 
ATOM     26  C   UNL A   1      43.142  25.318  27.620  1.00  0.00     0.034 A 
ATOM     27  C   UNL A   1      43.615  29.235  33.104  1.00  0.00     0.049 A 
ATOM     28  C   UNL A   1      44.162  25.666  28.637  1.00  0.00     0.074 A 
ATOM     29  C   UNL A   1      43.828  30.564  32.788  1.00  0.00     0.029 A 
ATOM     30  N   UNL A   1      44.636  28.548  32.490  1.00  0.00    -0.354 N 
ATOM     31  N   UNL A   1      44.945  26.705  28.547  1.00  0.00    -0.248 NA
ATOM     32  C   UNL A   1      44.004  25.124  29.979  1.00  0.00     0.031 C 
ATOM     33  C   UNL A   1      44.611  30.533  31.596  1.00  0.00     0.029 A 
ATOM     34  C   UNL A   1      44.891  29.196  31.305  1.00  0.00     0.049 A 
ATOM     35  H   UNL A   1      45.095  27.748  32.832  1.00  0.00     0.167 HD
ATOM     36  C   UNL A   1      45.030  27.204  29.836  1.00  0.00     0.074 A 
ATOM     37  C   UNL A   1      44.507  26.138  30.688  1.00  0.00     0.031 C 
ATOM     38  C   UNL A   1      45.264  28.528  30.074  1.00  0.00     0.034 A 
BRANCH  25  39
ATOM     39  C   UNL A   1      42.631  27.479  34.731  1.00  0.00     0.023 A 
ATOM     40  C   UNL A   1      43.368  26.306  34.471  1.00  0.00     0.031 A 
ATOM     41  C   UNL A   1      41.861  27.468  35.917  1.00  0.00     0.131 A 
ATOM     42  C   UNL A   1      43.254  25.178  35.305  1.00  0.00     0.055 A 
ATOM     43  C   UNL A   1      41.804  26.369  36.778  1.00  0.00     0.041 A 
ATOM     44  F   UNL A   1      41.048  28.474  36.259  1.00  0.00    -0.206 F 
ATOM     45  C   UNL A   1      42.479  25.203  36.460  1.00  0.00     0.022 A 
BRANCH  42  46
ATOM     46  S   UNL A   1      43.996  23.615  34.758  1.00  0.00     0.124 S 
ATOM     47  O   UNL A   1      45.049  24.084  33.865  1.00  0.00    -0.237 OA
ATOM     48  O   UNL A   1      44.433  23.032  36.022  1.00  0.00    -0.237 OA
ATOM     49  O   UNL A   1      42.885  22.925  34.104  1.00  0.00    -0.744 OA
ENDBRANCH  42  46
ENDBRANCH  25  39
BRANCH  26  50
ATOM     50  C   UNL A   1      43.018  23.956  27.024  1.00  0.00     0.023 A 
ATOM     51  C   UNL A   1      43.861  23.479  25.995  1.00  0.00     0.031 A 
ATOM     52  C   UNL A   1      42.201  22.997  27.665  1.00  0.00     0.131 A 
ATOM     53  C   UNL A   1      43.857  22.106  25.647  1.00  0.00     0.055 A 
ATOM     54  C   UNL A   1      42.202  21.645  27.319  1.00  0.00     0.041 A 
ATOM     55  F   UNL A   1      41.435  23.331  28.716  1.00  0.00    -0.206 F 
ATOM     56  C   UNL A   1      43.037  21.191  26.311  1.00  0.00     0.022 A 
BRANCH  53  57
ATOM     57  S   UNL A   1      44.990  21.462  24.369  1.00  0.00     0.124 S 
ATOM     58  O   UNL A   1      44.648  22.275  23.211  1.00  0.00    -0.237 OA
ATOM     59  O   UNL A   1      46.303  21.700  24.966  1.00  0.00    -0.237 OA
ATOM     60  O   UNL A   1      44.619  20.050  24.261  1.00  0.00    -0.744 OA
ENDBRANCH  53  57
ENDBRANCH  26  50
BRANCH  38  61
ATOM     61  C   UNL A   1      45.731  29.409  28.933  1.00  0.00     0.023 A 
ATOM     62  C   UNL A   1      44.923  30.341  28.241  1.00  0.00     0.031 A 
ATOM     63  C   UNL A   1      47.105  29.390  28.633  1.00  0.00     0.131 A 
ATOM     64  C   UNL A   1      45.503  31.206  27.290  1.00  0.00     0.055 A 
ATOM     65  C   UNL A   1      47.678  30.260  27.707  1.00  0.00     0.041 A 
ATOM     66  F   UNL A   1      47.930  28.545  29.274  1.00  0.00    -0.206 F 
ATOM     67  C   UNL A   1      46.877  31.170  27.028  1.00  0.00     0.022 A 
BRANCH  64  68
ATOM     68  S   UNL A   1      44.480  32.400  26.366  1.00  0.00     0.124 S 
ATOM     69  O   UNL A   1      45.418  32.998  25.426  1.00  0.00    -0.237 OA
ATOM     70  O   UNL A   1      43.444  31.548  25.788  1.00  0.00    -0.237 OA
ATOM     71  O   UNL A   1      43.998  33.311  27.407  1.00  0.00    -0.744 OA
ENDBRANCH  64  68
ENDBRANCH  38  61
ENDBRANCH  12  13
ENDBRANCH   5   7
ENDBRANCH   2   3
ENDBRANCH   1   2
BRANCH   1  72
ATOM     72  C   UNL A   1      31.805  28.825  27.460  1.00  0.00     0.023 C 
BRANCH  72  73
ATOM     73  C   UNL A   1      31.783  27.873  26.275  1.00  0.00     0.116 C 
BRANCH  73  74
ATOM     74  N   UNL A   1      31.040  26.645  26.461  1.00  0.00    -0.351 N 
ATOM     75  C   UNL A   1      31.405  25.339  26.270  1.00  0.00     0.278 C 
ATOM     76  H   UNL A   1      30.117  26.768  26.779  1.00  0.00     0.163 HD
ATOM     77  O   UNL A   1      30.643  24.486  26.747  1.00  0.00    -0.268 OA
BRANCH  75  78
ATOM     78  C   UNL A   1      32.678  24.869  25.496  1.00  0.00     0.274 C 
ATOM     79  C   UNL A   1      33.526  23.809  26.207  1.00  0.00     0.085 C 
ATOM     80  N   UNL A   1      32.348  24.333  24.135  1.00  0.00    -0.321 N 
ATOM     81  C   UNL A   1      33.532  22.630  25.240  1.00  0.00     0.054 C 
ATOM     82  C   UNL A   1      32.376  22.878  24.279  1.00  0.00     0.188 C 
ATOM     83  H   UNL A   1      31.421  24.625  23.828  1.00  0.00     0.349 HD
ATOM     84  C   UNL A   1      33.535  21.219  25.800  1.00  0.00     0.010 C 
ATOM     85  C   UNL A   1      32.398  21.923  23.095  1.00  0.00     0.065 C 
ATOM     86  C   UNL A   1      33.541  20.214  24.642  1.00  0.00     0.001 C 
ATOM     87  C   UNL A   1      32.440  20.473  23.602  1.00  0.00     0.006 C 
BRANCH  80  88
ATOM     88  C   UNL A   1      33.122  24.919  23.024  1.00  0.00     0.285 C 
BRANCH  88  89
ATOM     89  C   UNL A   1      33.392  26.444  22.865  1.00  0.00     0.184 C 
BRANCH  89  90
ATOM     90  N   UNL A   1      32.251  27.324  22.723  1.00  0.00    -0.332 N 
ATOM     91  C   UNL A   1      32.272  28.693  22.805  1.00  0.00     0.107 A 
ATOM     92  C   UNL A   1      30.951  26.957  22.519  1.00  0.00     0.199 A 
ATOM     93  C   UNL A   1      31.008  29.089  22.438  1.00  0.00     0.130 A 
ATOM     94  N   UNL A   1      30.186  28.003  22.294  1.00  0.00    -0.245 NA
ENDBRANCH  89  90
ENDBRANCH  88  89
ENDBRANCH  80  88
ENDBRANCH  75  78
ENDBRANCH  73  74
ENDBRANCH  72  73
ENDBRANCH   1  72
TORSDOF 17
ENDMDL
MODEL 2
REMARK VINA RESULT:     -12.5      1.740      2.146
REMARK SMILES O=C(NCCCCNC(=O)[C@H]1C[C@H]2CCCC[C@@H]2[N@@H+]1CCn1ccnc1)c1ccc(-c2c3nc(c(-c4cc(S(=O)(=O)[O-])ccc4F)c4ccc([nH]4)c(-c4cc(S(=O)(=O)[O-])ccc4F)c4nc(c(-c5cc(S(=O)(=O)[O-])ccc5F)c5ccc2[nH]5)C=C4)C=C3)cc1
REMARK SMILES IDX 5 1 4 2 3 3 1 4 2 5 27 7 28 8 89 9 29 10 88 11 30 12 31 13
REMARK SMILES IDX 32 14 82 15 33 16 87 17 81 18 83 19 34 20 86 21 80 22 79 23
REMARK SMILES IDX 35 25 67 26 47 27 66 28 48 29 51 30 65 31 84 32 49 33 50 34
REMARK SMILES IDX 64 36 85 37 52 38 36 39 37 40 45 41 38 42 44 43 46 44 43 45
REMARK SMILES IDX 39 46 40 47 41 48 42 49 68 50 69 51 77 52 70 53 76 54 78 55
REMARK SMILES IDX 75 56 71 57 72 58 73 59 74 60 53 61 54 62 62 63 55 64 61 65
REMARK SMILES IDX 63 66 60 67 56 68 57 69 58 70 59 71 6 72 7 73 8 74 9 75
REMARK SMILES IDX 10 77 11 78 12 79 19 80 13 81 18 82 14 84 17 85 15 86 16 87
REMARK SMILES IDX 20 88 21 89 22 90 23 91 26 92 24 93 25 94
REMARK H PARENT 3 6 83 24 51 35 8 76 19 83
REMARK Flexibility Score: inf
ROOT
ATOM      1  C   UNL A   1      31.782  29.157  27.241  1.00  0.00     0.023 C 
ENDROOT
BRANCH   1   2
ATOM      2  C   UNL A   1      33.257  29.543  27.096  1.00  0.00     0.116 C 
BRANCH   2   3
ATOM      3  N   UNL A   1      33.602  30.860  27.598  1.00  0.00    -0.352 N 
ATOM      4  O   UNL A   1      34.694  32.696  28.138  1.00  0.00    -0.269 OA
ATOM      5  C   UNL A   1      34.768  31.475  27.970  1.00  0.00     0.251 C 
ATOM      6  H   UNL A   1      32.816  31.447  27.693  1.00  0.00     0.163 HD
BRANCH   5   7
ATOM      7  C   UNL A   1      36.068  30.791  28.223  1.00  0.00     0.039 A 
ATOM      8  C   UNL A   1      36.334  29.442  27.997  1.00  0.00     0.014 A 
ATOM      9  C   UNL A   1      37.093  31.584  28.779  1.00  0.00     0.014 A 
ATOM     10  C   UNL A   1      37.555  28.886  28.378  1.00  0.00     0.010 A 
ATOM     11  C   UNL A   1      38.324  31.038  29.145  1.00  0.00     0.010 A 
ATOM     12  C   UNL A   1      38.547  29.677  28.970  1.00  0.00    -0.014 A 
BRANCH  12  13
ATOM     13  C   UNL A   1      39.852  29.060  29.217  1.00  0.00     0.031 A 
ATOM     14  C   UNL A   1      40.200  28.919  30.663  1.00  0.00     0.074 A 
ATOM     15  C   UNL A   1      40.666  28.533  28.279  1.00  0.00     0.049 A 
ATOM     16  N   UNL A   1      41.169  29.476  31.312  1.00  0.00    -0.248 NA
ATOM     17  C   UNL A   1      39.282  28.149  31.516  1.00  0.00     0.031 C 
ATOM     18  C   UNL A   1      40.397  28.322  26.857  1.00  0.00     0.029 A 
ATOM     19  N   UNL A   1      41.912  27.990  28.439  1.00  0.00    -0.354 N 
ATOM     20  C   UNL A   1      41.107  28.981  32.613  1.00  0.00     0.074 A 
ATOM     21  C   UNL A   1      39.851  28.286  32.714  1.00  0.00     0.031 C 
ATOM     22  C   UNL A   1      41.350  27.514  26.335  1.00  0.00     0.029 A 
ATOM     23  C   UNL A   1      42.371  27.267  27.341  1.00  0.00     0.049 A 
ATOM     24  H   UNL A   1      42.439  28.100  29.263  1.00  0.00     0.167 HD
ATOM     25  C   UNL A   1      42.178  29.034  33.456  1.00  0.00     0.034 A 
ATOM     26  C   UNL A   1      43.487  26.490  27.271  1.00  0.00     0.034 A 
ATOM     27  C   UNL A   1      43.138  30.020  33.022  1.00  0.00     0.049 A 
ATOM     28  C   UNL A   1      44.410  26.957  28.332  1.00  0.00     0.074 A 
ATOM     29  C   UNL A   1      43.087  31.383  32.802  1.00  0.00     0.029 A 
ATOM     30  N   UNL A   1      44.279  29.592  32.384  1.00  0.00    -0.354 N 
ATOM     31  N   UNL A   1      44.974  28.133  28.330  1.00  0.00    -0.248 NA
ATOM     32  C   UNL A   1      44.353  26.300  29.630  1.00  0.00     0.031 C 
ATOM     33  C   UNL A   1      43.870  31.593  31.629  1.00  0.00     0.029 A 
ATOM     34  C   UNL A   1      44.410  30.361  31.252  1.00  0.00     0.049 A 
ATOM     35  H   UNL A   1      44.885  28.875  32.680  1.00  0.00     0.167 HD
ATOM     36  C   UNL A   1      44.949  28.545  29.652  1.00  0.00     0.074 A 
ATOM     37  C   UNL A   1      44.640  27.339  30.417  1.00  0.00     0.031 C 
ATOM     38  C   UNL A   1      44.916  29.869  29.986  1.00  0.00     0.034 A 
BRANCH  25  39
ATOM     39  C   UNL A   1      42.508  27.992  34.502  1.00  0.00     0.023 A 
ATOM     40  C   UNL A   1      43.219  26.846  34.093  1.00  0.00     0.031 A 
ATOM     41  C   UNL A   1      41.929  27.926  35.790  1.00  0.00     0.131 A 
ATOM     42  C   UNL A   1      43.256  25.691  34.897  1.00  0.00     0.055 A 
ATOM     43  C   UNL A   1      42.025  26.800  36.613  1.00  0.00     0.041 A 
ATOM     44  F   UNL A   1      41.159  28.902  36.286  1.00  0.00    -0.206 F 
ATOM     45  C   UNL A   1      42.666  25.662  36.156  1.00  0.00     0.022 A 
BRANCH  42  46
ATOM     46  S   UNL A   1      43.934  24.163  34.190  1.00  0.00     0.124 S 
ATOM     47  O   UNL A   1      45.068  23.908  35.072  1.00  0.00    -0.237 OA
ATOM     48  O   UNL A   1      42.804  23.249  34.311  1.00  0.00    -0.237 OA
ATOM     49  O   UNL A   1      44.282  24.548  32.824  1.00  0.00    -0.744 OA
ENDBRANCH  42  46
ENDBRANCH  25  39
BRANCH  26  50
ATOM     50  C   UNL A   1      43.637  25.176  26.581  1.00  0.00     0.023 A 
ATOM     51  C   UNL A   1      42.860  24.039  26.898  1.00  0.00     0.031 A 
ATOM     52  C   UNL A   1      44.400  25.107  25.393  1.00  0.00     0.131 A 
ATOM     53  C   UNL A   1      42.874  22.905  26.049  1.00  0.00     0.055 A 
ATOM     54  C   UNL A   1      44.410  23.987  24.560  1.00  0.00     0.041 A 
ATOM     55  F   UNL A   1      45.098  26.167  24.955  1.00  0.00    -0.206 F 
ATOM     56  C   UNL A   1      43.640  22.882  24.881  1.00  0.00     0.022 A 
BRANCH  53  57
ATOM     57  S   UNL A   1      41.822  21.457  26.408  1.00  0.00     0.124 S 
ATOM     58  O   UNL A   1      40.496  21.939  26.053  1.00  0.00    -0.237 OA
ATOM     59  O   UNL A   1      42.396  20.431  25.539  1.00  0.00    -0.237 OA
ATOM     60  O   UNL A   1      42.032  21.227  27.838  1.00  0.00    -0.744 OA
ENDBRANCH  53  57
ENDBRANCH  26  50
BRANCH  38  61
ATOM     61  C   UNL A   1      45.209  30.904  28.918  1.00  0.00     0.023 A 
ATOM     62  C   UNL A   1      46.499  31.347  28.546  1.00  0.00     0.031 A 
ATOM     63  C   UNL A   1      44.119  31.356  28.153  1.00  0.00     0.131 A 
ATOM     64  C   UNL A   1      46.655  32.211  27.443  1.00  0.00     0.055 A 
ATOM     65  C   UNL A   1      44.279  32.194  27.051  1.00  0.00     0.041 A 
ATOM     66  F   UNL A   1      42.870  30.952  28.441  1.00  0.00    -0.206 F 
ATOM     67  C   UNL A   1      45.550  32.628  26.694  1.00  0.00     0.022 A 
BRANCH  64  68
ATOM     68  S   UNL A   1      48.305  32.816  26.956  1.00  0.00     0.124 S 
ATOM     69  O   UNL A   1      48.030  33.674  25.810  1.00  0.00    -0.237 OA
ATOM     70  O   UNL A   1      48.765  33.490  28.167  1.00  0.00    -0.237 OA
ATOM     71  O   UNL A   1      49.036  31.588  26.634  1.00  0.00    -0.744 OA
ENDBRANCH  64  68
ENDBRANCH  38  61
ENDBRANCH  12  13
ENDBRANCH   5   7
ENDBRANCH   2   3
ENDBRANCH   1   2
BRANCH   1  72
ATOM     72  C   UNL A   1      31.318  27.994  26.373  1.00  0.00     0.023 C 
BRANCH  72  73
ATOM     73  C   UNL A   1      32.163  26.731  26.441  1.00  0.00     0.116 C 
BRANCH  73  74
ATOM     74  N   UNL A   1      31.462  25.516  26.796  1.00  0.00    -0.351 N 
ATOM     75  C   UNL A   1      31.816  24.202  26.648  1.00  0.00     0.278 C 
ATOM     76  H   UNL A   1      30.583  25.658  27.215  1.00  0.00     0.163 HD
ATOM     77  O   UNL A   1      31.126  23.380  27.269  1.00  0.00    -0.268 OA
BRANCH  75  78
ATOM     78  C   UNL A   1      32.991  23.685  25.759  1.00  0.00     0.274 C 
ATOM     79  C   UNL A   1      33.765  22.488  26.321  1.00  0.00     0.085 C 
ATOM     80  N   UNL A   1      32.536  23.310  24.380  1.00  0.00    -0.321 N 
ATOM     81  C   UNL A   1      33.600  21.408  25.258  1.00  0.00     0.054 C 
ATOM     82  C   UNL A   1      32.425  21.852  24.397  1.00  0.00     0.188 C 
ATOM     83  H   UNL A   1      31.627  23.717  24.158  1.00  0.00     0.349 HD
ATOM     84  C   UNL A   1      33.492  19.957  25.694  1.00  0.00     0.010 C 
ATOM     85  C   UNL A   1      32.287  21.012  23.135  1.00  0.00     0.065 C 
ATOM     86  C   UNL A   1      33.333  19.067  24.455  1.00  0.00     0.001 C 
ATOM     87  C   UNL A   1      32.210  19.525  23.512  1.00  0.00     0.006 C 
BRANCH  80  88
ATOM     88  C   UNL A   1      33.304  23.919  23.277  1.00  0.00     0.285 C 
BRANCH  88  89
ATOM     89  C   UNL A   1      33.755  25.409  23.253  1.00  0.00     0.184 C 
BRANCH  89  90
ATOM     90  N   UNL A   1      32.761  26.414  22.937  1.00  0.00    -0.332 N 
ATOM     91  C   UNL A   1      31.451  26.179  22.609  1.00  0.00     0.107 A 
ATOM     92  C   UNL A   1      32.952  27.765  22.871  1.00  0.00     0.199 A 
ATOM     93  C   UNL A   1      30.868  27.423  22.565  1.00  0.00     0.130 A 
ATOM     94  N   UNL A   1      31.816  28.404  22.696  1.00  0.00    -0.245 NA
ENDBRANCH  89  90
ENDBRANCH  88  89
ENDBRANCH  80  88
ENDBRANCH  75  78
ENDBRANCH  73  74
ENDBRANCH  72  73
ENDBRANCH   1  72
TORSDOF 17
ENDMDL
MODEL 3
REMARK VINA RESULT:     -12.3      1.765      2.969
REMARK SMILES O=C(NCCCCNC(=O)[C@H]1C[C@H]2CCCC[C@@H]2[N@@H+]1CCn1ccnc1)c1ccc(-c2c3nc(c(-c4cc(S(=O)(=O)[O-])ccc4F)c4ccc([nH]4)c(-c4cc(S(=O)(=O)[O-])ccc4F)c4nc(c(-c5cc(S(=O)(=O)[O-])ccc5F)c5ccc2[nH]5)C=C4)C=C3)cc1
REMARK SMILES IDX 5 1 4 2 3 3 1 4 2 5 27 7 28 8 89 9 29 10 88 11 30 12 31 13
REMARK SMILES IDX 32 14 82 15 33 16 87 17 81 18 83 19 34 20 86 21 80 22 79 23
REMARK SMILES IDX 35 25 67 26 47 27 66 28 48 29 51 30 65 31 84 32 49 33 50 34
REMARK SMILES IDX 64 36 85 37 52 38 36 39 37 40 45 41 38 42 44 43 46 44 43 45
REMARK SMILES IDX 39 46 40 47 41 48 42 49 68 50 69 51 77 52 70 53 76 54 78 55
REMARK SMILES IDX 75 56 71 57 72 58 73 59 74 60 53 61 54 62 62 63 55 64 61 65
REMARK SMILES IDX 63 66 60 67 56 68 57 69 58 70 59 71 6 72 7 73 8 74 9 75
REMARK SMILES IDX 10 77 11 78 12 79 19 80 13 81 18 82 14 84 17 85 15 86 16 87
REMARK SMILES IDX 20 88 21 89 22 90 23 91 26 92 24 93 25 94
REMARK H PARENT 3 6 83 24 51 35 8 76 19 83
REMARK Flexibility Score: inf
ROOT
ATOM      1  C   UNL A   1      32.214  29.813  26.724  1.00  0.00     0.023 C 
ENDROOT
BRANCH   1   2
ATOM      2  C   UNL A   1      33.603  30.437  26.886  1.00  0.00     0.116 C 
BRANCH   2   3
ATOM      3  N   UNL A   1      33.712  31.433  27.934  1.00  0.00    -0.352 N 
ATOM      4  O   UNL A   1      34.491  32.909  29.374  1.00  0.00    -0.269 OA
ATOM      5  C   UNL A   1      34.726  31.873  28.744  1.00  0.00     0.251 C 
ATOM      6  H   UNL A   1      32.862  31.901  28.103  1.00  0.00     0.163 HD
BRANCH   5   7
ATOM      7  C   UNL A   1      36.034  31.187  28.949  1.00  0.00     0.039 A 
ATOM      8  C   UNL A   1      37.284  31.802  28.927  1.00  0.00     0.014 A 
ATOM      9  C   UNL A   1      35.985  29.791  29.136  1.00  0.00     0.014 A 
ATOM     10  C   UNL A   1      38.450  31.041  29.018  1.00  0.00     0.010 A 
ATOM     11  C   UNL A   1      37.147  29.026  29.246  1.00  0.00     0.010 A 
ATOM     12  C   UNL A   1      38.387  29.650  29.159  1.00  0.00    -0.014 A 
BRANCH  12  13
ATOM     13  C   UNL A   1      39.642  28.931  29.387  1.00  0.00     0.031 A 
ATOM     14  C   UNL A   1      40.029  28.811  30.825  1.00  0.00     0.074 A 
ATOM     15  C   UNL A   1      40.373  28.302  28.444  1.00  0.00     0.049 A 
ATOM     16  N   UNL A   1      41.065  29.304  31.420  1.00  0.00    -0.248 NA
ATOM     17  C   UNL A   1      39.079  28.156  31.737  1.00  0.00     0.031 C 
ATOM     18  C   UNL A   1      40.035  28.065  27.040  1.00  0.00     0.029 A 
ATOM     19  N   UNL A   1      41.572  27.658  28.583  1.00  0.00    -0.354 N 
ATOM     20  C   UNL A   1      41.008  28.863  32.740  1.00  0.00     0.074 A 
ATOM     21  C   UNL A   1      39.701  28.284  32.909  1.00  0.00     0.031 C 
ATOM     22  C   UNL A   1      40.896  27.158  26.519  1.00  0.00     0.029 A 
ATOM     23  C   UNL A   1      41.928  26.859  27.499  1.00  0.00     0.049 A 
ATOM     24  H   UNL A   1      42.137  27.750  29.384  1.00  0.00     0.167 HD
ATOM     25  C   UNL A   1      42.109  28.852  33.545  1.00  0.00     0.034 A 
ATOM     26  C   UNL A   1      42.969  25.985  27.423  1.00  0.00     0.034 A 
ATOM     27  C   UNL A   1      43.135  29.734  33.041  1.00  0.00     0.049 A 
ATOM     28  C   UNL A   1      43.967  26.407  28.434  1.00  0.00     0.074 A 
ATOM     29  C   UNL A   1      43.194  31.088  32.771  1.00  0.00     0.029 A 
ATOM     30  N   UNL A   1      44.211  29.185  32.383  1.00  0.00    -0.354 N 
ATOM     31  N   UNL A   1      44.629  27.529  28.367  1.00  0.00    -0.248 NA
ATOM     32  C   UNL A   1      43.900  25.804  29.756  1.00  0.00     0.031 C 
ATOM     33  C   UNL A   1      43.948  31.186  31.565  1.00  0.00     0.029 A 
ATOM     34  C   UNL A   1      44.366  29.899  31.218  1.00  0.00     0.049 A 
ATOM     35  H   UNL A   1      44.763  28.429  32.686  1.00  0.00     0.167 HD
ATOM     36  C   UNL A   1      44.689  27.988  29.673  1.00  0.00     0.074 A 
ATOM     37  C   UNL A   1      44.305  26.841  30.494  1.00  0.00     0.031 C 
ATOM     38  C   UNL A   1      44.782  29.321  29.956  1.00  0.00     0.034 A 
BRANCH  25  39
ATOM     39  C   UNL A   1      42.386  27.823  34.619  1.00  0.00     0.023 A 
ATOM     40  C   UNL A   1      43.133  26.682  34.265  1.00  0.00     0.031 A 
ATOM     41  C   UNL A   1      41.730  27.762  35.869  1.00  0.00     0.131 A 
ATOM     42  C   UNL A   1      43.134  25.534  35.079  1.00  0.00     0.055 A 
ATOM     43  C   UNL A   1      41.788  26.644  36.707  1.00  0.00     0.041 A 
ATOM     44  F   UNL A   1      40.921  28.733  36.308  1.00  0.00    -0.206 F 
ATOM     45  C   UNL A   1      42.468  25.509  36.301  1.00  0.00     0.022 A 
BRANCH  42  46
ATOM     46  S   UNL A   1      43.871  24.009  34.430  1.00  0.00     0.124 S 
ATOM     47  O   UNL A   1      42.763  23.068  34.554  1.00  0.00    -0.237 OA
ATOM     48  O   UNL A   1      44.233  24.404  33.074  1.00  0.00    -0.237 OA
ATOM     49  O   UNL A   1      44.996  23.767  35.331  1.00  0.00    -0.744 OA
ENDBRANCH  42  46
ENDBRANCH  25  39
BRANCH  26  50
ATOM     50  C   UNL A   1      42.980  24.640  26.779  1.00  0.00     0.023 A 
ATOM     51  C   UNL A   1      44.014  24.198  25.922  1.00  0.00     0.031 A 
ATOM     52  C   UNL A   1      42.067  23.657  27.222  1.00  0.00     0.131 A 
ATOM     53  C   UNL A   1      44.096  22.835  25.544  1.00  0.00     0.055 A 
ATOM     54  C   UNL A   1      42.152  22.315  26.847  1.00  0.00     0.041 A 
ATOM     55  F   UNL A   1      41.106  23.955  28.111  1.00  0.00    -0.206 F 
ATOM     56  C   UNL A   1      43.174  21.896  26.011  1.00  0.00     0.022 A 
BRANCH  53  57
ATOM     57  S   UNL A   1      45.465  22.237  24.496  1.00  0.00     0.124 S 
ATOM     58  O   UNL A   1      44.796  21.286  23.621  1.00  0.00    -0.237 OA
ATOM     59  O   UNL A   1      45.945  23.469  23.873  1.00  0.00    -0.237 OA
ATOM     60  O   UNL A   1      46.396  21.640  25.456  1.00  0.00    -0.744 OA
ENDBRANCH  53  57
ENDBRANCH  26  50
BRANCH  38  61
ATOM     61  C   UNL A   1      45.123  30.287  28.841  1.00  0.00     0.023 A 
ATOM     62  C   UNL A   1      46.427  30.729  28.517  1.00  0.00     0.031 A 
ATOM     63  C   UNL A   1      44.076  30.667  27.982  1.00  0.00     0.131 A 
ATOM     64  C   UNL A   1      46.638  31.521  27.369  1.00  0.00     0.055 A 
ATOM     65  C   UNL A   1      44.291  31.432  26.838  1.00  0.00     0.041 A 
ATOM     66  F   UNL A   1      42.818  30.258  28.221  1.00  0.00    -0.206 F 
ATOM     67  C   UNL A   1      45.574  31.865  26.528  1.00  0.00     0.022 A 
BRANCH  64  68
ATOM     68  S   UNL A   1      48.305  32.123  26.942  1.00  0.00     0.124 S 
ATOM     69  O   UNL A   1      48.982  30.931  26.448  1.00  0.00    -0.237 OA
ATOM     70  O   UNL A   1      48.024  33.159  25.953  1.00  0.00    -0.237 OA
ATOM     71  O   UNL A   1      48.820  32.630  28.216  1.00  0.00    -0.744 OA
ENDBRANCH  64  68
ENDBRANCH  38  61
ENDBRANCH  12  13
ENDBRANCH   5   7
ENDBRANCH   2   3
ENDBRANCH   1   2
BRANCH   1  72
ATOM     72  C   UNL A   1      31.806  29.475  25.294  1.00  0.00     0.023 C 
BRANCH  72  73
ATOM     73  C   UNL A   1      32.029  28.035  24.859  1.00  0.00     0.116 C 
BRANCH  73  74
ATOM     74  N   UNL A   1      32.918  27.843  23.734  1.00  0.00    -0.351 N 
ATOM     75  C   UNL A   1      33.365  26.698  23.130  1.00  0.00     0.278 C 
ATOM     76  H   UNL A   1      33.258  28.675  23.333  1.00  0.00     0.163 HD
ATOM     77  O   UNL A   1      33.921  26.843  22.032  1.00  0.00    -0.268 OA
BRANCH  75  78
ATOM     78  C   UNL A   1      33.237  25.261  23.730  1.00  0.00     0.274 C 
ATOM     79  C   UNL A   1      33.820  24.135  22.870  1.00  0.00     0.085 C 
ATOM     80  N   UNL A   1      33.866  25.154  25.086  1.00  0.00    -0.321 N 
ATOM     81  C   UNL A   1      34.882  23.501  23.761  1.00  0.00     0.054 C 
ATOM     82  C   UNL A   1      35.164  24.520  24.857  1.00  0.00     0.188 C 
ATOM     83  H   UNL A   1      34.008  26.071  25.511  1.00  0.00     0.349 HD
ATOM     84  C   UNL A   1      36.150  22.959  23.125  1.00  0.00     0.010 C 
ATOM     85  C   UNL A   1      36.017  23.940  25.976  1.00  0.00     0.065 C 
ATOM     86  C   UNL A   1      37.055  22.376  24.216  1.00  0.00     0.001 C 
ATOM     87  C   UNL A   1      37.303  23.341  25.385  1.00  0.00     0.006 C 
BRANCH  80  88
ATOM     88  C   UNL A   1      33.005  24.577  26.136  1.00  0.00     0.285 C 
BRANCH  88  89
ATOM     89  C   UNL A   1      33.302  23.229  26.856  1.00  0.00     0.184 C 
BRANCH  89  90
ATOM     90  N   UNL A   1      33.016  22.001  26.142  1.00  0.00    -0.332 N 
ATOM     91  C   UNL A   1      31.940  21.775  25.323  1.00  0.00     0.107 A 
ATOM     92  C   UNL A   1      33.736  20.841  26.183  1.00  0.00     0.199 A 
ATOM     93  C   UNL A   1      32.184  20.551  24.747  1.00  0.00     0.130 A 
ATOM     94  N   UNL A   1      33.285  19.964  25.313  1.00  0.00    -0.245 NA
ENDBRANCH  89  90
ENDBRANCH  88  89
ENDBRANCH  80  88
ENDBRANCH  75  78
ENDBRANCH  73  74
ENDBRANCH  72  73
ENDBRANCH   1  72
TORSDOF 17
ENDMDL
