MODEL 1
REMARK VINA RESULT:     -12.5      0.000      0.000
REMARK SMILES O=C(Cn1cc(NC(=O)N2CC[N@H+]3CCC[C@@H]3C2)cn1)NCCCCNC(=O)c1ccc(-c2c3nc(c(-c4cc(S(=O)(=O)[O-])ccc4F)c4ccc([nH]4)c(-c4cc(S(=O)(=O)[O-])ccc4F)c4nc(c(-c5cc(S(=O)(=O)[O-])ccc5F)c5ccc2[nH]5)C=C4)C=C3)cc1
REMARK SMILES IDX 23 1 22 2 21 3 1 4 2 5 3 7 4 8 5 9 20 10 6 11 19 12 7 13
REMARK SMILES IDX 8 14 9 16 10 17 11 18 18 19 12 20 17 21 13 22 16 23 14 24
REMARK SMILES IDX 15 26 24 27 25 28 26 29 27 30 28 32 29 33 30 34 91 35 31 36
REMARK SMILES IDX 90 37 32 38 33 39 34 40 84 41 35 42 89 43 83 44 85 45 36 46
REMARK SMILES IDX 88 47 82 48 81 49 37 51 69 52 49 53 68 54 50 55 53 56 67 57
REMARK SMILES IDX 86 58 51 59 52 60 66 62 87 63 54 64 38 65 39 66 47 67 40 68
REMARK SMILES IDX 46 69 48 70 45 71 41 72 42 73 43 74 44 75 70 76 71 77 79 78
REMARK SMILES IDX 72 79 78 80 80 81 77 82 73 83 74 84 75 85 76 86 55 87 56 88
REMARK SMILES IDX 64 89 57 90 63 91 65 92 62 93 58 94 59 95 60 96 61 97
REMARK H PARENT 21 6 7 15 13 25 26 31 85 50 53 61
REMARK Flexibility Score: inf
ROOT
ATOM      1  C   UNL A   1      35.951  21.689  25.015  1.00  0.00     0.023 C 
ENDROOT
BRANCH   1   2
ATOM      2  C   UNL A   1      34.503  21.198  25.067  1.00  0.00     0.116 C 
BRANCH   2   3
ATOM      3  N   UNL A   1      33.607  22.115  25.748  1.00  0.00    -0.354 N 
ATOM      4  O   UNL A   1      31.672  20.983  25.246  1.00  0.00    -0.273 OA
ATOM      5  C   UNL A   1      32.248  21.879  25.866  1.00  0.00     0.241 C 
ATOM      6  H   UNL A   1      33.981  22.937  26.140  1.00  0.00     0.163 HD
BRANCH   5   7
ATOM      7  C   UNL A   1      31.465  22.882  26.701  1.00  0.00     0.244 C 
BRANCH   7   8
ATOM      8  N   UNL A   1      30.869  23.967  25.942  1.00  0.00    -0.261 N 
ATOM      9  C   UNL A   1      31.011  24.202  24.599  1.00  0.00     0.135 A 
ATOM     10  N   UNL A   1      30.138  24.899  26.566  1.00  0.00    -0.179 NA
ATOM     11  C   UNL A   1      30.428  25.424  24.361  1.00  0.00     0.081 A 
ATOM     12  C   UNL A   1      29.870  25.787  25.610  1.00  0.00     0.161 A 
BRANCH  11  13
ATOM     13  N   UNL A   1      30.426  26.066  23.135  1.00  0.00    -0.305 N 
ATOM     14  C   UNL A   1      30.772  27.369  22.899  1.00  0.00     0.322 C 
ATOM     15  H   UNL A   1      30.148  25.532  22.356  1.00  0.00     0.171 HD
ATOM     16  O   UNL A   1      30.275  27.971  21.949  1.00  0.00    -0.248 OA
BRANCH  14  17
ATOM     17  N   UNL A   1      31.658  27.949  23.769  1.00  0.00    -0.313 N 
ATOM     18  C   UNL A   1      33.025  27.413  23.936  1.00  0.00     0.183 C 
ATOM     19  C   UNL A   1      31.184  29.087  24.561  1.00  0.00     0.186 C 
ATOM     20  C   UNL A   1      33.913  28.065  25.013  1.00  0.00     0.284 C 
ATOM     21  C   UNL A   1      32.283  29.734  25.373  1.00  0.00     0.204 C 
ATOM     22  N   UNL A   1      33.133  28.745  26.063  1.00  0.00    -0.330 N 
ATOM     23  C   UNL A   1      31.862  30.660  26.490  1.00  0.00     0.073 C 
ATOM     24  C   UNL A   1      33.978  29.582  26.923  1.00  0.00     0.262 C 
ATOM     25  H   UNL A   1      32.649  28.030  26.606  1.00  0.00     0.348 HD
ATOM     26  C   UNL A   1      33.174  30.848  27.230  1.00  0.00     0.068 C 
ENDBRANCH  14  17
ENDBRANCH  11  13
ENDBRANCH   7   8
ENDBRANCH   5   7
ENDBRANCH   2   3
ENDBRANCH   1   2
BRANCH   1  27
ATOM     27  C   UNL A   1      37.022  20.590  24.934  1.00  0.00     0.023 C 
BRANCH  27  28
ATOM     28  C   UNL A   1      38.422  20.994  25.406  1.00  0.00     0.116 C 
BRANCH  28  29
ATOM     29  N   UNL A   1      39.305  19.855  25.609  1.00  0.00    -0.352 N 
ATOM     30  C   UNL A   1      40.652  19.853  25.928  1.00  0.00     0.251 C 
ATOM     31  H   UNL A   1      38.889  18.969  25.504  1.00  0.00     0.163 HD
ATOM     32  O   UNL A   1      41.324  18.870  25.644  1.00  0.00    -0.269 OA
BRANCH  30  33
ATOM     33  C   UNL A   1      41.287  21.023  26.595  1.00  0.00     0.039 A 
ATOM     34  C   UNL A   1      41.787  22.077  25.821  1.00  0.00     0.014 A 
ATOM     35  C   UNL A   1      41.449  21.061  27.980  1.00  0.00     0.014 A 
ATOM     36  C   UNL A   1      42.344  23.205  26.445  1.00  0.00     0.010 A 
ATOM     37  C   UNL A   1      41.985  22.191  28.601  1.00  0.00     0.010 A 
ATOM     38  C   UNL A   1      42.411  23.289  27.849  1.00  0.00    -0.014 A 
BRANCH  38  39
ATOM     39  C   UNL A   1      42.516  24.609  28.523  1.00  0.00     0.031 A 
ATOM     40  C   UNL A   1      41.329  25.457  28.253  1.00  0.00     0.074 A 
ATOM     41  C   UNL A   1      43.448  25.031  29.417  1.00  0.00     0.049 A 
ATOM     42  N   UNL A   1      41.321  26.496  27.486  1.00  0.00    -0.248 NA
ATOM     43  C   UNL A   1      39.988  25.018  28.665  1.00  0.00     0.031 C 
ATOM     44  C   UNL A   1      44.720  24.375  29.722  1.00  0.00     0.029 A 
ATOM     45  N   UNL A   1      43.450  26.111  30.287  1.00  0.00    -0.354 N 
ATOM     46  C   UNL A   1      40.046  27.031  27.589  1.00  0.00     0.074 A 
ATOM     47  C   UNL A   1      39.232  25.962  28.097  1.00  0.00     0.031 C 
ATOM     48  C   UNL A   1      45.304  24.978  30.787  1.00  0.00     0.029 A 
ATOM     49  C   UNL A   1      44.458  26.075  31.269  1.00  0.00     0.049 A 
ATOM     50  H   UNL A   1      42.797  26.845  30.224  1.00  0.00     0.167 HD
ATOM     51  C   UNL A   1      39.893  28.387  27.572  1.00  0.00     0.034 A 
ATOM     52  C   UNL A   1      44.875  27.014  32.180  1.00  0.00     0.034 A 
ATOM     53  C   UNL A   1      41.111  29.016  27.089  1.00  0.00     0.049 A 
ATOM     54  C   UNL A   1      44.603  28.322  31.553  1.00  0.00     0.074 A 
ATOM     55  C   UNL A   1      41.750  29.195  25.879  1.00  0.00     0.029 A 
ATOM     56  N   UNL A   1      42.046  29.253  28.068  1.00  0.00    -0.354 N 
ATOM     57  N   UNL A   1      45.313  28.752  30.554  1.00  0.00    -0.248 NA
ATOM     58  C   UNL A   1      43.352  29.044  31.783  1.00  0.00     0.031 C 
ATOM     59  C   UNL A   1      43.135  29.398  26.172  1.00  0.00     0.029 A 
ATOM     60  C   UNL A   1      43.307  29.388  27.551  1.00  0.00     0.049 A 
ATOM     61  H   UNL A   1      41.834  29.318  29.027  1.00  0.00     0.167 HD
ATOM     62  C   UNL A   1      44.395  29.403  29.766  1.00  0.00     0.074 A 
ATOM     63  C   UNL A   1      43.289  29.743  30.648  1.00  0.00     0.031 C 
ATOM     64  C   UNL A   1      44.464  29.291  28.412  1.00  0.00     0.034 A 
BRANCH  51  65
ATOM     65  C   UNL A   1      38.939  29.153  28.489  1.00  0.00     0.023 A 
ATOM     66  C   UNL A   1      39.220  29.101  29.873  1.00  0.00     0.031 A 
ATOM     67  C   UNL A   1      37.671  29.676  28.158  1.00  0.00     0.131 A 
ATOM     68  C   UNL A   1      38.236  29.394  30.834  1.00  0.00     0.055 A 
ATOM     69  C   UNL A   1      36.699  29.986  29.117  1.00  0.00     0.041 A 
ATOM     70  F   UNL A   1      37.274  29.888  26.900  1.00  0.00    -0.206 F 
ATOM     71  C   UNL A   1      36.965  29.813  30.463  1.00  0.00     0.022 A 
BRANCH  68  72
ATOM     72  S   UNL A   1      38.611  29.071  32.575  1.00  0.00     0.124 S 
ATOM     73  O   UNL A   1      38.619  30.421  33.125  1.00  0.00    -0.237 OA
ATOM     74  O   UNL A   1      37.496  28.215  32.965  1.00  0.00    -0.237 OA
ATOM     75  O   UNL A   1      39.913  28.409  32.520  1.00  0.00    -0.744 OA
ENDBRANCH  68  72
ENDBRANCH  51  65
BRANCH  52  76
ATOM     76  C   UNL A   1      44.681  26.910  33.670  1.00  0.00     0.023 A 
ATOM     77  C   UNL A   1      43.429  27.016  34.321  1.00  0.00     0.031 A 
ATOM     78  C   UNL A   1      45.754  26.469  34.464  1.00  0.00     0.131 A 
ATOM     79  C   UNL A   1      43.326  26.776  35.719  1.00  0.00     0.055 A 
ATOM     80  C   UNL A   1      45.662  26.300  35.851  1.00  0.00     0.041 A 
ATOM     81  F   UNL A   1      46.928  26.155  33.891  1.00  0.00    -0.206 F 
ATOM     82  C   UNL A   1      44.451  26.485  36.491  1.00  0.00     0.022 A 
BRANCH  79  83
ATOM     83  S   UNL A   1      41.709  26.712  36.572  1.00  0.00     0.124 S 
ATOM     84  O   UNL A   1      42.040  26.152  37.875  1.00  0.00    -0.237 OA
ATOM     85  O   UNL A   1      41.306  28.114  36.553  1.00  0.00    -0.237 OA
ATOM     86  O   UNL A   1      40.910  25.832  35.716  1.00  0.00    -0.744 OA
ENDBRANCH  79  83
ENDBRANCH  52  76
BRANCH  64  87
ATOM     87  C   UNL A   1      45.813  28.943  27.848  1.00  0.00     0.023 A 
ATOM     88  C   UNL A   1      46.257  27.634  27.556  1.00  0.00     0.031 A 
ATOM     89  C   UNL A   1      46.710  30.002  27.646  1.00  0.00     0.131 A 
ATOM     90  C   UNL A   1      47.568  27.421  27.094  1.00  0.00     0.055 A 
ATOM     91  C   UNL A   1      48.003  29.791  27.175  1.00  0.00     0.041 A 
ATOM     92  F   UNL A   1      46.339  31.265  27.910  1.00  0.00    -0.206 F 
ATOM     93  C   UNL A   1      48.440  28.498  26.903  1.00  0.00     0.022 A 
BRANCH  90  94
ATOM     94  S   UNL A   1      48.172  25.732  26.769  1.00  0.00     0.124 S 
ATOM     95  O   UNL A   1      48.082  25.075  28.068  1.00  0.00    -0.237 OA
ATOM     96  O   UNL A   1      47.238  25.255  25.754  1.00  0.00    -0.237 OA
ATOM     97  O   UNL A   1      49.537  25.947  26.286  1.00  0.00    -0.744 OA
ENDBRANCH  90  94
ENDBRANCH  64  87
ENDBRANCH  38  39
ENDBRANCH  30  33
ENDBRANCH  28  29
ENDBRANCH  27  28
ENDBRANCH   1  27
TORSDOF 17
ENDMDL
MODEL 2
REMARK VINA RESULT:     -12.1      2.952      8.434
REMARK SMILES O=C(Cn1cc(NC(=O)N2CC[N@H+]3CCC[C@@H]3C2)cn1)NCCCCNC(=O)c1ccc(-c2c3nc(c(-c4cc(S(=O)(=O)[O-])ccc4F)c4ccc([nH]4)c(-c4cc(S(=O)(=O)[O-])ccc4F)c4nc(c(-c5cc(S(=O)(=O)[O-])ccc5F)c5ccc2[nH]5)C=C4)C=C3)cc1
REMARK SMILES IDX 23 1 22 2 21 3 1 4 2 5 3 7 4 8 5 9 20 10 6 11 19 12 7 13
REMARK SMILES IDX 8 14 9 16 10 17 11 18 18 19 12 20 17 21 13 22 16 23 14 24
REMARK SMILES IDX 15 26 24 27 25 28 26 29 27 30 28 32 29 33 30 34 91 35 31 36
REMARK SMILES IDX 90 37 32 38 33 39 34 40 84 41 35 42 89 43 83 44 85 45 36 46
REMARK SMILES IDX 88 47 82 48 81 49 37 51 69 52 49 53 68 54 50 55 53 56 67 57
REMARK SMILES IDX 86 58 51 59 52 60 66 62 87 63 54 64 38 65 39 66 47 67 40 68
REMARK SMILES IDX 46 69 48 70 45 71 41 72 42 73 43 74 44 75 70 76 71 77 79 78
REMARK SMILES IDX 72 79 78 80 80 81 77 82 73 83 74 84 75 85 76 86 55 87 56 88
REMARK SMILES IDX 64 89 57 90 63 91 65 92 62 93 58 94 59 95 60 96 61 97
REMARK H PARENT 21 6 7 15 13 25 26 31 85 50 53 61
REMARK Flexibility Score: inf
ROOT
ATOM      1  C   UNL A   1      33.272  29.349  25.495  1.00  0.00     0.023 C 
ENDROOT
BRANCH   1   2
ATOM      2  C   UNL A   1      31.870  28.955  25.026  1.00  0.00     0.116 C 
BRANCH   2   3
ATOM      3  N   UNL A   1      31.872  28.131  23.831  1.00  0.00    -0.354 N 
ATOM      4  O   UNL A   1      31.960  26.113  24.926  1.00  0.00    -0.273 OA
ATOM      5  C   UNL A   1      31.820  26.748  23.879  1.00  0.00     0.241 C 
ATOM      6  H   UNL A   1      31.912  28.573  22.952  1.00  0.00     0.163 HD
BRANCH   5   7
ATOM      7  C   UNL A   1      31.720  26.035  22.539  1.00  0.00     0.244 C 
BRANCH   7   8
ATOM      8  N   UNL A   1      32.177  24.657  22.550  1.00  0.00    -0.261 N 
ATOM      9  C   UNL A   1      31.599  23.609  23.219  1.00  0.00     0.135 A 
ATOM     10  N   UNL A   1      33.299  24.317  21.905  1.00  0.00    -0.179 NA
ATOM     11  C   UNL A   1      32.466  22.550  23.090  1.00  0.00     0.081 A 
ATOM     12  C   UNL A   1      33.480  23.039  22.232  1.00  0.00     0.161 A 
BRANCH  11  13
ATOM     13  N   UNL A   1      32.290  21.315  23.690  1.00  0.00    -0.305 N 
ATOM     14  C   UNL A   1      33.226  20.618  24.406  1.00  0.00     0.322 C 
ATOM     15  H   UNL A   1      31.404  20.898  23.593  1.00  0.00     0.171 HD
ATOM     16  O   UNL A   1      33.171  19.391  24.451  1.00  0.00    -0.248 OA
BRANCH  14  17
ATOM     17  N   UNL A   1      34.207  21.344  25.028  1.00  0.00    -0.313 N 
ATOM     18  C   UNL A   1      33.875  22.520  25.861  1.00  0.00     0.183 C 
ATOM     19  C   UNL A   1      35.598  20.944  24.797  1.00  0.00     0.186 C 
ATOM     20  C   UNL A   1      35.050  23.336  26.432  1.00  0.00     0.284 C 
ATOM     21  C   UNL A   1      36.579  21.720  25.644  1.00  0.00     0.204 C 
ATOM     22  N   UNL A   1      36.293  23.167  25.658  1.00  0.00    -0.330 N 
ATOM     23  C   UNL A   1      38.035  21.664  25.240  1.00  0.00     0.073 C 
ATOM     24  C   UNL A   1      37.458  23.726  26.357  1.00  0.00     0.262 C 
ATOM     25  H   UNL A   1      36.161  23.613  24.751  1.00  0.00     0.348 HD
ATOM     26  C   UNL A   1      38.624  22.768  26.101  1.00  0.00     0.068 C 
ENDBRANCH  14  17
ENDBRANCH  11  13
ENDBRANCH   7   8
ENDBRANCH   5   7
ENDBRANCH   2   3
ENDBRANCH   1   2
BRANCH   1  27
ATOM     27  C   UNL A   1      33.404  29.677  26.990  1.00  0.00     0.023 C 
BRANCH  27  28
ATOM     28  C   UNL A   1      34.769  29.374  27.616  1.00  0.00     0.116 C 
BRANCH  28  29
ATOM     29  N   UNL A   1      35.134  30.313  28.667  1.00  0.00    -0.352 N 
ATOM     30  C   UNL A   1      36.223  30.273  29.520  1.00  0.00     0.251 C 
ATOM     31  H   UNL A   1      34.526  31.078  28.786  1.00  0.00     0.163 HD
ATOM     32  O   UNL A   1      36.157  30.866  30.588  1.00  0.00    -0.269 OA
BRANCH  30  33
ATOM     33  C   UNL A   1      37.454  29.515  29.162  1.00  0.00     0.039 A 
ATOM     34  C   UNL A   1      38.139  29.819  27.978  1.00  0.00     0.014 A 
ATOM     35  C   UNL A   1      37.907  28.462  29.957  1.00  0.00     0.014 A 
ATOM     36  C   UNL A   1      39.326  29.141  27.660  1.00  0.00     0.010 A 
ATOM     37  C   UNL A   1      39.098  27.802  29.649  1.00  0.00     0.010 A 
ATOM     38  C   UNL A   1      39.839  28.150  28.517  1.00  0.00    -0.014 A 
BRANCH  38  39
ATOM     39  C   UNL A   1      41.280  27.789  28.479  1.00  0.00     0.031 A 
ATOM     40  C   UNL A   1      41.522  26.593  27.635  1.00  0.00     0.074 A 
ATOM     41  C   UNL A   1      42.339  28.479  28.977  1.00  0.00     0.049 A 
ATOM     42  N   UNL A   1      41.834  25.422  28.084  1.00  0.00    -0.248 NA
ATOM     43  C   UNL A   1      41.180  26.604  26.206  1.00  0.00     0.031 C 
ATOM     44  C   UNL A   1      42.281  29.609  29.905  1.00  0.00     0.029 A 
ATOM     45  N   UNL A   1      43.699  28.359  28.733  1.00  0.00    -0.354 N 
ATOM     46  C   UNL A   1      42.052  24.634  26.964  1.00  0.00     0.074 A 
ATOM     47  C   UNL A   1      41.395  25.325  25.888  1.00  0.00     0.031 C 
ATOM     48  C   UNL A   1      43.516  30.156  30.039  1.00  0.00     0.029 A 
ATOM     49  C   UNL A   1      44.480  29.430  29.207  1.00  0.00     0.049 A 
ATOM     50  H   UNL A   1      44.089  27.586  28.265  1.00  0.00     0.167 HD
ATOM     51  C   UNL A   1      43.040  23.694  26.996  1.00  0.00     0.034 A 
ATOM     52  C   UNL A   1      45.840  29.594  29.300  1.00  0.00     0.034 A 
ATOM     53  C   UNL A   1      43.459  23.465  28.370  1.00  0.00     0.049 A 
ATOM     54  C   UNL A   1      46.391  28.236  29.484  1.00  0.00     0.074 A 
ATOM     55  C   UNL A   1      42.970  22.815  29.484  1.00  0.00     0.029 A 
ATOM     56  N   UNL A   1      44.430  24.330  28.812  1.00  0.00    -0.354 N 
ATOM     57  N   UNL A   1      46.237  27.592  30.601  1.00  0.00    -0.248 NA
ATOM     58  C   UNL A   1      46.834  27.422  28.353  1.00  0.00     0.031 C 
ATOM     59  C   UNL A   1      43.579  23.434  30.621  1.00  0.00     0.029 A 
ATOM     60  C   UNL A   1      44.461  24.412  30.179  1.00  0.00     0.049 A 
ATOM     61  H   UNL A   1      45.033  24.832  28.217  1.00  0.00     0.167 HD
ATOM     62  C   UNL A   1      46.061  26.290  30.198  1.00  0.00     0.074 A 
ATOM     63  C   UNL A   1      46.649  26.206  28.870  1.00  0.00     0.031 C 
ATOM     64  C   UNL A   1      45.150  25.503  30.830  1.00  0.00     0.034 A 
BRANCH  51  65
ATOM     65  C   UNL A   1      44.002  23.421  25.840  1.00  0.00     0.023 A 
ATOM     66  C   UNL A   1      44.077  22.085  25.386  1.00  0.00     0.031 A 
ATOM     67  C   UNL A   1      45.016  24.273  25.352  1.00  0.00     0.131 A 
ATOM     68  C   UNL A   1      45.177  21.621  24.644  1.00  0.00     0.055 A 
ATOM     69  C   UNL A   1      46.101  23.813  24.596  1.00  0.00     0.041 A 
ATOM     70  F   UNL A   1      45.048  25.586  25.598  1.00  0.00    -0.206 F 
ATOM     71  C   UNL A   1      46.207  22.474  24.267  1.00  0.00     0.022 A 
BRANCH  68  72
ATOM     72  S   UNL A   1      45.305  19.846  24.313  1.00  0.00     0.124 S 
ATOM     73  O   UNL A   1      44.619  19.741  23.031  1.00  0.00    -0.237 OA
ATOM     74  O   UNL A   1      46.751  19.650  24.296  1.00  0.00    -0.237 OA
ATOM     75  O   UNL A   1      44.610  19.243  25.448  1.00  0.00    -0.744 OA
ENDBRANCH  68  72
ENDBRANCH  51  65
BRANCH  52  76
ATOM     76  C   UNL A   1      46.648  30.558  28.471  1.00  0.00     0.023 A 
ATOM     77  C   UNL A   1      46.089  31.539  27.618  1.00  0.00     0.031 A 
ATOM     78  C   UNL A   1      48.030  30.656  28.701  1.00  0.00     0.131 A 
ATOM     79  C   UNL A   1      46.927  32.490  26.974  1.00  0.00     0.055 A 
ATOM     80  C   UNL A   1      48.860  31.550  28.014  1.00  0.00     0.041 A 
ATOM     81  F   UNL A   1      48.609  29.892  29.642  1.00  0.00    -0.206 F 
ATOM     82  C   UNL A   1      48.314  32.452  27.119  1.00  0.00     0.022 A 
BRANCH  79  83
ATOM     83  S   UNL A   1      46.243  33.891  26.018  1.00  0.00     0.124 S 
ATOM     84  O   UNL A   1      47.392  34.375  25.264  1.00  0.00    -0.237 OA
ATOM     85  O   UNL A   1      45.189  33.241  25.247  1.00  0.00    -0.237 OA
ATOM     86  O   UNL A   1      45.766  34.808  27.056  1.00  0.00    -0.744 OA
ENDBRANCH  79  83
ENDBRANCH  52  76
BRANCH  64  87
ATOM     87  C   UNL A   1      44.802  25.898  32.239  1.00  0.00     0.023 A 
ATOM     88  C   UNL A   1      43.693  26.693  32.607  1.00  0.00     0.031 A 
ATOM     89  C   UNL A   1      45.679  25.482  33.250  1.00  0.00     0.131 A 
ATOM     90  C   UNL A   1      43.504  27.057  33.952  1.00  0.00     0.055 A 
ATOM     91  C   UNL A   1      45.482  25.832  34.584  1.00  0.00     0.041 A 
ATOM     92  F   UNL A   1      46.749  24.727  32.953  1.00  0.00    -0.206 F 
ATOM     93  C   UNL A   1      44.398  26.627  34.939  1.00  0.00     0.022 A 
BRANCH  90  94
ATOM     94  S   UNL A   1      42.112  28.130  34.434  1.00  0.00     0.124 S 
ATOM     95  O   UNL A   1      42.505  28.644  35.741  1.00  0.00    -0.237 OA
ATOM     96  O   UNL A   1      42.084  29.112  33.352  1.00  0.00    -0.237 OA
ATOM     97  O   UNL A   1      40.970  27.216  34.453  1.00  0.00    -0.744 OA
ENDBRANCH  90  94
ENDBRANCH  64  87
ENDBRANCH  38  39
ENDBRANCH  30  33
ENDBRANCH  28  29
ENDBRANCH  27  28
ENDBRANCH   1  27
TORSDOF 17
ENDMDL
MODEL 3
REMARK VINA RESULT:     -12.1      3.240      7.573
REMARK SMILES O=C(Cn1cc(NC(=O)N2CC[N@H+]3CCC[C@@H]3C2)cn1)NCCCCNC(=O)c1ccc(-c2c3nc(c(-c4cc(S(=O)(=O)[O-])ccc4F)c4ccc([nH]4)c(-c4cc(S(=O)(=O)[O-])ccc4F)c4nc(c(-c5cc(S(=O)(=O)[O-])ccc5F)c5ccc2[nH]5)C=C4)C=C3)cc1
REMARK SMILES IDX 23 1 22 2 21 3 1 4 2 5 3 7 4 8 5 9 20 10 6 11 19 12 7 13
REMARK SMILES IDX 8 14 9 16 10 17 11 18 18 19 12 20 17 21 13 22 16 23 14 24
REMARK SMILES IDX 15 26 24 27 25 28 26 29 27 30 28 32 29 33 30 34 91 35 31 36
REMARK SMILES IDX 90 37 32 38 33 39 34 40 84 41 35 42 89 43 83 44 85 45 36 46
REMARK SMILES IDX 88 47 82 48 81 49 37 51 69 52 49 53 68 54 50 55 53 56 67 57
REMARK SMILES IDX 86 58 51 59 52 60 66 62 87 63 54 64 38 65 39 66 47 67 40 68
REMARK SMILES IDX 46 69 48 70 45 71 41 72 42 73 43 74 44 75 70 76 71 77 79 78
REMARK SMILES IDX 72 79 78 80 80 81 77 82 73 83 74 84 75 85 76 86 55 87 56 88
REMARK SMILES IDX 64 89 57 90 63 91 65 92 62 93 58 94 59 95 60 96 61 97
REMARK H PARENT 21 6 7 15 13 25 26 31 85 50 53 61
REMARK Flexibility Score: inf
ROOT
ATOM      1  C   UNL A   1      41.546  20.022  27.542  1.00  0.00     0.023 C 
ENDROOT
BRANCH   1   2
ATOM      2  C   UNL A   1      40.850  21.356  27.267  1.00  0.00     0.116 C 
BRANCH   2   3
ATOM      3  N   UNL A   1      39.716  21.240  26.369  1.00  0.00    -0.354 N 
ATOM      4  O   UNL A   1      38.914  23.365  26.713  1.00  0.00    -0.273 OA
ATOM      5  C   UNL A   1      38.877  22.305  26.086  1.00  0.00     0.241 C 
ATOM      6  H   UNL A   1      39.535  20.370  25.945  1.00  0.00     0.163 HD
BRANCH   5   7
ATOM      7  C   UNL A   1      37.799  22.049  25.043  1.00  0.00     0.244 C 
BRANCH   7   8
ATOM      8  N   UNL A   1      36.526  22.692  25.317  1.00  0.00    -0.261 N 
ATOM      9  C   UNL A   1      35.553  22.249  26.174  1.00  0.00     0.135 A 
ATOM     10  N   UNL A   1      36.184  23.808  24.661  1.00  0.00    -0.179 NA
ATOM     11  C   UNL A   1      34.467  23.069  25.975  1.00  0.00     0.081 A 
ATOM     12  C   UNL A   1      34.933  24.038  25.056  1.00  0.00     0.161 A 
BRANCH  11  13
ATOM     13  N   UNL A   1      33.239  22.908  26.595  1.00  0.00    -0.305 N 
ATOM     14  C   UNL A   1      32.133  22.303  26.063  1.00  0.00     0.322 C 
ATOM     15  H   UNL A   1      33.155  23.263  27.509  1.00  0.00     0.171 HD
ATOM     16  O   UNL A   1      31.012  22.643  26.436  1.00  0.00    -0.248 OA
BRANCH  14  17
ATOM     17  N   UNL A   1      32.342  21.345  25.105  1.00  0.00    -0.313 N 
ATOM     18  C   UNL A   1      32.046  21.613  23.682  1.00  0.00     0.183 C 
ATOM     19  C   UNL A   1      32.821  20.034  25.550  1.00  0.00     0.186 C 
ATOM     20  C   UNL A   1      32.212  20.442  22.694  1.00  0.00     0.284 C 
ATOM     21  C   UNL A   1      33.154  19.111  24.400  1.00  0.00     0.204 C 
ATOM     22  N   UNL A   1      32.120  19.124  23.348  1.00  0.00    -0.330 N 
ATOM     23  C   UNL A   1      33.300  17.640  24.717  1.00  0.00     0.073 C 
ATOM     24  C   UNL A   1      32.544  18.036  22.458  1.00  0.00     0.262 C 
ATOM     25  H   UNL A   1      31.157  18.993  23.656  1.00  0.00     0.348 HD
ATOM     26  C   UNL A   1      33.319  17.038  23.323  1.00  0.00     0.068 C 
ENDBRANCH  14  17
ENDBRANCH  11  13
ENDBRANCH   7   8
ENDBRANCH   5   7
ENDBRANCH   2   3
ENDBRANCH   1   2
BRANCH   1  27
ATOM     27  C   UNL A   1      42.179  19.338  26.321  1.00  0.00     0.023 C 
BRANCH  27  28
ATOM     28  C   UNL A   1      43.691  19.106  26.402  1.00  0.00     0.116 C 
BRANCH  28  29
ATOM     29  N   UNL A   1      44.340  19.122  25.099  1.00  0.00    -0.352 N 
ATOM     30  C   UNL A   1      44.577  20.202  24.266  1.00  0.00     0.251 C 
ATOM     31  H   UNL A   1      44.651  18.250  24.766  1.00  0.00     0.163 HD
ATOM     32  O   UNL A   1      44.727  20.001  23.068  1.00  0.00    -0.269 OA
BRANCH  30  33
ATOM     33  C   UNL A   1      44.636  21.590  24.803  1.00  0.00     0.039 A 
ATOM     34  C   UNL A   1      43.669  22.527  24.418  1.00  0.00     0.014 A 
ATOM     35  C   UNL A   1      45.678  21.994  25.638  1.00  0.00     0.014 A 
ATOM     36  C   UNL A   1      43.693  23.823  24.957  1.00  0.00     0.010 A 
ATOM     37  C   UNL A   1      45.690  23.277  26.189  1.00  0.00     0.010 A 
ATOM     38  C   UNL A   1      44.685  24.198  25.883  1.00  0.00    -0.014 A 
BRANCH  38  39
ATOM     39  C   UNL A   1      44.458  25.333  26.816  1.00  0.00     0.031 A 
ATOM     40  C   UNL A   1      45.495  26.383  26.662  1.00  0.00     0.074 A 
ATOM     41  C   UNL A   1      43.394  25.560  27.629  1.00  0.00     0.049 A 
ATOM     42  N   UNL A   1      46.436  26.623  27.513  1.00  0.00    -0.248 NA
ATOM     43  C   UNL A   1      45.667  27.081  25.380  1.00  0.00     0.031 C 
ATOM     44  C   UNL A   1      42.344  24.601  27.974  1.00  0.00     0.029 A 
ATOM     45  N   UNL A   1      42.985  26.707  28.292  1.00  0.00    -0.354 N 
ATOM     46  C   UNL A   1      47.115  27.728  27.022  1.00  0.00     0.074 A 
ATOM     47  C   UNL A   1      46.772  27.789  25.628  1.00  0.00     0.031 C 
ATOM     48  C   UNL A   1      41.356  25.230  28.660  1.00  0.00     0.029 A 
ATOM     49  C   UNL A   1      41.679  26.652  28.814  1.00  0.00     0.049 A 
ATOM     50  H   UNL A   1      43.561  27.499  28.390  1.00  0.00     0.167 HD
ATOM     51  C   UNL A   1      47.596  28.655  27.901  1.00  0.00     0.034 A 
ATOM     52  C   UNL A   1      40.996  27.501  29.651  1.00  0.00     0.034 A 
ATOM     53  C   UNL A   1      47.597  28.106  29.247  1.00  0.00     0.049 A 
ATOM     54  C   UNL A   1      42.026  28.134  30.498  1.00  0.00     0.074 A 
ATOM     55  C   UNL A   1      48.347  27.205  29.975  1.00  0.00     0.029 A 
ATOM     56  N   UNL A   1      46.407  28.261  29.918  1.00  0.00    -0.354 N 
ATOM     57  N   UNL A   1      42.640  27.465  31.426  1.00  0.00    -0.248 NA
ATOM     58  C   UNL A   1      42.642  29.412  30.142  1.00  0.00     0.031 C 
ATOM     59  C   UNL A   1      47.501  26.715  31.019  1.00  0.00     0.029 A 
ATOM     60  C   UNL A   1      46.273  27.359  30.940  1.00  0.00     0.049 A 
ATOM     61  H   UNL A   1      45.732  28.940  29.689  1.00  0.00     0.167 HD
ATOM     62  C   UNL A   1      43.921  27.960  31.383  1.00  0.00     0.074 A 
ATOM     63  C   UNL A   1      43.816  29.270  30.760  1.00  0.00     0.031 C 
ATOM     64  C   UNL A   1      44.978  27.118  31.534  1.00  0.00     0.034 A 
BRANCH  51  65
ATOM     65  C   UNL A   1      47.513  30.166  27.683  1.00  0.00     0.023 A 
ATOM     66  C   UNL A   1      46.239  30.686  27.362  1.00  0.00     0.031 A 
ATOM     67  C   UNL A   1      48.587  31.062  27.497  1.00  0.00     0.131 A 
ATOM     68  C   UNL A   1      46.091  31.942  26.748  1.00  0.00     0.055 A 
ATOM     69  C   UNL A   1      48.435  32.321  26.902  1.00  0.00     0.041 A 
ATOM     70  F   UNL A   1      49.845  30.776  27.839  1.00  0.00    -0.206 F 
ATOM     71  C   UNL A   1      47.188  32.755  26.491  1.00  0.00     0.022 A 
BRANCH  68  72
ATOM     72  S   UNL A   1      44.450  32.423  26.155  1.00  0.00     0.124 S 
ATOM     73  O   UNL A   1      44.735  32.776  24.769  1.00  0.00    -0.237 OA
ATOM     74  O   UNL A   1      43.686  31.199  26.372  1.00  0.00    -0.237 OA
ATOM     75  O   UNL A   1      44.094  33.541  27.026  1.00  0.00    -0.744 OA
ENDBRANCH  68  72
ENDBRANCH  51  65
BRANCH  52  76
ATOM     76  C   UNL A   1      39.823  28.352  29.240  1.00  0.00     0.023 A 
ATOM     77  C   UNL A   1      38.900  28.929  30.145  1.00  0.00     0.031 A 
ATOM     78  C   UNL A   1      39.738  28.791  27.908  1.00  0.00     0.131 A 
ATOM     79  C   UNL A   1      37.900  29.824  29.674  1.00  0.00     0.055 A 
ATOM     80  C   UNL A   1      38.711  29.618  27.437  1.00  0.00     0.041 A 
ATOM     81  F   UNL A   1      40.691  28.445  27.026  1.00  0.00    -0.206 F 
ATOM     82  C   UNL A   1      37.765  30.113  28.315  1.00  0.00     0.022 A 
BRANCH  79  83
ATOM     83  S   UNL A   1      36.809  30.743  30.818  1.00  0.00     0.124 S 
ATOM     84  O   UNL A   1      37.727  31.641  31.507  1.00  0.00    -0.237 OA
ATOM     85  O   UNL A   1      35.865  31.364  29.896  1.00  0.00    -0.237 OA
ATOM     86  O   UNL A   1      36.240  29.690  31.662  1.00  0.00    -0.744 OA
ENDBRANCH  79  83
ENDBRANCH  52  76
BRANCH  64  87
ATOM     87  C   UNL A   1      44.701  25.839  32.275  1.00  0.00     0.023 A 
ATOM     88  C   UNL A   1      44.658  25.710  33.682  1.00  0.00     0.031 A 
ATOM     89  C   UNL A   1      44.522  24.683  31.503  1.00  0.00     0.131 A 
ATOM     90  C   UNL A   1      44.457  24.447  34.267  1.00  0.00     0.055 A 
ATOM     91  C   UNL A   1      44.309  23.436  32.084  1.00  0.00     0.041 A 
ATOM     92  F   UNL A   1      44.556  24.751  30.161  1.00  0.00    -0.206 F 
ATOM     93  C   UNL A   1      44.283  23.312  33.469  1.00  0.00     0.022 A 
BRANCH  90  94
ATOM     94  S   UNL A   1      44.457  24.256  36.080  1.00  0.00     0.124 S 
ATOM     95  O   UNL A   1      43.152  24.766  36.483  1.00  0.00    -0.237 OA
ATOM     96  O   UNL A   1      44.652  22.818  36.243  1.00  0.00    -0.237 OA
ATOM     97  O   UNL A   1      45.592  25.076  36.507  1.00  0.00    -0.744 OA
ENDBRANCH  90  94
ENDBRANCH  64  87
ENDBRANCH  38  39
ENDBRANCH  30  33
ENDBRANCH  28  29
ENDBRANCH  27  28
ENDBRANCH   1  27
TORSDOF 17
ENDMDL
