MODEL 1
REMARK VINA RESULT:     -11.2      0.000      0.000
REMARK SMILES CCN(Cc1ccccn1)C(=O)[C@H]1CC[C@@H](C(=O)NCCCCNC(=O)c2ccc(-c3c4nc(c(-c5cc(S(=O)(=O)[O-])ccc5F)c5ccc([nH]5)c(-c5cc(S(=O)(=O)[O-])ccc5F)c5nc(c(-c6cc(S(=O)(=O)[O-])ccc6F)c6ccc3[nH]6)C=C5)C=C4)cc2)CC1
REMARK SMILES IDX 21 1 20 2 19 3 17 4 18 5 16 7 13 8 91 9 14 10 90 11 15 12
REMARK SMILES IDX 11 13 12 14 3 15 2 16 1 17 4 18 5 19 6 20 10 21 7 22 9 23
REMARK SMILES IDX 8 24 22 25 23 26 24 27 25 28 26 30 27 31 28 32 89 33 29 34
REMARK SMILES IDX 88 35 30 36 31 37 32 38 82 39 33 40 87 41 81 42 83 43 34 44
REMARK SMILES IDX 86 45 80 46 79 47 35 49 67 50 47 51 66 52 48 53 51 54 65 55
REMARK SMILES IDX 84 56 49 57 50 58 64 60 85 61 52 62 36 63 37 64 45 65 38 66
REMARK SMILES IDX 44 67 46 68 43 69 39 70 40 71 41 72 42 73 68 74 69 75 77 76
REMARK SMILES IDX 70 77 76 78 78 79 75 80 71 81 72 82 73 83 74 84 53 85 54 86
REMARK SMILES IDX 62 87 55 88 61 89 63 90 60 91 56 92 57 93 58 94 59 95
REMARK H PARENT 19 6 24 29 83 48 51 59
REMARK Flexibility Score: inf
ROOT
ATOM      1  C   UNL A   1      31.446  29.438  25.432  1.00  0.00     0.023 C 
ENDROOT
BRANCH   1   2
ATOM      2  C   UNL A   1      32.374  28.998  24.312  1.00  0.00     0.116 C 
BRANCH   2   3
ATOM      3  N   UNL A   1      32.036  27.733  23.713  1.00  0.00    -0.356 N 
ATOM      4  C   UNL A   1      32.029  26.489  24.256  1.00  0.00     0.223 C 
ATOM      5  O   UNL A   1      31.536  25.587  23.566  1.00  0.00    -0.275 OA
ATOM      6  H   UNL A   1      31.771  27.776  22.766  1.00  0.00     0.163 HD
BRANCH   4   7
ATOM      7  C   UNL A   1      32.560  26.151  25.664  1.00  0.00     0.078 C 
ATOM      8  C   UNL A   1      34.039  23.591  26.382  1.00  0.00     0.079 C 
ATOM      9  C   UNL A   1      34.668  24.713  25.537  1.00  0.00     0.014 C 
ATOM     10  C   UNL A   1      32.502  23.671  26.531  1.00  0.00     0.014 C 
ATOM     11  C   UNL A   1      34.076  26.087  25.777  1.00  0.00     0.014 C 
ATOM     12  C   UNL A   1      31.841  25.051  26.445  1.00  0.00     0.014 C 
BRANCH   8  13
ATOM     13  C   UNL A   1      34.417  22.252  25.711  1.00  0.00     0.226 C 
ATOM     14  O   UNL A   1      35.453  21.671  26.059  1.00  0.00    -0.275 OA
BRANCH  13  15
ATOM     15  N   UNL A   1      33.566  21.669  24.784  1.00  0.00    -0.337 N 
BRANCH  15  16
ATOM     16  C   UNL A   1      33.491  22.284  23.454  1.00  0.00     0.116 C 
ATOM     17  C   UNL A   1      32.062  22.398  22.945  1.00  0.00     0.027 C 
ENDBRANCH  15  16
BRANCH  15  18
ATOM     18  C   UNL A   1      32.736  20.481  25.027  1.00  0.00     0.175 C 
BRANCH  18  19
ATOM     19  C   UNL A   1      33.225  19.246  24.294  1.00  0.00     0.060 A 
ATOM     20  C   UNL A   1      34.396  18.599  24.688  1.00  0.00     0.026 A 
ATOM     21  N   UNL A   1      32.422  18.753  23.313  1.00  0.00    -0.259 NA
ATOM     22  C   UNL A   1      34.723  17.379  24.102  1.00  0.00     0.004 A 
ATOM     23  C   UNL A   1      32.767  17.567  22.762  1.00  0.00     0.111 A 
ATOM     24  C   UNL A   1      33.888  16.844  23.129  1.00  0.00     0.020 A 
ENDBRANCH  18  19
ENDBRANCH  15  18
ENDBRANCH  13  15
ENDBRANCH   8  13
ENDBRANCH   4   7
ENDBRANCH   2   3
ENDBRANCH   1   2
BRANCH   1  25
ATOM     25  C   UNL A   1      32.072  29.412  26.820  1.00  0.00     0.023 C 
BRANCH  25  26
ATOM     26  C   UNL A   1      33.431  30.089  26.965  1.00  0.00     0.116 C 
BRANCH  26  27
ATOM     27  N   UNL A   1      33.438  31.355  27.688  1.00  0.00    -0.352 N 
ATOM     28  C   UNL A   1      34.445  31.843  28.505  1.00  0.00     0.251 C 
ATOM     29  H   UNL A   1      32.641  31.924  27.585  1.00  0.00     0.163 HD
ATOM     30  O   UNL A   1      34.339  32.915  29.081  1.00  0.00    -0.269 OA
BRANCH  28  31
ATOM     31  C   UNL A   1      35.653  31.004  28.696  1.00  0.00     0.039 A 
ATOM     32  C   UNL A   1      36.863  31.407  28.129  1.00  0.00     0.014 A 
ATOM     33  C   UNL A   1      35.607  29.893  29.543  1.00  0.00     0.014 A 
ATOM     34  C   UNL A   1      38.047  30.754  28.493  1.00  0.00     0.010 A 
ATOM     35  C   UNL A   1      36.795  29.304  29.970  1.00  0.00     0.010 A 
ATOM     36  C   UNL A   1      38.031  29.735  29.461  1.00  0.00    -0.014 A 
BRANCH  36  37
ATOM     37  C   UNL A   1      39.290  29.113  29.962  1.00  0.00     0.031 A 
ATOM     38  C   UNL A   1      39.975  29.673  31.181  1.00  0.00     0.074 A 
ATOM     39  C   UNL A   1      39.863  28.100  29.279  1.00  0.00     0.049 A 
ATOM     40  N   UNL A   1      41.122  29.340  31.717  1.00  0.00    -0.248 NA
ATOM     41  C   UNL A   1      39.298  30.787  31.859  1.00  0.00     0.031 C 
ATOM     42  C   UNL A   1      39.342  27.504  28.047  1.00  0.00     0.029 A 
ATOM     43  N   UNL A   1      41.020  27.398  29.519  1.00  0.00    -0.354 N 
ATOM     44  C   UNL A   1      41.314  30.218  32.778  1.00  0.00     0.074 A 
ATOM     45  C   UNL A   1      40.199  31.142  32.759  1.00  0.00     0.031 C 
ATOM     46  C   UNL A   1      40.156  26.508  27.659  1.00  0.00     0.029 A 
ATOM     47  C   UNL A   1      41.278  26.417  28.588  1.00  0.00     0.049 A 
ATOM     48  H   UNL A   1      41.611  27.579  30.286  1.00  0.00     0.167 HD
ATOM     49  C   UNL A   1      42.307  30.238  33.703  1.00  0.00     0.034 A 
ATOM     50  C   UNL A   1      42.300  25.543  28.493  1.00  0.00     0.034 A 
ATOM     51  C   UNL A   1      43.400  29.296  33.729  1.00  0.00     0.049 A 
ATOM     52  C   UNL A   1      43.384  25.567  29.542  1.00  0.00     0.074 A 
ATOM     53  C   UNL A   1      44.431  29.192  34.647  1.00  0.00     0.029 A 
ATOM     54  N   UNL A   1      43.605  28.291  32.792  1.00  0.00    -0.354 N 
ATOM     55  N   UNL A   1      43.524  26.373  30.569  1.00  0.00    -0.248 NA
ATOM     56  C   UNL A   1      44.439  24.551  29.426  1.00  0.00     0.031 C 
ATOM     57  C   UNL A   1      45.283  28.159  34.239  1.00  0.00     0.029 A 
ATOM     58  C   UNL A   1      44.750  27.573  33.102  1.00  0.00     0.049 A 
ATOM     59  H   UNL A   1      43.021  28.114  32.019  1.00  0.00     0.167 HD
ATOM     60  C   UNL A   1      44.664  25.936  31.240  1.00  0.00     0.074 A 
ATOM     61  C   UNL A   1      45.164  24.792  30.508  1.00  0.00     0.031 C 
ATOM     62  C   UNL A   1      45.240  26.435  32.362  1.00  0.00     0.034 A 
BRANCH  49  63
ATOM     63  C   UNL A   1      42.251  31.327  34.749  1.00  0.00     0.023 A 
ATOM     64  C   UNL A   1      42.861  32.577  34.540  1.00  0.00     0.031 A 
ATOM     65  C   UNL A   1      41.633  31.098  35.991  1.00  0.00     0.131 A 
ATOM     66  C   UNL A   1      42.928  33.509  35.586  1.00  0.00     0.055 A 
ATOM     67  C   UNL A   1      41.621  32.067  36.997  1.00  0.00     0.041 A 
ATOM     68  F   UNL A   1      41.048  29.919  36.258  1.00  0.00    -0.206 F 
ATOM     69  C   UNL A   1      42.289  33.274  36.805  1.00  0.00     0.022 A 
BRANCH  66  70
ATOM     70  S   UNL A   1      44.005  34.955  35.385  1.00  0.00     0.124 S 
ATOM     71  O   UNL A   1      43.082  36.049  35.678  1.00  0.00    -0.237 OA
ATOM     72  O   UNL A   1      45.047  34.714  36.376  1.00  0.00    -0.237 OA
ATOM     73  O   UNL A   1      44.435  34.870  33.991  1.00  0.00    -0.744 OA
ENDBRANCH  66  70
ENDBRANCH  49  63
BRANCH  50  74
ATOM     74  C   UNL A   1      42.356  24.559  27.375  1.00  0.00     0.023 A 
ATOM     75  C   UNL A   1      41.588  23.383  27.413  1.00  0.00     0.031 A 
ATOM     76  C   UNL A   1      43.212  24.753  26.277  1.00  0.00     0.131 A 
ATOM     77  C   UNL A   1      41.727  22.422  26.399  1.00  0.00     0.055 A 
ATOM     78  C   UNL A   1      43.312  23.816  25.247  1.00  0.00     0.041 A 
ATOM     79  F   UNL A   1      43.961  25.863  26.189  1.00  0.00    -0.206 F 
ATOM     80  C   UNL A   1      42.577  22.635  25.311  1.00  0.00     0.022 A 
BRANCH  77  81
ATOM     81  S   UNL A   1      40.839  20.850  26.566  1.00  0.00     0.124 S 
ATOM     82  O   UNL A   1      39.510  21.205  26.082  1.00  0.00    -0.237 OA
ATOM     83  O   UNL A   1      41.621  19.968  25.706  1.00  0.00    -0.237 OA
ATOM     84  O   UNL A   1      40.926  20.560  27.996  1.00  0.00    -0.744 OA
ENDBRANCH  77  81
ENDBRANCH  50  74
BRANCH  62  85
ATOM     85  C   UNL A   1      46.446  25.701  32.895  1.00  0.00     0.023 A 
ATOM     86  C   UNL A   1      47.740  25.943  32.402  1.00  0.00     0.031 A 
ATOM     87  C   UNL A   1      46.291  24.727  33.898  1.00  0.00     0.131 A 
ATOM     88  C   UNL A   1      48.821  25.180  32.872  1.00  0.00     0.055 A 
ATOM     89  C   UNL A   1      47.377  24.010  34.401  1.00  0.00     0.041 A 
ATOM     90  F   UNL A   1      45.077  24.456  34.404  1.00  0.00    -0.206 F 
ATOM     91  C   UNL A   1      48.649  24.224  33.878  1.00  0.00     0.022 A 
BRANCH  88  92
ATOM     92  S   UNL A   1      50.442  25.384  32.083  1.00  0.00     0.124 S 
ATOM     93  O   UNL A   1      50.708  24.041  31.580  1.00  0.00    -0.237 OA
ATOM     94  O   UNL A   1      50.168  26.401  31.072  1.00  0.00    -0.237 OA
ATOM     95  O   UNL A   1      51.305  25.818  33.179  1.00  0.00    -0.744 OA
ENDBRANCH  88  92
ENDBRANCH  62  85
ENDBRANCH  36  37
ENDBRANCH  28  31
ENDBRANCH  26  27
ENDBRANCH  25  26
ENDBRANCH   1  25
TORSDOF 19
ENDMDL
MODEL 2
REMARK VINA RESULT:     -11.1      4.414      9.909
REMARK SMILES CCN(Cc1ccccn1)C(=O)[C@H]1CC[C@@H](C(=O)NCCCCNC(=O)c2ccc(-c3c4nc(c(-c5cc(S(=O)(=O)[O-])ccc5F)c5ccc([nH]5)c(-c5cc(S(=O)(=O)[O-])ccc5F)c5nc(c(-c6cc(S(=O)(=O)[O-])ccc6F)c6ccc3[nH]6)C=C5)C=C4)cc2)CC1
REMARK SMILES IDX 21 1 20 2 19 3 17 4 18 5 16 7 13 8 91 9 14 10 90 11 15 12
REMARK SMILES IDX 11 13 12 14 3 15 2 16 1 17 4 18 5 19 6 20 10 21 7 22 9 23
REMARK SMILES IDX 8 24 22 25 23 26 24 27 25 28 26 30 27 31 28 32 89 33 29 34
REMARK SMILES IDX 88 35 30 36 31 37 32 38 82 39 33 40 87 41 81 42 83 43 34 44
REMARK SMILES IDX 86 45 80 46 79 47 35 49 67 50 47 51 66 52 48 53 51 54 65 55
REMARK SMILES IDX 84 56 49 57 50 58 64 60 85 61 52 62 36 63 37 64 45 65 38 66
REMARK SMILES IDX 44 67 46 68 43 69 39 70 40 71 41 72 42 73 68 74 69 75 77 76
REMARK SMILES IDX 70 77 76 78 78 79 75 80 71 81 72 82 73 83 74 84 53 85 54 86
REMARK SMILES IDX 62 87 55 88 61 89 63 90 60 91 56 92 57 93 58 94 59 95
REMARK H PARENT 19 6 24 29 83 48 51 59
REMARK Flexibility Score: inf
ROOT
ATOM      1  C   UNL A   1      35.240  21.172  25.817  1.00  0.00     0.023 C 
ENDROOT
BRANCH   1   2
ATOM      2  C   UNL A   1      33.940  20.768  25.139  1.00  0.00     0.116 C 
BRANCH   2   3
ATOM      3  N   UNL A   1      33.565  21.592  24.019  1.00  0.00    -0.356 N 
ATOM      4  C   UNL A   1      33.134  22.879  23.993  1.00  0.00     0.223 C 
ATOM      5  O   UNL A   1      33.036  23.407  22.878  1.00  0.00    -0.275 OA
ATOM      6  H   UNL A   1      33.630  21.156  23.139  1.00  0.00     0.163 HD
BRANCH   4   7
ATOM      7  C   UNL A   1      32.798  23.709  25.248  1.00  0.00     0.078 C 
ATOM      8  C   UNL A   1      32.681  26.748  25.326  1.00  0.00     0.079 C 
ATOM      9  C   UNL A   1      31.615  25.887  24.628  1.00  0.00     0.014 C 
ATOM     10  C   UNL A   1      33.998  26.010  25.662  1.00  0.00     0.014 C 
ATOM     11  C   UNL A   1      31.488  24.479  25.173  1.00  0.00     0.014 C 
ATOM     12  C   UNL A   1      33.935  24.498  25.899  1.00  0.00     0.014 C 
BRANCH   8  13
ATOM     13  C   UNL A   1      32.988  27.938  24.390  1.00  0.00     0.226 C 
ATOM     14  O   UNL A   1      34.061  27.961  23.771  1.00  0.00    -0.275 OA
BRANCH  13  15
ATOM     15  N   UNL A   1      32.041  28.929  24.183  1.00  0.00    -0.337 N 
BRANCH  15  16
ATOM     16  C   UNL A   1      31.767  29.845  25.297  1.00  0.00     0.116 C 
ATOM     17  C   UNL A   1      32.967  30.018  26.217  1.00  0.00     0.027 C 
ENDBRANCH  15  16
BRANCH  15  18
ATOM     18  C   UNL A   1      31.292  29.139  22.937  1.00  0.00     0.175 C 
BRANCH  18  19
ATOM     19  C   UNL A   1      29.788  29.089  23.125  1.00  0.00     0.060 A 
ATOM     20  C   UNL A   1      29.010  30.236  22.967  1.00  0.00     0.026 A 
ATOM     21  N   UNL A   1      29.235  27.868  23.354  1.00  0.00    -0.259 NA
ATOM     22  C   UNL A   1      27.622  30.119  22.983  1.00  0.00     0.004 A 
ATOM     23  C   UNL A   1      27.884  27.786  23.366  1.00  0.00     0.111 A 
ATOM     24  C   UNL A   1      27.046  28.870  23.173  1.00  0.00     0.020 A 
ENDBRANCH  18  19
ENDBRANCH  15  18
ENDBRANCH  13  15
ENDBRANCH   8  13
ENDBRANCH   4   7
ENDBRANCH   2   3
ENDBRANCH   1   2
BRANCH   1  25
ATOM     25  C   UNL A   1      36.476  21.061  24.933  1.00  0.00     0.023 C 
BRANCH  25  26
ATOM     26  C   UNL A   1      37.766  21.653  25.492  1.00  0.00     0.116 C 
BRANCH  26  27
ATOM     27  N   UNL A   1      38.839  20.703  25.759  1.00  0.00    -0.352 N 
ATOM     28  C   UNL A   1      40.004  20.941  26.469  1.00  0.00     0.251 C 
ATOM     29  H   UNL A   1      38.722  19.795  25.396  1.00  0.00     0.163 HD
ATOM     30  O   UNL A   1      40.851  20.073  26.620  1.00  0.00    -0.269 OA
BRANCH  28  31
ATOM     31  C   UNL A   1      40.220  22.303  27.016  1.00  0.00     0.039 A 
ATOM     32  C   UNL A   1      41.127  22.485  28.062  1.00  0.00     0.014 A 
ATOM     33  C   UNL A   1      39.619  23.407  26.405  1.00  0.00     0.014 A 
ATOM     34  C   UNL A   1      41.509  23.782  28.425  1.00  0.00     0.010 A 
ATOM     35  C   UNL A   1      40.067  24.690  26.709  1.00  0.00     0.010 A 
ATOM     36  C   UNL A   1      41.027  24.894  27.714  1.00  0.00    -0.014 A 
BRANCH  36  37
ATOM     37  C   UNL A   1      41.515  26.274  27.995  1.00  0.00     0.031 A 
ATOM     38  C   UNL A   1      42.906  26.680  27.585  1.00  0.00     0.074 A 
ATOM     39  C   UNL A   1      40.745  27.136  28.691  1.00  0.00     0.049 A 
ATOM     40  N   UNL A   1      43.551  27.794  27.821  1.00  0.00    -0.248 NA
ATOM     41  C   UNL A   1      43.689  25.679  26.847  1.00  0.00     0.031 C 
ATOM     42  C   UNL A   1      39.404  26.851  29.207  1.00  0.00     0.029 A 
ATOM     43  N   UNL A   1      40.985  28.428  29.095  1.00  0.00    -0.354 N 
ATOM     44  C   UNL A   1      44.822  27.618  27.284  1.00  0.00     0.074 A 
ATOM     45  C   UNL A   1      44.874  26.263  26.776  1.00  0.00     0.031 C 
ATOM     46  C   UNL A   1      38.928  27.944  29.828  1.00  0.00     0.029 A 
ATOM     47  C   UNL A   1      39.941  28.995  29.792  1.00  0.00     0.049 A 
ATOM     48  H   UNL A   1      41.824  28.904  28.905  1.00  0.00     0.167 HD
ATOM     49  C   UNL A   1      45.842  28.508  27.192  1.00  0.00     0.034 A 
ATOM     50  C   UNL A   1      39.813  30.220  30.339  1.00  0.00     0.034 A 
ATOM     51  C   UNL A   1      45.771  29.865  27.678  1.00  0.00     0.049 A 
ATOM     52  C   UNL A   1      40.950  31.203  30.208  1.00  0.00     0.074 A 
ATOM     53  C   UNL A   1      46.724  30.866  27.592  1.00  0.00     0.029 A 
ATOM     54  N   UNL A   1      44.682  30.415  28.342  1.00  0.00    -0.354 N 
ATOM     55  N   UNL A   1      42.127  31.036  29.652  1.00  0.00    -0.248 NA
ATOM     56  C   UNL A   1      40.732  32.544  30.766  1.00  0.00     0.031 C 
ATOM     57  C   UNL A   1      46.231  32.002  28.245  1.00  0.00     0.029 A 
ATOM     58  C   UNL A   1      44.944  31.733  28.683  1.00  0.00     0.049 A 
ATOM     59  H   UNL A   1      43.845  29.937  28.542  1.00  0.00     0.167 HD
ATOM     60  C   UNL A   1      42.775  32.264  29.763  1.00  0.00     0.074 A 
ATOM     61  C   UNL A   1      41.853  33.162  30.428  1.00  0.00     0.031 C 
ATOM     62  C   UNL A   1      44.018  32.618  29.348  1.00  0.00     0.034 A 
BRANCH  49  63
ATOM     63  C   UNL A   1      47.122  28.024  26.551  1.00  0.00     0.023 A 
ATOM     64  C   UNL A   1      47.344  28.150  25.168  1.00  0.00     0.031 A 
ATOM     65  C   UNL A   1      48.108  27.377  27.318  1.00  0.00     0.131 A 
ATOM     66  C   UNL A   1      48.468  27.552  24.580  1.00  0.00     0.055 A 
ATOM     67  C   UNL A   1      49.272  26.866  26.738  1.00  0.00     0.041 A 
ATOM     68  F   UNL A   1      47.947  27.210  28.640  1.00  0.00    -0.206 F 
ATOM     69  C   UNL A   1      49.448  26.934  25.359  1.00  0.00     0.022 A 
BRANCH  66  70
ATOM     70  S   UNL A   1      48.542  27.449  22.771  1.00  0.00     0.124 S 
ATOM     71  O   UNL A   1      49.841  28.059  22.495  1.00  0.00    -0.237 OA
ATOM     72  O   UNL A   1      48.446  26.014  22.531  1.00  0.00    -0.237 OA
ATOM     73  O   UNL A   1      47.389  28.234  22.335  1.00  0.00    -0.744 OA
ENDBRANCH  66  70
ENDBRANCH  49  63
BRANCH  50  74
ATOM     74  C   UNL A   1      38.563  30.606  31.054  1.00  0.00     0.023 A 
ATOM     75  C   UNL A   1      37.510  31.236  30.372  1.00  0.00     0.031 A 
ATOM     76  C   UNL A   1      38.421  30.396  32.436  1.00  0.00     0.131 A 
ATOM     77  C   UNL A   1      36.381  31.680  31.079  1.00  0.00     0.055 A 
ATOM     78  C   UNL A   1      37.277  30.797  33.129  1.00  0.00     0.041 A 
ATOM     79  F   UNL A   1      39.396  29.791  33.134  1.00  0.00    -0.206 F 
ATOM     80  C   UNL A   1      36.254  31.455  32.452  1.00  0.00     0.022 A 
BRANCH  77  81
ATOM     81  S   UNL A   1      35.117  32.628  30.191  1.00  0.00     0.124 S 
ATOM     82  O   UNL A   1      34.704  31.684  29.160  1.00  0.00    -0.237 OA
ATOM     83  O   UNL A   1      34.143  32.896  31.244  1.00  0.00    -0.237 OA
ATOM     84  O   UNL A   1      35.847  33.799  29.708  1.00  0.00    -0.744 OA
ENDBRANCH  77  81
ENDBRANCH  50  74
BRANCH  62  85
ATOM     85  C   UNL A   1      44.423  34.057  29.552  1.00  0.00     0.023 A 
ATOM     86  C   UNL A   1      44.124  35.053  28.606  1.00  0.00     0.031 A 
ATOM     87  C   UNL A   1      45.140  34.429  30.702  1.00  0.00     0.131 A 
ATOM     88  C   UNL A   1      44.590  36.363  28.801  1.00  0.00     0.055 A 
ATOM     89  C   UNL A   1      45.553  35.745  30.918  1.00  0.00     0.041 A 
ATOM     90  F   UNL A   1      45.453  33.518  31.637  1.00  0.00    -0.206 F 
ATOM     91  C   UNL A   1      45.291  36.718  29.957  1.00  0.00     0.022 A 
BRANCH  88  92
ATOM     92  S   UNL A   1      44.351  37.580  27.477  1.00  0.00     0.124 S 
ATOM     93  O   UNL A   1      44.157  38.815  28.228  1.00  0.00    -0.237 OA
ATOM     94  O   UNL A   1      45.601  37.476  26.731  1.00  0.00    -0.237 OA
ATOM     95  O   UNL A   1      43.167  37.092  26.772  1.00  0.00    -0.744 OA
ENDBRANCH  88  92
ENDBRANCH  62  85
ENDBRANCH  36  37
ENDBRANCH  28  31
ENDBRANCH  26  27
ENDBRANCH  25  26
ENDBRANCH   1  25
TORSDOF 19
ENDMDL
MODEL 3
REMARK VINA RESULT:     -11.1      4.028      9.670
REMARK SMILES CCN(Cc1ccccn1)C(=O)[C@H]1CC[C@@H](C(=O)NCCCCNC(=O)c2ccc(-c3c4nc(c(-c5cc(S(=O)(=O)[O-])ccc5F)c5ccc([nH]5)c(-c5cc(S(=O)(=O)[O-])ccc5F)c5nc(c(-c6cc(S(=O)(=O)[O-])ccc6F)c6ccc3[nH]6)C=C5)C=C4)cc2)CC1
REMARK SMILES IDX 21 1 20 2 19 3 17 4 18 5 16 7 13 8 91 9 14 10 90 11 15 12
REMARK SMILES IDX 11 13 12 14 3 15 2 16 1 17 4 18 5 19 6 20 10 21 7 22 9 23
REMARK SMILES IDX 8 24 22 25 23 26 24 27 25 28 26 30 27 31 28 32 89 33 29 34
REMARK SMILES IDX 88 35 30 36 31 37 32 38 82 39 33 40 87 41 81 42 83 43 34 44
REMARK SMILES IDX 86 45 80 46 79 47 35 49 67 50 47 51 66 52 48 53 51 54 65 55
REMARK SMILES IDX 84 56 49 57 50 58 64 60 85 61 52 62 36 63 37 64 45 65 38 66
REMARK SMILES IDX 44 67 46 68 43 69 39 70 40 71 41 72 42 73 68 74 69 75 77 76
REMARK SMILES IDX 70 77 76 78 78 79 75 80 71 81 72 82 73 83 74 84 53 85 54 86
REMARK SMILES IDX 62 87 55 88 61 89 63 90 60 91 56 92 57 93 58 94 59 95
REMARK H PARENT 19 6 24 29 83 48 51 59
REMARK Flexibility Score: inf
ROOT
ATOM      1  C   UNL A   1      35.306  20.221  24.999  1.00  0.00     0.023 C 
ENDROOT
BRANCH   1   2
ATOM      2  C   UNL A   1      33.807  19.964  25.022  1.00  0.00     0.116 C 
BRANCH   2   3
ATOM      3  N   UNL A   1      33.102  20.419  23.853  1.00  0.00    -0.356 N 
ATOM      4  C   UNL A   1      32.547  21.630  23.588  1.00  0.00     0.223 C 
ATOM      5  O   UNL A   1      32.140  21.811  22.433  1.00  0.00    -0.275 OA
ATOM      6  H   UNL A   1      33.005  19.750  23.136  1.00  0.00     0.163 HD
BRANCH   4   7
ATOM      7  C   UNL A   1      32.427  22.774  24.614  1.00  0.00     0.078 C 
ATOM      8  C   UNL A   1      31.802  25.667  23.908  1.00  0.00     0.079 C 
ATOM      9  C   UNL A   1      30.754  24.542  23.838  1.00  0.00     0.014 C 
ATOM     10  C   UNL A   1      33.269  25.186  23.998  1.00  0.00     0.014 C 
ATOM     11  C   UNL A   1      31.032  23.366  24.751  1.00  0.00     0.014 C 
ATOM     12  C   UNL A   1      33.541  23.821  24.638  1.00  0.00     0.014 C 
BRANCH   8  13
ATOM     13  C   UNL A   1      31.626  26.530  22.640  1.00  0.00     0.226 C 
ATOM     14  O   UNL A   1      31.716  25.997  21.526  1.00  0.00    -0.275 OA
BRANCH  13  15
ATOM     15  N   UNL A   1      31.294  27.872  22.747  1.00  0.00    -0.337 N 
BRANCH  15  16
ATOM     16  C   UNL A   1      29.882  28.236  22.573  1.00  0.00     0.116 C 
ATOM     17  C   UNL A   1      29.699  29.703  22.212  1.00  0.00     0.027 C 
ENDBRANCH  15  16
BRANCH  15  18
ATOM     18  C   UNL A   1      32.242  28.960  23.025  1.00  0.00     0.175 C 
BRANCH  18  19
ATOM     19  C   UNL A   1      32.580  29.100  24.497  1.00  0.00     0.060 A 
ATOM     20  C   UNL A   1      33.743  28.533  25.020  1.00  0.00     0.026 A 
ATOM     21  N   UNL A   1      31.756  29.878  25.248  1.00  0.00    -0.259 NA
ATOM     22  C   UNL A   1      34.104  28.822  26.333  1.00  0.00     0.004 A 
ATOM     23  C   UNL A   1      32.133  30.140  26.521  1.00  0.00     0.111 A 
ATOM     24  C   UNL A   1      33.292  29.651  27.097  1.00  0.00     0.020 A 
ENDBRANCH  18  19
ENDBRANCH  15  18
ENDBRANCH  13  15
ENDBRANCH   8  13
ENDBRANCH   4   7
ENDBRANCH   2   3
ENDBRANCH   1   2
BRANCH   1  25
ATOM     25  C   UNL A   1      35.750  21.441  25.796  1.00  0.00     0.023 C 
BRANCH  25  26
ATOM     26  C   UNL A   1      37.148  21.974  25.498  1.00  0.00     0.116 C 
BRANCH  26  27
ATOM     27  N   UNL A   1      38.227  20.995  25.548  1.00  0.00    -0.352 N 
ATOM     28  C   UNL A   1      39.475  21.159  26.125  1.00  0.00     0.251 C 
ATOM     29  H   UNL A   1      38.048  20.123  25.126  1.00  0.00     0.163 HD
ATOM     30  O   UNL A   1      40.317  20.274  26.095  1.00  0.00    -0.269 OA
BRANCH  28  31
ATOM     31  C   UNL A   1      39.784  22.466  26.756  1.00  0.00     0.039 A 
ATOM     32  C   UNL A   1      40.785  22.539  27.726  1.00  0.00     0.014 A 
ATOM     33  C   UNL A   1      39.167  23.631  26.291  1.00  0.00     0.014 A 
ATOM     34  C   UNL A   1      41.240  23.792  28.154  1.00  0.00     0.010 A 
ATOM     35  C   UNL A   1      39.682  24.873  26.653  1.00  0.00     0.010 A 
ATOM     36  C   UNL A   1      40.734  24.970  27.579  1.00  0.00    -0.014 A 
BRANCH  36  37
ATOM     37  C   UNL A   1      41.290  26.310  27.923  1.00  0.00     0.031 A 
ATOM     38  C   UNL A   1      42.700  26.664  27.530  1.00  0.00     0.074 A 
ATOM     39  C   UNL A   1      40.563  27.177  28.658  1.00  0.00     0.049 A 
ATOM     40  N   UNL A   1      43.400  27.732  27.817  1.00  0.00    -0.248 NA
ATOM     41  C   UNL A   1      43.434  25.659  26.747  1.00  0.00     0.031 C 
ATOM     42  C   UNL A   1      39.208  26.937  29.161  1.00  0.00     0.029 A 
ATOM     43  N   UNL A   1      40.866  28.436  29.120  1.00  0.00    -0.354 N 
ATOM     44  C   UNL A   1      44.662  27.518  27.272  1.00  0.00     0.074 A 
ATOM     45  C   UNL A   1      44.646  26.186  26.702  1.00  0.00     0.031 C 
ATOM     46  C   UNL A   1      38.787  28.022  29.831  1.00  0.00     0.029 A 
ATOM     47  C   UNL A   1      39.851  29.022  29.842  1.00  0.00     0.049 A 
ATOM     48  H   UNL A   1      41.729  28.877  28.951  1.00  0.00     0.167 HD
ATOM     49  C   UNL A   1      45.725  28.359  27.219  1.00  0.00     0.034 A 
ATOM     50  C   UNL A   1      39.784  30.226  30.445  1.00  0.00     0.034 A 
ATOM     51  C   UNL A   1      45.721  29.694  27.766  1.00  0.00     0.049 A 
ATOM     52  C   UNL A   1      40.968  31.155  30.358  1.00  0.00     0.074 A 
ATOM     53  C   UNL A   1      46.723  30.649  27.726  1.00  0.00     0.029 A 
ATOM     54  N   UNL A   1      44.660  30.267  28.456  1.00  0.00    -0.354 N 
ATOM     55  N   UNL A   1      42.137  30.955  29.794  1.00  0.00    -0.248 NA
ATOM     56  C   UNL A   1      40.817  32.479  30.977  1.00  0.00     0.031 C 
ATOM     57  C   UNL A   1      46.287  31.777  28.430  1.00  0.00     0.029 A 
ATOM     58  C   UNL A   1      44.987  31.554  28.856  1.00  0.00     0.049 A 
ATOM     59  H   UNL A   1      43.799  29.823  28.634  1.00  0.00     0.167 HD
ATOM     60  C   UNL A   1      42.846  32.143  29.961  1.00  0.00     0.074 A 
ATOM     61  C   UNL A   1      41.969  33.054  30.666  1.00  0.00     0.031 C 
ATOM     62  C   UNL A   1      44.105  32.453  29.561  1.00  0.00     0.034 A 
BRANCH  49  63
ATOM     63  C   UNL A   1      46.980  27.840  26.556  1.00  0.00     0.023 A 
ATOM     64  C   UNL A   1      47.240  28.073  25.194  1.00  0.00     0.031 A 
ATOM     65  C   UNL A   1      47.900  27.057  27.276  1.00  0.00     0.131 A 
ATOM     66  C   UNL A   1      48.330  27.448  24.571  1.00  0.00     0.055 A 
ATOM     67  C   UNL A   1      49.037  26.515  26.670  1.00  0.00     0.041 A 
ATOM     68  F   UNL A   1      47.700  26.786  28.575  1.00  0.00    -0.206 F 
ATOM     69  C   UNL A   1      49.246  26.693  25.305  1.00  0.00     0.022 A 
BRANCH  66  70
ATOM     70  S   UNL A   1      48.435  27.501  22.761  1.00  0.00     0.124 S 
ATOM     71  O   UNL A   1      47.239  28.268  22.420  1.00  0.00    -0.237 OA
ATOM     72  O   UNL A   1      49.710  28.171  22.537  1.00  0.00    -0.237 OA
ATOM     73  O   UNL A   1      48.393  26.092  22.373  1.00  0.00    -0.744 OA
ENDBRANCH  66  70
ENDBRANCH  49  63
BRANCH  50  74
ATOM     74  C   UNL A   1      38.553  30.641  31.177  1.00  0.00     0.023 A 
ATOM     75  C   UNL A   1      37.520  31.325  30.517  1.00  0.00     0.031 A 
ATOM     76  C   UNL A   1      38.413  30.403  32.555  1.00  0.00     0.131 A 
ATOM     77  C   UNL A   1      36.414  31.794  31.243  1.00  0.00     0.055 A 
ATOM     78  C   UNL A   1      37.288  30.830  33.265  1.00  0.00     0.041 A 
ATOM     79  F   UNL A   1      39.368  29.746  33.231  1.00  0.00    -0.206 F 
ATOM     80  C   UNL A   1      36.287  31.542  32.611  1.00  0.00     0.022 A 
BRANCH  77  81
ATOM     81  S   UNL A   1      35.180  32.810  30.386  1.00  0.00     0.124 S 
ATOM     82  O   UNL A   1      34.189  33.024  31.433  1.00  0.00    -0.237 OA
ATOM     83  O   UNL A   1      35.966  33.977  29.998  1.00  0.00    -0.237 OA
ATOM     84  O   UNL A   1      34.747  31.958  29.280  1.00  0.00    -0.744 OA
ENDBRANCH  77  81
ENDBRANCH  50  74
BRANCH  62  85
ATOM     85  C   UNL A   1      44.582  33.859  29.830  1.00  0.00     0.023 A 
ATOM     86  C   UNL A   1      45.258  34.198  31.015  1.00  0.00     0.031 A 
ATOM     87  C   UNL A   1      44.332  34.877  28.894  1.00  0.00     0.131 A 
ATOM     88  C   UNL A   1      45.613  35.535  31.257  1.00  0.00     0.055 A 
ATOM     89  C   UNL A   1      44.736  36.194  29.115  1.00  0.00     0.041 A 
ATOM     90  F   UNL A   1      43.690  34.608  27.746  1.00  0.00    -0.206 F 
ATOM     91  C   UNL A   1      45.368  36.533  30.309  1.00  0.00     0.022 A 
BRANCH  88  92
ATOM     92  S   UNL A   1      46.314  35.972  32.872  1.00  0.00     0.124 S 
ATOM     93  O   UNL A   1      46.848  34.694  33.329  1.00  0.00    -0.237 OA
ATOM     94  O   UNL A   1      47.303  36.986  32.518  1.00  0.00    -0.237 OA
ATOM     95  O   UNL A   1      45.162  36.467  33.624  1.00  0.00    -0.744 OA
ENDBRANCH  88  92
ENDBRANCH  62  85
ENDBRANCH  36  37
ENDBRANCH  28  31
ENDBRANCH  26  27
ENDBRANCH  25  26
ENDBRANCH   1  25
TORSDOF 19
ENDMDL
