MODEL 1
REMARK VINA RESULT:     -10.8      0.000      0.000
REMARK SMILES C[C@@H](O)[C@@H](NC(=O)CN(C)C(=O)c1cccs1)C(=O)NCCCCNC(=O)c1ccc(-c2c3nc(c(-c4cc(S(=O)(=O)[O-])ccc4F)c4ccc([nH]4)c(-c4cc(S(=O)(=O)[O-])ccc4F)c4nc(c(-c5cc(S(=O)(=O)[O-])ccc5F)c5ccc2[nH]5)C=C4)C=C3)cc1
REMARK SMILES IDX 21 1 20 2 18 3 19 4 4 6 2 7 1 8 3 9 5 11 6 12 7 14 8 15 9 16
REMARK SMILES IDX 10 17 11 18 12 19 13 20 14 21 17 22 15 23 16 24 22 25 23 26
REMARK SMILES IDX 24 27 25 28 26 29 27 31 28 32 29 33 90 34 30 35 89 36 31 37
REMARK SMILES IDX 32 38 33 39 83 40 34 41 88 42 82 43 84 44 35 45 87 46 81 47
REMARK SMILES IDX 80 48 36 50 68 51 48 52 67 53 49 54 52 55 66 56 85 57 50 58
REMARK SMILES IDX 51 59 65 61 86 62 53 63 37 64 38 65 46 66 39 67 45 68 47 69
REMARK SMILES IDX 44 70 40 71 41 72 42 73 43 74 69 75 70 76 78 77 71 78 77 79
REMARK SMILES IDX 79 80 76 81 72 82 73 83 74 84 75 85 54 86 55 87 63 88 56 89
REMARK SMILES IDX 62 90 64 91 61 92 57 93 58 94 59 95 60 96
REMARK H PARENT 20 5 3 10 5 13 25 30 84 49 52 60
REMARK Flexibility Score: inf
ROOT
ATOM      1  C   UNL A   1      32.004  26.807  26.199  1.00  0.00     0.116 C 
ENDROOT
BRANCH   1   2
ATOM      2  N   UNL A   1      31.131  25.748  26.672  1.00  0.00    -0.354 N 
ATOM      3  C   UNL A   1      31.091  24.413  26.340  1.00  0.00     0.245 C 
ATOM      4  O   UNL A   1      30.452  23.691  27.119  1.00  0.00    -0.273 OA
ATOM      5  H   UNL A   1      30.460  26.030  27.334  1.00  0.00     0.163 HD
BRANCH   3   6
ATOM      6  C   UNL A   1      31.810  23.765  25.108  1.00  0.00     0.200 C 
BRANCH   6   7
ATOM      7  C   UNL A   1      30.974  23.589  23.807  1.00  0.00     0.143 C 
ATOM      8  C   UNL A   1      30.874  24.882  22.981  1.00  0.00     0.041 C 
BRANCH   7   9
ATOM      9  O   UNL A   1      31.603  22.654  22.914  1.00  0.00    -0.391 OA
ATOM     10  H   UNL A   1      31.727  21.806  23.369  1.00  0.00     0.211 HD
ENDBRANCH   7   9
ENDBRANCH   6   7
BRANCH   6  11
ATOM     11  N   UNL A   1      33.276  23.862  24.885  1.00  0.00    -0.341 N 
ATOM     12  C   UNL A   1      34.384  23.087  24.854  1.00  0.00     0.240 C 
ATOM     13  H   UNL A   1      33.520  24.798  24.697  1.00  0.00     0.164 HD
ATOM     14  O   UNL A   1      35.449  23.709  24.731  1.00  0.00    -0.273 OA
BRANCH  12  15
ATOM     15  C   UNL A   1      34.376  21.585  24.645  1.00  0.00     0.219 C 
BRANCH  15  16
ATOM     16  N   UNL A   1      33.843  20.777  25.729  1.00  0.00    -0.332 N 
ATOM     17  C   UNL A   1      34.110  21.462  26.998  1.00  0.00     0.147 C 
BRANCH  16  18
ATOM     18  C   UNL A   1      32.862  19.791  25.284  1.00  0.00     0.264 C 
ATOM     19  O   UNL A   1      31.853  20.272  24.754  1.00  0.00    -0.268 OA
BRANCH  18  20
ATOM     20  C   UNL A   1      33.006  18.297  25.204  1.00  0.00     0.092 A 
ATOM     21  C   UNL A   1      32.706  17.182  25.982  1.00  0.00     0.025 A 
ATOM     22  S   UNL A   1      33.436  17.688  23.614  1.00  0.00    -0.139 S 
ATOM     23  C   UNL A   1      32.853  15.909  25.354  1.00  0.00     0.012 A 
ATOM     24  C   UNL A   1      33.231  16.048  24.050  1.00  0.00     0.065 A 
ENDBRANCH  18  20
ENDBRANCH  16  18
ENDBRANCH  15  16
ENDBRANCH  12  15
ENDBRANCH   6  11
ENDBRANCH   3   6
ENDBRANCH   1   2
BRANCH   1  25
ATOM     25  C   UNL A   1      31.441  28.271  26.083  1.00  0.00     0.023 C 
BRANCH  25  26
ATOM     26  C   UNL A   1      31.721  29.652  26.835  1.00  0.00     0.023 C 
BRANCH  26  27
ATOM     27  C   UNL A   1      32.818  30.826  26.902  1.00  0.00     0.116 C 
BRANCH  27  28
ATOM     28  N   UNL A   1      32.556  32.253  27.147  1.00  0.00    -0.352 N 
ATOM     29  C   UNL A   1      33.206  33.164  27.969  1.00  0.00     0.251 C 
ATOM     30  H   UNL A   1      31.794  32.623  26.644  1.00  0.00     0.163 HD
ATOM     31  O   UNL A   1      32.701  34.226  28.282  1.00  0.00    -0.269 OA
BRANCH  29  32
ATOM     32  C   UNL A   1      34.559  32.829  28.391  1.00  0.00     0.039 A 
ATOM     33  C   UNL A   1      35.675  33.592  28.036  1.00  0.00     0.014 A 
ATOM     34  C   UNL A   1      34.646  31.719  29.223  1.00  0.00     0.014 A 
ATOM     35  C   UNL A   1      36.905  33.267  28.609  1.00  0.00     0.010 A 
ATOM     36  C   UNL A   1      35.838  31.455  29.846  1.00  0.00     0.010 A 
ATOM     37  C   UNL A   1      36.975  32.221  29.540  1.00  0.00    -0.014 A 
BRANCH  37  38
ATOM     38  C   UNL A   1      38.206  31.824  30.247  1.00  0.00     0.031 A 
ATOM     39  C   UNL A   1      39.062  30.768  29.609  1.00  0.00     0.074 A 
ATOM     40  C   UNL A   1      38.377  32.215  31.522  1.00  0.00     0.049 A 
ATOM     41  N   UNL A   1      39.960  29.992  30.147  1.00  0.00    -0.248 NA
ATOM     42  C   UNL A   1      38.793  30.490  28.186  1.00  0.00     0.031 C 
ATOM     43  C   UNL A   1      37.539  33.184  32.233  1.00  0.00     0.029 A 
ATOM     44  N   UNL A   1      39.281  31.803  32.462  1.00  0.00    -0.354 N 
ATOM     45  C   UNL A   1      40.332  29.104  29.143  1.00  0.00     0.074 A 
ATOM     46  C   UNL A   1      39.507  29.394  27.991  1.00  0.00     0.031 C 
ATOM     47  C   UNL A   1      37.970  33.290  33.500  1.00  0.00     0.029 A 
ATOM     48  C   UNL A   1      39.074  32.361  33.703  1.00  0.00     0.049 A 
ATOM     49  H   UNL A   1      40.008  31.167  32.271  1.00  0.00     0.167 HD
ATOM     50  C   UNL A   1      41.290  28.148  29.186  1.00  0.00     0.034 A 
ATOM     51  C   UNL A   1      39.700  32.123  34.870  1.00  0.00     0.034 A 
ATOM     52  C   UNL A   1      42.105  27.920  30.353  1.00  0.00     0.049 A 
ATOM     53  C   UNL A   1      40.800  31.092  34.881  1.00  0.00     0.074 A 
ATOM     54  C   UNL A   1      43.169  27.053  30.512  1.00  0.00     0.029 A 
ATOM     55  N   UNL A   1      41.940  28.579  31.568  1.00  0.00    -0.354 N 
ATOM     56  N   UNL A   1      41.197  30.298  33.910  1.00  0.00    -0.248 NA
ATOM     57  C   UNL A   1      41.547  30.935  36.133  1.00  0.00     0.031 C 
ATOM     58  C   UNL A   1      43.609  27.144  31.837  1.00  0.00     0.029 A 
ATOM     59  C   UNL A   1      42.872  28.124  32.486  1.00  0.00     0.049 A 
ATOM     60  H   UNL A   1      41.262  29.267  31.749  1.00  0.00     0.167 HD
ATOM     61  C   UNL A   1      42.265  29.571  34.426  1.00  0.00     0.074 A 
ATOM     62  C   UNL A   1      42.456  30.036  35.787  1.00  0.00     0.031 C 
ATOM     63  C   UNL A   1      43.025  28.611  33.837  1.00  0.00     0.034 A 
BRANCH  50  64
ATOM     64  C   UNL A   1      41.487  27.295  27.954  1.00  0.00     0.023 A 
ATOM     65  C   UNL A   1      41.046  25.960  27.903  1.00  0.00     0.031 A 
ATOM     66  C   UNL A   1      42.162  27.802  26.831  1.00  0.00     0.131 A 
ATOM     67  C   UNL A   1      41.360  25.156  26.797  1.00  0.00     0.055 A 
ATOM     68  C   UNL A   1      42.392  27.023  25.693  1.00  0.00     0.041 A 
ATOM     69  F   UNL A   1      42.631  29.060  26.824  1.00  0.00    -0.206 F 
ATOM     70  C   UNL A   1      42.007  25.685  25.679  1.00  0.00     0.022 A 
BRANCH  67  71
ATOM     71  S   UNL A   1      41.049  23.373  26.910  1.00  0.00     0.124 S 
ATOM     72  O   UNL A   1      39.621  23.305  26.610  1.00  0.00    -0.237 OA
ATOM     73  O   UNL A   1      41.941  22.832  25.891  1.00  0.00    -0.237 OA
ATOM     74  O   UNL A   1      41.406  23.049  28.290  1.00  0.00    -0.744 OA
ENDBRANCH  67  71
ENDBRANCH  50  64
BRANCH  51  75
ATOM     75  C   UNL A   1      39.327  32.878  36.099  1.00  0.00     0.023 A 
ATOM     76  C   UNL A   1      39.933  34.110  36.388  1.00  0.00     0.031 A 
ATOM     77  C   UNL A   1      38.371  32.387  37.007  1.00  0.00     0.131 A 
ATOM     78  C   UNL A   1      39.616  34.789  37.574  1.00  0.00     0.055 A 
ATOM     79  C   UNL A   1      38.020  33.092  38.160  1.00  0.00     0.041 A 
ATOM     80  F   UNL A   1      37.747  31.222  36.772  1.00  0.00    -0.206 F 
ATOM     81  C   UNL A   1      38.654  34.294  38.457  1.00  0.00     0.022 A 
BRANCH  78  82
ATOM     82  S   UNL A   1      40.542  36.293  37.984  1.00  0.00     0.124 S 
ATOM     83  O   UNL A   1      41.202  36.589  36.717  1.00  0.00    -0.237 OA
ATOM     84  O   UNL A   1      39.475  37.204  38.381  1.00  0.00    -0.237 OA
ATOM     85  O   UNL A   1      41.427  35.862  39.064  1.00  0.00    -0.744 OA
ENDBRANCH  78  82
ENDBRANCH  51  75
BRANCH  63  86
ATOM     86  C   UNL A   1      44.155  28.048  34.659  1.00  0.00     0.023 A 
ATOM     87  C   UNL A   1      43.933  27.077  35.648  1.00  0.00     0.031 A 
ATOM     88  C   UNL A   1      45.471  28.496  34.447  1.00  0.00     0.131 A 
ATOM     89  C   UNL A   1      45.003  26.632  36.437  1.00  0.00     0.055 A 
ATOM     90  C   UNL A   1      46.542  27.998  35.187  1.00  0.00     0.041 A 
ATOM     91  F   UNL A   1      45.734  29.424  33.513  1.00  0.00    -0.206 F 
ATOM     92  C   UNL A   1      46.309  27.070  36.199  1.00  0.00     0.022 A 
BRANCH  89  93
ATOM     93  S   UNL A   1      44.647  25.550  37.846  1.00  0.00     0.124 S 
ATOM     94  O   UNL A   1      44.213  24.325  37.183  1.00  0.00    -0.237 OA
ATOM     95  O   UNL A   1      45.938  25.484  38.524  1.00  0.00    -0.237 OA
ATOM     96  O   UNL A   1      43.601  26.267  38.573  1.00  0.00    -0.744 OA
ENDBRANCH  89  93
ENDBRANCH  63  86
ENDBRANCH  37  38
ENDBRANCH  29  32
ENDBRANCH  27  28
ENDBRANCH  26  27
ENDBRANCH  25  26
ENDBRANCH   1  25
TORSDOF 21
ENDMDL
MODEL 2
REMARK VINA RESULT:     -10.7      1.955      2.231
REMARK SMILES C[C@@H](O)[C@@H](NC(=O)CN(C)C(=O)c1cccs1)C(=O)NCCCCNC(=O)c1ccc(-c2c3nc(c(-c4cc(S(=O)(=O)[O-])ccc4F)c4ccc([nH]4)c(-c4cc(S(=O)(=O)[O-])ccc4F)c4nc(c(-c5cc(S(=O)(=O)[O-])ccc5F)c5ccc2[nH]5)C=C4)C=C3)cc1
REMARK SMILES IDX 21 1 20 2 18 3 19 4 4 6 2 7 1 8 3 9 5 11 6 12 7 14 8 15 9 16
REMARK SMILES IDX 10 17 11 18 12 19 13 20 14 21 17 22 15 23 16 24 22 25 23 26
REMARK SMILES IDX 24 27 25 28 26 29 27 31 28 32 29 33 90 34 30 35 89 36 31 37
REMARK SMILES IDX 32 38 33 39 83 40 34 41 88 42 82 43 84 44 35 45 87 46 81 47
REMARK SMILES IDX 80 48 36 50 68 51 48 52 67 53 49 54 52 55 66 56 85 57 50 58
REMARK SMILES IDX 51 59 65 61 86 62 53 63 37 64 38 65 46 66 39 67 45 68 47 69
REMARK SMILES IDX 44 70 40 71 41 72 42 73 43 74 69 75 70 76 78 77 71 78 77 79
REMARK SMILES IDX 79 80 76 81 72 82 73 83 74 84 75 85 54 86 55 87 63 88 56 89
REMARK SMILES IDX 62 90 64 91 61 92 57 93 58 94 59 95 60 96
REMARK H PARENT 20 5 3 10 5 13 25 30 84 49 52 60
REMARK Flexibility Score: inf
ROOT
ATOM      1  C   UNL A   1      32.070  27.727  26.866  1.00  0.00     0.116 C 
ENDROOT
BRANCH   1   2
ATOM      2  N   UNL A   1      31.014  26.738  26.754  1.00  0.00    -0.354 N 
ATOM      3  C   UNL A   1      31.031  25.478  26.199  1.00  0.00     0.245 C 
ATOM      4  O   UNL A   1      30.083  24.746  26.516  1.00  0.00    -0.273 OA
ATOM      5  H   UNL A   1      30.148  27.011  27.134  1.00  0.00     0.163 HD
BRANCH   3   6
ATOM      6  C   UNL A   1      32.152  24.919  25.259  1.00  0.00     0.200 C 
BRANCH   6   7
ATOM      7  C   UNL A   1      32.219  25.489  23.812  1.00  0.00     0.143 C 
ATOM      8  C   UNL A   1      30.846  25.932  23.279  1.00  0.00     0.041 C 
BRANCH   7   9
ATOM      9  O   UNL A   1      33.011  26.688  23.769  1.00  0.00    -0.391 OA
ATOM     10  H   UNL A   1      33.264  26.941  24.671  1.00  0.00     0.211 HD
ENDBRANCH   7   9
ENDBRANCH   6   7
BRANCH   6  11
ATOM     11  N   UNL A   1      33.444  24.390  25.768  1.00  0.00    -0.341 N 
ATOM     12  C   UNL A   1      34.289  23.347  25.597  1.00  0.00     0.240 C 
ATOM     13  H   UNL A   1      33.803  24.998  26.454  1.00  0.00     0.164 HD
ATOM     14  O   UNL A   1      35.233  23.308  26.399  1.00  0.00    -0.273 OA
BRANCH  12  15
ATOM     15  C   UNL A   1      34.330  22.468  24.362  1.00  0.00     0.219 C 
BRANCH  15  16
ATOM     16  N   UNL A   1      33.504  21.273  24.382  1.00  0.00    -0.332 N 
ATOM     17  C   UNL A   1      32.277  21.540  23.624  1.00  0.00     0.147 C 
BRANCH  16  18
ATOM     18  C   UNL A   1      34.245  20.066  24.739  1.00  0.00     0.264 C 
ATOM     19  O   UNL A   1      35.428  20.261  25.045  1.00  0.00    -0.268 OA
BRANCH  18  20
ATOM     20  C   UNL A   1      33.717  18.679  24.975  1.00  0.00     0.092 A 
ATOM     21  C   UNL A   1      32.737  18.058  25.744  1.00  0.00     0.025 A 
ATOM     22  S   UNL A   1      34.268  17.480  23.816  1.00  0.00    -0.139 S 
ATOM     23  C   UNL A   1      32.469  16.687  25.450  1.00  0.00     0.012 A 
ATOM     24  C   UNL A   1      33.229  16.255  24.402  1.00  0.00     0.065 A 
ENDBRANCH  18  20
ENDBRANCH  16  18
ENDBRANCH  15  16
ENDBRANCH  12  15
ENDBRANCH   6  11
ENDBRANCH   3   6
ENDBRANCH   1   2
BRANCH   1  25
ATOM     25  C   UNL A   1      31.889  29.124  26.166  1.00  0.00     0.023 C 
BRANCH  25  26
ATOM     26  C   UNL A   1      31.934  30.645  26.650  1.00  0.00     0.023 C 
BRANCH  26  27
ATOM     27  C   UNL A   1      32.990  31.773  27.099  1.00  0.00     0.116 C 
BRANCH  27  28
ATOM     28  N   UNL A   1      32.670  33.087  27.678  1.00  0.00    -0.352 N 
ATOM     29  C   UNL A   1      33.256  33.778  28.729  1.00  0.00     0.251 C 
ATOM     30  H   UNL A   1      31.916  33.553  27.248  1.00  0.00     0.163 HD
ATOM     31  O   UNL A   1      32.703  34.717  29.273  1.00  0.00    -0.269 OA
BRANCH  29  32
ATOM     32  C   UNL A   1      34.603  33.380  29.117  1.00  0.00     0.039 A 
ATOM     33  C   UNL A   1      35.752  33.973  28.588  1.00  0.00     0.014 A 
ATOM     34  C   UNL A   1      34.653  32.398  30.100  1.00  0.00     0.014 A 
ATOM     35  C   UNL A   1      36.987  33.619  29.130  1.00  0.00     0.010 A 
ATOM     36  C   UNL A   1      35.860  32.113  30.685  1.00  0.00     0.010 A 
ATOM     37  C   UNL A   1      37.033  32.716  30.203  1.00  0.00    -0.014 A 
BRANCH  37  38
ATOM     38  C   UNL A   1      38.273  32.309  30.888  1.00  0.00     0.031 A 
ATOM     39  C   UNL A   1      39.042  31.158  30.306  1.00  0.00     0.074 A 
ATOM     40  C   UNL A   1      38.523  32.791  32.118  1.00  0.00     0.049 A 
ATOM     41  N   UNL A   1      39.922  30.379  30.869  1.00  0.00    -0.248 NA
ATOM     42  C   UNL A   1      38.693  30.782  28.923  1.00  0.00     0.031 C 
ATOM     43  C   UNL A   1      37.770  33.860  32.780  1.00  0.00     0.029 A 
ATOM     44  N   UNL A   1      39.446  32.407  33.051  1.00  0.00    -0.354 N 
ATOM     45  C   UNL A   1      40.200  29.393  29.928  1.00  0.00     0.074 A 
ATOM     46  C   UNL A   1      39.339  29.634  28.791  1.00  0.00     0.031 C 
ATOM     47  C   UNL A   1      38.265  34.045  34.014  1.00  0.00     0.029 A 
ATOM     48  C   UNL A   1      39.327  33.075  34.248  1.00  0.00     0.049 A 
ATOM     49  H   UNL A   1      40.129  31.717  32.883  1.00  0.00     0.167 HD
ATOM     50  C   UNL A   1      41.107  28.392  30.010  1.00  0.00     0.034 A 
ATOM     51  C   UNL A   1      39.992  32.897  35.404  1.00  0.00     0.034 A 
ATOM     52  C   UNL A   1      41.962  28.214  31.157  1.00  0.00     0.049 A 
ATOM     53  C   UNL A   1      41.036  31.810  35.455  1.00  0.00     0.074 A 
ATOM     54  C   UNL A   1      42.985  27.304  31.343  1.00  0.00     0.029 A 
ATOM     55  N   UNL A   1      41.888  28.976  32.319  1.00  0.00    -0.354 N 
ATOM     56  N   UNL A   1      41.345  30.919  34.538  1.00  0.00    -0.248 NA
ATOM     57  C   UNL A   1      41.830  31.713  36.684  1.00  0.00     0.031 C 
ATOM     58  C   UNL A   1      43.490  27.477  32.637  1.00  0.00     0.029 A 
ATOM     59  C   UNL A   1      42.836  28.546  33.232  1.00  0.00     0.049 A 
ATOM     60  H   UNL A   1      41.256  29.714  32.470  1.00  0.00     0.167 HD
ATOM     61  C   UNL A   1      42.396  30.178  35.068  1.00  0.00     0.074 A 
ATOM     62  C   UNL A   1      42.674  30.740  36.377  1.00  0.00     0.031 C 
ATOM     63  C   UNL A   1      43.076  29.132  34.530  1.00  0.00     0.034 A 
BRANCH  50  64
ATOM     64  C   UNL A   1      41.202  27.432  28.847  1.00  0.00     0.023 A 
ATOM     65  C   UNL A   1      42.215  27.546  27.876  1.00  0.00     0.031 A 
ATOM     66  C   UNL A   1      40.248  26.415  28.676  1.00  0.00     0.131 A 
ATOM     67  C   UNL A   1      42.198  26.724  26.740  1.00  0.00     0.055 A 
ATOM     68  C   UNL A   1      40.289  25.538  27.588  1.00  0.00     0.041 A 
ATOM     69  F   UNL A   1      39.241  26.266  29.551  1.00  0.00    -0.206 F 
ATOM     70  C   UNL A   1      41.258  25.701  26.601  1.00  0.00     0.022 A 
BRANCH  67  71
ATOM     71  S   UNL A   1      43.327  27.114  25.376  1.00  0.00     0.124 S 
ATOM     72  O   UNL A   1      43.684  25.780  24.900  1.00  0.00    -0.237 OA
ATOM     73  O   UNL A   1      42.485  27.904  24.485  1.00  0.00    -0.237 OA
ATOM     74  O   UNL A   1      44.411  27.849  26.026  1.00  0.00    -0.744 OA
ENDBRANCH  67  71
ENDBRANCH  50  64
BRANCH  51  75
ATOM     75  C   UNL A   1      39.716  33.770  36.580  1.00  0.00     0.023 A 
ATOM     76  C   UNL A   1      39.121  33.240  37.735  1.00  0.00     0.031 A 
ATOM     77  C   UNL A   1      40.029  35.141  36.572  1.00  0.00     0.131 A 
ATOM     78  C   UNL A   1      38.814  34.079  38.817  1.00  0.00     0.055 A 
ATOM     79  C   UNL A   1      39.771  35.963  37.671  1.00  0.00     0.041 A 
ATOM     80  F   UNL A   1      40.615  35.698  35.500  1.00  0.00    -0.206 F 
ATOM     81  C   UNL A   1      39.146  35.435  38.797  1.00  0.00     0.022 A 
BRANCH  78  82
ATOM     82  S   UNL A   1      37.901  33.383  40.219  1.00  0.00     0.124 S 
ATOM     83  O   UNL A   1      37.860  34.515  41.138  1.00  0.00    -0.237 OA
ATOM     84  O   UNL A   1      36.633  33.014  39.599  1.00  0.00    -0.237 OA
ATOM     85  O   UNL A   1      38.735  32.262  40.644  1.00  0.00    -0.744 OA
ENDBRANCH  78  82
ENDBRANCH  51  75
BRANCH  63  86
ATOM     86  C   UNL A   1      44.212  28.574  35.348  1.00  0.00     0.023 A 
ATOM     87  C   UNL A   1      43.993  27.640  36.372  1.00  0.00     0.031 A 
ATOM     88  C   UNL A   1      45.531  28.992  35.097  1.00  0.00     0.131 A 
ATOM     89  C   UNL A   1      45.069  27.201  37.155  1.00  0.00     0.055 A 
ATOM     90  C   UNL A   1      46.608  28.498  35.833  1.00  0.00     0.041 A 
ATOM     91  F   UNL A   1      45.793  29.884  34.129  1.00  0.00    -0.206 F 
ATOM     92  C   UNL A   1      46.378  27.607  36.879  1.00  0.00     0.022 A 
BRANCH  89  93
ATOM     93  S   UNL A   1      44.721  26.170  38.604  1.00  0.00     0.124 S 
ATOM     94  O   UNL A   1      45.262  24.879  38.193  1.00  0.00    -0.237 OA
ATOM     95  O   UNL A   1      45.455  26.860  39.661  1.00  0.00    -0.237 OA
ATOM     96  O   UNL A   1      43.265  26.225  38.721  1.00  0.00    -0.744 OA
ENDBRANCH  89  93
ENDBRANCH  63  86
ENDBRANCH  37  38
ENDBRANCH  29  32
ENDBRANCH  27  28
ENDBRANCH  26  27
ENDBRANCH  25  26
ENDBRANCH   1  25
TORSDOF 21
ENDMDL
MODEL 3
REMARK VINA RESULT:     -10.6      5.115      8.517
REMARK SMILES C[C@@H](O)[C@@H](NC(=O)CN(C)C(=O)c1cccs1)C(=O)NCCCCNC(=O)c1ccc(-c2c3nc(c(-c4cc(S(=O)(=O)[O-])ccc4F)c4ccc([nH]4)c(-c4cc(S(=O)(=O)[O-])ccc4F)c4nc(c(-c5cc(S(=O)(=O)[O-])ccc5F)c5ccc2[nH]5)C=C4)C=C3)cc1
REMARK SMILES IDX 21 1 20 2 18 3 19 4 4 6 2 7 1 8 3 9 5 11 6 12 7 14 8 15 9 16
REMARK SMILES IDX 10 17 11 18 12 19 13 20 14 21 17 22 15 23 16 24 22 25 23 26
REMARK SMILES IDX 24 27 25 28 26 29 27 31 28 32 29 33 90 34 30 35 89 36 31 37
REMARK SMILES IDX 32 38 33 39 83 40 34 41 88 42 82 43 84 44 35 45 87 46 81 47
REMARK SMILES IDX 80 48 36 50 68 51 48 52 67 53 49 54 52 55 66 56 85 57 50 58
REMARK SMILES IDX 51 59 65 61 86 62 53 63 37 64 38 65 46 66 39 67 45 68 47 69
REMARK SMILES IDX 44 70 40 71 41 72 42 73 43 74 69 75 70 76 78 77 71 78 77 79
REMARK SMILES IDX 79 80 76 81 72 82 73 83 74 84 75 85 54 86 55 87 63 88 56 89
REMARK SMILES IDX 62 90 64 91 61 92 57 93 58 94 59 95 60 96
REMARK H PARENT 20 5 3 10 5 13 25 30 84 49 52 60
REMARK Flexibility Score: inf
ROOT
ATOM      1  C   UNL A   1      34.148  24.333  23.812  1.00  0.00     0.116 C 
ENDROOT
BRANCH   1   2
ATOM      2  N   UNL A   1      32.862  24.208  23.151  1.00  0.00    -0.354 N 
ATOM      3  C   UNL A   1      31.590  24.176  23.677  1.00  0.00     0.245 C 
ATOM      4  O   UNL A   1      30.674  24.371  22.865  1.00  0.00    -0.273 OA
ATOM      5  H   UNL A   1      32.906  24.133  22.170  1.00  0.00     0.163 HD
BRANCH   3   6
ATOM      6  C   UNL A   1      31.242  23.958  25.189  1.00  0.00     0.200 C 
BRANCH   6   7
ATOM      7  C   UNL A   1      31.602  22.577  25.810  1.00  0.00     0.143 C 
ATOM      8  C   UNL A   1      32.587  22.687  26.985  1.00  0.00     0.041 C 
BRANCH   7   9
ATOM      9  O   UNL A   1      30.441  21.956  26.389  1.00  0.00    -0.391 OA
ATOM     10  H   UNL A   1      29.744  21.886  25.718  1.00  0.00     0.211 HD
ENDBRANCH   7   9
ENDBRANCH   6   7
BRANCH   6  11
ATOM     11  N   UNL A   1      31.172  25.071  26.171  1.00  0.00    -0.341 N 
ATOM     12  C   UNL A   1      31.202  26.423  26.225  1.00  0.00     0.240 C 
ATOM     13  H   UNL A   1      31.071  24.705  27.079  1.00  0.00     0.164 HD
ATOM     14  O   UNL A   1      31.225  26.895  27.370  1.00  0.00    -0.273 OA
BRANCH  12  15
ATOM     15  C   UNL A   1      30.896  27.336  25.054  1.00  0.00     0.219 C 
BRANCH  15  16
ATOM     16  N   UNL A   1      32.001  28.122  24.531  1.00  0.00    -0.332 N 
ATOM     17  C   UNL A   1      32.163  27.810  23.107  1.00  0.00     0.147 C 
BRANCH  16  18
ATOM     18  C   UNL A   1      32.349  29.260  25.377  1.00  0.00     0.264 C 
ATOM     19  O   UNL A   1      31.505  30.165  25.394  1.00  0.00    -0.268 OA
BRANCH  18  20
ATOM     20  C   UNL A   1      33.476  29.384  26.363  1.00  0.00     0.092 A 
ATOM     21  C   UNL A   1      34.663  28.725  26.670  1.00  0.00     0.025 A 
ATOM     22  S   UNL A   1      33.508  30.898  27.251  1.00  0.00    -0.139 S 
ATOM     23  C   UNL A   1      35.532  29.376  27.597  1.00  0.00     0.012 A 
ATOM     24  C   UNL A   1      35.023  30.583  27.978  1.00  0.00     0.065 A 
ENDBRANCH  18  20
ENDBRANCH  16  18
ENDBRANCH  15  16
ENDBRANCH  12  15
ENDBRANCH   6  11
ENDBRANCH   3   6
ENDBRANCH   1   2
BRANCH   1  25
ATOM     25  C   UNL A   1      35.310  23.348  23.421  1.00  0.00     0.023 C 
BRANCH  25  26
ATOM     26  C   UNL A   1      36.186  22.267  24.204  1.00  0.00     0.023 C 
BRANCH  26  27
ATOM     27  C   UNL A   1      36.938  22.065  25.612  1.00  0.00     0.116 C 
BRANCH  27  28
ATOM     28  N   UNL A   1      37.926  21.023  25.932  1.00  0.00    -0.352 N 
ATOM     29  C   UNL A   1      39.274  21.122  26.247  1.00  0.00     0.251 C 
ATOM     30  H   UNL A   1      37.572  20.104  25.922  1.00  0.00     0.163 HD
ATOM     31  O   UNL A   1      40.020  20.160  26.206  1.00  0.00    -0.269 OA
BRANCH  29  32
ATOM     32  C   UNL A   1      39.757  22.419  26.703  1.00  0.00     0.039 A 
ATOM     33  C   UNL A   1      40.700  22.562  27.724  1.00  0.00     0.014 A 
ATOM     34  C   UNL A   1      39.242  23.504  26.002  1.00  0.00     0.014 A 
ATOM     35  C   UNL A   1      41.200  23.838  27.986  1.00  0.00     0.010 A 
ATOM     36  C   UNL A   1      39.794  24.741  26.208  1.00  0.00     0.010 A 
ATOM     37  C   UNL A   1      40.771  24.918  27.201  1.00  0.00    -0.014 A 
BRANCH  37  38
ATOM     38  C   UNL A   1      41.268  26.298  27.352  1.00  0.00     0.031 A 
ATOM     39  C   UNL A   1      42.676  26.580  26.915  1.00  0.00     0.074 A 
ATOM     40  C   UNL A   1      40.558  27.165  28.095  1.00  0.00     0.049 A 
ATOM     41  N   UNL A   1      43.468  27.559  27.252  1.00  0.00    -0.248 NA
ATOM     42  C   UNL A   1      43.302  25.560  26.054  1.00  0.00     0.031 C 
ATOM     43  C   UNL A   1      39.209  26.930  28.618  1.00  0.00     0.029 A 
ATOM     44  N   UNL A   1      40.895  28.396  28.586  1.00  0.00    -0.354 N 
ATOM     45  C   UNL A   1      44.699  27.252  26.682  1.00  0.00     0.074 A 
ATOM     46  C   UNL A   1      44.563  25.961  26.044  1.00  0.00     0.031 C 
ATOM     47  C   UNL A   1      38.836  27.987  29.357  1.00  0.00     0.029 A 
ATOM     48  C   UNL A   1      39.934  28.943  29.404  1.00  0.00     0.049 A 
ATOM     49  H   UNL A   1      41.745  28.848  28.375  1.00  0.00     0.167 HD
ATOM     50  C   UNL A   1      45.830  27.997  26.683  1.00  0.00     0.034 A 
ATOM     51  C   UNL A   1      39.960  30.080  30.124  1.00  0.00     0.034 A 
ATOM     52  C   UNL A   1      45.903  29.292  27.311  1.00  0.00     0.049 A 
ATOM     53  C   UNL A   1      41.211  30.920  30.068  1.00  0.00     0.074 A 
ATOM     54  C   UNL A   1      46.948  30.196  27.316  1.00  0.00     0.029 A 
ATOM     55  N   UNL A   1      44.872  29.868  28.048  1.00  0.00    -0.354 N 
ATOM     56  N   UNL A   1      42.354  30.659  29.472  1.00  0.00    -0.248 NA
ATOM     57  C   UNL A   1      41.172  32.211  30.763  1.00  0.00     0.031 C 
ATOM     58  C   UNL A   1      46.572  31.290  28.103  1.00  0.00     0.029 A 
ATOM     59  C   UNL A   1      45.264  31.107  28.526  1.00  0.00     0.049 A 
ATOM     60  H   UNL A   1      43.993  29.456  28.206  1.00  0.00     0.167 HD
ATOM     61  C   UNL A   1      43.160  31.772  29.691  1.00  0.00     0.074 A 
ATOM     62  C   UNL A   1      42.362  32.709  30.461  1.00  0.00     0.031 C 
ATOM     63  C   UNL A   1      44.438  32.008  29.295  1.00  0.00     0.034 A 
BRANCH  50  64
ATOM     64  C   UNL A   1      47.051  27.422  26.002  1.00  0.00     0.023 A 
ATOM     65  C   UNL A   1      47.998  26.656  26.707  1.00  0.00     0.031 A 
ATOM     66  C   UNL A   1      47.300  27.676  24.643  1.00  0.00     0.131 A 
ATOM     67  C   UNL A   1      49.184  26.250  26.079  1.00  0.00     0.055 A 
ATOM     68  C   UNL A   1      48.441  27.189  23.997  1.00  0.00     0.041 A 
ATOM     69  F   UNL A   1      46.450  28.420  23.918  1.00  0.00    -0.206 F 
ATOM     70  C   UNL A   1      49.401  26.487  24.721  1.00  0.00     0.022 A 
BRANCH  67  71
ATOM     71  S   UNL A   1      50.505  25.545  27.102  1.00  0.00     0.124 S 
ATOM     72  O   UNL A   1      50.717  26.609  28.080  1.00  0.00    -0.237 OA
ATOM     73  O   UNL A   1      49.891  24.323  27.611  1.00  0.00    -0.237 OA
ATOM     74  O   UNL A   1      51.602  25.346  26.157  1.00  0.00    -0.744 OA
ENDBRANCH  67  71
ENDBRANCH  50  64
BRANCH  51  75
ATOM     75  C   UNL A   1      38.776  30.497  30.926  1.00  0.00     0.023 A 
ATOM     76  C   UNL A   1      37.889  31.466  30.433  1.00  0.00     0.031 A 
ATOM     77  C   UNL A   1      38.512  29.948  32.194  1.00  0.00     0.131 A 
ATOM     78  C   UNL A   1      36.806  31.893  31.218  1.00  0.00     0.055 A 
ATOM     79  C   UNL A   1      37.403  30.337  32.949  1.00  0.00     0.041 A 
ATOM     80  F   UNL A   1      39.317  29.005  32.708  1.00  0.00    -0.206 F 
ATOM     81  C   UNL A   1      36.550  31.326  32.467  1.00  0.00     0.022 A 
BRANCH  78  82
ATOM     82  S   UNL A   1      35.784  33.260  30.609  1.00  0.00     0.124 S 
ATOM     83  O   UNL A   1      36.302  33.440  29.258  1.00  0.00    -0.237 OA
ATOM     84  O   UNL A   1      34.441  32.701  30.713  1.00  0.00    -0.237 OA
ATOM     85  O   UNL A   1      36.079  34.346  31.542  1.00  0.00    -0.744 OA
ENDBRANCH  78  82
ENDBRANCH  51  75
BRANCH  63  86
ATOM     86  C   UNL A   1      45.017  33.352  29.653  1.00  0.00     0.023 A 
ATOM     87  C   UNL A   1      44.929  34.448  28.781  1.00  0.00     0.031 A 
ATOM     88  C   UNL A   1      45.670  33.531  30.886  1.00  0.00     0.131 A 
ATOM     89  C   UNL A   1      45.543  35.660  29.124  1.00  0.00     0.055 A 
ATOM     90  C   UNL A   1      46.218  34.760  31.252  1.00  0.00     0.041 A 
ATOM     91  F   UNL A   1      45.781  32.514  31.754  1.00  0.00    -0.206 F 
ATOM     92  C   UNL A   1      46.169  35.830  30.362  1.00  0.00     0.022 A 
BRANCH  89  93
ATOM     93  S   UNL A   1      45.602  36.981  27.884  1.00  0.00     0.124 S 
ATOM     94  O   UNL A   1      46.946  36.824  27.340  1.00  0.00    -0.237 OA
ATOM     95  O   UNL A   1      44.506  36.619  26.990  1.00  0.00    -0.237 OA
ATOM     96  O   UNL A   1      45.387  38.196  28.668  1.00  0.00    -0.744 OA
ENDBRANCH  89  93
ENDBRANCH  63  86
ENDBRANCH  37  38
ENDBRANCH  29  32
ENDBRANCH  27  28
ENDBRANCH  26  27
ENDBRANCH  25  26
ENDBRANCH   1  25
TORSDOF 21
ENDMDL
