MODEL 1
REMARK VINA RESULT:     -12.5      0.000      0.000
REMARK SMILES Cc1cc(Cl)cc2c1O[C@H](C(F)(F)F)C(C(=O)NCCCCNC(=O)c1ccc(-c3c4nc(c(-c5cc(S(=O)(=O)[O-])ccc5F)c5ccc([nH]5)c(-c5cc(S(=O)(=O)[O-])ccc5F)c5nc(c(-c6cc(S(=O)(=O)[O-])ccc6F)c6ccc3[nH]6)C=C5)C=C4)cc1)=C2
REMARK SMILES IDX 21 1 20 2 19 3 18 4 16 5 17 6 15 8 1 9 2 10 3 11 8 12 4 13
REMARK SMILES IDX 7 14 9 15 5 16 6 17 89 18 10 19 11 20 12 21 13 22 14 23
REMARK SMILES IDX 22 24 23 25 24 26 25 28 26 29 27 30 88 31 28 32 87 33 29 34
REMARK SMILES IDX 30 35 31 36 81 37 32 38 86 39 80 40 82 41 33 42 85 43 79 44
REMARK SMILES IDX 78 45 34 47 66 48 46 49 65 50 47 51 50 52 64 53 83 54 48 55
REMARK SMILES IDX 49 56 63 58 84 59 51 60 35 61 36 62 44 63 37 64 43 65 45 66
REMARK SMILES IDX 42 67 38 68 39 69 40 70 41 71 67 72 68 73 76 74 69 75 75 76
REMARK SMILES IDX 77 77 74 78 70 79 71 80 72 81 73 82 52 83 53 84 61 85 54 86
REMARK SMILES IDX 60 87 62 88 59 89 55 90 56 91 57 92 58 93
REMARK H PARENT 18 7 23 27 82 46 50 57
REMARK Flexibility Score: inf
ROOT
ATOM      1  C   UNL A   1      31.527  28.465  25.445  1.00  0.00     0.023 C 
ENDROOT
BRANCH   1   2
ATOM      2  C   UNL A   1      31.315  27.270  26.379  1.00  0.00     0.023 C 
BRANCH   2   3
ATOM      3  C   UNL A   1      30.678  26.057  25.705  1.00  0.00     0.116 C 
BRANCH   3   4
ATOM      4  N   UNL A   1      30.909  26.052  24.272  1.00  0.00    -0.352 N 
ATOM      5  C   UNL A   1      31.687  25.373  23.399  1.00  0.00     0.251 C 
ATOM      6  O   UNL A   1      31.573  25.712  22.216  1.00  0.00    -0.270 OA
ATOM      7  H   UNL A   1      30.350  26.721  23.814  1.00  0.00     0.163 HD
BRANCH   5   8
ATOM      8  C   UNL A   1      32.637  24.278  23.757  1.00  0.00     0.067 C 
ATOM      9  C   UNL A   1      36.669  21.177  24.613  1.00  0.00     0.048 C 
ATOM     10  C   UNL A   1      35.173  21.036  24.646  1.00  0.00    -0.007 A 
ATOM     11  C   UNL A   1      34.601  19.806  24.998  1.00  0.00     0.027 A 
ATOM     12  C   UNL A   1      34.327  22.095  24.286  1.00  0.00     0.131 A 
ATOM     13  C   UNL A   1      33.215  19.651  25.005  1.00  0.00     0.042 A 
ATOM     14  C   UNL A   1      32.936  21.939  24.292  1.00  0.00     0.019 A 
ATOM     15  O   UNL A   1      34.910  23.263  23.882  1.00  0.00    -0.475 OA
ATOM     16  Cl  UNL A   1      32.532  18.132  25.440  1.00  0.00    -0.084 Cl
ATOM     17  C   UNL A   1      32.380  20.710  24.654  1.00  0.00     0.032 A 
ATOM     18  C   UNL A   1      32.089  23.056  23.891  1.00  0.00     0.025 C 
ATOM     19  C   UNL A   1      34.105  24.468  24.015  1.00  0.00     0.314 C 
BRANCH  19  20
ATOM     20  C   UNL A   1      34.392  25.120  25.382  1.00  0.00     0.429 C 
ATOM     21  F   UNL A   1      33.509  24.676  26.312  1.00  0.00    -0.167 F 
ATOM     22  F   UNL A   1      35.626  24.825  25.849  1.00  0.00    -0.167 F 
ATOM     23  F   UNL A   1      34.295  26.467  25.345  1.00  0.00    -0.167 F 
ENDBRANCH  19  20
ENDBRANCH   5   8
ENDBRANCH   3   4
ENDBRANCH   2   3
ENDBRANCH   1   2
BRANCH   1  24
ATOM     24  C   UNL A   1      32.696  29.382  25.802  1.00  0.00     0.116 C 
BRANCH  24  25
ATOM     25  N   UNL A   1      32.290  30.728  26.182  1.00  0.00    -0.352 N 
ATOM     26  C   UNL A   1      32.939  31.602  27.022  1.00  0.00     0.251 C 
ATOM     27  H   UNL A   1      31.448  31.051  25.789  1.00  0.00     0.163 HD
ATOM     28  O   UNL A   1      32.429  32.679  27.310  1.00  0.00    -0.269 OA
BRANCH  26  29
ATOM     29  C   UNL A   1      34.232  31.197  27.603  1.00  0.00     0.039 A 
ATOM     30  C   UNL A   1      35.198  32.176  27.842  1.00  0.00     0.014 A 
ATOM     31  C   UNL A   1      34.450  29.868  27.980  1.00  0.00     0.014 A 
ATOM     32  C   UNL A   1      36.360  31.834  28.533  1.00  0.00     0.010 A 
ATOM     33  C   UNL A   1      35.583  29.543  28.717  1.00  0.00     0.010 A 
ATOM     34  C   UNL A   1      36.542  30.525  29.010  1.00  0.00    -0.014 A 
BRANCH  34  35
ATOM     35  C   UNL A   1      37.730  30.165  29.820  1.00  0.00     0.031 A 
ATOM     36  C   UNL A   1      38.785  29.267  29.242  1.00  0.00     0.074 A 
ATOM     37  C   UNL A   1      37.827  30.604  31.089  1.00  0.00     0.049 A 
ATOM     38  N   UNL A   1      39.854  28.776  29.813  1.00  0.00    -0.248 NA
ATOM     39  C   UNL A   1      38.594  28.842  27.847  1.00  0.00     0.031 C 
ATOM     40  C   UNL A   1      36.847  31.455  31.769  1.00  0.00     0.029 A 
ATOM     41  N   UNL A   1      38.797  30.395  32.037  1.00  0.00    -0.354 N 
ATOM     42  C   UNL A   1      40.459  27.975  28.851  1.00  0.00     0.074 A 
ATOM     43  C   UNL A   1      39.608  28.007  27.681  1.00  0.00     0.031 C 
ATOM     44  C   UNL A   1      37.283  31.721  33.011  1.00  0.00     0.029 A 
ATOM     45  C   UNL A   1      38.551  31.032  33.229  1.00  0.00     0.049 A 
ATOM     46  H   UNL A   1      39.594  29.840  31.876  1.00  0.00     0.167 HD
ATOM     47  C   UNL A   1      41.628  27.296  28.930  1.00  0.00     0.034 A 
ATOM     48  C   UNL A   1      39.266  31.055  34.371  1.00  0.00     0.034 A 
ATOM     49  C   UNL A   1      42.477  27.290  30.095  1.00  0.00     0.049 A 
ATOM     50  C   UNL A   1      40.554  30.283  34.442  1.00  0.00     0.074 A 
ATOM     51  C   UNL A   1      43.704  26.676  30.264  1.00  0.00     0.029 A 
ATOM     52  N   UNL A   1      42.185  27.933  31.290  1.00  0.00    -0.354 N 
ATOM     53  N   UNL A   1      41.117  29.536  33.522  1.00  0.00    -0.248 NA
ATOM     54  C   UNL A   1      41.300  30.354  35.705  1.00  0.00     0.031 C 
ATOM     55  C   UNL A   1      44.133  26.908  31.576  1.00  0.00     0.029 A 
ATOM     56  C   UNL A   1      43.199  27.712  32.208  1.00  0.00     0.049 A 
ATOM     57  H   UNL A   1      41.376  28.468  31.460  1.00  0.00     0.167 HD
ATOM     58  C   UNL A   1      42.293  29.058  34.090  1.00  0.00     0.074 A 
ATOM     59  C   UNL A   1      42.360  29.604  35.431  1.00  0.00     0.031 C 
ATOM     60  C   UNL A   1      43.234  28.246  33.548  1.00  0.00     0.034 A 
BRANCH  47  61
ATOM     61  C   UNL A   1      42.038  26.492  27.725  1.00  0.00     0.023 A 
ATOM     62  C   UNL A   1      41.761  25.117  27.634  1.00  0.00     0.031 A 
ATOM     63  C   UNL A   1      42.743  27.098  26.670  1.00  0.00     0.131 A 
ATOM     64  C   UNL A   1      42.246  24.379  26.545  1.00  0.00     0.055 A 
ATOM     65  C   UNL A   1      43.160  26.370  25.554  1.00  0.00     0.041 A 
ATOM     66  F   UNL A   1      43.051  28.403  26.716  1.00  0.00    -0.206 F 
ATOM     67  C   UNL A   1      42.923  24.999  25.493  1.00  0.00     0.022 A 
BRANCH  64  68
ATOM     68  S   UNL A   1      42.073  22.574  26.578  1.00  0.00     0.124 S 
ATOM     69  O   UNL A   1      42.489  22.216  25.224  1.00  0.00    -0.237 OA
ATOM     70  O   UNL A   1      42.983  22.186  27.649  1.00  0.00    -0.237 OA
ATOM     71  O   UNL A   1      40.654  22.371  26.862  1.00  0.00    -0.744 OA
ENDBRANCH  64  68
ENDBRANCH  47  61
BRANCH  48  72
ATOM     72  C   UNL A   1      38.775  31.836  35.536  1.00  0.00     0.023 A 
ATOM     73  C   UNL A   1      38.141  31.197  36.612  1.00  0.00     0.031 A 
ATOM     74  C   UNL A   1      38.949  33.230  35.596  1.00  0.00     0.131 A 
ATOM     75  C   UNL A   1      37.684  31.957  37.700  1.00  0.00     0.055 A 
ATOM     76  C   UNL A   1      38.516  33.977  36.693  1.00  0.00     0.041 A 
ATOM     77  F   UNL A   1      39.564  33.880  34.596  1.00  0.00    -0.206 F 
ATOM     78  C   UNL A   1      37.876  33.340  37.752  1.00  0.00     0.022 A 
BRANCH  75  79
ATOM     79  S   UNL A   1      36.827  31.110  39.056  1.00  0.00     0.124 S 
ATOM     80  O   UNL A   1      35.629  31.928  39.207  1.00  0.00    -0.237 OA
ATOM     81  O   UNL A   1      36.627  29.773  38.505  1.00  0.00    -0.237 OA
ATOM     82  O   UNL A   1      37.781  31.185  40.160  1.00  0.00    -0.744 OA
ENDBRANCH  75  79
ENDBRANCH  48  72
BRANCH  60  83
ATOM     83  C   UNL A   1      44.426  27.914  34.402  1.00  0.00     0.023 A 
ATOM     84  C   UNL A   1      44.441  26.776  35.226  1.00  0.00     0.031 A 
ATOM     85  C   UNL A   1      45.572  28.727  34.362  1.00  0.00     0.131 A 
ATOM     86  C   UNL A   1      45.575  26.496  36.001  1.00  0.00     0.055 A 
ATOM     87  C   UNL A   1      46.712  28.422  35.106  1.00  0.00     0.041 A 
ATOM     88  F   UNL A   1      45.603  29.824  33.589  1.00  0.00    -0.206 F 
ATOM     89  C   UNL A   1      46.716  27.302  35.935  1.00  0.00     0.022 A 
BRANCH  86  90
ATOM     90  S   UNL A   1      45.537  25.071  37.123  1.00  0.00     0.124 S 
ATOM     91  O   UNL A   1      46.624  25.384  38.044  1.00  0.00    -0.237 OA
ATOM     92  O   UNL A   1      44.190  25.142  37.680  1.00  0.00    -0.237 OA
ATOM     93  O   UNL A   1      45.778  23.932  36.239  1.00  0.00    -0.744 OA
ENDBRANCH  86  90
ENDBRANCH  60  83
ENDBRANCH  34  35
ENDBRANCH  26  29
ENDBRANCH  24  25
ENDBRANCH   1  24
TORSDOF 15
ENDMDL
MODEL 2
REMARK VINA RESULT:     -12.5      2.524      3.468
REMARK SMILES Cc1cc(Cl)cc2c1O[C@H](C(F)(F)F)C(C(=O)NCCCCNC(=O)c1ccc(-c3c4nc(c(-c5cc(S(=O)(=O)[O-])ccc5F)c5ccc([nH]5)c(-c5cc(S(=O)(=O)[O-])ccc5F)c5nc(c(-c6cc(S(=O)(=O)[O-])ccc6F)c6ccc3[nH]6)C=C5)C=C4)cc1)=C2
REMARK SMILES IDX 21 1 20 2 19 3 18 4 16 5 17 6 15 8 1 9 2 10 3 11 8 12 4 13
REMARK SMILES IDX 7 14 9 15 5 16 6 17 89 18 10 19 11 20 12 21 13 22 14 23
REMARK SMILES IDX 22 24 23 25 24 26 25 28 26 29 27 30 88 31 28 32 87 33 29 34
REMARK SMILES IDX 30 35 31 36 81 37 32 38 86 39 80 40 82 41 33 42 85 43 79 44
REMARK SMILES IDX 78 45 34 47 66 48 46 49 65 50 47 51 50 52 64 53 83 54 48 55
REMARK SMILES IDX 49 56 63 58 84 59 51 60 35 61 36 62 44 63 37 64 43 65 45 66
REMARK SMILES IDX 42 67 38 68 39 69 40 70 41 71 67 72 68 73 76 74 69 75 75 76
REMARK SMILES IDX 77 77 74 78 70 79 71 80 72 81 73 82 52 83 53 84 61 85 54 86
REMARK SMILES IDX 60 87 62 88 59 89 55 90 56 91 57 92 58 93
REMARK H PARENT 18 7 23 27 82 46 50 57
REMARK Flexibility Score: inf
ROOT
ATOM      1  C   UNL A   1      31.985  31.616  26.747  1.00  0.00     0.023 C 
ENDROOT
BRANCH   1   2
ATOM      2  C   UNL A   1      32.128  30.124  27.064  1.00  0.00     0.023 C 
BRANCH   2   3
ATOM      3  C   UNL A   1      33.543  29.580  26.881  1.00  0.00     0.116 C 
BRANCH   3   4
ATOM      4  N   UNL A   1      33.828  29.275  25.490  1.00  0.00    -0.352 N 
ATOM      5  C   UNL A   1      33.682  28.216  24.661  1.00  0.00     0.251 C 
ATOM      6  O   UNL A   1      34.089  28.389  23.508  1.00  0.00    -0.270 OA
ATOM      7  H   UNL A   1      34.238  30.042  25.029  1.00  0.00     0.163 HD
BRANCH   5   8
ATOM      8  C   UNL A   1      33.079  26.902  25.034  1.00  0.00     0.067 C 
ATOM      9  C   UNL A   1      30.288  22.970  26.867  1.00  0.00     0.048 C 
ATOM     10  C   UNL A   1      31.600  23.120  26.149  1.00  0.00    -0.007 A 
ATOM     11  C   UNL A   1      32.345  21.979  25.824  1.00  0.00     0.027 A 
ATOM     12  C   UNL A   1      32.127  24.381  25.835  1.00  0.00     0.131 A 
ATOM     13  C   UNL A   1      33.578  22.103  25.184  1.00  0.00     0.042 A 
ATOM     14  C   UNL A   1      33.365  24.506  25.194  1.00  0.00     0.019 A 
ATOM     15  O   UNL A   1      31.413  25.480  26.224  1.00  0.00    -0.475 OA
ATOM     16  Cl  UNL A   1      34.479  20.689  24.793  1.00  0.00    -0.084 Cl
ATOM     17  C   UNL A   1      34.092  23.359  24.868  1.00  0.00     0.032 A 
ATOM     18  C   UNL A   1      33.890  25.835  24.904  1.00  0.00     0.025 C 
ATOM     19  C   UNL A   1      31.657  26.707  25.478  1.00  0.00     0.314 C 
BRANCH  19  20
ATOM     20  C   UNL A   1      30.648  26.804  24.318  1.00  0.00     0.429 C 
ATOM     21  F   UNL A   1      30.975  25.929  23.334  1.00  0.00    -0.167 F 
ATOM     22  F   UNL A   1      29.387  26.502  24.699  1.00  0.00    -0.167 F 
ATOM     23  F   UNL A   1      30.610  28.036  23.765  1.00  0.00    -0.167 F 
ENDBRANCH  19  20
ENDBRANCH   5   8
ENDBRANCH   3   4
ENDBRANCH   2   3
ENDBRANCH   1   2
BRANCH   1  24
ATOM     24  C   UNL A   1      33.058  32.523  27.349  1.00  0.00     0.116 C 
BRANCH  24  25
ATOM     25  N   UNL A   1      32.593  33.875  27.626  1.00  0.00    -0.352 N 
ATOM     26  C   UNL A   1      33.073  34.760  28.562  1.00  0.00     0.251 C 
ATOM     27  H   UNL A   1      31.842  34.194  27.074  1.00  0.00     0.163 HD
ATOM     28  O   UNL A   1      32.523  35.842  28.732  1.00  0.00    -0.269 OA
BRANCH  26  29
ATOM     29  C   UNL A   1      34.229  34.361  29.385  1.00  0.00     0.039 A 
ATOM     30  C   UNL A   1      33.998  33.758  30.623  1.00  0.00     0.014 A 
ATOM     31  C   UNL A   1      35.530  34.512  28.894  1.00  0.00     0.014 A 
ATOM     32  C   UNL A   1      35.073  33.233  31.339  1.00  0.00     0.010 A 
ATOM     33  C   UNL A   1      36.593  33.938  29.583  1.00  0.00     0.010 A 
ATOM     34  C   UNL A   1      36.372  33.285  30.806  1.00  0.00    -0.014 A 
BRANCH  34  35
ATOM     35  C   UNL A   1      37.513  32.657  31.514  1.00  0.00     0.031 A 
ATOM     36  C   UNL A   1      38.244  31.508  30.882  1.00  0.00     0.074 A 
ATOM     37  C   UNL A   1      37.851  33.088  32.744  1.00  0.00     0.049 A 
ATOM     38  N   UNL A   1      39.213  30.778  31.370  1.00  0.00    -0.248 NA
ATOM     39  C   UNL A   1      37.806  31.112  29.535  1.00  0.00     0.031 C 
ATOM     40  C   UNL A   1      37.191  34.175  33.472  1.00  0.00     0.029 A 
ATOM     41  N   UNL A   1      38.835  32.665  33.602  1.00  0.00    -0.354 N 
ATOM     42  C   UNL A   1      39.494  29.828  30.395  1.00  0.00     0.074 A 
ATOM     43  C   UNL A   1      38.557  30.044  29.313  1.00  0.00     0.031 C 
ATOM     44  C   UNL A   1      37.809  34.353  34.651  1.00  0.00     0.029 A 
ATOM     45  C   UNL A   1      38.883  33.372  34.778  1.00  0.00     0.049 A 
ATOM     46  H   UNL A   1      39.447  31.923  33.393  1.00  0.00     0.167 HD
ATOM     47  C   UNL A   1      40.460  28.878  30.394  1.00  0.00     0.034 A 
ATOM     48  C   UNL A   1      39.699  33.243  35.843  1.00  0.00     0.034 A 
ATOM     49  C   UNL A   1      41.400  28.687  31.470  1.00  0.00     0.049 A 
ATOM     50  C   UNL A   1      40.756  32.173  35.827  1.00  0.00     0.074 A 
ATOM     51  C   UNL A   1      42.447  27.787  31.550  1.00  0.00     0.029 A 
ATOM     52  N   UNL A   1      41.406  29.412  32.653  1.00  0.00    -0.354 N 
ATOM     53  N   UNL A   1      41.014  31.286  34.895  1.00  0.00    -0.248 NA
ATOM     54  C   UNL A   1      41.627  32.084  37.006  1.00  0.00     0.031 C 
ATOM     55  C   UNL A   1      43.058  27.936  32.800  1.00  0.00     0.029 A 
ATOM     56  C   UNL A   1      42.425  28.965  33.479  1.00  0.00     0.049 A 
ATOM     57  H   UNL A   1      40.778  30.137  32.875  1.00  0.00     0.167 HD
ATOM     58  C   UNL A   1      42.088  30.541  35.370  1.00  0.00     0.074 A 
ATOM     59  C   UNL A   1      42.432  31.085  36.669  1.00  0.00     0.031 C 
ATOM     60  C   UNL A   1      42.736  29.505  34.781  1.00  0.00     0.034 A 
BRANCH  47  61
ATOM     61  C   UNL A   1      40.526  27.968  29.197  1.00  0.00     0.023 A 
ATOM     62  C   UNL A   1      41.451  28.188  28.161  1.00  0.00     0.031 A 
ATOM     63  C   UNL A   1      39.636  26.888  29.071  1.00  0.00     0.131 A 
ATOM     64  C   UNL A   1      41.419  27.383  27.014  1.00  0.00     0.055 A 
ATOM     65  C   UNL A   1      39.657  26.046  27.958  1.00  0.00     0.041 A 
ATOM     66  F   UNL A   1      38.719  26.645  30.022  1.00  0.00    -0.206 F 
ATOM     67  C   UNL A   1      40.544  26.299  26.915  1.00  0.00     0.022 A 
BRANCH  64  68
ATOM     68  S   UNL A   1      42.463  27.842  25.604  1.00  0.00     0.124 S 
ATOM     69  O   UNL A   1      43.776  27.950  26.236  1.00  0.00    -0.237 OA
ATOM     70  O   UNL A   1      42.282  26.717  24.695  1.00  0.00    -0.237 OA
ATOM     71  O   UNL A   1      41.890  29.108  25.153  1.00  0.00    -0.744 OA
ENDBRANCH  64  68
ENDBRANCH  47  61
BRANCH  48  72
ATOM     72  C   UNL A   1      39.545  34.150  37.009  1.00  0.00     0.023 A 
ATOM     73  C   UNL A   1      38.961  33.694  38.200  1.00  0.00     0.031 A 
ATOM     74  C   UNL A   1      39.994  35.481  36.953  1.00  0.00     0.131 A 
ATOM     75  C   UNL A   1      38.824  34.571  39.288  1.00  0.00     0.055 A 
ATOM     76  C   UNL A   1      39.880  36.341  38.047  1.00  0.00     0.041 A 
ATOM     77  F   UNL A   1      40.573  35.954  35.839  1.00  0.00    -0.206 F 
ATOM     78  C   UNL A   1      39.288  35.887  39.223  1.00  0.00     0.022 A 
BRANCH  75  79
ATOM     79  S   UNL A   1      38.024  33.967  40.800  1.00  0.00     0.124 S 
ATOM     80  O   UNL A   1      36.947  33.146  40.258  1.00  0.00    -0.237 OA
ATOM     81  O   UNL A   1      39.112  33.249  41.456  1.00  0.00    -0.237 OA
ATOM     82  O   UNL A   1      37.600  35.193  41.472  1.00  0.00    -0.744 OA
ENDBRANCH  75  79
ENDBRANCH  48  72
BRANCH  60  83
ATOM     83  C   UNL A   1      43.892  28.905  35.530  1.00  0.00     0.023 A 
ATOM     84  C   UNL A   1      43.708  27.841  36.429  1.00  0.00     0.031 A 
ATOM     85  C   UNL A   1      45.197  29.380  35.313  1.00  0.00     0.131 A 
ATOM     86  C   UNL A   1      44.813  27.302  37.102  1.00  0.00     0.055 A 
ATOM     87  C   UNL A   1      46.297  28.814  35.957  1.00  0.00     0.041 A 
ATOM     88  F   UNL A   1      45.421  30.394  34.463  1.00  0.00    -0.206 F 
ATOM     89  C   UNL A   1      46.108  27.771  36.861  1.00  0.00     0.022 A 
BRANCH  86  90
ATOM     90  S   UNL A   1      44.538  25.989  38.323  1.00  0.00     0.124 S 
ATOM     91  O   UNL A   1      44.076  26.748  39.481  1.00  0.00    -0.237 OA
ATOM     92  O   UNL A   1      43.536  25.152  37.669  1.00  0.00    -0.237 OA
ATOM     93  O   UNL A   1      45.856  25.374  38.468  1.00  0.00    -0.744 OA
ENDBRANCH  86  90
ENDBRANCH  60  83
ENDBRANCH  34  35
ENDBRANCH  26  29
ENDBRANCH  24  25
ENDBRANCH   1  24
TORSDOF 15
ENDMDL
MODEL 3
REMARK VINA RESULT:     -12.3      5.365     10.252
REMARK SMILES Cc1cc(Cl)cc2c1O[C@H](C(F)(F)F)C(C(=O)NCCCCNC(=O)c1ccc(-c3c4nc(c(-c5cc(S(=O)(=O)[O-])ccc5F)c5ccc([nH]5)c(-c5cc(S(=O)(=O)[O-])ccc5F)c5nc(c(-c6cc(S(=O)(=O)[O-])ccc6F)c6ccc3[nH]6)C=C5)C=C4)cc1)=C2
REMARK SMILES IDX 21 1 20 2 19 3 18 4 16 5 17 6 15 8 1 9 2 10 3 11 8 12 4 13
REMARK SMILES IDX 7 14 9 15 5 16 6 17 89 18 10 19 11 20 12 21 13 22 14 23
REMARK SMILES IDX 22 24 23 25 24 26 25 28 26 29 27 30 88 31 28 32 87 33 29 34
REMARK SMILES IDX 30 35 31 36 81 37 32 38 86 39 80 40 82 41 33 42 85 43 79 44
REMARK SMILES IDX 78 45 34 47 66 48 46 49 65 50 47 51 50 52 64 53 83 54 48 55
REMARK SMILES IDX 49 56 63 58 84 59 51 60 35 61 36 62 44 63 37 64 43 65 45 66
REMARK SMILES IDX 42 67 38 68 39 69 40 70 41 71 67 72 68 73 76 74 69 75 75 76
REMARK SMILES IDX 77 77 74 78 70 79 71 80 72 81 73 82 52 83 53 84 61 85 54 86
REMARK SMILES IDX 60 87 62 88 59 89 55 90 56 91 57 92 58 93
REMARK H PARENT 18 7 23 27 82 46 50 57
REMARK Flexibility Score: inf
ROOT
ATOM      1  C   UNL A   1      34.716  21.908  25.692  1.00  0.00     0.023 C 
ENDROOT
BRANCH   1   2
ATOM      2  C   UNL A   1      34.347  21.530  27.129  1.00  0.00     0.023 C 
BRANCH   2   3
ATOM      3  C   UNL A   1      33.458  22.551  27.834  1.00  0.00     0.116 C 
BRANCH   3   4
ATOM      4  N   UNL A   1      32.102  22.536  27.316  1.00  0.00    -0.352 N 
ATOM      5  C   UNL A   1      31.350  23.304  26.494  1.00  0.00     0.251 C 
ATOM      6  O   UNL A   1      30.189  22.916  26.327  1.00  0.00    -0.270 OA
ATOM      7  H   UNL A   1      31.595  21.761  27.652  1.00  0.00     0.163 HD
BRANCH   5   8
ATOM      8  C   UNL A   1      31.815  24.541  25.800  1.00  0.00     0.067 C 
ATOM      9  C   UNL A   1      33.960  28.119  22.767  1.00  0.00     0.048 C 
ATOM     10  C   UNL A   1      33.187  28.119  24.056  1.00  0.00    -0.007 A 
ATOM     11  C   UNL A   1      32.897  29.336  24.689  1.00  0.00     0.027 A 
ATOM     12  C   UNL A   1      32.786  26.926  24.674  1.00  0.00     0.131 A 
ATOM     13  C   UNL A   1      32.206  29.351  25.900  1.00  0.00     0.042 A 
ATOM     14  C   UNL A   1      32.094  26.941  25.890  1.00  0.00     0.019 A 
ATOM     15  O   UNL A   1      33.141  25.751  24.071  1.00  0.00    -0.475 OA
ATOM     16  Cl  UNL A   1      31.859  30.855  26.662  1.00  0.00    -0.084 Cl
ATOM     17  C   UNL A   1      31.804  28.161  26.504  1.00  0.00     0.032 A 
ATOM     18  C   UNL A   1      31.713  25.678  26.512  1.00  0.00     0.025 C 
ATOM     19  C   UNL A   1      32.322  24.589  24.386  1.00  0.00     0.314 C 
BRANCH  19  20
ATOM     20  C   UNL A   1      31.195  24.466  23.342  1.00  0.00     0.429 C 
ATOM     21  F   UNL A   1      30.888  23.161  23.131  1.00  0.00    -0.167 F 
ATOM     22  F   UNL A   1      30.053  25.073  23.735  1.00  0.00    -0.167 F 
ATOM     23  F   UNL A   1      31.536  24.997  22.147  1.00  0.00    -0.167 F 
ENDBRANCH  19  20
ENDBRANCH   5   8
ENDBRANCH   3   4
ENDBRANCH   2   3
ENDBRANCH   1   2
BRANCH   1  24
ATOM     24  C   UNL A   1      36.172  22.316  25.470  1.00  0.00     0.116 C 
BRANCH  24  25
ATOM     25  N   UNL A   1      37.093  21.190  25.412  1.00  0.00    -0.352 N 
ATOM     26  C   UNL A   1      38.424  21.167  25.757  1.00  0.00     0.251 C 
ATOM     27  H   UNL A   1      36.717  20.341  25.085  1.00  0.00     0.163 HD
ATOM     28  O   UNL A   1      39.093  20.156  25.577  1.00  0.00    -0.269 OA
BRANCH  26  29
ATOM     29  C   UNL A   1      39.035  22.394  26.300  1.00  0.00     0.039 A 
ATOM     30  C   UNL A   1      40.136  22.276  27.150  1.00  0.00     0.014 A 
ATOM     31  C   UNL A   1      38.566  23.650  25.905  1.00  0.00     0.014 A 
ATOM     32  C   UNL A   1      40.820  23.426  27.545  1.00  0.00     0.010 A 
ATOM     33  C   UNL A   1      39.282  24.790  26.254  1.00  0.00     0.010 A 
ATOM     34  C   UNL A   1      40.422  24.686  27.068  1.00  0.00    -0.014 A 
BRANCH  34  35
ATOM     35  C   UNL A   1      41.188  25.909  27.408  1.00  0.00     0.031 A 
ATOM     36  C   UNL A   1      40.557  26.974  28.257  1.00  0.00     0.074 A 
ATOM     37  C   UNL A   1      42.426  26.079  26.907  1.00  0.00     0.049 A 
ATOM     38  N   UNL A   1      41.030  28.144  28.600  1.00  0.00    -0.248 NA
ATOM     39  C   UNL A   1      39.204  26.697  28.762  1.00  0.00     0.031 C 
ATOM     40  C   UNL A   1      43.128  25.126  26.043  1.00  0.00     0.029 A 
ATOM     41  N   UNL A   1      43.315  27.113  27.050  1.00  0.00    -0.354 N 
ATOM     42  C   UNL A   1      40.029  28.748  29.351  1.00  0.00     0.074 A 
ATOM     43  C   UNL A   1      38.906  27.835  29.368  1.00  0.00     0.031 C 
ATOM     44  C   UNL A   1      44.350  25.607  25.761  1.00  0.00     0.029 A 
ATOM     45  C   UNL A   1      44.504  26.914  26.392  1.00  0.00     0.049 A 
ATOM     46  H   UNL A   1      43.118  27.922  27.575  1.00  0.00     0.167 HD
ATOM     47  C   UNL A   1      40.055  29.944  29.988  1.00  0.00     0.034 A 
ATOM     48  C   UNL A   1      45.596  27.699  26.304  1.00  0.00     0.034 A 
ATOM     49  C   UNL A   1      41.188  30.834  29.980  1.00  0.00     0.049 A 
ATOM     50  C   UNL A   1      45.599  29.028  27.006  1.00  0.00     0.074 A 
ATOM     51  C   UNL A   1      41.338  32.046  30.630  1.00  0.00     0.029 A 
ATOM     52  N   UNL A   1      42.369  30.605  29.287  1.00  0.00    -0.354 N 
ATOM     53  N   UNL A   1      44.647  29.583  27.720  1.00  0.00    -0.248 NA
ATOM     54  C   UNL A   1      46.819  29.838  26.889  1.00  0.00     0.031 C 
ATOM     55  C   UNL A   1      42.590  32.572  30.293  1.00  0.00     0.029 A 
ATOM     56  C   UNL A   1      43.243  31.663  29.476  1.00  0.00     0.049 A 
ATOM     57  H   UNL A   1      42.558  29.809  28.741  1.00  0.00     0.167 HD
ATOM     58  C   UNL A   1      45.159  30.803  28.149  1.00  0.00     0.074 A 
ATOM     59  C   UNL A   1      46.505  30.902  27.618  1.00  0.00     0.031 C 
ATOM     60  C   UNL A   1      44.571  31.753  28.918  1.00  0.00     0.034 A 
BRANCH  47  61
ATOM     61  C   UNL A   1      38.810  30.355  30.726  1.00  0.00     0.023 A 
ATOM     62  C   UNL A   1      37.788  31.084  30.090  1.00  0.00     0.031 A 
ATOM     63  C   UNL A   1      38.653  30.047  32.089  1.00  0.00     0.131 A 
ATOM     64  C   UNL A   1      36.689  31.538  30.832  1.00  0.00     0.055 A 
ATOM     65  C   UNL A   1      37.521  30.442  32.804  1.00  0.00     0.041 A 
ATOM     66  F   UNL A   1      39.607  29.372  32.749  1.00  0.00    -0.206 F 
ATOM     67  C   UNL A   1      36.537  31.203  32.179  1.00  0.00     0.022 A 
BRANCH  64  68
ATOM     68  S   UNL A   1      35.516  32.669  30.037  1.00  0.00     0.124 S 
ATOM     69  O   UNL A   1      34.406  32.653  30.986  1.00  0.00    -0.237 OA
ATOM     70  O   UNL A   1      36.274  33.912  29.961  1.00  0.00    -0.237 OA
ATOM     71  O   UNL A   1      35.239  32.027  28.754  1.00  0.00    -0.744 OA
ENDBRANCH  64  68
ENDBRANCH  47  61
BRANCH  48  72
ATOM     72  C   UNL A   1      46.774  27.245  25.519  1.00  0.00     0.023 A 
ATOM     73  C   UNL A   1      46.978  27.696  24.206  1.00  0.00     0.031 A 
ATOM     74  C   UNL A   1      47.719  26.366  26.078  1.00  0.00     0.131 A 
ATOM     75  C   UNL A   1      48.096  27.251  23.484  1.00  0.00     0.055 A 
ATOM     76  C   UNL A   1      48.843  25.948  25.364  1.00  0.00     0.041 A 
ATOM     77  F   UNL A   1      47.571  25.923  27.335  1.00  0.00    -0.206 F 
ATOM     78  C   UNL A   1      49.035  26.389  24.057  1.00  0.00     0.022 A 
BRANCH  75  79
ATOM     79  S   UNL A   1      48.310  27.815  21.774  1.00  0.00     0.124 S 
ATOM     80  O   UNL A   1      49.527  28.612  21.875  1.00  0.00    -0.237 OA
ATOM     81  O   UNL A   1      48.426  26.554  21.048  1.00  0.00    -0.237 OA
ATOM     82  O   UNL A   1      47.087  28.569  21.509  1.00  0.00    -0.744 OA
ENDBRANCH  75  79
ENDBRANCH  48  72
BRANCH  60  83
ATOM     83  C   UNL A   1      45.387  32.972  29.245  1.00  0.00     0.023 A 
ATOM     84  C   UNL A   1      45.339  34.122  28.440  1.00  0.00     0.031 A 
ATOM     85  C   UNL A   1      46.194  32.994  30.396  1.00  0.00     0.131 A 
ATOM     86  C   UNL A   1      46.109  35.242  28.783  1.00  0.00     0.055 A 
ATOM     87  C   UNL A   1      46.927  34.125  30.754  1.00  0.00     0.041 A 
ATOM     88  F   UNL A   1      46.270  31.919  31.196  1.00  0.00    -0.206 F 
ATOM     89  C   UNL A   1      46.890  35.257  29.942  1.00  0.00     0.022 A 
BRANCH  86  90
ATOM     90  S   UNL A   1      46.098  36.681  27.679  1.00  0.00     0.124 S 
ATOM     91  O   UNL A   1      44.900  36.440  26.882  1.00  0.00    -0.237 OA
ATOM     92  O   UNL A   1      46.026  37.799  28.615  1.00  0.00    -0.237 OA
ATOM     93  O   UNL A   1      47.362  36.566  26.953  1.00  0.00    -0.744 OA
ENDBRANCH  86  90
ENDBRANCH  60  83
ENDBRANCH  34  35
ENDBRANCH  26  29
ENDBRANCH  24  25
ENDBRANCH   1  24
TORSDOF 15
ENDMDL
