MODEL 1
REMARK VINA RESULT:     -12.3      0.000      0.000
REMARK SMILES O=C(CNC(=O)N1CC(NCCCCNC(=O)c2ccc(-c3c4nc(c(-c5cc(S(=O)(=O)[O-])ccc5F)c5ccc([nH]5)c(-c5cc(S(=O)(=O)[O-])ccc5F)c5nc(c(-c6cc(S(=O)(=O)[O-])ccc6F)c6ccc3[nH]6)C=C5)C=C4)cc2)=[NH+]c2ccccc21)N[C@H](C(=O)[O-])c1ccccc1
REMARK SMILES IDX 12 1 11 2 10 3 7 4 8 5 87 6 9 7 82 8 86 9 81 10 83 11 85 12
REMARK SMILES IDX 84 15 5 16 4 17 6 19 3 20 2 21 1 22 88 23 89 25 93 26 94 27
REMARK SMILES IDX 98 28 95 29 97 30 96 31 90 32 91 33 92 34 13 35 14 36 15 37
REMARK SMILES IDX 16 38 17 40 18 41 19 42 80 43 20 44 79 45 21 46 22 47 23 48
REMARK SMILES IDX 73 49 24 50 78 51 72 52 74 53 25 54 77 55 71 56 70 57 26 59
REMARK SMILES IDX 58 60 38 61 57 62 39 63 42 64 56 65 75 66 40 67 41 68 55 70
REMARK SMILES IDX 76 71 43 72 27 73 28 74 36 75 29 76 35 77 37 78 34 79 30 80
REMARK SMILES IDX 31 81 32 82 33 83 59 84 60 85 68 86 61 87 67 88 69 89 66 90
REMARK SMILES IDX 62 91 63 92 64 93 65 94 44 95 45 96 53 97 46 98 52 99 54 100
REMARK SMILES IDX 51 101 47 102 48 103 49 104 50 105
REMARK H PARENT 10 13 81 14 4 18 88 24 15 39 74 58 42 69
REMARK Flexibility Score: inf
ROOT
ATOM      1  C   UNL A   1      31.990  30.163  27.126  1.00  0.00     0.048 C 
ENDROOT
BRANCH   1   2
ATOM      2  C   UNL A   1      32.140  29.331  25.857  1.00  0.00     0.233 C 
BRANCH   2   3
ATOM      3  N   UNL A   1      33.117  28.287  26.049  1.00  0.00    -0.277 N 
ATOM      4  N   UNL A   1      32.594  25.711  23.494  1.00  0.00    -0.278 N 
ATOM      5  C   UNL A   1      32.765  27.111  23.834  1.00  0.00     0.255 C 
ATOM      6  C   UNL A   1      33.736  24.907  23.727  1.00  0.00     0.093 A 
ATOM      7  C   UNL A   1      33.402  27.229  25.224  1.00  0.00     0.268 C 
ATOM      8  C   UNL A   1      34.554  25.251  24.821  1.00  0.00     0.148 A 
ATOM      9  C   UNL A   1      34.028  23.783  22.945  1.00  0.00     0.031 A 
ATOM     10  N   UNL A   1      34.279  26.358  25.651  1.00  0.00    -0.241 N 
ATOM     11  C   UNL A   1      35.607  24.402  25.168  1.00  0.00     0.054 A 
ATOM     12  C   UNL A   1      35.108  22.967  23.284  1.00  0.00     0.002 A 
ATOM     13  H   UNL A   1      33.648  28.342  26.876  1.00  0.00     0.304 HD
ATOM     14  H   UNL A   1      34.730  26.471  26.519  1.00  0.00     0.312 HD
ATOM     15  C   UNL A   1      35.882  23.263  24.406  1.00  0.00     0.005 A 
BRANCH   4  16
ATOM     16  C   UNL A   1      31.373  25.311  23.017  1.00  0.00     0.323 C 
ATOM     17  N   UNL A   1      30.495  24.690  23.846  1.00  0.00    -0.329 N 
ATOM     18  H   UNL A   1      29.701  24.313  23.401  1.00  0.00     0.165 HD
ATOM     19  O   UNL A   1      30.994  25.596  21.879  1.00  0.00    -0.248 OA
BRANCH  17  20
ATOM     20  C   UNL A   1      30.536  24.491  25.292  1.00  0.00     0.218 C 
BRANCH  20  21
ATOM     21  C   UNL A   1      30.831  23.091  25.822  1.00  0.00     0.240 C 
ATOM     22  O   UNL A   1      30.001  22.527  26.536  1.00  0.00    -0.273 OA
ATOM     23  N   UNL A   1      31.957  22.474  25.329  1.00  0.00    -0.342 N 
ATOM     24  H   UNL A   1      32.453  22.861  24.572  1.00  0.00     0.164 HD
BRANCH  23  25
ATOM     25  C   UNL A   1      32.408  21.214  25.965  1.00  0.00     0.158 C 
BRANCH  25  26
ATOM     26  C   UNL A   1      32.493  20.080  24.937  1.00  0.00    -0.020 A 
ATOM     27  C   UNL A   1      32.690  18.739  25.312  1.00  0.00     0.006 A 
ATOM     28  C   UNL A   1      32.326  20.348  23.569  1.00  0.00     0.006 A 
ATOM     29  C   UNL A   1      32.749  17.712  24.366  1.00  0.00     0.000 A 
ATOM     30  C   UNL A   1      32.401  19.317  22.622  1.00  0.00     0.000 A 
ATOM     31  C   UNL A   1      32.615  18.002  23.017  1.00  0.00     0.000 A 
ENDBRANCH  25  26
BRANCH  25  32
ATOM     32  C   UNL A   1      33.768  21.410  26.747  1.00  0.00     0.068 C 
ATOM     33  O   UNL A   1      33.686  21.973  27.879  1.00  0.00    -0.548 OA
ATOM     34  O   UNL A   1      34.801  20.940  26.166  1.00  0.00    -0.548 OA
ENDBRANCH  25  32
ENDBRANCH  23  25
ENDBRANCH  20  21
ENDBRANCH  17  20
ENDBRANCH   4  16
ENDBRANCH   2   3
ENDBRANCH   1   2
BRANCH   1  35
ATOM     35  C   UNL A   1      31.788  31.656  26.858  1.00  0.00     0.025 C 
BRANCH  35  36
ATOM     36  C   UNL A   1      33.000  32.535  27.126  1.00  0.00     0.116 C 
BRANCH  36  37
ATOM     37  N   UNL A   1      32.655  33.873  27.586  1.00  0.00    -0.352 N 
ATOM     38  C   UNL A   1      33.168  34.616  28.621  1.00  0.00     0.251 C 
ATOM     39  H   UNL A   1      31.940  34.316  27.074  1.00  0.00     0.163 HD
ATOM     40  O   UNL A   1      32.644  35.693  28.904  1.00  0.00    -0.269 OA
BRANCH  38  41
ATOM     41  C   UNL A   1      34.319  34.121  29.414  1.00  0.00     0.039 A 
ATOM     42  C   UNL A   1      34.072  33.318  30.531  1.00  0.00     0.014 A 
ATOM     43  C   UNL A   1      35.633  34.436  29.066  1.00  0.00     0.014 A 
ATOM     44  C   UNL A   1      35.143  32.781  31.251  1.00  0.00     0.010 A 
ATOM     45  C   UNL A   1      36.694  33.808  29.711  1.00  0.00     0.010 A 
ATOM     46  C   UNL A   1      36.464  32.984  30.821  1.00  0.00    -0.014 A 
BRANCH  46  47
ATOM     47  C   UNL A   1      37.613  32.359  31.530  1.00  0.00     0.031 A 
ATOM     48  C   UNL A   1      38.374  31.226  30.892  1.00  0.00     0.074 A 
ATOM     49  C   UNL A   1      37.942  32.781  32.769  1.00  0.00     0.049 A 
ATOM     50  N   UNL A   1      39.376  30.529  31.363  1.00  0.00    -0.248 NA
ATOM     51  C   UNL A   1      37.926  30.796  29.558  1.00  0.00     0.031 C 
ATOM     52  C   UNL A   1      37.246  33.832  33.515  1.00  0.00     0.029 A 
ATOM     53  N   UNL A   1      38.941  32.381  33.619  1.00  0.00    -0.354 N 
ATOM     54  C   UNL A   1      39.668  29.575  30.394  1.00  0.00     0.074 A 
ATOM     55  C   UNL A   1      38.687  29.735  29.343  1.00  0.00     0.031 C 
ATOM     56  C   UNL A   1      37.868  34.025  34.689  1.00  0.00     0.029 A 
ATOM     57  C   UNL A   1      38.972  33.079  34.806  1.00  0.00     0.049 A 
ATOM     58  H   UNL A   1      39.579  31.662  33.401  1.00  0.00     0.167 HD
ATOM     59  C   UNL A   1      40.679  28.671  30.366  1.00  0.00     0.034 A 
ATOM     60  C   UNL A   1      39.793  32.965  35.868  1.00  0.00     0.034 A 
ATOM     61  C   UNL A   1      41.653  28.530  31.422  1.00  0.00     0.049 A 
ATOM     62  C   UNL A   1      40.895  31.937  35.824  1.00  0.00     0.074 A 
ATOM     63  C   UNL A   1      42.745  27.681  31.481  1.00  0.00     0.029 A 
ATOM     64  N   UNL A   1      41.649  29.251  32.612  1.00  0.00    -0.354 N 
ATOM     65  N   UNL A   1      41.194  31.080  34.874  1.00  0.00    -0.248 NA
ATOM     66  C   UNL A   1      41.782  31.873  36.992  1.00  0.00     0.031 C 
ATOM     67  C   UNL A   1      43.353  27.833  32.732  1.00  0.00     0.029 A 
ATOM     68  C   UNL A   1      42.701  28.844  33.421  1.00  0.00     0.049 A 
ATOM     69  H   UNL A   1      40.995  29.949  32.846  1.00  0.00     0.167 HD
ATOM     70  C   UNL A   1      42.327  30.402  35.317  1.00  0.00     0.074 A 
ATOM     71  C   UNL A   1      42.667  30.967  36.607  1.00  0.00     0.031 C 
ATOM     72  C   UNL A   1      43.024  29.405  34.712  1.00  0.00     0.034 A 
BRANCH  59  73
ATOM     73  C   UNL A   1      40.758  27.753  29.166  1.00  0.00     0.023 A 
ATOM     74  C   UNL A   1      41.696  27.956  28.137  1.00  0.00     0.031 A 
ATOM     75  C   UNL A   1      39.864  26.676  29.032  1.00  0.00     0.131 A 
ATOM     76  C   UNL A   1      41.666  27.151  26.988  1.00  0.00     0.055 A 
ATOM     77  C   UNL A   1      39.898  25.823  27.926  1.00  0.00     0.041 A 
ATOM     78  F   UNL A   1      38.931  26.440  29.967  1.00  0.00    -0.206 F 
ATOM     79  C   UNL A   1      40.790  26.068  26.888  1.00  0.00     0.022 A 
BRANCH  76  80
ATOM     80  S   UNL A   1      42.681  27.631  25.562  1.00  0.00     0.124 S 
ATOM     81  O   UNL A   1      42.616  26.431  24.734  1.00  0.00    -0.237 OA
ATOM     82  O   UNL A   1      41.976  28.801  25.053  1.00  0.00    -0.237 OA
ATOM     83  O   UNL A   1      43.991  27.902  26.151  1.00  0.00    -0.744 OA
ENDBRANCH  76  80
ENDBRANCH  59  73
BRANCH  60  84
ATOM     84  C   UNL A   1      39.615  33.843  37.063  1.00  0.00     0.023 A 
ATOM     85  C   UNL A   1      39.006  33.360  38.232  1.00  0.00     0.031 A 
ATOM     86  C   UNL A   1      40.007  35.193  37.035  1.00  0.00     0.131 A 
ATOM     87  C   UNL A   1      38.756  34.231  39.304  1.00  0.00     0.055 A 
ATOM     88  C   UNL A   1      39.817  36.039  38.129  1.00  0.00     0.041 A 
ATOM     89  F   UNL A   1      40.592  35.708  35.941  1.00  0.00    -0.206 F 
ATOM     90  C   UNL A   1      39.173  35.563  39.268  1.00  0.00     0.022 A 
BRANCH  87  91
ATOM     91  S   UNL A   1      37.782  33.620  40.708  1.00  0.00     0.124 S 
ATOM     92  O   UNL A   1      37.286  34.863  41.290  1.00  0.00    -0.237 OA
ATOM     93  O   UNL A   1      36.787  32.780  40.049  1.00  0.00    -0.237 OA
ATOM     94  O   UNL A   1      38.763  32.902  41.520  1.00  0.00    -0.744 OA
ENDBRANCH  87  91
ENDBRANCH  60  84
BRANCH  72  95
ATOM     95  C   UNL A   1      44.262  28.908  35.425  1.00  0.00     0.023 A 
ATOM     96  C   UNL A   1      44.212  27.861  36.364  1.00  0.00     0.031 A 
ATOM     97  C   UNL A   1      45.506  29.520  35.188  1.00  0.00     0.131 A 
ATOM     98  C   UNL A   1      45.364  27.514  37.086  1.00  0.00     0.055 A 
ATOM     99  C   UNL A   1      46.664  29.119  35.854  1.00  0.00     0.041 A 
ATOM    100  F   UNL A   1      45.617  30.527  34.306  1.00  0.00    -0.206 F 
ATOM    101  C   UNL A   1      46.593  28.124  36.824  1.00  0.00     0.022 A 
BRANCH  98 102
ATOM    102  S   UNL A   1      45.209  26.349  38.469  1.00  0.00     0.124 S 
ATOM    103  O   UNL A   1      45.386  25.063  37.804  1.00  0.00    -0.237 OA
ATOM    104  O   UNL A   1      46.292  26.767  39.352  1.00  0.00    -0.237 OA
ATOM    105  O   UNL A   1      43.863  26.601  38.980  1.00  0.00    -0.744 OA
ENDBRANCH  98 102
ENDBRANCH  72  95
ENDBRANCH  46  47
ENDBRANCH  38  41
ENDBRANCH  36  37
ENDBRANCH  35  36
ENDBRANCH   1  35
TORSDOF 19
ENDMDL
MODEL 2
REMARK VINA RESULT:     -12.2      2.123      7.628
REMARK SMILES O=C(CNC(=O)N1CC(NCCCCNC(=O)c2ccc(-c3c4nc(c(-c5cc(S(=O)(=O)[O-])ccc5F)c5ccc([nH]5)c(-c5cc(S(=O)(=O)[O-])ccc5F)c5nc(c(-c6cc(S(=O)(=O)[O-])ccc6F)c6ccc3[nH]6)C=C5)C=C4)cc2)=[NH+]c2ccccc21)N[C@H](C(=O)[O-])c1ccccc1
REMARK SMILES IDX 12 1 11 2 10 3 7 4 8 5 87 6 9 7 82 8 86 9 81 10 83 11 85 12
REMARK SMILES IDX 84 15 5 16 4 17 6 19 3 20 2 21 1 22 88 23 89 25 93 26 94 27
REMARK SMILES IDX 98 28 95 29 97 30 96 31 90 32 91 33 92 34 13 35 14 36 15 37
REMARK SMILES IDX 16 38 17 40 18 41 19 42 80 43 20 44 79 45 21 46 22 47 23 48
REMARK SMILES IDX 73 49 24 50 78 51 72 52 74 53 25 54 77 55 71 56 70 57 26 59
REMARK SMILES IDX 58 60 38 61 57 62 39 63 42 64 56 65 75 66 40 67 41 68 55 70
REMARK SMILES IDX 76 71 43 72 27 73 28 74 36 75 29 76 35 77 37 78 34 79 30 80
REMARK SMILES IDX 31 81 32 82 33 83 59 84 60 85 68 86 61 87 67 88 69 89 66 90
REMARK SMILES IDX 62 91 63 92 64 93 65 94 44 95 45 96 53 97 46 98 52 99 54 100
REMARK SMILES IDX 51 101 47 102 48 103 49 104 50 105
REMARK H PARENT 10 13 81 14 4 18 88 24 15 39 74 58 42 69
REMARK Flexibility Score: inf
ROOT
ATOM      1  C   UNL A   1      31.477  28.422  26.950  1.00  0.00     0.048 C 
ENDROOT
BRANCH   1   2
ATOM      2  C   UNL A   1      31.709  27.367  25.874  1.00  0.00     0.233 C 
BRANCH   2   3
ATOM      3  N   UNL A   1      32.823  26.521  26.227  1.00  0.00    -0.277 N 
ATOM      4  N   UNL A   1      33.841  24.628  23.257  1.00  0.00    -0.278 N 
ATOM      5  C   UNL A   1      33.511  25.900  23.870  1.00  0.00     0.255 C 
ATOM      6  C   UNL A   1      35.026  24.030  23.749  1.00  0.00     0.093 A 
ATOM      7  C   UNL A   1      33.626  25.784  25.394  1.00  0.00     0.268 C 
ATOM      8  C   UNL A   1      35.338  24.238  25.106  1.00  0.00     0.148 A 
ATOM      9  C   UNL A   1      35.841  23.221  22.946  1.00  0.00     0.031 A 
ATOM     10  N   UNL A   1      34.528  25.022  25.955  1.00  0.00    -0.241 N 
ATOM     11  C   UNL A   1      36.419  23.551  25.662  1.00  0.00     0.054 A 
ATOM     12  C   UNL A   1      36.940  22.573  23.510  1.00  0.00     0.002 A 
ATOM     13  H   UNL A   1      33.034  26.466  27.186  1.00  0.00     0.304 HD
ATOM     14  H   UNL A   1      34.638  24.996  26.934  1.00  0.00     0.312 HD
ATOM     15  C   UNL A   1      37.216  22.720  24.870  1.00  0.00     0.005 A 
BRANCH   4  16
ATOM     16  C   UNL A   1      32.985  24.131  22.308  1.00  0.00     0.323 C 
ATOM     17  N   UNL A   1      31.765  23.663  22.677  1.00  0.00    -0.329 N 
ATOM     18  H   UNL A   1      31.267  23.201  21.964  1.00  0.00     0.165 HD
ATOM     19  O   UNL A   1      33.242  24.195  21.103  1.00  0.00    -0.248 OA
BRANCH  17  20
ATOM     20  C   UNL A   1      31.071  23.736  23.960  1.00  0.00     0.218 C 
BRANCH  20  21
ATOM     21  C   UNL A   1      31.284  22.606  24.963  1.00  0.00     0.240 C 
ATOM     22  O   UNL A   1      30.653  22.609  26.020  1.00  0.00    -0.273 OA
ATOM     23  N   UNL A   1      32.066  21.554  24.544  1.00  0.00    -0.342 N 
ATOM     24  H   UNL A   1      32.344  21.477  23.602  1.00  0.00     0.164 HD
BRANCH  23  25
ATOM     25  C   UNL A   1      32.483  20.543  25.542  1.00  0.00     0.158 C 
BRANCH  25  26
ATOM     26  C   UNL A   1      32.647  19.164  24.892  1.00  0.00    -0.020 A 
ATOM     27  C   UNL A   1      32.682  18.991  23.498  1.00  0.00     0.006 A 
ATOM     28  C   UNL A   1      32.821  18.020  25.688  1.00  0.00     0.006 A 
ATOM     29  C   UNL A   1      32.850  17.730  22.918  1.00  0.00     0.000 A 
ATOM     30  C   UNL A   1      32.974  16.756  25.102  1.00  0.00     0.000 A 
ATOM     31  C   UNL A   1      32.986  16.609  23.721  1.00  0.00     0.000 A 
ENDBRANCH  25  26
BRANCH  25  32
ATOM     32  C   UNL A   1      33.785  20.992  26.319  1.00  0.00     0.068 C 
ATOM     33  O   UNL A   1      34.890  20.710  25.766  1.00  0.00    -0.548 OA
ATOM     34  O   UNL A   1      33.578  21.626  27.405  1.00  0.00    -0.548 OA
ENDBRANCH  25  32
ENDBRANCH  23  25
ENDBRANCH  20  21
ENDBRANCH  17  20
ENDBRANCH   4  16
ENDBRANCH   2   3
ENDBRANCH   1   2
BRANCH   1  35
ATOM     35  C   UNL A   1      31.697  29.854  26.460  1.00  0.00     0.025 C 
BRANCH  35  36
ATOM     36  C   UNL A   1      33.034  30.472  26.838  1.00  0.00     0.116 C 
BRANCH  36  37
ATOM     37  N   UNL A   1      32.986  31.922  26.975  1.00  0.00    -0.352 N 
ATOM     38  C   UNL A   1      33.793  32.773  27.688  1.00  0.00     0.251 C 
ATOM     39  H   UNL A   1      32.257  32.360  26.478  1.00  0.00     0.163 HD
ATOM     40  O   UNL A   1      33.497  33.966  27.753  1.00  0.00    -0.269 OA
BRANCH  38  41
ATOM     41  C   UNL A   1      34.990  32.267  28.401  1.00  0.00     0.039 A 
ATOM     42  C   UNL A   1      34.874  31.111  29.177  1.00  0.00     0.014 A 
ATOM     43  C   UNL A   1      36.222  32.917  28.309  1.00  0.00     0.014 A 
ATOM     44  C   UNL A   1      36.004  30.575  29.799  1.00  0.00     0.010 A 
ATOM     45  C   UNL A   1      37.365  32.320  28.831  1.00  0.00     0.010 A 
ATOM     46  C   UNL A   1      37.270  31.149  29.595  1.00  0.00    -0.014 A 
BRANCH  46  47
ATOM     47  C   UNL A   1      38.495  30.549  30.188  1.00  0.00     0.031 A 
ATOM     48  C   UNL A   1      38.953  30.963  31.563  1.00  0.00     0.074 A 
ATOM     49  C   UNL A   1      39.221  29.667  29.471  1.00  0.00     0.049 A 
ATOM     50  N   UNL A   1      40.011  30.584  32.235  1.00  0.00    -0.248 NA
ATOM     51  C   UNL A   1      38.131  31.962  32.262  1.00  0.00     0.031 C 
ATOM     52  C   UNL A   1      38.911  29.229  28.108  1.00  0.00     0.029 A 
ATOM     53  N   UNL A   1      40.366  28.979  29.784  1.00  0.00    -0.354 N 
ATOM     54  C   UNL A   1      39.986  31.305  33.424  1.00  0.00     0.074 A 
ATOM     55  C   UNL A   1      38.852  32.198  33.347  1.00  0.00     0.031 C 
ATOM     56  C   UNL A   1      39.814  28.314  27.722  1.00  0.00     0.029 A 
ATOM     57  C   UNL A   1      40.798  28.138  28.784  1.00  0.00     0.049 A 
ATOM     58  H   UNL A   1      40.836  29.078  30.645  1.00  0.00     0.167 HD
ATOM     59  C   UNL A   1      40.813  31.210  34.495  1.00  0.00     0.034 A 
ATOM     60  C   UNL A   1      41.869  27.321  28.727  1.00  0.00     0.034 A 
ATOM     61  C   UNL A   1      41.938  30.307  34.556  1.00  0.00     0.049 A 
ATOM     62  C   UNL A   1      42.787  27.249  29.921  1.00  0.00     0.074 A 
ATOM     63  C   UNL A   1      42.817  30.093  35.605  1.00  0.00     0.029 A 
ATOM     64  N   UNL A   1      42.349  29.473  33.522  1.00  0.00    -0.354 N 
ATOM     65  N   UNL A   1      42.718  27.895  31.063  1.00  0.00    -0.248 NA
ATOM     66  C   UNL A   1      43.921  26.321  29.823  1.00  0.00     0.031 C 
ATOM     67  C   UNL A   1      43.798  29.191  35.179  1.00  0.00     0.029 A 
ATOM     68  C   UNL A   1      43.483  28.767  33.898  1.00  0.00     0.049 A 
ATOM     69  H   UNL A   1      41.900  29.394  32.649  1.00  0.00     0.167 HD
ATOM     70  C   UNL A   1      43.779  27.423  31.831  1.00  0.00     0.074 A 
ATOM     71  C   UNL A   1      44.455  26.422  31.031  1.00  0.00     0.031 C 
ATOM     72  C   UNL A   1      44.158  27.780  33.086  1.00  0.00     0.034 A 
BRANCH  59  73
ATOM     73  C   UNL A   1      40.541  32.124  35.668  1.00  0.00     0.023 A 
ATOM     74  C   UNL A   1      39.498  31.871  36.579  1.00  0.00     0.031 A 
ATOM     75  C   UNL A   1      41.313  33.282  35.865  1.00  0.00     0.131 A 
ATOM     76  C   UNL A   1      39.205  32.801  37.590  1.00  0.00     0.055 A 
ATOM     77  C   UNL A   1      41.073  34.158  36.926  1.00  0.00     0.041 A 
ATOM     78  F   UNL A   1      42.309  33.593  35.020  1.00  0.00    -0.206 F 
ATOM     79  C   UNL A   1      40.003  33.930  37.786  1.00  0.00     0.022 A 
BRANCH  76  80
ATOM     80  S   UNL A   1      37.676  32.593  38.546  1.00  0.00     0.124 S 
ATOM     81  O   UNL A   1      37.679  31.155  38.800  1.00  0.00    -0.237 OA
ATOM     82  O   UNL A   1      37.909  33.448  39.703  1.00  0.00    -0.237 OA
ATOM     83  O   UNL A   1      36.635  33.054  37.630  1.00  0.00    -0.744 OA
ENDBRANCH  76  80
ENDBRANCH  59  73
BRANCH  60  84
ATOM     84  C   UNL A   1      42.136  26.502  27.508  1.00  0.00     0.023 A 
ATOM     85  C   UNL A   1      41.791  25.142  27.460  1.00  0.00     0.031 A 
ATOM     86  C   UNL A   1      42.787  27.055  26.391  1.00  0.00     0.131 A 
ATOM     87  C   UNL A   1      42.145  24.367  26.344  1.00  0.00     0.055 A 
ATOM     88  C   UNL A   1      43.078  26.296  25.255  1.00  0.00     0.041 A 
ATOM     89  F   UNL A   1      43.143  28.350  26.385  1.00  0.00    -0.206 F 
ATOM     90  C   UNL A   1      42.771  24.939  25.234  1.00  0.00     0.022 A 
BRANCH  87  91
ATOM     91  S   UNL A   1      41.868  22.576  26.409  1.00  0.00     0.124 S 
ATOM     92  O   UNL A   1      42.289  22.258  27.770  1.00  0.00    -0.237 OA
ATOM     93  O   UNL A   1      40.436  22.476  26.143  1.00  0.00    -0.237 OA
ATOM     94  O   UNL A   1      42.734  22.055  25.353  1.00  0.00    -0.744 OA
ENDBRANCH  87  91
ENDBRANCH  60  84
BRANCH  72  95
ATOM     95  C   UNL A   1      45.331  27.035  33.684  1.00  0.00     0.023 A 
ATOM     96  C   UNL A   1      45.167  25.828  34.388  1.00  0.00     0.031 A 
ATOM     97  C   UNL A   1      46.630  27.565  33.578  1.00  0.00     0.131 A 
ATOM     98  C   UNL A   1      46.268  25.236  35.026  1.00  0.00     0.055 A 
ATOM     99  C   UNL A   1      47.733  26.930  34.150  1.00  0.00     0.041 A 
ATOM    100  F   UNL A   1      46.850  28.715  32.921  1.00  0.00    -0.206 F 
ATOM    101  C   UNL A   1      47.553  25.770  34.895  1.00  0.00     0.022 A 
BRANCH  98 102
ATOM    102  S   UNL A   1      45.980  23.833  36.140  1.00  0.00     0.124 S 
ATOM    103  O   UNL A   1      46.773  22.781  35.516  1.00  0.00    -0.237 OA
ATOM    104  O   UNL A   1      46.480  24.340  37.414  1.00  0.00    -0.237 OA
ATOM    105  O   UNL A   1      44.533  23.638  36.078  1.00  0.00    -0.744 OA
ENDBRANCH  98 102
ENDBRANCH  72  95
ENDBRANCH  46  47
ENDBRANCH  38  41
ENDBRANCH  36  37
ENDBRANCH  35  36
ENDBRANCH   1  35
TORSDOF 19
ENDMDL
MODEL 3
REMARK VINA RESULT:     -12.1      1.848      7.458
REMARK SMILES O=C(CNC(=O)N1CC(NCCCCNC(=O)c2ccc(-c3c4nc(c(-c5cc(S(=O)(=O)[O-])ccc5F)c5ccc([nH]5)c(-c5cc(S(=O)(=O)[O-])ccc5F)c5nc(c(-c6cc(S(=O)(=O)[O-])ccc6F)c6ccc3[nH]6)C=C5)C=C4)cc2)=[NH+]c2ccccc21)N[C@H](C(=O)[O-])c1ccccc1
REMARK SMILES IDX 12 1 11 2 10 3 7 4 8 5 87 6 9 7 82 8 86 9 81 10 83 11 85 12
REMARK SMILES IDX 84 15 5 16 4 17 6 19 3 20 2 21 1 22 88 23 89 25 93 26 94 27
REMARK SMILES IDX 98 28 95 29 97 30 96 31 90 32 91 33 92 34 13 35 14 36 15 37
REMARK SMILES IDX 16 38 17 40 18 41 19 42 80 43 20 44 79 45 21 46 22 47 23 48
REMARK SMILES IDX 73 49 24 50 78 51 72 52 74 53 25 54 77 55 71 56 70 57 26 59
REMARK SMILES IDX 58 60 38 61 57 62 39 63 42 64 56 65 75 66 40 67 41 68 55 70
REMARK SMILES IDX 76 71 43 72 27 73 28 74 36 75 29 76 35 77 37 78 34 79 30 80
REMARK SMILES IDX 31 81 32 82 33 83 59 84 60 85 68 86 61 87 67 88 69 89 66 90
REMARK SMILES IDX 62 91 63 92 64 93 65 94 44 95 45 96 53 97 46 98 52 99 54 100
REMARK SMILES IDX 51 101 47 102 48 103 49 104 50 105
REMARK H PARENT 10 13 81 14 4 18 88 24 15 39 74 58 42 69
REMARK Flexibility Score: inf
ROOT
ATOM      1  C   UNL A   1      34.093  30.719  27.572  1.00  0.00     0.048 C 
ENDROOT
BRANCH   1   2
ATOM      2  C   UNL A   1      32.954  29.892  26.983  1.00  0.00     0.233 C 
BRANCH   2   3
ATOM      3  N   UNL A   1      33.244  28.483  27.090  1.00  0.00    -0.277 N 
ATOM      4  N   UNL A   1      33.778  27.140  23.722  1.00  0.00    -0.278 N 
ATOM      5  C   UNL A   1      34.074  28.148  24.721  1.00  0.00     0.255 C 
ATOM      6  C   UNL A   1      34.225  25.838  24.051  1.00  0.00     0.093 A 
ATOM      7  C   UNL A   1      33.679  27.630  26.109  1.00  0.00     0.268 C 
ATOM      8  C   UNL A   1      34.213  25.477  25.413  1.00  0.00     0.148 A 
ATOM      9  C   UNL A   1      34.621  24.916  23.074  1.00  0.00     0.031 A 
ATOM     10  N   UNL A   1      33.795  26.366  26.426  1.00  0.00    -0.241 N 
ATOM     11  C   UNL A   1      34.512  24.159  25.763  1.00  0.00     0.054 A 
ATOM     12  C   UNL A   1      34.954  23.614  23.447  1.00  0.00     0.002 A 
ATOM     13  H   UNL A   1      33.114  28.084  27.980  1.00  0.00     0.304 HD
ATOM     14  H   UNL A   1      33.597  26.047  27.336  1.00  0.00     0.312 HD
ATOM     15  C   UNL A   1      34.878  23.230  24.786  1.00  0.00     0.005 A 
BRANCH   4  16
ATOM     16  C   UNL A   1      33.092  27.529  22.601  1.00  0.00     0.323 C 
ATOM     17  N   UNL A   1      31.739  27.646  22.643  1.00  0.00    -0.329 N 
ATOM     18  H   UNL A   1      31.310  27.796  21.769  1.00  0.00     0.165 HD
ATOM     19  O   UNL A   1      33.673  27.888  21.574  1.00  0.00    -0.248 OA
BRANCH  17  20
ATOM     20  C   UNL A   1      30.818  27.587  23.774  1.00  0.00     0.218 C 
BRANCH  20  21
ATOM     21  C   UNL A   1      30.199  26.240  24.134  1.00  0.00     0.240 C 
ATOM     22  O   UNL A   1      29.016  26.028  23.866  1.00  0.00    -0.273 OA
ATOM     23  N   UNL A   1      31.061  25.274  24.600  1.00  0.00    -0.342 N 
ATOM     24  H   UNL A   1      32.035  25.407  24.560  1.00  0.00     0.164 HD
BRANCH  23  25
ATOM     25  C   UNL A   1      30.488  24.031  25.165  1.00  0.00     0.158 C 
BRANCH  25  26
ATOM     26  C   UNL A   1      31.207  22.795  24.613  1.00  0.00    -0.020 A 
ATOM     27  C   UNL A   1      31.618  21.733  25.439  1.00  0.00     0.006 A 
ATOM     28  C   UNL A   1      31.437  22.663  23.234  1.00  0.00     0.006 A 
ATOM     29  C   UNL A   1      32.258  20.604  24.920  1.00  0.00     0.000 A 
ATOM     30  C   UNL A   1      32.092  21.536  22.720  1.00  0.00     0.000 A 
ATOM     31  C   UNL A   1      32.505  20.509  23.559  1.00  0.00     0.000 A 
ENDBRANCH  25  26
BRANCH  25  32
ATOM     32  C   UNL A   1      30.483  24.057  26.746  1.00  0.00     0.068 C 
ATOM     33  O   UNL A   1      29.546  23.419  27.312  1.00  0.00    -0.548 OA
ATOM     34  O   UNL A   1      31.451  24.690  27.282  1.00  0.00    -0.548 OA
ENDBRANCH  25  32
ENDBRANCH  23  25
ENDBRANCH  20  21
ENDBRANCH  17  20
ENDBRANCH   4  16
ENDBRANCH   2   3
ENDBRANCH   1   2
BRANCH   1  35
ATOM     35  C   UNL A   1      33.923  32.226  27.369  1.00  0.00     0.025 C 
BRANCH  35  36
ATOM     36  C   UNL A   1      32.554  32.780  27.733  1.00  0.00     0.116 C 
BRANCH  36  37
ATOM     37  N   UNL A   1      32.552  34.220  27.956  1.00  0.00    -0.352 N 
ATOM     38  C   UNL A   1      33.375  34.999  28.733  1.00  0.00     0.251 C 
ATOM     39  H   UNL A   1      31.849  34.713  27.475  1.00  0.00     0.163 HD
ATOM     40  O   UNL A   1      33.119  36.195  28.864  1.00  0.00    -0.269 OA
BRANCH  38  41
ATOM     41  C   UNL A   1      34.540  34.409  29.432  1.00  0.00     0.039 A 
ATOM     42  C   UNL A   1      34.322  33.660  30.592  1.00  0.00     0.014 A 
ATOM     43  C   UNL A   1      35.841  34.583  28.957  1.00  0.00     0.014 A 
ATOM     44  C   UNL A   1      35.397  33.034  31.228  1.00  0.00     0.010 A 
ATOM     45  C   UNL A   1      36.891  33.867  29.523  1.00  0.00     0.010 A 
ATOM     46  C   UNL A   1      36.687  33.094  30.674  1.00  0.00    -0.014 A 
BRANCH  46  47
ATOM     47  C   UNL A   1      37.830  32.373  31.296  1.00  0.00     0.031 A 
ATOM     48  C   UNL A   1      38.380  32.826  32.624  1.00  0.00     0.074 A 
ATOM     49  C   UNL A   1      38.403  31.341  30.643  1.00  0.00     0.049 A 
ATOM     50  N   UNL A   1      39.391  32.353  33.308  1.00  0.00    -0.248 NA
ATOM     51  C   UNL A   1      37.728  33.986  33.250  1.00  0.00     0.031 C 
ATOM     52  C   UNL A   1      37.996  30.844  29.326  1.00  0.00     0.029 A 
ATOM     53  N   UNL A   1      39.446  30.523  30.994  1.00  0.00    -0.354 N 
ATOM     54  C   UNL A   1      39.502  33.163  34.434  1.00  0.00     0.074 A 
ATOM     55  C   UNL A   1      38.505  34.201  34.300  1.00  0.00     0.031 C 
ATOM     56  C   UNL A   1      38.748  29.781  29.004  1.00  0.00     0.029 A 
ATOM     57  C   UNL A   1      39.726  29.550  30.061  1.00  0.00     0.049 A 
ATOM     58  H   UNL A   1      39.948  30.621  31.836  1.00  0.00     0.167 HD
ATOM     59  C   UNL A   1      40.336  33.035  35.496  1.00  0.00     0.034 A 
ATOM     60  C   UNL A   1      40.668  28.586  30.056  1.00  0.00     0.034 A 
ATOM     61  C   UNL A   1      41.322  31.987  35.614  1.00  0.00     0.049 A 
ATOM     62  C   UNL A   1      41.599  28.477  31.237  1.00  0.00     0.074 A 
ATOM     63  C   UNL A   1      42.189  31.733  36.663  1.00  0.00     0.029 A 
ATOM     64  N   UNL A   1      41.581  31.023  34.646  1.00  0.00    -0.354 N 
ATOM     65  N   UNL A   1      41.654  29.216  32.322  1.00  0.00    -0.248 NA
ATOM     66  C   UNL A   1      42.585  27.391  31.198  1.00  0.00     0.031 C 
ATOM     67  C   UNL A   1      43.020  30.668  36.299  1.00  0.00     0.029 A 
ATOM     68  C   UNL A   1      42.612  30.192  35.062  1.00  0.00     0.049 A 
ATOM     69  H   UNL A   1      41.101  30.940  33.790  1.00  0.00     0.167 HD
ATOM     70  C   UNL A   1      42.657  28.659  33.110  1.00  0.00     0.074 A 
ATOM     71  C   UNL A   1      43.161  27.510  32.385  1.00  0.00     0.031 C 
ATOM     72  C   UNL A   1      43.118  29.057  34.325  1.00  0.00     0.034 A 
BRANCH  59  73
ATOM     73  C   UNL A   1      40.229  34.071  36.593  1.00  0.00     0.023 A 
ATOM     74  C   UNL A   1      41.214  35.058  36.779  1.00  0.00     0.031 A 
ATOM     75  C   UNL A   1      39.143  34.055  37.486  1.00  0.00     0.131 A 
ATOM     76  C   UNL A   1      41.137  35.932  37.875  1.00  0.00     0.055 A 
ATOM     77  C   UNL A   1      39.026  34.984  38.522  1.00  0.00     0.041 A 
ATOM     78  F   UNL A   1      38.181  33.126  37.376  1.00  0.00    -0.206 F 
ATOM     79  C   UNL A   1      40.035  35.918  38.733  1.00  0.00     0.022 A 
BRANCH  76  80
ATOM     80  S   UNL A   1      42.569  36.981  38.254  1.00  0.00     0.124 S 
ATOM     81  O   UNL A   1      43.417  36.064  39.009  1.00  0.00    -0.237 OA
ATOM     82  O   UNL A   1      43.047  37.352  36.928  1.00  0.00    -0.237 OA
ATOM     83  O   UNL A   1      41.994  38.073  39.037  1.00  0.00    -0.744 OA
ENDBRANCH  76  80
ENDBRANCH  59  73
BRANCH  60  84
ATOM     84  C   UNL A   1      40.782  27.642  28.905  1.00  0.00     0.023 A 
ATOM     85  C   UNL A   1      41.754  27.829  27.909  1.00  0.00     0.031 A 
ATOM     86  C   UNL A   1      39.888  26.567  28.757  1.00  0.00     0.131 A 
ATOM     87  C   UNL A   1      41.776  26.990  26.783  1.00  0.00     0.055 A 
ATOM     88  C   UNL A   1      39.955  25.695  27.668  1.00  0.00     0.041 A 
ATOM     89  F   UNL A   1      38.936  26.344  29.678  1.00  0.00    -0.206 F 
ATOM     90  C   UNL A   1      40.894  25.914  26.665  1.00  0.00     0.022 A 
BRANCH  87  91
ATOM     91  S   UNL A   1      42.909  27.392  25.425  1.00  0.00     0.124 S 
ATOM     92  O   UNL A   1      44.098  27.831  26.147  1.00  0.00    -0.237 OA
ATOM     93  O   UNL A   1      43.020  26.113  24.729  1.00  0.00    -0.237 OA
ATOM     94  O   UNL A   1      42.205  28.441  24.689  1.00  0.00    -0.744 OA
ENDBRANCH  87  91
ENDBRANCH  60  84
BRANCH  72  95
ATOM     95  C   UNL A   1      44.188  28.200  34.964  1.00  0.00     0.023 A 
ATOM     96  C   UNL A   1      43.876  27.047  35.707  1.00  0.00     0.031 A 
ATOM     97  C   UNL A   1      45.541  28.570  34.858  1.00  0.00     0.131 A 
ATOM     98  C   UNL A   1      44.893  26.352  36.379  1.00  0.00     0.055 A 
ATOM     99  C   UNL A   1      46.556  27.830  35.467  1.00  0.00     0.041 A 
ATOM    100  F   UNL A   1      45.902  29.662  34.165  1.00  0.00    -0.206 F 
ATOM    101  C   UNL A   1      46.233  26.726  36.249  1.00  0.00     0.022 A 
BRANCH  98 102
ATOM    102  S   UNL A   1      44.430  25.034  37.537  1.00  0.00     0.124 S 
ATOM    103  O   UNL A   1      45.085  25.465  38.766  1.00  0.00    -0.237 OA
ATOM    104  O   UNL A   1      42.973  25.110  37.529  1.00  0.00    -0.237 OA
ATOM    105  O   UNL A   1      44.989  23.830  36.926  1.00  0.00    -0.744 OA
ENDBRANCH  98 102
ENDBRANCH  72  95
ENDBRANCH  46  47
ENDBRANCH  38  41
ENDBRANCH  36  37
ENDBRANCH  35  36
ENDBRANCH   1  35
TORSDOF 19
ENDMDL
