MODEL 1
REMARK VINA RESULT:     -12.2      0.000      0.000
REMARK SMILES CC1(C)[C@H]2CC[C@]1(C)[C@H](NC(=O)CCC(=O)NCCCCNC(=O)c1ccc(-c3c4nc(c(-c5cc(S(=O)(=O)[O-])ccc5F)c5ccc([nH]5)c(-c5cc(S(=O)(=O)[O-])ccc5F)c5nc(c(-c6cc(S(=O)(=O)[O-])ccc6F)c6ccc3[nH]6)C=C5)C=C4)cc1)C2
REMARK SMILES IDX 19 1 18 2 17 3 15 4 16 5 14 7 13 8 11 9 10 10 12 12 9 13
REMARK SMILES IDX 1 14 2 15 3 16 4 17 7 18 5 19 88 20 6 21 8 22 20 23 21 24
REMARK SMILES IDX 22 25 23 26 24 28 25 29 26 30 87 31 27 32 86 33 28 34 29 35
REMARK SMILES IDX 30 36 80 37 31 38 85 39 79 40 81 41 32 42 84 43 78 44 77 45
REMARK SMILES IDX 33 47 65 48 45 49 64 50 46 51 49 52 63 53 82 54 47 55 48 56
REMARK SMILES IDX 62 58 83 59 50 60 34 61 35 62 43 63 36 64 42 65 44 66 41 67
REMARK SMILES IDX 37 68 38 69 39 70 40 71 66 72 67 73 75 74 68 75 74 76 76 77
REMARK SMILES IDX 73 78 69 79 70 80 71 81 72 82 51 83 52 84 60 85 53 86 59 87
REMARK SMILES IDX 61 88 58 89 54 90 55 91 56 92 57 93
REMARK H PARENT 17 6 10 11 22 27 81 46 49 57
REMARK Flexibility Score: inf
ROOT
ATOM      1  C   UNL A   1      33.323  29.357  24.748  1.00  0.00     0.023 C 
ENDROOT
BRANCH   1   2
ATOM      2  C   UNL A   1      33.287  28.783  23.334  1.00  0.00     0.116 C 
BRANCH   2   3
ATOM      3  N   UNL A   1      32.072  29.133  22.631  1.00  0.00    -0.356 N 
ATOM      4  C   UNL A   1      30.948  28.392  22.455  1.00  0.00     0.220 C 
ATOM      5  O   UNL A   1      29.967  28.927  21.935  1.00  0.00    -0.275 OA
ATOM      6  H   UNL A   1      32.057  30.030  22.226  1.00  0.00     0.163 HD
BRANCH   4   7
ATOM      7  C   UNL A   1      30.887  26.967  22.941  1.00  0.00     0.110 C 
BRANCH   7   8
ATOM      8  C   UNL A   1      31.343  25.839  22.029  1.00  0.00     0.110 C 
BRANCH   8   9
ATOM      9  C   UNL A   1      32.806  25.570  21.778  1.00  0.00     0.220 C 
ATOM     10  N   UNL A   1      33.697  25.286  22.762  1.00  0.00    -0.353 N 
ATOM     11  H   UNL A   1      34.615  25.572  22.551  1.00  0.00     0.163 HD
ATOM     12  O   UNL A   1      33.256  25.698  20.634  1.00  0.00    -0.275 OA
BRANCH  10  13
ATOM     13  C   UNL A   1      33.578  24.646  24.071  1.00  0.00     0.088 C 
ATOM     14  C   UNL A   1      34.905  21.424  25.845  1.00  0.00     0.012 C 
ATOM     15  C   UNL A   1      34.275  22.794  25.531  1.00  0.00    -0.025 C 
ATOM     16  C   UNL A   1      33.073  22.947  26.487  1.00  0.00     0.012 C 
ATOM     17  C   UNL A   1      35.313  23.939  25.591  1.00  0.00    -0.003 C 
ATOM     18  C   UNL A   1      33.959  23.108  24.034  1.00  0.00    -0.007 C 
ATOM     19  C   UNL A   1      36.274  23.651  24.413  1.00  0.00     0.005 C 
ATOM     20  C   UNL A   1      34.497  25.172  25.189  1.00  0.00     0.029 C 
ATOM     21  C   UNL A   1      35.358  22.989  23.372  1.00  0.00     0.010 C 
ATOM     22  C   UNL A   1      32.915  22.217  23.381  1.00  0.00     0.014 C 
ENDBRANCH  10  13
ENDBRANCH   8   9
ENDBRANCH   7   8
ENDBRANCH   4   7
ENDBRANCH   2   3
ENDBRANCH   1   2
BRANCH   1  23
ATOM     23  C   UNL A   1      31.990  29.863  25.279  1.00  0.00     0.023 C 
BRANCH  23  24
ATOM     24  C   UNL A   1      32.026  30.308  26.729  1.00  0.00     0.116 C 
BRANCH  24  25
ATOM     25  N   UNL A   1      31.937  31.751  26.890  1.00  0.00    -0.352 N 
ATOM     26  C   UNL A   1      32.862  32.619  27.435  1.00  0.00     0.251 C 
ATOM     27  H   UNL A   1      31.105  32.164  26.566  1.00  0.00     0.163 HD
ATOM     28  O   UNL A   1      32.601  33.796  27.582  1.00  0.00    -0.269 OA
BRANCH  26  29
ATOM     29  C   UNL A   1      34.150  32.052  27.876  1.00  0.00     0.039 A 
ATOM     30  C   UNL A   1      35.225  32.913  28.096  1.00  0.00     0.014 A 
ATOM     31  C   UNL A   1      34.238  30.694  28.182  1.00  0.00     0.014 A 
ATOM     32  C   UNL A   1      36.377  32.416  28.707  1.00  0.00     0.010 A 
ATOM     33  C   UNL A   1      35.333  30.233  28.892  1.00  0.00     0.010 A 
ATOM     34  C   UNL A   1      36.419  31.086  29.150  1.00  0.00    -0.014 A 
BRANCH  34  35
ATOM     35  C   UNL A   1      37.603  30.523  29.841  1.00  0.00     0.031 A 
ATOM     36  C   UNL A   1      37.884  30.947  31.256  1.00  0.00     0.074 A 
ATOM     37  C   UNL A   1      38.465  29.732  29.176  1.00  0.00     0.049 A 
ATOM     38  N   UNL A   1      38.946  30.749  31.991  1.00  0.00    -0.248 NA
ATOM     39  C   UNL A   1      36.848  31.768  31.901  1.00  0.00     0.031 C 
ATOM     40  C   UNL A   1      38.319  29.292  27.786  1.00  0.00     0.029 A 
ATOM     41  N   UNL A   1      39.645  29.163  29.581  1.00  0.00    -0.354 N 
ATOM     42  C   UNL A   1      38.724  31.464  33.164  1.00  0.00     0.074 A 
ATOM     43  C   UNL A   1      37.471  32.167  32.997  1.00  0.00     0.031 C 
ATOM     44  C   UNL A   1      39.348  28.489  27.470  1.00  0.00     0.029 A 
ATOM     45  C   UNL A   1      40.250  28.398  28.613  1.00  0.00     0.049 A 
ATOM     46  H   UNL A   1      40.023  29.292  30.481  1.00  0.00     0.167 HD
ATOM     47  C   UNL A   1      39.479  31.501  34.290  1.00  0.00     0.034 A 
ATOM     48  C   UNL A   1      41.403  27.705  28.652  1.00  0.00     0.034 A 
ATOM     49  C   UNL A   1      40.701  30.752  34.443  1.00  0.00     0.049 A 
ATOM     50  C   UNL A   1      42.222  27.739  29.915  1.00  0.00     0.074 A 
ATOM     51  C   UNL A   1      41.529  30.653  35.547  1.00  0.00     0.029 A 
ATOM     52  N   UNL A   1      41.268  29.957  33.451  1.00  0.00    -0.354 N 
ATOM     53  N   UNL A   1      41.996  28.397  31.029  1.00  0.00    -0.248 NA
ATOM     54  C   UNL A   1      43.449  26.933  29.927  1.00  0.00     0.031 C 
ATOM     55  C   UNL A   1      42.616  29.839  35.208  1.00  0.00     0.029 A 
ATOM     56  C   UNL A   1      42.438  29.377  33.912  1.00  0.00     0.049 A 
ATOM     57  H   UNL A   1      40.891  29.827  32.551  1.00  0.00     0.167 HD
ATOM     58  C   UNL A   1      43.037  28.059  31.887  1.00  0.00     0.074 A 
ATOM     59  C   UNL A   1      43.887  27.134  31.161  1.00  0.00     0.031 C 
ATOM     60  C   UNL A   1      43.269  28.465  33.162  1.00  0.00     0.034 A 
BRANCH  47  61
ATOM     61  C   UNL A   1      38.995  32.396  35.408  1.00  0.00     0.023 A 
ATOM     62  C   UNL A   1      39.397  33.742  35.500  1.00  0.00     0.031 A 
ATOM     63  C   UNL A   1      38.212  31.877  36.455  1.00  0.00     0.131 A 
ATOM     64  C   UNL A   1      39.138  34.473  36.668  1.00  0.00     0.055 A 
ATOM     65  C   UNL A   1      37.861  32.648  37.566  1.00  0.00     0.041 A 
ATOM     66  F   UNL A   1      37.808  30.597  36.438  1.00  0.00    -0.206 F 
ATOM     67  C   UNL A   1      38.350  33.946  37.691  1.00  0.00     0.022 A 
BRANCH  64  68
ATOM     68  S   UNL A   1      40.035  36.031  36.920  1.00  0.00     0.124 S 
ATOM     69  O   UNL A   1      39.796  36.715  35.650  1.00  0.00    -0.237 OA
ATOM     70  O   UNL A   1      39.365  36.597  38.085  1.00  0.00    -0.237 OA
ATOM     71  O   UNL A   1      41.415  35.603  37.137  1.00  0.00    -0.744 OA
ENDBRANCH  64  68
ENDBRANCH  47  61
BRANCH  48  72
ATOM     72  C   UNL A   1      41.838  26.903  27.476  1.00  0.00     0.023 A 
ATOM     73  C   UNL A   1      41.622  25.515  27.443  1.00  0.00     0.031 A 
ATOM     74  C   UNL A   1      42.477  27.500  26.377  1.00  0.00     0.131 A 
ATOM     75  C   UNL A   1      42.071  24.764  26.347  1.00  0.00     0.055 A 
ATOM     76  C   UNL A   1      42.888  26.753  25.271  1.00  0.00     0.041 A 
ATOM     77  F   UNL A   1      42.692  28.824  26.354  1.00  0.00    -0.206 F 
ATOM     78  C   UNL A   1      42.694  25.374  25.256  1.00  0.00     0.022 A 
BRANCH  75  79
ATOM     79  S   UNL A   1      41.868  22.963  26.389  1.00  0.00     0.124 S 
ATOM     80  O   UNL A   1      42.482  22.565  25.128  1.00  0.00    -0.237 OA
ATOM     81  O   UNL A   1      42.599  22.603  27.601  1.00  0.00    -0.237 OA
ATOM     82  O   UNL A   1      40.419  22.784  26.464  1.00  0.00    -0.744 OA
ENDBRANCH  75  79
ENDBRANCH  48  72
BRANCH  60  83
ATOM     83  C   UNL A   1      44.464  27.865  33.856  1.00  0.00     0.023 A 
ATOM     84  C   UNL A   1      44.366  26.678  34.599  1.00  0.00     0.031 A 
ATOM     85  C   UNL A   1      45.714  28.502  33.777  1.00  0.00     0.131 A 
ATOM     86  C   UNL A   1      45.491  26.188  35.278  1.00  0.00     0.055 A 
ATOM     87  C   UNL A   1      46.842  27.981  34.412  1.00  0.00     0.041 A 
ATOM     88  F   UNL A   1      45.859  29.640  33.080  1.00  0.00    -0.206 F 
ATOM     89  C   UNL A   1      46.731  26.824  35.176  1.00  0.00     0.022 A 
BRANCH  86  90
ATOM     90  S   UNL A   1      45.294  24.746  36.362  1.00  0.00     0.124 S 
ATOM     91  O   UNL A   1      46.678  24.438  36.709  1.00  0.00    -0.237 OA
ATOM     92  O   UNL A   1      44.470  25.277  37.442  1.00  0.00    -0.237 OA
ATOM     93  O   UNL A   1      44.636  23.761  35.507  1.00  0.00    -0.744 OA
ENDBRANCH  86  90
ENDBRANCH  60  83
ENDBRANCH  34  35
ENDBRANCH  26  29
ENDBRANCH  24  25
ENDBRANCH  23  24
ENDBRANCH   1  23
TORSDOF 17
ENDMDL
MODEL 2
REMARK VINA RESULT:     -12.1      2.116      2.934
REMARK SMILES CC1(C)[C@H]2CC[C@]1(C)[C@H](NC(=O)CCC(=O)NCCCCNC(=O)c1ccc(-c3c4nc(c(-c5cc(S(=O)(=O)[O-])ccc5F)c5ccc([nH]5)c(-c5cc(S(=O)(=O)[O-])ccc5F)c5nc(c(-c6cc(S(=O)(=O)[O-])ccc6F)c6ccc3[nH]6)C=C5)C=C4)cc1)C2
REMARK SMILES IDX 19 1 18 2 17 3 15 4 16 5 14 7 13 8 11 9 10 10 12 12 9 13
REMARK SMILES IDX 1 14 2 15 3 16 4 17 7 18 5 19 88 20 6 21 8 22 20 23 21 24
REMARK SMILES IDX 22 25 23 26 24 28 25 29 26 30 87 31 27 32 86 33 28 34 29 35
REMARK SMILES IDX 30 36 80 37 31 38 85 39 79 40 81 41 32 42 84 43 78 44 77 45
REMARK SMILES IDX 33 47 65 48 45 49 64 50 46 51 49 52 63 53 82 54 47 55 48 56
REMARK SMILES IDX 62 58 83 59 50 60 34 61 35 62 43 63 36 64 42 65 44 66 41 67
REMARK SMILES IDX 37 68 38 69 39 70 40 71 66 72 67 73 75 74 68 75 74 76 76 77
REMARK SMILES IDX 73 78 69 79 70 80 71 81 72 82 51 83 52 84 60 85 53 86 59 87
REMARK SMILES IDX 61 88 58 89 54 90 55 91 56 92 57 93
REMARK H PARENT 17 6 10 11 22 27 81 46 49 57
REMARK Flexibility Score: inf
ROOT
ATOM      1  C   UNL A   1      32.981  29.261  24.690  1.00  0.00     0.023 C 
ENDROOT
BRANCH   1   2
ATOM      2  C   UNL A   1      31.459  29.347  24.756  1.00  0.00     0.116 C 
BRANCH   2   3
ATOM      3  N   UNL A   1      30.868  29.609  23.461  1.00  0.00    -0.356 N 
ATOM      4  C   UNL A   1      30.401  28.725  22.544  1.00  0.00     0.220 C 
ATOM      5  O   UNL A   1      29.811  29.160  21.555  1.00  0.00    -0.275 OA
ATOM      6  H   UNL A   1      30.794  30.559  23.211  1.00  0.00     0.163 HD
BRANCH   4   7
ATOM      7  C   UNL A   1      30.550  27.241  22.768  1.00  0.00     0.110 C 
BRANCH   7   8
ATOM      8  C   UNL A   1      31.579  26.458  21.969  1.00  0.00     0.110 C 
BRANCH   8   9
ATOM      9  C   UNL A   1      33.046  26.497  22.317  1.00  0.00     0.220 C 
ATOM     10  N   UNL A   1      33.567  25.931  23.436  1.00  0.00    -0.353 N 
ATOM     11  H   UNL A   1      34.376  26.387  23.762  1.00  0.00     0.163 HD
ATOM     12  O   UNL A   1      33.819  27.150  21.607  1.00  0.00    -0.275 OA
BRANCH  10  13
ATOM     13  C   UNL A   1      33.176  24.789  24.260  1.00  0.00     0.088 C 
ATOM     14  C   UNL A   1      34.415  21.139  24.913  1.00  0.00     0.012 C 
ATOM     15  C   UNL A   1      33.700  22.501  24.991  1.00  0.00    -0.025 C 
ATOM     16  C   UNL A   1      32.265  22.208  25.478  1.00  0.00     0.012 C 
ATOM     17  C   UNL A   1      34.488  23.523  25.841  1.00  0.00    -0.003 C 
ATOM     18  C   UNL A   1      33.783  23.423  23.733  1.00  0.00    -0.007 C 
ATOM     19  C   UNL A   1      35.779  23.786  25.030  1.00  0.00     0.005 C 
ATOM     20  C   UNL A   1      33.642  24.797  25.727  1.00  0.00     0.029 C 
ATOM     21  C   UNL A   1      35.314  23.622  23.575  1.00  0.00     0.010 C 
ATOM     22  C   UNL A   1      33.120  22.884  22.476  1.00  0.00     0.014 C 
ENDBRANCH  10  13
ENDBRANCH   8   9
ENDBRANCH   7   8
ENDBRANCH   4   7
ENDBRANCH   2   3
ENDBRANCH   1   2
BRANCH   1  23
ATOM     23  C   UNL A   1      33.652  28.645  25.909  1.00  0.00     0.023 C 
BRANCH  23  24
ATOM     24  C   UNL A   1      33.291  29.311  27.223  1.00  0.00     0.116 C 
BRANCH  24  25
ATOM     25  N   UNL A   1      33.599  30.732  27.252  1.00  0.00    -0.352 N 
ATOM     26  C   UNL A   1      34.759  31.357  27.664  1.00  0.00     0.251 C 
ATOM     27  H   UNL A   1      32.883  31.328  26.935  1.00  0.00     0.163 HD
ATOM     28  O   UNL A   1      34.829  32.568  27.713  1.00  0.00    -0.269 OA
BRANCH  26  29
ATOM     29  C   UNL A   1      35.881  30.499  28.088  1.00  0.00     0.039 A 
ATOM     30  C   UNL A   1      37.031  30.456  27.300  1.00  0.00     0.014 A 
ATOM     31  C   UNL A   1      35.824  29.848  29.319  1.00  0.00     0.014 A 
ATOM     32  C   UNL A   1      38.168  29.816  27.794  1.00  0.00     0.010 A 
ATOM     33  C   UNL A   1      36.985  29.317  29.854  1.00  0.00     0.010 A 
ATOM     34  C   UNL A   1      38.165  29.283  29.092  1.00  0.00    -0.014 A 
BRANCH  34  35
ATOM     35  C   UNL A   1      39.359  28.631  29.678  1.00  0.00     0.031 A 
ATOM     36  C   UNL A   1      39.921  29.169  30.964  1.00  0.00     0.074 A 
ATOM     37  C   UNL A   1      39.989  27.644  29.013  1.00  0.00     0.049 A 
ATOM     38  N   UNL A   1      41.052  28.898  31.559  1.00  0.00    -0.248 NA
ATOM     39  C   UNL A   1      39.122  30.210  31.631  1.00  0.00     0.031 C 
ATOM     40  C   UNL A   1      39.562  27.072  27.733  1.00  0.00     0.029 A 
ATOM     41  N   UNL A   1      41.132  26.953  29.319  1.00  0.00    -0.354 N 
ATOM     42  C   UNL A   1      41.121  29.771  32.641  1.00  0.00     0.074 A 
ATOM     43  C   UNL A   1      39.962  30.633  32.559  1.00  0.00     0.031 C 
ATOM     44  C   UNL A   1      40.409  26.089  27.387  1.00  0.00     0.029 A 
ATOM     45  C   UNL A   1      41.464  25.996  28.391  1.00  0.00     0.049 A 
ATOM     46  H   UNL A   1      41.665  27.126  30.128  1.00  0.00     0.167 HD
ATOM     47  C   UNL A   1      42.047  29.824  33.630  1.00  0.00     0.034 A 
ATOM     48  C   UNL A   1      42.505  25.143  28.359  1.00  0.00     0.034 A 
ATOM     49  C   UNL A   1      43.167  28.920  33.709  1.00  0.00     0.049 A 
ATOM     50  C   UNL A   1      43.516  25.199  29.475  1.00  0.00     0.074 A 
ATOM     51  C   UNL A   1      44.142  28.825  34.685  1.00  0.00     0.029 A 
ATOM     52  N   UNL A   1      43.454  27.937  32.766  1.00  0.00    -0.354 N 
ATOM     53  N   UNL A   1      43.563  26.010  30.507  1.00  0.00    -0.248 NA
ATOM     54  C   UNL A   1      44.610  24.221  29.422  1.00  0.00     0.031 C 
ATOM     55  C   UNL A   1      45.041  27.820  34.311  1.00  0.00     0.029 A 
ATOM     56  C   UNL A   1      44.595  27.242  33.131  1.00  0.00     0.049 A 
ATOM     57  H   UNL A   1      42.922  27.761  31.957  1.00  0.00     0.167 HD
ATOM     58  C   UNL A   1      44.676  25.619  31.245  1.00  0.00     0.074 A 
ATOM     59  C   UNL A   1      45.266  24.496  30.541  1.00  0.00     0.031 C 
ATOM     60  C   UNL A   1      45.165  26.132  32.403  1.00  0.00     0.034 A 
BRANCH  47  61
ATOM     61  C   UNL A   1      41.874  30.908  34.671  1.00  0.00     0.023 A 
ATOM     62  C   UNL A   1      40.788  30.902  35.565  1.00  0.00     0.031 A 
ATOM     63  C   UNL A   1      42.739  32.017  34.702  1.00  0.00     0.131 A 
ATOM     64  C   UNL A   1      40.514  32.035  36.344  1.00  0.00     0.055 A 
ATOM     65  C   UNL A   1      42.523  33.095  35.565  1.00  0.00     0.041 A 
ATOM     66  F   UNL A   1      43.785  32.093  33.865  1.00  0.00    -0.206 F 
ATOM     67  C   UNL A   1      41.389  33.122  36.371  1.00  0.00     0.022 A 
BRANCH  64  68
ATOM     68  S   UNL A   1      38.888  32.155  37.142  1.00  0.00     0.124 S 
ATOM     69  O   UNL A   1      39.263  32.380  38.537  1.00  0.00    -0.237 OA
ATOM     70  O   UNL A   1      38.280  33.288  36.454  1.00  0.00    -0.237 OA
ATOM     71  O   UNL A   1      38.276  30.856  36.872  1.00  0.00    -0.744 OA
ENDBRANCH  64  68
ENDBRANCH  47  61
BRANCH  48  72
ATOM     72  C   UNL A   1      42.632  24.152  27.257  1.00  0.00     0.023 A 
ATOM     73  C   UNL A   1      41.940  22.931  27.315  1.00  0.00     0.031 A 
ATOM     74  C   UNL A   1      43.446  24.398  26.138  1.00  0.00     0.131 A 
ATOM     75  C   UNL A   1      42.098  21.988  26.289  1.00  0.00     0.055 A 
ATOM     76  C   UNL A   1      43.570  23.472  25.101  1.00  0.00     0.041 A 
ATOM     77  F   UNL A   1      44.116  25.556  26.029  1.00  0.00    -0.206 F 
ATOM     78  C   UNL A   1      42.901  22.254  25.178  1.00  0.00     0.022 A 
BRANCH  75  79
ATOM     79  S   UNL A   1      41.270  20.383  26.452  1.00  0.00     0.124 S 
ATOM     80  O   UNL A   1      41.539  20.050  27.846  1.00  0.00    -0.237 OA
ATOM     81  O   UNL A   1      39.888  20.720  26.127  1.00  0.00    -0.237 OA
ATOM     82  O   UNL A   1      41.952  19.546  25.466  1.00  0.00    -0.744 OA
ENDBRANCH  75  79
ENDBRANCH  48  72
BRANCH  60  83
ATOM     83  C   UNL A   1      46.365  25.442  32.996  1.00  0.00     0.023 A 
ATOM     84  C   UNL A   1      46.231  24.387  33.914  1.00  0.00     0.031 A 
ATOM     85  C   UNL A   1      47.660  25.856  32.639  1.00  0.00     0.131 A 
ATOM     86  C   UNL A   1      47.376  23.814  34.485  1.00  0.00     0.055 A 
ATOM     87  C   UNL A   1      48.796  25.246  33.171  1.00  0.00     0.041 A 
ATOM     88  F   UNL A   1      47.840  26.860  31.766  1.00  0.00    -0.206 F 
ATOM     89  C   UNL A   1      48.657  24.226  34.108  1.00  0.00     0.022 A 
BRANCH  86  90
ATOM     90  S   UNL A   1      47.170  22.570  35.789  1.00  0.00     0.124 S 
ATOM     91  O   UNL A   1      47.253  23.383  36.999  1.00  0.00    -0.237 OA
ATOM     92  O   UNL A   1      45.856  22.013  35.485  1.00  0.00    -0.237 OA
ATOM     93  O   UNL A   1      48.292  21.659  35.576  1.00  0.00    -0.744 OA
ENDBRANCH  86  90
ENDBRANCH  60  83
ENDBRANCH  34  35
ENDBRANCH  26  29
ENDBRANCH  24  25
ENDBRANCH  23  24
ENDBRANCH   1  23
TORSDOF 17
ENDMDL
MODEL 3
REMARK VINA RESULT:     -11.8      4.465      9.672
REMARK SMILES CC1(C)[C@H]2CC[C@]1(C)[C@H](NC(=O)CCC(=O)NCCCCNC(=O)c1ccc(-c3c4nc(c(-c5cc(S(=O)(=O)[O-])ccc5F)c5ccc([nH]5)c(-c5cc(S(=O)(=O)[O-])ccc5F)c5nc(c(-c6cc(S(=O)(=O)[O-])ccc6F)c6ccc3[nH]6)C=C5)C=C4)cc1)C2
REMARK SMILES IDX 19 1 18 2 17 3 15 4 16 5 14 7 13 8 11 9 10 10 12 12 9 13
REMARK SMILES IDX 1 14 2 15 3 16 4 17 7 18 5 19 88 20 6 21 8 22 20 23 21 24
REMARK SMILES IDX 22 25 23 26 24 28 25 29 26 30 87 31 27 32 86 33 28 34 29 35
REMARK SMILES IDX 30 36 80 37 31 38 85 39 79 40 81 41 32 42 84 43 78 44 77 45
REMARK SMILES IDX 33 47 65 48 45 49 64 50 46 51 49 52 63 53 82 54 47 55 48 56
REMARK SMILES IDX 62 58 83 59 50 60 34 61 35 62 43 63 36 64 42 65 44 66 41 67
REMARK SMILES IDX 37 68 38 69 39 70 40 71 66 72 67 73 75 74 68 75 74 76 76 77
REMARK SMILES IDX 73 78 69 79 70 80 71 81 72 82 51 83 52 84 60 85 53 86 59 87
REMARK SMILES IDX 61 88 58 89 54 90 55 91 56 92 57 93
REMARK H PARENT 17 6 10 11 22 27 81 46 49 57
REMARK Flexibility Score: inf
ROOT
ATOM      1  C   UNL A   1      35.897  21.143  24.726  1.00  0.00     0.023 C 
ENDROOT
BRANCH   1   2
ATOM      2  C   UNL A   1      34.846  21.243  25.829  1.00  0.00     0.116 C 
BRANCH   2   3
ATOM      3  N   UNL A   1      33.893  20.154  25.779  1.00  0.00    -0.356 N 
ATOM      4  C   UNL A   1      32.618  20.160  25.315  1.00  0.00     0.220 C 
ATOM      5  O   UNL A   1      32.015  19.089  25.239  1.00  0.00    -0.275 OA
ATOM      6  H   UNL A   1      34.215  19.291  26.127  1.00  0.00     0.163 HD
BRANCH   4   7
ATOM      7  C   UNL A   1      31.980  21.444  24.850  1.00  0.00     0.110 C 
BRANCH   7   8
ATOM      8  C   UNL A   1      31.130  22.257  25.813  1.00  0.00     0.110 C 
BRANCH   8   9
ATOM      9  C   UNL A   1      31.751  23.224  26.790  1.00  0.00     0.220 C 
ATOM     10  N   UNL A   1      32.044  24.514  26.486  1.00  0.00    -0.353 N 
ATOM     11  H   UNL A   1      32.805  24.871  26.998  1.00  0.00     0.163 HD
ATOM     12  O   UNL A   1      32.102  22.816  27.903  1.00  0.00    -0.275 OA
BRANCH  10  13
ATOM     13  C   UNL A   1      31.469  25.483  25.555  1.00  0.00     0.088 C 
ATOM     14  C   UNL A   1      32.300  29.065  24.229  1.00  0.00     0.012 C 
ATOM     15  C   UNL A   1      31.705  27.660  24.438  1.00  0.00    -0.025 C 
ATOM     16  C   UNL A   1      30.207  27.769  24.085  1.00  0.00     0.012 C 
ATOM     17  C   UNL A   1      32.487  26.576  23.660  1.00  0.00    -0.003 C 
ATOM     18  C   UNL A   1      32.003  26.954  25.799  1.00  0.00    -0.007 C 
ATOM     19  C   UNL A   1      33.875  26.538  24.343  1.00  0.00     0.005 C 
ATOM     20  C   UNL A   1      31.775  25.279  24.059  1.00  0.00     0.029 C 
ATOM     21  C   UNL A   1      33.554  26.893  25.803  1.00  0.00     0.010 C 
ATOM     22  C   UNL A   1      31.432  27.634  27.032  1.00  0.00     0.014 C 
ENDBRANCH  10  13
ENDBRANCH   8   9
ENDBRANCH   7   8
ENDBRANCH   4   7
ENDBRANCH   2   3
ENDBRANCH   1   2
BRANCH   1  23
ATOM     23  C   UNL A   1      36.480  22.468  24.260  1.00  0.00     0.023 C 
BRANCH  23  24
ATOM     24  C   UNL A   1      37.323  23.179  25.302  1.00  0.00     0.116 C 
BRANCH  24  25
ATOM     25  N   UNL A   1      38.344  22.330  25.893  1.00  0.00    -0.352 N 
ATOM     26  C   UNL A   1      39.422  22.690  26.677  1.00  0.00     0.251 C 
ATOM     27  H   UNL A   1      38.254  21.367  25.710  1.00  0.00     0.163 HD
ATOM     28  O   UNL A   1      40.243  21.866  27.023  1.00  0.00    -0.269 OA
BRANCH  26  29
ATOM     29  C   UNL A   1      39.560  24.115  27.030  1.00  0.00     0.039 A 
ATOM     30  C   UNL A   1      39.313  24.511  28.344  1.00  0.00     0.014 A 
ATOM     31  C   UNL A   1      40.051  25.015  26.084  1.00  0.00     0.014 A 
ATOM     32  C   UNL A   1      39.639  25.811  28.733  1.00  0.00     0.010 A 
ATOM     33  C   UNL A   1      40.481  26.263  26.502  1.00  0.00     0.010 A 
ATOM     34  C   UNL A   1      40.267  26.678  27.827  1.00  0.00    -0.014 A 
BRANCH  34  35
ATOM     35  C   UNL A   1      40.671  28.054  28.204  1.00  0.00     0.031 A 
ATOM     36  C   UNL A   1      42.123  28.432  28.112  1.00  0.00     0.074 A 
ATOM     37  C   UNL A   1      39.769  28.909  28.719  1.00  0.00     0.049 A 
ATOM     38  N   UNL A   1      42.739  29.492  28.564  1.00  0.00    -0.248 NA
ATOM     39  C   UNL A   1      43.010  27.440  27.484  1.00  0.00     0.031 C 
ATOM     40  C   UNL A   1      38.341  28.634  28.900  1.00  0.00     0.029 A 
ATOM     41  N   UNL A   1      39.923  30.184  29.197  1.00  0.00    -0.354 N 
ATOM     42  C   UNL A   1      44.091  29.269  28.318  1.00  0.00     0.074 A 
ATOM     43  C   UNL A   1      44.202  27.938  27.764  1.00  0.00     0.031 C 
ATOM     44  C   UNL A   1      37.745  29.725  29.409  1.00  0.00     0.029 A 
ATOM     45  C   UNL A   1      38.754  30.754  29.638  1.00  0.00     0.049 A 
ATOM     46  H   UNL A   1      40.791  30.648  29.222  1.00  0.00     0.167 HD
ATOM     47  C   UNL A   1      45.138  30.111  28.506  1.00  0.00     0.034 A 
ATOM     48  C   UNL A   1      38.528  31.971  30.168  1.00  0.00     0.034 A 
ATOM     49  C   UNL A   1      44.987  31.450  29.018  1.00  0.00     0.049 A 
ATOM     50  C   UNL A   1      39.696  32.904  30.353  1.00  0.00     0.074 A 
ATOM     51  C   UNL A   1      45.952  32.424  29.201  1.00  0.00     0.029 A 
ATOM     52  N   UNL A   1      43.778  32.008  29.424  1.00  0.00    -0.354 N 
ATOM     53  N   UNL A   1      40.967  32.696  30.097  1.00  0.00    -0.248 NA
ATOM     54  C   UNL A   1      39.396  34.236  30.892  1.00  0.00     0.031 C 
ATOM     55  C   UNL A   1      45.336  33.551  29.758  1.00  0.00     0.029 A 
ATOM     56  C   UNL A   1      43.975  33.305  29.867  1.00  0.00     0.049 A 
ATOM     57  H   UNL A   1      42.910  31.547  29.399  1.00  0.00     0.167 HD
ATOM     58  C   UNL A   1      41.616  33.885  30.416  1.00  0.00     0.074 A 
ATOM     59  C   UNL A   1      40.594  34.804  30.876  1.00  0.00     0.031 C 
ATOM     60  C   UNL A   1      42.936  34.196  30.329  1.00  0.00     0.034 A 
BRANCH  47  61
ATOM     61  C   UNL A   1      46.512  29.579  28.168  1.00  0.00     0.023 A 
ATOM     62  C   UNL A   1      46.878  29.276  26.843  1.00  0.00     0.031 A 
ATOM     63  C   UNL A   1      47.430  29.265  29.186  1.00  0.00     0.131 A 
ATOM     64  C   UNL A   1      48.054  28.557  26.587  1.00  0.00     0.055 A 
ATOM     65  C   UNL A   1      48.654  28.650  28.911  1.00  0.00     0.041 A 
ATOM     66  F   UNL A   1      47.137  29.512  30.473  1.00  0.00    -0.206 F 
ATOM     67  C   UNL A   1      48.959  28.265  27.608  1.00  0.00     0.022 A 
BRANCH  64  68
ATOM     68  S   UNL A   1      48.267  27.819  24.942  1.00  0.00     0.124 S 
ATOM     69  O   UNL A   1      47.246  28.526  24.171  1.00  0.00    -0.237 OA
ATOM     70  O   UNL A   1      49.651  28.150  24.624  1.00  0.00    -0.237 OA
ATOM     71  O   UNL A   1      47.997  26.401  25.164  1.00  0.00    -0.744 OA
ENDBRANCH  64  68
ENDBRANCH  47  61
BRANCH  48  72
ATOM     72  C   UNL A   1      37.147  32.387  30.536  1.00  0.00     0.023 A 
ATOM     73  C   UNL A   1      36.276  32.899  29.560  1.00  0.00     0.031 A 
ATOM     74  C   UNL A   1      36.679  32.289  31.856  1.00  0.00     0.131 A 
ATOM     75  C   UNL A   1      34.991  33.324  29.925  1.00  0.00     0.055 A 
ATOM     76  C   UNL A   1      35.385  32.679  32.208  1.00  0.00     0.041 A 
ATOM     77  F   UNL A   1      37.468  31.793  32.822  1.00  0.00    -0.206 F 
ATOM     78  C   UNL A   1      34.535  33.209  31.241  1.00  0.00     0.022 A 
BRANCH  75  79
ATOM     79  S   UNL A   1      33.933  34.076  28.658  1.00  0.00     0.124 S 
ATOM     80  O   UNL A   1      34.800  35.124  28.131  1.00  0.00    -0.237 OA
ATOM     81  O   UNL A   1      33.675  32.948  27.770  1.00  0.00    -0.237 OA
ATOM     82  O   UNL A   1      32.775  34.546  29.416  1.00  0.00    -0.744 OA
ENDBRANCH  75  79
ENDBRANCH  48  72
BRANCH  60  83
ATOM     83  C   UNL A   1      43.325  35.604  30.694  1.00  0.00     0.023 A 
ATOM     84  C   UNL A   1      43.468  36.007  32.032  1.00  0.00     0.031 A 
ATOM     85  C   UNL A   1      43.544  36.556  29.683  1.00  0.00     0.131 A 
ATOM     86  C   UNL A   1      43.774  37.344  32.326  1.00  0.00     0.055 A 
ATOM     87  C   UNL A   1      43.900  37.871  29.981  1.00  0.00     0.041 A 
ATOM     88  F   UNL A   1      43.419  36.220  28.389  1.00  0.00    -0.206 F 
ATOM     89  C   UNL A   1      44.005  38.274  31.309  1.00  0.00     0.022 A 
BRANCH  86  90
ATOM     90  S   UNL A   1      43.789  37.872  34.061  1.00  0.00     0.124 S 
ATOM     91  O   UNL A   1      45.198  38.195  34.267  1.00  0.00    -0.237 OA
ATOM     92  O   UNL A   1      42.871  39.005  34.052  1.00  0.00    -0.237 OA
ATOM     93  O   UNL A   1      43.312  36.694  34.783  1.00  0.00    -0.744 OA
ENDBRANCH  86  90
ENDBRANCH  60  83
ENDBRANCH  34  35
ENDBRANCH  26  29
ENDBRANCH  24  25
ENDBRANCH  23  24
ENDBRANCH   1  23
TORSDOF 17
ENDMDL
