MODEL 1
REMARK VINA RESULT:     -11.7      0.000      0.000
REMARK SMILES O=C(NCCCCNC(=O)c1cccc2cccc([S@](=O)c3ccccc3CO)c12)c1ccc(-c2c3nc(c(-c4cc(S(=O)(=O)[O-])ccc4F)c4ccc([nH]4)c(-c4cc(S(=O)(=O)[O-])ccc4F)c4nc(c(-c5cc(S(=O)(=O)[O-])ccc5F)c5ccc2[nH]5)C=C4)C=C3)cc1
REMARK SMILES IDX 6 1 5 2 4 3 3 4 1 5 2 6 31 8 32 9 93 10 33 11 92 12 34 13
REMARK SMILES IDX 35 14 36 15 86 16 37 17 91 18 85 19 87 20 38 21 90 22 84 23
REMARK SMILES IDX 83 24 39 26 71 27 51 28 70 29 52 30 55 31 69 32 88 33 53 34
REMARK SMILES IDX 54 35 68 37 89 38 56 39 40 40 41 41 49 42 42 43 48 44 50 45
REMARK SMILES IDX 47 46 43 47 44 48 45 49 46 50 72 51 73 52 81 53 74 54 80 55
REMARK SMILES IDX 82 56 79 57 75 58 76 59 77 60 78 61 57 62 58 63 66 64 59 65
REMARK SMILES IDX 65 66 67 67 64 68 60 69 61 70 62 71 63 72 7 73 8 74 9 75
REMARK SMILES IDX 10 77 11 78 12 79 30 80 13 81 15 82 19 83 14 84 16 85 18 86
REMARK SMILES IDX 17 87 20 88 21 89 22 90 23 91 27 92 24 93 26 94 25 95 28 96
REMARK SMILES IDX 29 97
REMARK H PARENT 3 7 87 25 55 36 8 76 29 98
REMARK Flexibility Score: inf
ROOT
ATOM      1  C   UNL A   1      34.072  29.829  26.797  1.00  0.00     0.023 C 
ENDROOT
BRANCH   1   2
ATOM      2  C   UNL A   1      33.093  30.827  26.179  1.00  0.00     0.023 C 
BRANCH   2   3
ATOM      3  C   UNL A   1      32.102  31.481  27.136  1.00  0.00     0.116 C 
BRANCH   3   4
ATOM      4  N   UNL A   1      32.239  32.928  27.218  1.00  0.00    -0.352 N 
ATOM      5  O   UNL A   1      33.078  34.913  27.866  1.00  0.00    -0.269 OA
ATOM      6  C   UNL A   1      33.202  33.688  27.838  1.00  0.00     0.251 C 
ATOM      7  H   UNL A   1      31.535  33.441  26.760  1.00  0.00     0.163 HD
BRANCH   6   8
ATOM      8  C   UNL A   1      34.366  33.051  28.496  1.00  0.00     0.039 A 
ATOM      9  C   UNL A   1      34.213  32.238  29.623  1.00  0.00     0.014 A 
ATOM     10  C   UNL A   1      35.639  33.257  27.952  1.00  0.00     0.014 A 
ATOM     11  C   UNL A   1      35.339  31.743  30.281  1.00  0.00     0.010 A 
ATOM     12  C   UNL A   1      36.761  32.704  28.576  1.00  0.00     0.010 A 
ATOM     13  C   UNL A   1      36.624  31.970  29.766  1.00  0.00    -0.014 A 
BRANCH  13  14
ATOM     14  C   UNL A   1      37.821  31.422  30.455  1.00  0.00     0.031 A 
ATOM     15  C   UNL A   1      38.680  30.385  29.786  1.00  0.00     0.074 A 
ATOM     16  C   UNL A   1      38.115  31.840  31.701  1.00  0.00     0.049 A 
ATOM     17  N   UNL A   1      39.707  29.727  30.262  1.00  0.00    -0.248 NA
ATOM     18  C   UNL A   1      38.326  30.033  28.405  1.00  0.00     0.031 C 
ATOM     19  C   UNL A   1      37.353  32.838  32.453  1.00  0.00     0.029 A 
ATOM     20  N   UNL A   1      39.118  31.467  32.559  1.00  0.00    -0.354 N 
ATOM     21  C   UNL A   1      40.112  28.866  29.246  1.00  0.00     0.074 A 
ATOM     22  C   UNL A   1      39.193  29.065  28.144  1.00  0.00     0.031 C 
ATOM     23  C   UNL A   1      37.912  32.994  33.662  1.00  0.00     0.029 A 
ATOM     24  C   UNL A   1      39.034  32.070  33.792  1.00  0.00     0.049 A 
ATOM     25  H   UNL A   1      39.829  30.832  32.315  1.00  0.00     0.167 HD
ATOM     26  C   UNL A   1      41.157  27.999  29.236  1.00  0.00     0.034 A 
ATOM     27  C   UNL A   1      39.748  31.873  34.916  1.00  0.00     0.034 A 
ATOM     28  C   UNL A   1      42.060  27.816  30.348  1.00  0.00     0.049 A 
ATOM     29  C   UNL A   1      40.869  30.871  34.906  1.00  0.00     0.074 A 
ATOM     30  C   UNL A   1      43.181  27.007  30.426  1.00  0.00     0.029 A 
ATOM     31  N   UNL A   1      41.935  28.437  31.585  1.00  0.00    -0.354 N 
ATOM     32  N   UNL A   1      41.261  30.086  33.929  1.00  0.00    -0.248 NA
ATOM     33  C   UNL A   1      41.648  30.733  36.143  1.00  0.00     0.031 C 
ATOM     34  C   UNL A   1      43.691  27.085  31.729  1.00  0.00     0.029 A 
ATOM     35  C   UNL A   1      42.933  27.999  32.444  1.00  0.00     0.049 A 
ATOM     36  H   UNL A   1      41.238  29.091  31.820  1.00  0.00     0.167 HD
ATOM     37  C   UNL A   1      42.348  29.374  34.428  1.00  0.00     0.074 A 
ATOM     38  C   UNL A   1      42.549  29.825  35.791  1.00  0.00     0.031 C 
ATOM     39  C   UNL A   1      43.114  28.442  33.808  1.00  0.00     0.034 A 
BRANCH  26  40
ATOM     40  C   UNL A   1      41.337  27.148  27.998  1.00  0.00     0.023 A 
ATOM     41  C   UNL A   1      40.961  25.794  27.967  1.00  0.00     0.031 A 
ATOM     42  C   UNL A   1      41.939  27.689  26.847  1.00  0.00     0.131 A 
ATOM     43  C   UNL A   1      41.271  25.006  26.847  1.00  0.00     0.055 A 
ATOM     44  C   UNL A   1      42.168  26.918  25.704  1.00  0.00     0.041 A 
ATOM     45  F   UNL A   1      42.337  28.970  26.820  1.00  0.00    -0.206 F 
ATOM     46  C   UNL A   1      41.852  25.564  25.707  1.00  0.00     0.022 A 
BRANCH  43  47
ATOM     47  S   UNL A   1      41.065  23.207  26.973  1.00  0.00     0.124 S 
ATOM     48  O   UNL A   1      39.610  23.073  26.983  1.00  0.00    -0.237 OA
ATOM     49  O   UNL A   1      41.743  22.728  25.775  1.00  0.00    -0.237 OA
ATOM     50  O   UNL A   1      41.720  22.875  28.237  1.00  0.00    -0.744 OA
ENDBRANCH  43  47
ENDBRANCH  26  40
BRANCH  27  51
ATOM     51  C   UNL A   1      39.374  32.606  36.155  1.00  0.00     0.023 A 
ATOM     52  C   UNL A   1      39.859  33.895  36.418  1.00  0.00     0.031 A 
ATOM     53  C   UNL A   1      38.488  32.027  37.083  1.00  0.00     0.131 A 
ATOM     54  C   UNL A   1      39.467  34.561  37.590  1.00  0.00     0.055 A 
ATOM     55  C   UNL A   1      38.070  32.709  38.225  1.00  0.00     0.041 A 
ATOM     56  F   UNL A   1      37.988  30.800  36.868  1.00  0.00    -0.206 F 
ATOM     57  C   UNL A   1      38.564  33.982  38.487  1.00  0.00     0.022 A 
BRANCH  54  58
ATOM     58  S   UNL A   1      40.173  36.193  37.943  1.00  0.00     0.124 S 
ATOM     59  O   UNL A   1      41.492  35.841  38.457  1.00  0.00    -0.237 OA
ATOM     60  O   UNL A   1      40.145  36.829  36.630  1.00  0.00    -0.237 OA
ATOM     61  O   UNL A   1      39.250  36.758  38.925  1.00  0.00    -0.744 OA
ENDBRANCH  54  58
ENDBRANCH  27  51
BRANCH  39  62
ATOM     62  C   UNL A   1      44.275  27.880  34.587  1.00  0.00     0.023 A 
ATOM     63  C   UNL A   1      44.181  26.665  35.287  1.00  0.00     0.031 A 
ATOM     64  C   UNL A   1      45.501  28.569  34.611  1.00  0.00     0.131 A 
ATOM     65  C   UNL A   1      45.287  26.192  36.011  1.00  0.00     0.055 A 
ATOM     66  C   UNL A   1      46.610  28.070  35.295  1.00  0.00     0.041 A 
ATOM     67  F   UNL A   1      45.641  29.734  33.960  1.00  0.00    -0.206 F 
ATOM     68  C   UNL A   1      46.504  26.879  36.005  1.00  0.00     0.022 A 
BRANCH  65  69
ATOM     69  S   UNL A   1      45.106  24.683  37.002  1.00  0.00     0.124 S 
ATOM     70  O   UNL A   1      46.484  24.208  37.085  1.00  0.00    -0.237 OA
ATOM     71  O   UNL A   1      44.530  25.189  38.244  1.00  0.00    -0.237 OA
ATOM     72  O   UNL A   1      44.211  23.851  36.201  1.00  0.00    -0.744 OA
ENDBRANCH  65  69
ENDBRANCH  39  62
ENDBRANCH  13  14
ENDBRANCH   6   8
ENDBRANCH   3   4
ENDBRANCH   2   3
ENDBRANCH   1   2
BRANCH   1  73
ATOM     73  C   UNL A   1      33.949  28.385  26.324  1.00  0.00     0.116 C 
BRANCH  73  74
ATOM     74  N   UNL A   1      32.883  27.629  26.972  1.00  0.00    -0.352 N 
ATOM     75  C   UNL A   1      31.809  26.982  26.406  1.00  0.00     0.251 C 
ATOM     76  H   UNL A   1      32.941  27.573  27.954  1.00  0.00     0.163 HD
ATOM     77  O   UNL A   1      31.087  26.229  27.062  1.00  0.00    -0.269 OA
BRANCH  75  78
ATOM     78  C   UNL A   1      31.604  27.078  24.954  1.00  0.00     0.048 A 
ATOM     79  C   UNL A   1      30.758  28.158  24.607  1.00  0.00     0.014 A 
ATOM     80  C   UNL A   1      32.195  26.197  23.972  1.00  0.00     0.011 A 
ATOM     81  C   UNL A   1      30.388  28.371  23.295  1.00  0.00     0.001 A 
ATOM     82  C   UNL A   1      31.786  26.485  22.628  1.00  0.00    -0.016 A 
ATOM     83  C   UNL A   1      33.116  25.082  24.114  1.00  0.00     0.052 A 
ATOM     84  C   UNL A   1      30.898  27.531  22.319  1.00  0.00     0.009 A 
ATOM     85  C   UNL A   1      32.246  25.737  21.537  1.00  0.00     0.009 A 
ATOM     86  C   UNL A   1      33.534  24.347  22.975  1.00  0.00     0.019 A 
ATOM     87  C   UNL A   1      33.116  24.676  21.700  1.00  0.00     0.002 A 
BRANCH  83  88
ATOM     88  S   UNL A   1      33.837  24.380  25.625  1.00  0.00     0.086 S 
ATOM     89  O   UNL A   1      35.305  24.639  25.627  1.00  0.00    -0.249 OA
BRANCH  88  90
ATOM     90  C   UNL A   1      33.490  22.597  25.391  1.00  0.00     0.049 A 
ATOM     91  C   UNL A   1      34.469  21.751  24.827  1.00  0.00     0.018 A 
ATOM     92  C   UNL A   1      32.188  22.070  25.550  1.00  0.00    -0.006 A 
ATOM     93  C   UNL A   1      34.177  20.443  24.418  1.00  0.00     0.001 A 
ATOM     94  C   UNL A   1      31.910  20.750  25.121  1.00  0.00     0.007 A 
ATOM     95  C   UNL A   1      32.893  19.946  24.554  1.00  0.00     0.000 A 
BRANCH  92  96
ATOM     96  C   UNL A   1      31.009  22.856  26.062  1.00  0.00     0.192 C 
BRANCH  96  97
ATOM     97  O   UNL A   1      29.939  21.938  26.260  1.00  0.00    -0.392 OA
ATOM     98  H   UNL A   1      30.004  21.221  25.610  1.00  0.00     0.211 HD
ENDBRANCH  96  97
ENDBRANCH  92  96
ENDBRANCH  88  90
ENDBRANCH  83  88
ENDBRANCH  75  78
ENDBRANCH  73  74
ENDBRANCH   1  73
TORSDOF 18
ENDMDL
MODEL 2
REMARK VINA RESULT:     -11.6      2.475      8.371
REMARK SMILES O=C(NCCCCNC(=O)c1cccc2cccc([S@](=O)c3ccccc3CO)c12)c1ccc(-c2c3nc(c(-c4cc(S(=O)(=O)[O-])ccc4F)c4ccc([nH]4)c(-c4cc(S(=O)(=O)[O-])ccc4F)c4nc(c(-c5cc(S(=O)(=O)[O-])ccc5F)c5ccc2[nH]5)C=C4)C=C3)cc1
REMARK SMILES IDX 6 1 5 2 4 3 3 4 1 5 2 6 31 8 32 9 93 10 33 11 92 12 34 13
REMARK SMILES IDX 35 14 36 15 86 16 37 17 91 18 85 19 87 20 38 21 90 22 84 23
REMARK SMILES IDX 83 24 39 26 71 27 51 28 70 29 52 30 55 31 69 32 88 33 53 34
REMARK SMILES IDX 54 35 68 37 89 38 56 39 40 40 41 41 49 42 42 43 48 44 50 45
REMARK SMILES IDX 47 46 43 47 44 48 45 49 46 50 72 51 73 52 81 53 74 54 80 55
REMARK SMILES IDX 82 56 79 57 75 58 76 59 77 60 78 61 57 62 58 63 66 64 59 65
REMARK SMILES IDX 65 66 67 67 64 68 60 69 61 70 62 71 63 72 7 73 8 74 9 75
REMARK SMILES IDX 10 77 11 78 12 79 30 80 13 81 15 82 19 83 14 84 16 85 18 86
REMARK SMILES IDX 17 87 20 88 21 89 22 90 23 91 27 92 24 93 26 94 25 95 28 96
REMARK SMILES IDX 29 97
REMARK H PARENT 3 7 87 25 55 36 8 76 29 98
REMARK Flexibility Score: inf
ROOT
ATOM      1  C   UNL A   1      31.304  27.264  27.060  1.00  0.00     0.023 C 
ENDROOT
BRANCH   1   2
ATOM      2  C   UNL A   1      31.745  28.686  26.714  1.00  0.00     0.023 C 
BRANCH   2   3
ATOM      3  C   UNL A   1      33.090  29.133  27.280  1.00  0.00     0.116 C 
BRANCH   3   4
ATOM      4  N   UNL A   1      33.252  30.579  27.325  1.00  0.00    -0.352 N 
ATOM      5  O   UNL A   1      34.183  32.561  27.840  1.00  0.00    -0.269 OA
ATOM      6  C   UNL A   1      34.290  31.335  27.814  1.00  0.00     0.251 C 
ATOM      7  H   UNL A   1      32.503  31.094  26.947  1.00  0.00     0.163 HD
BRANCH   6   8
ATOM      8  C   UNL A   1      35.517  30.691  28.337  1.00  0.00     0.039 A 
ATOM      9  C   UNL A   1      35.492  29.896  29.487  1.00  0.00     0.014 A 
ATOM     10  C   UNL A   1      36.717  30.873  27.641  1.00  0.00     0.014 A 
ATOM     11  C   UNL A   1      36.683  29.395  30.012  1.00  0.00     0.010 A 
ATOM     12  C   UNL A   1      37.900  30.314  28.134  1.00  0.00     0.010 A 
ATOM     13  C   UNL A   1      37.899  29.598  29.342  1.00  0.00    -0.014 A 
BRANCH  13  14
ATOM     14  C   UNL A   1      39.164  29.045  29.891  1.00  0.00     0.031 A 
ATOM     15  C   UNL A   1      39.844  29.703  31.059  1.00  0.00     0.074 A 
ATOM     16  C   UNL A   1      39.717  27.961  29.312  1.00  0.00     0.049 A 
ATOM     17  N   UNL A   1      40.994  29.420  31.616  1.00  0.00    -0.248 NA
ATOM     18  C   UNL A   1      39.142  30.840  31.669  1.00  0.00     0.031 C 
ATOM     19  C   UNL A   1      39.153  27.240  28.170  1.00  0.00     0.029 A 
ATOM     20  N   UNL A   1      40.881  27.291  29.590  1.00  0.00    -0.354 N 
ATOM     21  C   UNL A   1      41.166  30.355  32.632  1.00  0.00     0.074 A 
ATOM     22  C   UNL A   1      40.016  31.234  32.585  1.00  0.00     0.031 C 
ATOM     23  C   UNL A   1      39.973  26.231  27.843  1.00  0.00     0.029 A 
ATOM     24  C   UNL A   1      41.146  26.268  28.710  1.00  0.00     0.049 A 
ATOM     25  H   UNL A   1      41.468  27.519  30.346  1.00  0.00     0.167 HD
ATOM     26  C   UNL A   1      42.186  30.463  33.522  1.00  0.00     0.034 A 
ATOM     27  C   UNL A   1      42.228  25.477  28.584  1.00  0.00     0.034 A 
ATOM     28  C   UNL A   1      43.325  29.576  33.550  1.00  0.00     0.049 A 
ATOM     29  C   UNL A   1      43.372  25.641  29.544  1.00  0.00     0.074 A 
ATOM     30  C   UNL A   1      44.386  29.559  34.440  1.00  0.00     0.029 A 
ATOM     31  N   UNL A   1      43.564  28.558  32.634  1.00  0.00    -0.354 N 
ATOM     32  N   UNL A   1      43.509  26.510  30.519  1.00  0.00    -0.248 NA
ATOM     33  C   UNL A   1      44.504  24.718  29.393  1.00  0.00     0.031 C 
ATOM     34  C   UNL A   1      45.297  28.581  34.021  1.00  0.00     0.029 A 
ATOM     35  C   UNL A   1      44.772  27.936  32.913  1.00  0.00     0.049 A 
ATOM     36  H   UNL A   1      42.964  28.315  31.892  1.00  0.00     0.167 HD
ATOM     37  C   UNL A   1      44.734  26.224  31.113  1.00  0.00     0.074 A 
ATOM     38  C   UNL A   1      45.296  25.102  30.387  1.00  0.00     0.031 C 
ATOM     39  C   UNL A   1      45.331  26.828  32.171  1.00  0.00     0.034 A 
BRANCH  26  40
ATOM     40  C   UNL A   1      42.132  31.616  34.500  1.00  0.00     0.023 A 
ATOM     41  C   UNL A   1      41.312  31.584  35.641  1.00  0.00     0.031 A 
ATOM     42  C   UNL A   1      42.877  32.785  34.261  1.00  0.00     0.131 A 
ATOM     43  C   UNL A   1      41.186  32.727  36.447  1.00  0.00     0.055 A 
ATOM     44  C   UNL A   1      42.812  33.889  35.115  1.00  0.00     0.041 A 
ATOM     45  F   UNL A   1      43.665  32.885  33.179  1.00  0.00    -0.206 F 
ATOM     46  C   UNL A   1      41.948  33.871  36.205  1.00  0.00     0.022 A 
BRANCH  43  47
ATOM     47  S   UNL A   1      39.883  32.755  37.710  1.00  0.00     0.124 S 
ATOM     48  O   UNL A   1      39.004  31.679  37.256  1.00  0.00    -0.237 OA
ATOM     49  O   UNL A   1      40.627  32.497  38.937  1.00  0.00    -0.237 OA
ATOM     50  O   UNL A   1      39.319  34.098  37.591  1.00  0.00    -0.744 OA
ENDBRANCH  43  47
ENDBRANCH  26  40
BRANCH  27  51
ATOM     51  C   UNL A   1      42.289  24.500  27.463  1.00  0.00     0.023 A 
ATOM     52  C   UNL A   1      41.595  23.282  27.515  1.00  0.00     0.031 A 
ATOM     53  C   UNL A   1      43.026  24.797  26.302  1.00  0.00     0.131 A 
ATOM     54  C   UNL A   1      41.664  22.396  26.428  1.00  0.00     0.055 A 
ATOM     55  C   UNL A   1      43.058  23.932  25.209  1.00  0.00     0.041 A 
ATOM     56  F   UNL A   1      43.696  25.956  26.203  1.00  0.00    -0.206 F 
ATOM     57  C   UNL A   1      42.378  22.720  25.270  1.00  0.00     0.022 A 
BRANCH  54  58
ATOM     58  S   UNL A   1      40.824  20.795  26.555  1.00  0.00     0.124 S 
ATOM     59  O   UNL A   1      40.862  20.552  27.992  1.00  0.00    -0.237 OA
ATOM     60  O   UNL A   1      39.512  21.093  25.989  1.00  0.00    -0.237 OA
ATOM     61  O   UNL A   1      41.659  19.908  25.748  1.00  0.00    -0.744 OA
ENDBRANCH  54  58
ENDBRANCH  27  51
BRANCH  39  62
ATOM     62  C   UNL A   1      46.645  26.256  32.636  1.00  0.00     0.023 A 
ATOM     63  C   UNL A   1      46.709  25.167  33.523  1.00  0.00     0.031 A 
ATOM     64  C   UNL A   1      47.852  26.803  32.167  1.00  0.00     0.131 A 
ATOM     65  C   UNL A   1      47.959  24.680  33.939  1.00  0.00     0.055 A 
ATOM     66  C   UNL A   1      49.091  26.285  32.548  1.00  0.00     0.041 A 
ATOM     67  F   UNL A   1      47.846  27.845  31.320  1.00  0.00    -0.206 F 
ATOM     68  C   UNL A   1      49.148  25.223  33.444  1.00  0.00     0.022 A 
BRANCH  65  69
ATOM     69  S   UNL A   1      48.016  23.353  35.173  1.00  0.00     0.124 S 
ATOM     70  O   UNL A   1      46.865  22.538  34.795  1.00  0.00    -0.237 OA
ATOM     71  O   UNL A   1      49.325  22.755  34.934  1.00  0.00    -0.237 OA
ATOM     72  O   UNL A   1      47.883  24.060  36.445  1.00  0.00    -0.744 OA
ENDBRANCH  65  69
ENDBRANCH  39  62
ENDBRANCH  13  14
ENDBRANCH   6   8
ENDBRANCH   3   4
ENDBRANCH   2   3
ENDBRANCH   1   2
BRANCH   1  73
ATOM     73  C   UNL A   1      32.101  26.137  26.413  1.00  0.00     0.116 C 
BRANCH  73  74
ATOM     74  N   UNL A   1      31.290  25.165  25.689  1.00  0.00    -0.352 N 
ATOM     75  C   UNL A   1      31.530  23.829  25.466  1.00  0.00     0.251 C 
ATOM     76  H   UNL A   1      30.452  25.514  25.307  1.00  0.00     0.163 HD
ATOM     77  O   UNL A   1      30.668  23.086  24.993  1.00  0.00    -0.269 OA
BRANCH  75  78
ATOM     78  C   UNL A   1      32.794  23.243  25.937  1.00  0.00     0.048 A 
ATOM     79  C   UNL A   1      32.749  22.919  27.314  1.00  0.00     0.014 A 
ATOM     80  C   UNL A   1      33.954  23.000  25.111  1.00  0.00     0.011 A 
ATOM     81  C   UNL A   1      33.863  22.424  27.958  1.00  0.00     0.001 A 
ATOM     82  C   UNL A   1      35.070  22.467  25.837  1.00  0.00    -0.016 A 
ATOM     83  C   UNL A   1      34.182  23.207  23.691  1.00  0.00     0.052 A 
ATOM     84  C   UNL A   1      35.014  22.208  27.218  1.00  0.00     0.009 A 
ATOM     85  C   UNL A   1      36.288  22.171  25.212  1.00  0.00     0.009 A 
ATOM     86  C   UNL A   1      35.443  22.908  23.115  1.00  0.00     0.019 A 
ATOM     87  C   UNL A   1      36.481  22.384  23.861  1.00  0.00     0.002 A 
BRANCH  83  88
ATOM     88  S   UNL A   1      33.056  23.888  22.440  1.00  0.00     0.086 S 
ATOM     89  O   UNL A   1      33.557  23.519  21.085  1.00  0.00    -0.249 OA
BRANCH  88  90
ATOM     90  C   UNL A   1      33.240  25.686  22.735  1.00  0.00     0.049 A 
ATOM     91  C   UNL A   1      34.223  26.163  23.628  1.00  0.00     0.018 A 
ATOM     92  C   UNL A   1      32.280  26.613  22.266  1.00  0.00    -0.006 A 
ATOM     93  C   UNL A   1      34.253  27.495  24.060  1.00  0.00     0.001 A 
ATOM     94  C   UNL A   1      32.322  27.952  22.723  1.00  0.00     0.007 A 
ATOM     95  C   UNL A   1      33.294  28.389  23.616  1.00  0.00     0.000 A 
BRANCH  92  96
ATOM     96  C   UNL A   1      31.121  26.260  21.373  1.00  0.00     0.192 C 
BRANCH  96  97
ATOM     97  O   UNL A   1      31.652  25.949  20.089  1.00  0.00    -0.392 OA
ATOM     98  H   UNL A   1      31.012  26.202  19.405  1.00  0.00     0.211 HD
ENDBRANCH  96  97
ENDBRANCH  92  96
ENDBRANCH  88  90
ENDBRANCH  83  88
ENDBRANCH  75  78
ENDBRANCH  73  74
ENDBRANCH   1  73
TORSDOF 18
ENDMDL
MODEL 3
REMARK VINA RESULT:     -11.5      5.424     10.593
REMARK SMILES O=C(NCCCCNC(=O)c1cccc2cccc([S@](=O)c3ccccc3CO)c12)c1ccc(-c2c3nc(c(-c4cc(S(=O)(=O)[O-])ccc4F)c4ccc([nH]4)c(-c4cc(S(=O)(=O)[O-])ccc4F)c4nc(c(-c5cc(S(=O)(=O)[O-])ccc5F)c5ccc2[nH]5)C=C4)C=C3)cc1
REMARK SMILES IDX 6 1 5 2 4 3 3 4 1 5 2 6 31 8 32 9 93 10 33 11 92 12 34 13
REMARK SMILES IDX 35 14 36 15 86 16 37 17 91 18 85 19 87 20 38 21 90 22 84 23
REMARK SMILES IDX 83 24 39 26 71 27 51 28 70 29 52 30 55 31 69 32 88 33 53 34
REMARK SMILES IDX 54 35 68 37 89 38 56 39 40 40 41 41 49 42 42 43 48 44 50 45
REMARK SMILES IDX 47 46 43 47 44 48 45 49 46 50 72 51 73 52 81 53 74 54 80 55
REMARK SMILES IDX 82 56 79 57 75 58 76 59 77 60 78 61 57 62 58 63 66 64 59 65
REMARK SMILES IDX 65 66 67 67 64 68 60 69 61 70 62 71 63 72 7 73 8 74 9 75
REMARK SMILES IDX 10 77 11 78 12 79 30 80 13 81 15 82 19 83 14 84 16 85 18 86
REMARK SMILES IDX 17 87 20 88 21 89 22 90 23 91 27 92 24 93 26 94 25 95 28 96
REMARK SMILES IDX 29 97
REMARK H PARENT 3 7 87 25 55 36 8 76 29 98
REMARK Flexibility Score: inf
ROOT
ATOM      1  C   UNL A   1      37.787  23.277  25.762  1.00  0.00     0.023 C 
ENDROOT
BRANCH   1   2
ATOM      2  C   UNL A   1      38.154  21.867  26.225  1.00  0.00     0.023 C 
BRANCH   2   3
ATOM      3  C   UNL A   1      38.448  20.850  25.125  1.00  0.00     0.116 C 
BRANCH   3   4
ATOM      4  N   UNL A   1      39.350  19.787  25.542  1.00  0.00    -0.352 N 
ATOM      5  O   UNL A   1      41.231  18.830  26.322  1.00  0.00    -0.269 OA
ATOM      6  C   UNL A   1      40.587  19.863  26.136  1.00  0.00     0.251 C 
ATOM      7  H   UNL A   1      39.025  18.873  25.371  1.00  0.00     0.163 HD
BRANCH   6   8
ATOM      8  C   UNL A   1      41.164  21.171  26.525  1.00  0.00     0.039 A 
ATOM      9  C   UNL A   1      41.193  21.589  27.858  1.00  0.00     0.014 A 
ATOM     10  C   UNL A   1      41.708  21.985  25.526  1.00  0.00     0.014 A 
ATOM     11  C   UNL A   1      41.644  22.871  28.175  1.00  0.00     0.010 A 
ATOM     12  C   UNL A   1      42.220  23.244  25.856  1.00  0.00     0.010 A 
ATOM     13  C   UNL A   1      42.161  23.712  27.179  1.00  0.00    -0.014 A 
BRANCH  13  14
ATOM     14  C   UNL A   1      42.662  25.068  27.521  1.00  0.00     0.031 A 
ATOM     15  C   UNL A   1      41.751  26.081  28.157  1.00  0.00     0.074 A 
ATOM     16  C   UNL A   1      43.935  25.396  27.228  1.00  0.00     0.049 A 
ATOM     17  N   UNL A   1      41.981  27.337  28.445  1.00  0.00    -0.248 NA
ATOM     18  C   UNL A   1      40.399  25.621  28.501  1.00  0.00     0.031 C 
ATOM     19  C   UNL A   1      44.911  24.499  26.606  1.00  0.00     0.029 A 
ATOM     20  N   UNL A   1      44.620  26.572  27.396  1.00  0.00    -0.354 N 
ATOM     21  C   UNL A   1      40.796  27.827  28.986  1.00  0.00     0.074 A 
ATOM     22  C   UNL A   1      39.842  26.738  28.950  1.00  0.00     0.031 C 
ATOM     23  C   UNL A   1      46.067  25.158  26.440  1.00  0.00     0.029 A 
ATOM     24  C   UNL A   1      45.898  26.537  26.889  1.00  0.00     0.049 A 
ATOM     25  H   UNL A   1      44.235  27.363  27.837  1.00  0.00     0.167 HD
ATOM     26  C   UNL A   1      40.535  29.068  29.472  1.00  0.00     0.034 A 
ATOM     27  C   UNL A   1      46.817  27.511  26.758  1.00  0.00     0.034 A 
ATOM     28  C   UNL A   1      41.502  30.141  29.496  1.00  0.00     0.049 A 
ATOM     29  C   UNL A   1      46.496  28.894  27.253  1.00  0.00     0.074 A 
ATOM     30  C   UNL A   1      41.363  31.418  30.014  1.00  0.00     0.029 A 
ATOM     31  N   UNL A   1      42.783  30.070  28.963  1.00  0.00    -0.354 N 
ATOM     32  N   UNL A   1      45.382  29.337  27.790  1.00  0.00    -0.248 NA
ATOM     33  C   UNL A   1      47.553  29.906  27.132  1.00  0.00     0.031 C 
ATOM     34  C   UNL A   1      42.530  32.138  29.731  1.00  0.00     0.029 A 
ATOM     35  C   UNL A   1      43.429  31.290  29.103  1.00  0.00     0.049 A 
ATOM     36  H   UNL A   1      43.176  29.270  28.544  1.00  0.00     0.167 HD
ATOM     37  C   UNL A   1      45.613  30.675  28.091  1.00  0.00     0.074 A 
ATOM     38  C   UNL A   1      46.971  30.967  27.677  1.00  0.00     0.031 C 
ATOM     39  C   UNL A   1      44.778  31.575  28.670  1.00  0.00     0.034 A 
BRANCH  26  40
ATOM     40  C   UNL A   1      39.131  29.336  29.964  1.00  0.00     0.023 A 
ATOM     41  C   UNL A   1      38.190  30.030  29.183  1.00  0.00     0.031 A 
ATOM     42  C   UNL A   1      38.742  28.932  31.254  1.00  0.00     0.131 A 
ATOM     43  C   UNL A   1      36.944  30.379  29.730  1.00  0.00     0.055 A 
ATOM     44  C   UNL A   1      37.469  29.209  31.761  1.00  0.00     0.041 A 
ATOM     45  F   UNL A   1      39.599  28.282  32.055  1.00  0.00    -0.206 F 
ATOM     46  C   UNL A   1      36.569  29.953  31.006  1.00  0.00     0.022 A 
BRANCH  43  47
ATOM     47  S   UNL A   1      35.895  31.545  28.817  1.00  0.00     0.124 S 
ATOM     48  O   UNL A   1      34.919  31.928  29.836  1.00  0.00    -0.237 OA
ATOM     49  O   UNL A   1      36.843  32.578  28.421  1.00  0.00    -0.237 OA
ATOM     50  O   UNL A   1      35.355  30.737  27.725  1.00  0.00    -0.744 OA
ENDBRANCH  43  47
ENDBRANCH  26  40
BRANCH  27  51
ATOM     51  C   UNL A   1      48.105  27.212  26.075  1.00  0.00     0.023 A 
ATOM     52  C   UNL A   1      48.253  27.371  24.689  1.00  0.00     0.031 A 
ATOM     53  C   UNL A   1      49.222  26.790  26.819  1.00  0.00     0.131 A 
ATOM     54  C   UNL A   1      49.490  27.096  24.086  1.00  0.00     0.055 A 
ATOM     55  C   UNL A   1      50.460  26.557  26.221  1.00  0.00     0.041 A 
ATOM     56  F   UNL A   1      49.131  26.636  28.149  1.00  0.00    -0.206 F 
ATOM     57  C   UNL A   1      50.598  26.704  24.845  1.00  0.00     0.022 A 
BRANCH  54  58
ATOM     58  S   UNL A   1      49.631  27.232  22.284  1.00  0.00     0.124 S 
ATOM     59  O   UNL A   1      48.682  26.220  21.835  1.00  0.00    -0.237 OA
ATOM     60  O   UNL A   1      49.246  28.620  22.052  1.00  0.00    -0.237 OA
ATOM     61  O   UNL A   1      51.037  26.928  22.028  1.00  0.00    -0.744 OA
ENDBRANCH  54  58
ENDBRANCH  27  51
BRANCH  39  62
ATOM     62  C   UNL A   1      45.330  32.953  28.931  1.00  0.00     0.023 A 
ATOM     63  C   UNL A   1      45.169  34.004  28.012  1.00  0.00     0.031 A 
ATOM     64  C   UNL A   1      46.014  33.216  30.131  1.00  0.00     0.131 A 
ATOM     65  C   UNL A   1      45.716  35.266  28.296  1.00  0.00     0.055 A 
ATOM     66  C   UNL A   1      46.515  34.485  30.428  1.00  0.00     0.041 A 
ATOM     67  F   UNL A   1      46.195  32.246  31.041  1.00  0.00    -0.206 F 
ATOM     68  C   UNL A   1      46.372  35.516  29.505  1.00  0.00     0.022 A 
BRANCH  65  69
ATOM     69  S   UNL A   1      45.598  36.574  27.045  1.00  0.00     0.124 S 
ATOM     70  O   UNL A   1      46.272  37.687  27.707  1.00  0.00    -0.237 OA
ATOM     71  O   UNL A   1      46.302  35.988  25.909  1.00  0.00    -0.237 OA
ATOM     72  O   UNL A   1      44.159  36.743  26.859  1.00  0.00    -0.744 OA
ENDBRANCH  65  69
ENDBRANCH  39  62
ENDBRANCH  13  14
ENDBRANCH   6   8
ENDBRANCH   3   4
ENDBRANCH   2   3
ENDBRANCH   1   2
BRANCH   1  73
ATOM     73  C   UNL A   1      36.304  23.547  25.540  1.00  0.00     0.116 C 
BRANCH  73  74
ATOM     74  N   UNL A   1      35.937  23.786  24.149  1.00  0.00    -0.352 N 
ATOM     75  C   UNL A   1      34.767  23.479  23.494  1.00  0.00     0.251 C 
ATOM     76  H   UNL A   1      36.624  24.232  23.601  1.00  0.00     0.163 HD
ATOM     77  O   UNL A   1      34.527  23.903  22.363  1.00  0.00    -0.269 OA
BRANCH  75  78
ATOM     78  C   UNL A   1      33.718  22.745  24.216  1.00  0.00     0.048 A 
ATOM     79  C   UNL A   1      33.865  21.343  24.088  1.00  0.00     0.014 A 
ATOM     80  C   UNL A   1      32.658  23.356  24.985  1.00  0.00     0.011 A 
ATOM     81  C   UNL A   1      32.936  20.484  24.637  1.00  0.00     0.001 A 
ATOM     82  C   UNL A   1      31.740  22.407  25.545  1.00  0.00    -0.016 A 
ATOM     83  C   UNL A   1      32.366  24.748  25.280  1.00  0.00     0.052 A 
ATOM     84  C   UNL A   1      31.880  21.021  25.353  1.00  0.00     0.009 A 
ATOM     85  C   UNL A   1      30.641  22.805  26.318  1.00  0.00     0.009 A 
ATOM     86  C   UNL A   1      31.228  25.095  26.053  1.00  0.00     0.019 A 
ATOM     87  C   UNL A   1      30.382  24.137  26.577  1.00  0.00     0.002 A 
BRANCH  83  88
ATOM     88  S   UNL A   1      33.248  26.240  24.741  1.00  0.00     0.086 S 
ATOM     89  O   UNL A   1      33.991  26.810  25.901  1.00  0.00    -0.249 OA
BRANCH  88  90
ATOM     90  C   UNL A   1      31.853  27.327  24.263  1.00  0.00     0.049 A 
ATOM     91  C   UNL A   1      31.085  27.035  23.116  1.00  0.00     0.018 A 
ATOM     92  C   UNL A   1      31.651  28.583  24.880  1.00  0.00    -0.006 A 
ATOM     93  C   UNL A   1      30.166  27.948  22.583  1.00  0.00     0.001 A 
ATOM     94  C   UNL A   1      30.725  29.496  24.320  1.00  0.00     0.007 A 
ATOM     95  C   UNL A   1      29.994  29.185  23.179  1.00  0.00     0.000 A 
BRANCH  92  96
ATOM     96  C   UNL A   1      32.436  29.087  26.062  1.00  0.00     0.192 C 
BRANCH  96  97
ATOM     97  O   UNL A   1      33.563  29.794  25.555  1.00  0.00    -0.392 OA
ATOM     98  H   UNL A   1      33.580  30.688  25.931  1.00  0.00     0.211 HD
ENDBRANCH  96  97
ENDBRANCH  92  96
ENDBRANCH  88  90
ENDBRANCH  83  88
ENDBRANCH  75  78
ENDBRANCH  73  74
ENDBRANCH   1  73
TORSDOF 18
ENDMDL
