MODEL 1
REMARK VINA RESULT:     -11.6      0.000      0.000
REMARK SMILES CC(C)(C[NH2+]Cc1ccc2c(c1)OCO2)C(=O)NCCCCNC(=O)c1ccc(-c2c3nc(c(-c4cc(S(=O)(=O)[O-])ccc4F)c4ccc([nH]4)c(-c4cc(S(=O)(=O)[O-])ccc4F)c4nc(c(-c5cc(S(=O)(=O)[O-])ccc5F)c5ccc2[nH]5)C=C4)C=C3)cc1
REMARK SMILES IDX 20 1 19 2 18 3 16 4 17 5 2 7 1 8 3 9 4 10 5 11 6 14 7 15
REMARK SMILES IDX 8 16 12 17 9 18 11 19 10 20 13 21 15 22 14 23 21 24 22 25
REMARK SMILES IDX 23 26 24 27 25 29 26 30 27 31 88 32 28 33 87 34 29 35 30 36
REMARK SMILES IDX 31 37 81 38 32 39 86 40 80 41 82 42 33 43 85 44 79 45 78 46
REMARK SMILES IDX 34 48 66 49 46 50 65 51 47 52 50 53 64 54 83 55 48 56 49 57
REMARK SMILES IDX 63 59 84 60 51 61 35 62 36 63 44 64 37 65 43 66 45 67 42 68
REMARK SMILES IDX 38 69 39 70 40 71 41 72 67 73 68 74 76 75 69 76 75 77 77 78
REMARK SMILES IDX 74 79 70 80 71 81 72 82 73 83 52 84 53 85 61 86 54 87 60 88
REMARK SMILES IDX 62 89 59 90 55 91 56 92 57 93 58 94
REMARK H PARENT 18 6 5 12 5 13 23 28 82 47 50 58
REMARK Flexibility Score: inf
ROOT
ATOM      1  C   UNL A   1      31.292  30.557  25.688  1.00  0.00     0.023 C 
ENDROOT
BRANCH   1   2
ATOM      2  C   UNL A   1      32.616  29.803  25.768  1.00  0.00     0.116 C 
BRANCH   2   3
ATOM      3  N   UNL A   1      33.263  29.693  24.475  1.00  0.00    -0.355 N 
ATOM      4  C   UNL A   1      33.408  28.663  23.597  1.00  0.00     0.231 C 
ATOM      5  O   UNL A   1      34.026  28.928  22.559  1.00  0.00    -0.274 OA
ATOM      6  H   UNL A   1      33.682  30.530  24.172  1.00  0.00     0.163 HD
BRANCH   4   7
ATOM      7  C   UNL A   1      32.789  27.268  23.818  1.00  0.00     0.092 C 
ATOM      8  C   UNL A   1      33.400  26.652  25.103  1.00  0.00     0.027 C 
ATOM      9  C   UNL A   1      33.196  26.333  22.661  1.00  0.00     0.027 C 
BRANCH   7  10
ATOM     10  C   UNL A   1      31.248  27.300  23.964  1.00  0.00     0.277 C 
BRANCH  10  11
ATOM     11  N   UNL A   1      30.535  27.907  22.832  1.00  0.00    -0.342 N 
ATOM     12  H   UNL A   1      30.591  27.271  22.036  1.00  0.00     0.346 HD
ATOM     13  H   UNL A   1      30.981  28.804  22.642  1.00  0.00     0.346 HD
BRANCH  11  14
ATOM     14  C   UNL A   1      29.121  28.177  23.113  1.00  0.00     0.297 C 
BRANCH  14  15
ATOM     15  C   UNL A   1      28.698  29.585  22.759  1.00  0.00     0.010 A 
ATOM     16  C   UNL A   1      28.717  30.596  23.752  1.00  0.00     0.013 A 
ATOM     17  C   UNL A   1      28.367  29.917  21.436  1.00  0.00     0.060 A 
ATOM     18  C   UNL A   1      28.444  31.927  23.431  1.00  0.00     0.051 A 
ATOM     19  C   UNL A   1      28.090  31.238  21.153  1.00  0.00     0.166 A 
ATOM     20  C   UNL A   1      28.137  32.215  22.121  1.00  0.00     0.165 A 
ATOM     21  O   UNL A   1      27.769  31.737  19.930  1.00  0.00    -0.454 OA
ATOM     22  O   UNL A   1      27.860  33.451  21.626  1.00  0.00    -0.454 OA
ATOM     23  C   UNL A   1      27.615  33.137  20.240  1.00  0.00     0.468 C 
ENDBRANCH  14  15
ENDBRANCH  11  14
ENDBRANCH  10  11
ENDBRANCH   7  10
ENDBRANCH   4   7
ENDBRANCH   2   3
ENDBRANCH   1   2
BRANCH   1  24
ATOM     24  C   UNL A   1      31.240  31.853  26.500  1.00  0.00     0.023 C 
BRANCH  24  25
ATOM     25  C   UNL A   1      32.594  32.470  26.838  1.00  0.00     0.116 C 
BRANCH  25  26
ATOM     26  N   UNL A   1      32.489  33.791  27.439  1.00  0.00    -0.352 N 
ATOM     27  C   UNL A   1      33.271  34.358  28.417  1.00  0.00     0.251 C 
ATOM     28  H   UNL A   1      31.759  34.356  27.097  1.00  0.00     0.163 HD
ATOM     29  O   UNL A   1      32.960  35.449  28.887  1.00  0.00    -0.269 OA
BRANCH  27  30
ATOM     30  C   UNL A   1      34.454  33.630  28.924  1.00  0.00     0.039 A 
ATOM     31  C   UNL A   1      35.718  34.203  28.763  1.00  0.00     0.014 A 
ATOM     32  C   UNL A   1      34.316  32.404  29.580  1.00  0.00     0.014 A 
ATOM     33  C   UNL A   1      36.835  33.582  29.326  1.00  0.00     0.010 A 
ATOM     34  C   UNL A   1      35.419  31.824  30.202  1.00  0.00     0.010 A 
ATOM     35  C   UNL A   1      36.691  32.408  30.084  1.00  0.00    -0.014 A 
BRANCH  35  36
ATOM     36  C   UNL A   1      37.854  31.780  30.764  1.00  0.00     0.031 A 
ATOM     37  C   UNL A   1      38.665  30.731  30.054  1.00  0.00     0.074 A 
ATOM     38  C   UNL A   1      38.138  32.109  32.040  1.00  0.00     0.049 A 
ATOM     39  N   UNL A   1      39.667  30.016  30.500  1.00  0.00    -0.248 NA
ATOM     40  C   UNL A   1      38.276  30.424  28.670  1.00  0.00     0.031 C 
ATOM     41  C   UNL A   1      37.395  33.079  32.849  1.00  0.00     0.029 A 
ATOM     42  N   UNL A   1      39.120  31.658  32.886  1.00  0.00    -0.354 N 
ATOM     43  C   UNL A   1      40.019  29.166  29.458  1.00  0.00     0.074 A 
ATOM     44  C   UNL A   1      39.081  29.412  28.382  1.00  0.00     0.031 C 
ATOM     45  C   UNL A   1      37.962  33.166  34.063  1.00  0.00     0.029 A 
ATOM     46  C   UNL A   1      39.079  32.230  34.137  1.00  0.00     0.049 A 
ATOM     47  H   UNL A   1      39.792  30.989  32.622  1.00  0.00     0.167 HD
ATOM     48  C   UNL A   1      41.044  28.279  29.395  1.00  0.00     0.034 A 
ATOM     49  C   UNL A   1      39.847  32.017  35.225  1.00  0.00     0.034 A 
ATOM     50  C   UNL A   1      41.978  28.055  30.473  1.00  0.00     0.049 A 
ATOM     51  C   UNL A   1      40.971  31.016  35.137  1.00  0.00     0.074 A 
ATOM     52  C   UNL A   1      43.085  27.225  30.496  1.00  0.00     0.029 A 
ATOM     53  N   UNL A   1      41.910  28.659  31.723  1.00  0.00    -0.354 N 
ATOM     54  N   UNL A   1      41.326  30.258  34.124  1.00  0.00    -0.248 NA
ATOM     55  C   UNL A   1      41.805  30.851  36.333  1.00  0.00     0.031 C 
ATOM     56  C   UNL A   1      43.646  27.276  31.777  1.00  0.00     0.029 A 
ATOM     57  C   UNL A   1      42.937  28.196  32.532  1.00  0.00     0.049 A 
ATOM     58  H   UNL A   1      41.232  29.319  31.994  1.00  0.00     0.167 HD
ATOM     59  C   UNL A   1      42.444  29.551  34.554  1.00  0.00     0.074 A 
ATOM     60  C   UNL A   1      42.713  29.984  35.910  1.00  0.00     0.031 C 
ATOM     61  C   UNL A   1      43.186  28.629  33.888  1.00  0.00     0.034 A 
BRANCH  48  62
ATOM     62  C   UNL A   1      41.186  27.472  28.126  1.00  0.00     0.023 A 
ATOM     63  C   UNL A   1      40.811  26.117  28.066  1.00  0.00     0.031 A 
ATOM     64  C   UNL A   1      41.732  28.053  26.968  1.00  0.00     0.131 A 
ATOM     65  C   UNL A   1      41.060  25.371  26.904  1.00  0.00     0.055 A 
ATOM     66  C   UNL A   1      41.899  27.326  25.787  1.00  0.00     0.041 A 
ATOM     67  F   UNL A   1      42.129  29.335  26.968  1.00  0.00    -0.206 F 
ATOM     68  C   UNL A   1      41.578  25.973  25.755  1.00  0.00     0.022 A 
BRANCH  65  69
ATOM     69  S   UNL A   1      40.837  23.572  26.967  1.00  0.00     0.124 S 
ATOM     70  O   UNL A   1      39.443  23.434  26.553  1.00  0.00    -0.237 OA
ATOM     71  O   UNL A   1      41.836  23.096  26.018  1.00  0.00    -0.237 OA
ATOM     72  O   UNL A   1      41.097  23.243  28.367  1.00  0.00    -0.744 OA
ENDBRANCH  65  69
ENDBRANCH  48  62
BRANCH  49  73
ATOM     73  C   UNL A   1      39.581  32.753  36.495  1.00  0.00     0.023 A 
ATOM     74  C   UNL A   1      38.664  32.262  37.437  1.00  0.00     0.031 A 
ATOM     75  C   UNL A   1      40.209  33.982  36.764  1.00  0.00     0.131 A 
ATOM     76  C   UNL A   1      38.364  33.017  38.581  1.00  0.00     0.055 A 
ATOM     77  C   UNL A   1      39.948  34.705  37.930  1.00  0.00     0.041 A 
ATOM     78  F   UNL A   1      41.100  34.494  35.899  1.00  0.00    -0.206 F 
ATOM     79  C   UNL A   1      39.009  34.228  38.840  1.00  0.00     0.022 A 
BRANCH  76  80
ATOM     80  S   UNL A   1      37.052  32.432  39.689  1.00  0.00     0.124 S 
ATOM     81  O   UNL A   1      35.857  32.685  38.894  1.00  0.00    -0.237 OA
ATOM     82  O   UNL A   1      37.416  31.030  39.874  1.00  0.00    -0.237 OA
ATOM     83  O   UNL A   1      37.206  33.274  40.873  1.00  0.00    -0.744 OA
ENDBRANCH  76  80
ENDBRANCH  49  73
BRANCH  61  84
ATOM     84  C   UNL A   1      44.388  28.067  34.609  1.00  0.00     0.023 A 
ATOM     85  C   UNL A   1      44.303  26.907  35.399  1.00  0.00     0.031 A 
ATOM     86  C   UNL A   1      45.633  28.713  34.513  1.00  0.00     0.131 A 
ATOM     87  C   UNL A   1      45.428  26.463  36.110  1.00  0.00     0.055 A 
ATOM     88  C   UNL A   1      46.764  28.229  35.173  1.00  0.00     0.041 A 
ATOM     89  F   UNL A   1      45.772  29.825  33.773  1.00  0.00    -0.206 F 
ATOM     90  C   UNL A   1      46.662  27.106  35.988  1.00  0.00     0.022 A 
BRANCH  87  91
ATOM     91  S   UNL A   1      45.235  25.083  37.272  1.00  0.00     0.124 S 
ATOM     92  O   UNL A   1      45.758  25.654  38.510  1.00  0.00    -0.237 OA
ATOM     93  O   UNL A   1      43.796  24.845  37.238  1.00  0.00    -0.237 OA
ATOM     94  O   UNL A   1      46.053  24.023  36.684  1.00  0.00    -0.744 OA
ENDBRANCH  87  91
ENDBRANCH  61  84
ENDBRANCH  35  36
ENDBRANCH  27  30
ENDBRANCH  25  26
ENDBRANCH  24  25
ENDBRANCH   1  24
TORSDOF 18
ENDMDL
MODEL 2
REMARK VINA RESULT:     -11.0      6.566     11.914
REMARK SMILES CC(C)(C[NH2+]Cc1ccc2c(c1)OCO2)C(=O)NCCCCNC(=O)c1ccc(-c2c3nc(c(-c4cc(S(=O)(=O)[O-])ccc4F)c4ccc([nH]4)c(-c4cc(S(=O)(=O)[O-])ccc4F)c4nc(c(-c5cc(S(=O)(=O)[O-])ccc5F)c5ccc2[nH]5)C=C4)C=C3)cc1
REMARK SMILES IDX 20 1 19 2 18 3 16 4 17 5 2 7 1 8 3 9 4 10 5 11 6 14 7 15
REMARK SMILES IDX 8 16 12 17 9 18 11 19 10 20 13 21 15 22 14 23 21 24 22 25
REMARK SMILES IDX 23 26 24 27 25 29 26 30 27 31 88 32 28 33 87 34 29 35 30 36
REMARK SMILES IDX 31 37 81 38 32 39 86 40 80 41 82 42 33 43 85 44 79 45 78 46
REMARK SMILES IDX 34 48 66 49 46 50 65 51 47 52 50 53 64 54 83 55 48 56 49 57
REMARK SMILES IDX 63 59 84 60 51 61 35 62 36 63 44 64 37 65 43 66 45 67 42 68
REMARK SMILES IDX 38 69 39 70 40 71 41 72 67 73 68 74 76 75 69 76 75 77 77 78
REMARK SMILES IDX 74 79 70 80 71 81 72 82 73 83 52 84 53 85 61 86 54 87 60 88
REMARK SMILES IDX 62 89 59 90 55 91 56 92 57 93 58 94
REMARK H PARENT 18 6 5 12 5 13 23 28 82 47 50 58
REMARK Flexibility Score: inf
ROOT
ATOM      1  C   UNL A   1      37.396  21.853  24.630  1.00  0.00     0.023 C 
ENDROOT
BRANCH   1   2
ATOM      2  C   UNL A   1      35.876  21.872  24.762  1.00  0.00     0.116 C 
BRANCH   2   3
ATOM      3  N   UNL A   1      35.226  22.330  23.549  1.00  0.00    -0.355 N 
ATOM      4  C   UNL A   1      34.378  23.361  23.286  1.00  0.00     0.231 C 
ATOM      5  O   UNL A   1      34.015  23.468  22.109  1.00  0.00    -0.274 OA
ATOM      6  H   UNL A   1      35.440  21.785  22.758  1.00  0.00     0.163 HD
BRANCH   4   7
ATOM      7  C   UNL A   1      33.943  24.391  24.348  1.00  0.00     0.092 C 
ATOM      8  C   UNL A   1      33.467  25.678  23.626  1.00  0.00     0.027 C 
ATOM      9  C   UNL A   1      35.161  24.804  25.199  1.00  0.00     0.027 C 
BRANCH   7  10
ATOM     10  C   UNL A   1      32.801  23.881  25.261  1.00  0.00     0.277 C 
BRANCH  10  11
ATOM     11  N   UNL A   1      32.011  22.777  24.701  1.00  0.00    -0.342 N 
ATOM     12  H   UNL A   1      32.401  22.528  23.793  1.00  0.00     0.346 HD
ATOM     13  H   UNL A   1      31.047  23.103  24.632  1.00  0.00     0.346 HD
BRANCH  11  14
ATOM     14  C   UNL A   1      32.003  21.579  25.547  1.00  0.00     0.297 C 
BRANCH  14  15
ATOM     15  C   UNL A   1      32.308  20.307  24.788  1.00  0.00     0.010 A 
ATOM     16  C   UNL A   1      32.107  20.259  23.386  1.00  0.00     0.013 A 
ATOM     17  C   UNL A   1      32.868  19.202  25.447  1.00  0.00     0.060 A 
ATOM     18  C   UNL A   1      32.487  19.141  22.642  1.00  0.00     0.051 A 
ATOM     19  C   UNL A   1      33.221  18.108  24.686  1.00  0.00     0.166 A 
ATOM     20  C   UNL A   1      33.045  18.084  23.322  1.00  0.00     0.165 A 
ATOM     21  O   UNL A   1      33.788  16.965  25.155  1.00  0.00    -0.454 OA
ATOM     22  O   UNL A   1      33.486  16.926  22.762  1.00  0.00    -0.454 OA
ATOM     23  C   UNL A   1      33.943  16.217  23.931  1.00  0.00     0.468 C 
ENDBRANCH  14  15
ENDBRANCH  11  14
ENDBRANCH  10  11
ENDBRANCH   7  10
ENDBRANCH   4   7
ENDBRANCH   2   3
ENDBRANCH   1   2
BRANCH   1  24
ATOM     24  C   UNL A   1      38.060  20.534  25.033  1.00  0.00     0.023 C 
BRANCH  24  25
ATOM     25  C   UNL A   1      39.171  20.650  26.072  1.00  0.00     0.116 C 
BRANCH  25  26
ATOM     26  N   UNL A   1      40.130  19.558  26.011  1.00  0.00    -0.352 N 
ATOM     27  C   UNL A   1      41.501  19.607  26.098  1.00  0.00     0.251 C 
ATOM     28  H   UNL A   1      39.744  18.659  25.893  1.00  0.00     0.163 HD
ATOM     29  O   UNL A   1      42.160  18.589  25.908  1.00  0.00    -0.269 OA
BRANCH  27  30
ATOM     30  C   UNL A   1      42.172  20.896  26.376  1.00  0.00     0.039 A 
ATOM     31  C   UNL A   1      42.462  21.749  25.308  1.00  0.00     0.014 A 
ATOM     32  C   UNL A   1      42.486  21.275  27.684  1.00  0.00     0.014 A 
ATOM     33  C   UNL A   1      42.999  23.013  25.560  1.00  0.00     0.010 A 
ATOM     34  C   UNL A   1      42.954  22.562  27.937  1.00  0.00     0.010 A 
ATOM     35  C   UNL A   1      43.213  23.447  26.878  1.00  0.00    -0.014 A 
BRANCH  35  36
ATOM     36  C   UNL A   1      43.701  24.820  27.170  1.00  0.00     0.031 A 
ATOM     37  C   UNL A   1      42.761  25.852  27.730  1.00  0.00     0.074 A 
ATOM     38  C   UNL A   1      44.973  25.153  26.872  1.00  0.00     0.049 A 
ATOM     39  N   UNL A   1      42.975  27.118  27.982  1.00  0.00    -0.248 NA
ATOM     40  C   UNL A   1      41.388  25.406  28.011  1.00  0.00     0.031 C 
ATOM     41  C   UNL A   1      45.967  24.251  26.283  1.00  0.00     0.029 A 
ATOM     42  N   UNL A   1      45.647  26.340  27.012  1.00  0.00    -0.354 N 
ATOM     43  C   UNL A   1      41.763  27.624  28.439  1.00  0.00     0.074 A 
ATOM     44  C   UNL A   1      40.804  26.541  28.367  1.00  0.00     0.031 C 
ATOM     45  C   UNL A   1      47.127  24.912  26.135  1.00  0.00     0.029 A 
ATOM     46  C   UNL A   1      46.951  26.292  26.575  1.00  0.00     0.049 A 
ATOM     47  H   UNL A   1      45.236  27.150  27.391  1.00  0.00     0.167 HD
ATOM     48  C   UNL A   1      41.481  28.869  28.898  1.00  0.00     0.034 A 
ATOM     49  C   UNL A   1      47.896  27.253  26.525  1.00  0.00     0.034 A 
ATOM     50  C   UNL A   1      42.453  29.934  28.975  1.00  0.00     0.049 A 
ATOM     51  C   UNL A   1      47.556  28.633  27.027  1.00  0.00     0.074 A 
ATOM     52  C   UNL A   1      42.291  31.214  29.476  1.00  0.00     0.029 A 
ATOM     53  N   UNL A   1      43.767  29.845  28.531  1.00  0.00    -0.354 N 
ATOM     54  N   UNL A   1      46.419  29.082  27.508  1.00  0.00    -0.248 NA
ATOM     55  C   UNL A   1      48.631  29.633  26.992  1.00  0.00     0.031 C 
ATOM     56  C   UNL A   1      43.484  31.918  29.275  1.00  0.00     0.029 A 
ATOM     57  C   UNL A   1      44.416  31.057  28.720  1.00  0.00     0.049 A 
ATOM     58  H   UNL A   1      44.177  29.041  28.140  1.00  0.00     0.167 HD
ATOM     59  C   UNL A   1      46.653  30.407  27.861  1.00  0.00     0.074 A 
ATOM     60  C   UNL A   1      48.042  30.679  27.552  1.00  0.00     0.031 C 
ATOM     61  C   UNL A   1      45.799  31.318  28.396  1.00  0.00     0.034 A 
BRANCH  48  62
ATOM     62  C   UNL A   1      40.059  29.146  29.327  1.00  0.00     0.023 A 
ATOM     63  C   UNL A   1      39.688  29.171  30.683  1.00  0.00     0.031 A 
ATOM     64  C   UNL A   1      39.052  29.356  28.367  1.00  0.00     0.131 A 
ATOM     65  C   UNL A   1      38.339  29.321  31.040  1.00  0.00     0.055 A 
ATOM     66  C   UNL A   1      37.724  29.590  28.732  1.00  0.00     0.041 A 
ATOM     67  F   UNL A   1      39.339  29.324  27.057  1.00  0.00    -0.206 F 
ATOM     68  C   UNL A   1      37.358  29.556  30.074  1.00  0.00     0.022 A 
BRANCH  65  69
ATOM     69  S   UNL A   1      37.867  29.054  32.770  1.00  0.00     0.124 S 
ATOM     70  O   UNL A   1      36.619  29.808  32.854  1.00  0.00    -0.237 OA
ATOM     71  O   UNL A   1      37.743  27.603  32.844  1.00  0.00    -0.237 OA
ATOM     72  O   UNL A   1      38.982  29.625  33.523  1.00  0.00    -0.744 OA
ENDBRANCH  65  69
ENDBRANCH  48  62
BRANCH  49  73
ATOM     73  C   UNL A   1      49.249  26.955  25.973  1.00  0.00     0.023 A 
ATOM     74  C   UNL A   1      49.604  27.352  24.674  1.00  0.00     0.031 A 
ATOM     75  C   UNL A   1      50.194  26.231  26.723  1.00  0.00     0.131 A 
ATOM     76  C   UNL A   1      50.850  26.981  24.145  1.00  0.00     0.055 A 
ATOM     77  C   UNL A   1      51.453  25.911  26.212  1.00  0.00     0.041 A 
ATOM     78  F   UNL A   1      49.908  25.832  27.973  1.00  0.00    -0.206 F 
ATOM     79  C   UNL A   1      51.781  26.275  24.910  1.00  0.00     0.022 A 
BRANCH  76  80
ATOM     80  S   UNL A   1      51.205  27.366  22.409  1.00  0.00     0.124 S 
ATOM     81  O   UNL A   1      51.184  28.824  22.417  1.00  0.00    -0.237 OA
ATOM     82  O   UNL A   1      52.511  26.743  22.221  1.00  0.00    -0.237 OA
ATOM     83  O   UNL A   1      50.104  26.730  21.687  1.00  0.00    -0.744 OA
ENDBRANCH  76  80
ENDBRANCH  49  73
BRANCH  61  84
ATOM     84  C   UNL A   1      46.366  32.678  28.723  1.00  0.00     0.023 A 
ATOM     85  C   UNL A   1      46.921  32.967  29.982  1.00  0.00     0.031 A 
ATOM     86  C   UNL A   1      46.337  33.704  27.762  1.00  0.00     0.131 A 
ATOM     87  C   UNL A   1      47.369  34.266  30.267  1.00  0.00     0.055 A 
ATOM     88  C   UNL A   1      46.842  34.977  28.030  1.00  0.00     0.041 A 
ATOM     89  F   UNL A   1      45.817  33.485  26.543  1.00  0.00    -0.206 F 
ATOM     90  C   UNL A   1      47.349  35.267  29.293  1.00  0.00     0.022 A 
BRANCH  87  91
ATOM     91  S   UNL A   1      47.895  34.655  31.958  1.00  0.00     0.124 S 
ATOM     92  O   UNL A   1      48.208  33.333  32.491  1.00  0.00    -0.237 OA
ATOM     93  O   UNL A   1      49.034  35.539  31.736  1.00  0.00    -0.237 OA
ATOM     94  O   UNL A   1      46.718  35.296  32.544  1.00  0.00    -0.744 OA
ENDBRANCH  87  91
ENDBRANCH  61  84
ENDBRANCH  35  36
ENDBRANCH  27  30
ENDBRANCH  25  26
ENDBRANCH  24  25
ENDBRANCH   1  24
TORSDOF 18
ENDMDL
MODEL 3
REMARK VINA RESULT:     -10.9      5.380      8.504
REMARK SMILES CC(C)(C[NH2+]Cc1ccc2c(c1)OCO2)C(=O)NCCCCNC(=O)c1ccc(-c2c3nc(c(-c4cc(S(=O)(=O)[O-])ccc4F)c4ccc([nH]4)c(-c4cc(S(=O)(=O)[O-])ccc4F)c4nc(c(-c5cc(S(=O)(=O)[O-])ccc5F)c5ccc2[nH]5)C=C4)C=C3)cc1
REMARK SMILES IDX 20 1 19 2 18 3 16 4 17 5 2 7 1 8 3 9 4 10 5 11 6 14 7 15
REMARK SMILES IDX 8 16 12 17 9 18 11 19 10 20 13 21 15 22 14 23 21 24 22 25
REMARK SMILES IDX 23 26 24 27 25 29 26 30 27 31 88 32 28 33 87 34 29 35 30 36
REMARK SMILES IDX 31 37 81 38 32 39 86 40 80 41 82 42 33 43 85 44 79 45 78 46
REMARK SMILES IDX 34 48 66 49 46 50 65 51 47 52 50 53 64 54 83 55 48 56 49 57
REMARK SMILES IDX 63 59 84 60 51 61 35 62 36 63 44 64 37 65 43 66 45 67 42 68
REMARK SMILES IDX 38 69 39 70 40 71 41 72 67 73 68 74 76 75 69 76 75 77 77 78
REMARK SMILES IDX 74 79 70 80 71 81 72 82 73 83 52 84 53 85 61 86 54 87 60 88
REMARK SMILES IDX 62 89 59 90 55 91 56 92 57 93 58 94
REMARK H PARENT 18 6 5 12 5 13 23 28 82 47 50 58
REMARK Flexibility Score: inf
ROOT
ATOM      1  C   UNL A   1      35.490  21.646  24.599  1.00  0.00     0.023 C 
ENDROOT
BRANCH   1   2
ATOM      2  C   UNL A   1      34.733  22.208  25.799  1.00  0.00     0.116 C 
BRANCH   2   3
ATOM      3  N   UNL A   1      34.761  23.657  25.836  1.00  0.00    -0.355 N 
ATOM      4  C   UNL A   1      33.792  24.604  25.715  1.00  0.00     0.231 C 
ATOM      5  O   UNL A   1      34.175  25.777  25.806  1.00  0.00    -0.274 OA
ATOM      6  H   UNL A   1      35.661  24.030  25.974  1.00  0.00     0.163 HD
BRANCH   4   7
ATOM      7  C   UNL A   1      32.295  24.270  25.553  1.00  0.00     0.092 C 
ATOM      8  C   UNL A   1      31.777  23.653  26.877  1.00  0.00     0.027 C 
ATOM      9  C   UNL A   1      32.123  23.177  24.477  1.00  0.00     0.027 C 
BRANCH   7  10
ATOM     10  C   UNL A   1      31.428  25.504  25.205  1.00  0.00     0.277 C 
BRANCH  10  11
ATOM     11  N   UNL A   1      31.687  26.086  23.881  1.00  0.00    -0.342 N 
ATOM     12  H   UNL A   1      30.901  25.865  23.271  1.00  0.00     0.346 HD
ATOM     13  H   UNL A   1      32.562  25.686  23.543  1.00  0.00     0.346 HD
BRANCH  11  14
ATOM     14  C   UNL A   1      31.859  27.542  23.909  1.00  0.00     0.297 C 
BRANCH  14  15
ATOM     15  C   UNL A   1      30.591  28.302  23.591  1.00  0.00     0.010 A 
ATOM     16  C   UNL A   1      29.429  27.595  23.192  1.00  0.00     0.013 A 
ATOM     17  C   UNL A   1      30.531  29.693  23.767  1.00  0.00     0.060 A 
ATOM     18  C   UNL A   1      28.213  28.255  23.003  1.00  0.00     0.051 A 
ATOM     19  C   UNL A   1      29.319  30.317  23.560  1.00  0.00     0.166 A 
ATOM     20  C   UNL A   1      28.192  29.617  23.199  1.00  0.00     0.165 A 
ATOM     21  O   UNL A   1      29.078  31.648  23.701  1.00  0.00    -0.454 OA
ATOM     22  O   UNL A   1      27.099  30.417  23.076  1.00  0.00    -0.454 OA
ATOM     23  C   UNL A   1      27.672  31.704  23.382  1.00  0.00     0.468 C 
ENDBRANCH  14  15
ENDBRANCH  11  14
ENDBRANCH  10  11
ENDBRANCH   7  10
ENDBRANCH   4   7
ENDBRANCH   2   3
ENDBRANCH   1   2
BRANCH   1  24
ATOM     24  C   UNL A   1      36.605  20.657  24.947  1.00  0.00     0.023 C 
BRANCH  24  25
ATOM     25  C   UNL A   1      37.971  21.279  25.223  1.00  0.00     0.116 C 
BRANCH  25  26
ATOM     26  N   UNL A   1      38.920  20.343  25.806  1.00  0.00    -0.352 N 
ATOM     27  C   UNL A   1      40.038  20.606  26.561  1.00  0.00     0.251 C 
ATOM     28  H   UNL A   1      38.735  19.390  25.638  1.00  0.00     0.163 HD
ATOM     29  O   UNL A   1      40.791  19.688  26.873  1.00  0.00    -0.269 OA
BRANCH  27  30
ATOM     30  C   UNL A   1      40.346  21.998  26.954  1.00  0.00     0.039 A 
ATOM     31  C   UNL A   1      41.270  22.221  27.978  1.00  0.00     0.014 A 
ATOM     32  C   UNL A   1      39.751  23.079  26.297  1.00  0.00     0.014 A 
ATOM     33  C   UNL A   1      41.652  23.527  28.292  1.00  0.00     0.010 A 
ATOM     34  C   UNL A   1      40.186  24.374  26.562  1.00  0.00     0.010 A 
ATOM     35  C   UNL A   1      41.144  24.613  27.561  1.00  0.00    -0.014 A 
BRANCH  35  36
ATOM     36  C   UNL A   1      41.604  26.002  27.822  1.00  0.00     0.031 A 
ATOM     37  C   UNL A   1      42.975  26.437  27.384  1.00  0.00     0.074 A 
ATOM     38  C   UNL A   1      40.811  26.850  28.507  1.00  0.00     0.049 A 
ATOM     39  N   UNL A   1      43.586  27.578  27.582  1.00  0.00    -0.248 NA
ATOM     40  C   UNL A   1      43.779  25.444  26.655  1.00  0.00     0.031 C 
ATOM     41  C   UNL A   1      39.478  26.528  29.025  1.00  0.00     0.029 A 
ATOM     42  N   UNL A   1      41.011  28.150  28.898  1.00  0.00    -0.354 N 
ATOM     43  C   UNL A   1      44.848  27.437  27.015  1.00  0.00     0.074 A 
ATOM     44  C   UNL A   1      44.934  26.077  26.523  1.00  0.00     0.031 C 
ATOM     45  C   UNL A   1      38.973  27.609  29.642  1.00  0.00     0.029 A 
ATOM     46  C   UNL A   1      39.959  28.684  29.606  1.00  0.00     0.049 A 
ATOM     47  H   UNL A   1      41.831  28.653  28.691  1.00  0.00     0.167 HD
ATOM     48  C   UNL A   1      45.833  28.361  26.895  1.00  0.00     0.034 A 
ATOM     49  C   UNL A   1      39.808  29.899  30.171  1.00  0.00     0.034 A 
ATOM     50  C   UNL A   1      45.724  29.716  27.380  1.00  0.00     0.049 A 
ATOM     51  C   UNL A   1      40.923  30.906  30.037  1.00  0.00     0.074 A 
ATOM     52  C   UNL A   1      46.636  30.750  27.261  1.00  0.00     0.029 A 
ATOM     53  N   UNL A   1      44.639  30.224  28.085  1.00  0.00    -0.354 N 
ATOM     54  N   UNL A   1      42.090  30.775  29.450  1.00  0.00    -0.248 NA
ATOM     55  C   UNL A   1      40.694  32.229  30.632  1.00  0.00     0.031 C 
ATOM     56  C   UNL A   1      46.134  31.861  27.949  1.00  0.00     0.029 A 
ATOM     57  C   UNL A   1      44.874  31.547  28.432  1.00  0.00     0.049 A 
ATOM     58  H   UNL A   1      43.824  29.720  28.306  1.00  0.00     0.167 HD
ATOM     59  C   UNL A   1      42.720  32.009  29.578  1.00  0.00     0.074 A 
ATOM     60  C   UNL A   1      41.797  32.874  30.284  1.00  0.00     0.031 C 
ATOM     61  C   UNL A   1      43.949  32.395  29.147  1.00  0.00     0.034 A 
BRANCH  48  62
ATOM     62  C   UNL A   1      47.119  27.923  26.234  1.00  0.00     0.023 A 
ATOM     63  C   UNL A   1      47.334  28.091  24.854  1.00  0.00     0.031 A 
ATOM     64  C   UNL A   1      48.132  27.301  26.986  1.00  0.00     0.131 A 
ATOM     65  C   UNL A   1      48.493  27.572  24.257  1.00  0.00     0.055 A 
ATOM     66  C   UNL A   1      49.321  26.863  26.399  1.00  0.00     0.041 A 
ATOM     67  F   UNL A   1      47.977  27.094  28.303  1.00  0.00    -0.206 F 
ATOM     68  C   UNL A   1      49.500  26.982  25.024  1.00  0.00     0.022 A 
BRANCH  65  69
ATOM     69  S   UNL A   1      48.596  27.546  22.446  1.00  0.00     0.124 S 
ATOM     70  O   UNL A   1      49.870  28.222  22.214  1.00  0.00    -0.237 OA
ATOM     71  O   UNL A   1      48.566  26.119  22.149  1.00  0.00    -0.237 OA
ATOM     72  O   UNL A   1      47.416  28.297  22.025  1.00  0.00    -0.744 OA
ENDBRANCH  65  69
ENDBRANCH  48  62
BRANCH  49  73
ATOM     73  C   UNL A   1      38.564  30.236  30.922  1.00  0.00     0.023 A 
ATOM     74  C   UNL A   1      37.544  30.995  30.327  1.00  0.00     0.031 A 
ATOM     75  C   UNL A   1      38.396  29.839  32.261  1.00  0.00     0.131 A 
ATOM     76  C   UNL A   1      36.424  31.375  31.082  1.00  0.00     0.055 A 
ATOM     77  C   UNL A   1      37.256  30.175  32.992  1.00  0.00     0.041 A 
ATOM     78  F   UNL A   1      39.339  29.107  32.876  1.00  0.00    -0.206 F 
ATOM     79  C   UNL A   1      36.267  30.959  32.406  1.00  0.00     0.022 A 
BRANCH  76  80
ATOM     80  S   UNL A   1      35.210  32.495  30.332  1.00  0.00     0.124 S 
ATOM     81  O   UNL A   1      34.748  31.711  29.193  1.00  0.00    -0.237 OA
ATOM     82  O   UNL A   1      34.253  32.676  31.418  1.00  0.00    -0.237 OA
ATOM     83  O   UNL A   1      36.000  33.678  29.997  1.00  0.00    -0.744 OA
ENDBRANCH  76  80
ENDBRANCH  49  73
BRANCH  61  84
ATOM     84  C   UNL A   1      44.338  33.833  29.391  1.00  0.00     0.023 A 
ATOM     85  C   UNL A   1      44.021  34.853  28.476  1.00  0.00     0.031 A 
ATOM     86  C   UNL A   1      45.052  34.184  30.551  1.00  0.00     0.131 A 
ATOM     87  C   UNL A   1      44.468  36.162  28.708  1.00  0.00     0.055 A 
ATOM     88  C   UNL A   1      45.438  35.500  30.807  1.00  0.00     0.041 A 
ATOM     89  F   UNL A   1      45.383  33.250  31.459  1.00  0.00    -0.206 F 
ATOM     90  C   UNL A   1      45.159  36.495  29.876  1.00  0.00     0.022 A 
BRANCH  87  91
ATOM     91  S   UNL A   1      44.213  37.411  27.417  1.00  0.00     0.124 S 
ATOM     92  O   UNL A   1      45.483  37.366  26.698  1.00  0.00    -0.237 OA
ATOM     93  O   UNL A   1      43.056  36.887  26.700  1.00  0.00    -0.237 OA
ATOM     94  O   UNL A   1      43.971  38.640  28.171  1.00  0.00    -0.744 OA
ENDBRANCH  87  91
ENDBRANCH  61  84
ENDBRANCH  35  36
ENDBRANCH  27  30
ENDBRANCH  25  26
ENDBRANCH  24  25
ENDBRANCH   1  24
TORSDOF 18
ENDMDL
