MODEL 1
REMARK VINA RESULT:     -11.4      0.000      0.000
REMARK SMILES CC[C@@](C)([NH2+]CC(=O)N[C@@H](C)c1ccc(F)cc1)C(=O)NCCCCNC(=O)c1ccc(-c2c3nc(c(-c4cc(S(=O)(=O)[O-])ccc4F)c4ccc([nH]4)c(-c4cc(S(=O)(=O)[O-])ccc4F)c4nc(c(-c5cc(S(=O)(=O)[O-])ccc5F)c5ccc2[nH]5)C=C4)C=C3)cc1
REMARK SMILES IDX 22 1 21 2 19 3 20 4 3 6 4 7 2 8 1 9 5 10 6 13 7 14 8 15 9 16
REMARK SMILES IDX 10 18 11 19 12 20 13 21 18 22 14 23 17 24 15 25 16 26 23 27
REMARK SMILES IDX 24 28 25 29 26 30 27 31 28 33 29 34 30 35 91 36 31 37 90 38
REMARK SMILES IDX 32 39 33 40 34 41 84 42 35 43 89 44 83 45 85 46 36 47 88 48
REMARK SMILES IDX 82 49 81 50 37 52 69 53 49 54 68 55 50 56 53 57 67 58 86 59
REMARK SMILES IDX 51 60 52 61 66 63 87 64 54 65 38 66 39 67 47 68 40 69 46 70
REMARK SMILES IDX 48 71 45 72 41 73 42 74 43 75 44 76 70 77 71 78 79 79 72 80
REMARK SMILES IDX 78 81 80 82 77 83 73 84 74 85 75 86 76 87 55 88 56 89 64 90
REMARK SMILES IDX 57 91 63 92 65 93 62 94 58 95 59 96 60 97 61 98
REMARK H PARENT 21 5 5 11 5 12 9 17 26 32 85 51 53 62
REMARK Flexibility Score: inf
ROOT
ATOM      1  C   UNL A   1      32.006  29.883  25.620  1.00  0.00     0.116 C 
ENDROOT
BRANCH   1   2
ATOM      2  N   UNL A   1      32.735  29.370  24.455  1.00  0.00    -0.351 N 
ATOM      3  C   UNL A   1      32.338  28.991  23.184  1.00  0.00     0.281 C 
ATOM      4  O   UNL A   1      33.225  29.108  22.326  1.00  0.00    -0.268 OA
ATOM      5  H   UNL A   1      33.703  29.277  24.608  1.00  0.00     0.163 HD
BRANCH   3   6
ATOM      6  C   UNL A   1      30.912  28.342  22.785  1.00  0.00     0.172 C 
ATOM      7  C   UNL A   1      29.905  27.716  23.766  1.00  0.00     0.090 C 
BRANCH   6   8
ATOM      8  C   UNL A   1      30.094  29.594  22.259  1.00  0.00     0.075 C 
ATOM      9  C   UNL A   1      28.552  29.474  22.451  1.00  0.00     0.011 C 
ENDBRANCH   6   8
BRANCH   6  10
ATOM     10  N   UNL A   1      31.190  27.312  21.783  1.00  0.00    -0.326 N 
ATOM     11  H   UNL A   1      31.974  27.639  21.220  1.00  0.00     0.347 HD
ATOM     12  H   UNL A   1      30.307  27.195  21.286  1.00  0.00     0.347 HD
BRANCH  10  13
ATOM     13  C   UNL A   1      31.531  25.943  22.266  1.00  0.00     0.362 C 
BRANCH  13  14
ATOM     14  C   UNL A   1      32.968  25.294  22.237  1.00  0.00     0.275 C 
ATOM     15  O   UNL A   1      33.752  25.835  21.426  1.00  0.00    -0.268 OA
ATOM     16  N   UNL A   1      33.549  24.213  22.817  1.00  0.00    -0.345 N 
ATOM     17  H   UNL A   1      34.464  24.132  22.463  1.00  0.00     0.164 HD
BRANCH  16  18
ATOM     18  C   UNL A   1      33.332  23.103  23.780  1.00  0.00     0.109 C 
ATOM     19  C   UNL A   1      32.229  22.119  23.346  1.00  0.00     0.036 C 
BRANCH  18  20
ATOM     20  C   UNL A   1      34.638  22.323  24.066  1.00  0.00    -0.026 A 
ATOM     21  C   UNL A   1      34.641  21.059  24.691  1.00  0.00     0.009 A 
ATOM     22  C   UNL A   1      35.892  22.900  23.796  1.00  0.00     0.009 A 
ATOM     23  C   UNL A   1      35.830  20.421  25.056  1.00  0.00     0.039 A 
ATOM     24  C   UNL A   1      37.087  22.250  24.133  1.00  0.00     0.039 A 
ATOM     25  C   UNL A   1      37.044  21.021  24.770  1.00  0.00     0.123 A 
ATOM     26  F   UNL A   1      38.181  20.414  25.132  1.00  0.00    -0.207 F 
ENDBRANCH  18  20
ENDBRANCH  16  18
ENDBRANCH  13  14
ENDBRANCH  10  13
ENDBRANCH   6  10
ENDBRANCH   3   6
ENDBRANCH   1   2
BRANCH   1  27
ATOM     27  C   UNL A   1      30.986  30.990  25.373  1.00  0.00     0.023 C 
BRANCH  27  28
ATOM     28  C   UNL A   1      31.084  32.253  26.223  1.00  0.00     0.023 C 
BRANCH  28  29
ATOM     29  C   UNL A   1      32.333  32.449  27.081  1.00  0.00     0.116 C 
BRANCH  29  30
ATOM     30  N   UNL A   1      32.571  33.804  27.556  1.00  0.00    -0.352 N 
ATOM     31  C   UNL A   1      33.681  34.295  28.215  1.00  0.00     0.251 C 
ATOM     32  H   UNL A   1      31.849  34.452  27.386  1.00  0.00     0.163 HD
ATOM     33  O   UNL A   1      33.730  35.475  28.561  1.00  0.00    -0.269 OA
BRANCH  31  34
ATOM     34  C   UNL A   1      34.788  33.375  28.562  1.00  0.00     0.039 A 
ATOM     35  C   UNL A   1      36.093  33.734  28.220  1.00  0.00     0.014 A 
ATOM     36  C   UNL A   1      34.547  32.215  29.304  1.00  0.00     0.014 A 
ATOM     37  C   UNL A   1      37.166  32.991  28.720  1.00  0.00     0.010 A 
ATOM     38  C   UNL A   1      35.621  31.517  29.857  1.00  0.00     0.010 A 
ATOM     39  C   UNL A   1      36.941  31.914  29.595  1.00  0.00    -0.014 A 
BRANCH  39  40
ATOM     40  C   UNL A   1      38.075  31.226  30.272  1.00  0.00     0.031 A 
ATOM     41  C   UNL A   1      38.468  31.607  31.672  1.00  0.00     0.074 A 
ATOM     42  C   UNL A   1      38.786  30.293  29.605  1.00  0.00     0.049 A 
ATOM     43  N   UNL A   1      39.467  31.170  32.396  1.00  0.00    -0.248 NA
ATOM     44  C   UNL A   1      37.646  32.628  32.339  1.00  0.00     0.031 C 
ATOM     45  C   UNL A   1      38.530  29.857  28.229  1.00  0.00     0.029 A 
ATOM     46  N   UNL A   1      39.868  29.539  29.990  1.00  0.00    -0.354 N 
ATOM     47  C   UNL A   1      39.400  31.866  33.597  1.00  0.00     0.074 A 
ATOM     48  C   UNL A   1      38.291  32.790  33.485  1.00  0.00     0.031 C 
ATOM     49  C   UNL A   1      39.400  28.888  27.903  1.00  0.00     0.029 A 
ATOM     50  C   UNL A   1      40.307  28.661  29.024  1.00  0.00     0.049 A 
ATOM     51  H   UNL A   1      40.291  29.618  30.876  1.00  0.00     0.167 HD
ATOM     52  C   UNL A   1      40.175  31.732  34.699  1.00  0.00     0.034 A 
ATOM     53  C   UNL A   1      41.326  27.778  29.033  1.00  0.00     0.034 A 
ATOM     54  C   UNL A   1      41.261  30.791  34.816  1.00  0.00     0.049 A 
ATOM     55  C   UNL A   1      42.187  27.662  30.263  1.00  0.00     0.074 A 
ATOM     56  C   UNL A   1      42.071  30.547  35.910  1.00  0.00     0.029 A 
ATOM     57  N   UNL A   1      41.686  29.938  33.807  1.00  0.00    -0.354 N 
ATOM     58  N   UNL A   1      42.101  28.326  31.392  1.00  0.00    -0.248 NA
ATOM     59  C   UNL A   1      43.282  26.683  30.222  1.00  0.00     0.031 C 
ATOM     60  C   UNL A   1      43.021  29.587  35.548  1.00  0.00     0.029 A 
ATOM     61  C   UNL A   1      42.762  29.184  34.247  1.00  0.00     0.049 A 
ATOM     62  H   UNL A   1      41.283  29.878  32.911  1.00  0.00     0.167 HD
ATOM     63  C   UNL A   1      43.116  27.828  32.202  1.00  0.00     0.074 A 
ATOM     64  C   UNL A   1      43.801  26.807  31.436  1.00  0.00     0.031 C 
ATOM     65  C   UNL A   1      43.445  28.180  33.470  1.00  0.00     0.034 A 
BRANCH  52  66
ATOM     66  C   UNL A   1      39.883  32.629  35.872  1.00  0.00     0.023 A 
ATOM     67  C   UNL A   1      38.983  32.247  36.880  1.00  0.00     0.031 A 
ATOM     68  C   UNL A   1      40.529  33.871  35.995  1.00  0.00     0.131 A 
ATOM     69  C   UNL A   1      38.720  33.118  37.948  1.00  0.00     0.055 A 
ATOM     70  C   UNL A   1      40.312  34.706  37.091  1.00  0.00     0.041 A 
ATOM     71  F   UNL A   1      41.387  34.291  35.050  1.00  0.00    -0.206 F 
ATOM     72  C   UNL A   1      39.397  34.334  38.072  1.00  0.00     0.022 A 
BRANCH  69  73
ATOM     73  S   UNL A   1      37.427  32.671  39.137  1.00  0.00     0.124 S 
ATOM     74  O   UNL A   1      37.807  31.304  39.482  1.00  0.00    -0.237 OA
ATOM     75  O   UNL A   1      37.604  33.667  40.189  1.00  0.00    -0.237 OA
ATOM     76  O   UNL A   1      36.194  32.795  38.364  1.00  0.00    -0.744 OA
ENDBRANCH  69  73
ENDBRANCH  52  66
BRANCH  53  77
ATOM     77  C   UNL A   1      41.596  26.934  27.835  1.00  0.00     0.023 A 
ATOM     78  C   UNL A   1      41.243  25.575  27.817  1.00  0.00     0.031 A 
ATOM     79  C   UNL A   1      42.217  27.472  26.696  1.00  0.00     0.131 A 
ATOM     80  C   UNL A   1      41.537  24.793  26.689  1.00  0.00     0.055 A 
ATOM     81  C   UNL A   1      42.475  26.699  25.563  1.00  0.00     0.041 A 
ATOM     82  F   UNL A   1      42.566  28.768  26.663  1.00  0.00    -0.206 F 
ATOM     83  C   UNL A   1      42.140  25.349  25.557  1.00  0.00     0.022 A 
BRANCH  80  84
ATOM     84  S   UNL A   1      41.147  23.021  26.729  1.00  0.00     0.124 S 
ATOM     85  O   UNL A   1      41.537  22.662  28.087  1.00  0.00    -0.237 OA
ATOM     86  O   UNL A   1      39.715  23.018  26.449  1.00  0.00    -0.237 OA
ATOM     87  O   UNL A   1      41.986  22.465  25.669  1.00  0.00    -0.744 OA
ENDBRANCH  80  84
ENDBRANCH  53  77
BRANCH  65  88
ATOM     88  C   UNL A   1      44.577  27.437  34.127  1.00  0.00     0.023 A 
ATOM     89  C   UNL A   1      45.895  27.922  34.088  1.00  0.00     0.031 A 
ATOM     90  C   UNL A   1      44.320  26.257  34.847  1.00  0.00     0.131 A 
ATOM     91  C   UNL A   1      46.915  27.213  34.741  1.00  0.00     0.055 A 
ATOM     92  C   UNL A   1      45.330  25.580  35.530  1.00  0.00     0.041 A 
ATOM     93  F   UNL A   1      43.075  25.757  34.915  1.00  0.00    -0.206 F 
ATOM     94  C   UNL A   1      46.638  26.056  35.475  1.00  0.00     0.022 A 
BRANCH  91  95
ATOM     95  S   UNL A   1      48.622  27.810  34.601  1.00  0.00     0.124 S 
ATOM     96  O   UNL A   1      48.750  28.021  33.162  1.00  0.00    -0.237 OA
ATOM     97  O   UNL A   1      48.604  29.016  35.422  1.00  0.00    -0.237 OA
ATOM     98  O   UNL A   1      49.416  26.708  35.140  1.00  0.00    -0.744 OA
ENDBRANCH  91  95
ENDBRANCH  65  88
ENDBRANCH  39  40
ENDBRANCH  31  34
ENDBRANCH  29  30
ENDBRANCH  28  29
ENDBRANCH  27  28
ENDBRANCH   1  27
TORSDOF 20
ENDMDL
MODEL 2
REMARK VINA RESULT:     -11.3      2.413      8.427
REMARK SMILES CC[C@@](C)([NH2+]CC(=O)N[C@@H](C)c1ccc(F)cc1)C(=O)NCCCCNC(=O)c1ccc(-c2c3nc(c(-c4cc(S(=O)(=O)[O-])ccc4F)c4ccc([nH]4)c(-c4cc(S(=O)(=O)[O-])ccc4F)c4nc(c(-c5cc(S(=O)(=O)[O-])ccc5F)c5ccc2[nH]5)C=C4)C=C3)cc1
REMARK SMILES IDX 22 1 21 2 19 3 20 4 3 6 4 7 2 8 1 9 5 10 6 13 7 14 8 15 9 16
REMARK SMILES IDX 10 18 11 19 12 20 13 21 18 22 14 23 17 24 15 25 16 26 23 27
REMARK SMILES IDX 24 28 25 29 26 30 27 31 28 33 29 34 30 35 91 36 31 37 90 38
REMARK SMILES IDX 32 39 33 40 34 41 84 42 35 43 89 44 83 45 85 46 36 47 88 48
REMARK SMILES IDX 82 49 81 50 37 52 69 53 49 54 68 55 50 56 53 57 67 58 86 59
REMARK SMILES IDX 51 60 52 61 66 63 87 64 54 65 38 66 39 67 47 68 40 69 46 70
REMARK SMILES IDX 48 71 45 72 41 73 42 74 43 75 44 76 70 77 71 78 79 79 72 80
REMARK SMILES IDX 78 81 80 82 77 83 73 84 74 85 75 86 76 87 55 88 56 89 64 90
REMARK SMILES IDX 57 91 63 92 65 93 62 94 58 95 59 96 60 97 61 98
REMARK H PARENT 21 5 5 11 5 12 9 17 26 32 85 51 53 62
REMARK Flexibility Score: inf
ROOT
ATOM      1  C   UNL A   1      31.253  26.298  26.135  1.00  0.00     0.116 C 
ENDROOT
BRANCH   1   2
ATOM      2  N   UNL A   1      31.304  24.973  26.761  1.00  0.00    -0.351 N 
ATOM      3  C   UNL A   1      32.132  23.877  26.585  1.00  0.00     0.281 C 
ATOM      4  O   UNL A   1      32.235  23.159  27.591  1.00  0.00    -0.268 OA
ATOM      5  H   UNL A   1      30.611  24.835  27.446  1.00  0.00     0.163 HD
BRANCH   3   6
ATOM      6  C   UNL A   1      32.848  23.434  25.205  1.00  0.00     0.172 C 
ATOM      7  C   UNL A   1      33.813  22.247  25.035  1.00  0.00     0.090 C 
BRANCH   6   8
ATOM      8  C   UNL A   1      31.623  22.966  24.311  1.00  0.00     0.075 C 
ATOM      9  C   UNL A   1      31.920  21.718  23.428  1.00  0.00     0.011 C 
ENDBRANCH   6   8
BRANCH   6  10
ATOM     10  N   UNL A   1      33.566  24.609  24.713  1.00  0.00    -0.326 N 
ATOM     11  H   UNL A   1      34.429  24.686  25.251  1.00  0.00     0.347 HD
ATOM     12  H   UNL A   1      32.906  25.378  24.827  1.00  0.00     0.347 HD
BRANCH  10  13
ATOM     13  C   UNL A   1      33.939  24.646  23.270  1.00  0.00     0.362 C 
BRANCH  13  14
ATOM     14  C   UNL A   1      33.275  25.568  22.176  1.00  0.00     0.275 C 
ATOM     15  O   UNL A   1      33.241  25.057  21.035  1.00  0.00    -0.268 OA
ATOM     16  N   UNL A   1      32.806  26.842  22.145  1.00  0.00    -0.345 N 
ATOM     17  H   UNL A   1      32.535  27.044  21.220  1.00  0.00     0.164 HD
BRANCH  16  18
ATOM     18  C   UNL A   1      32.548  28.049  22.971  1.00  0.00     0.109 C 
ATOM     19  C   UNL A   1      33.394  29.269  22.560  1.00  0.00     0.036 C 
BRANCH  18  20
ATOM     20  C   UNL A   1      31.049  28.436  22.975  1.00  0.00    -0.026 A 
ATOM     21  C   UNL A   1      30.029  27.501  23.243  1.00  0.00     0.009 A 
ATOM     22  C   UNL A   1      30.642  29.732  22.610  1.00  0.00     0.009 A 
ATOM     23  C   UNL A   1      28.676  27.832  23.121  1.00  0.00     0.039 A 
ATOM     24  C   UNL A   1      29.286  30.077  22.517  1.00  0.00     0.039 A 
ATOM     25  C   UNL A   1      28.316  29.118  22.763  1.00  0.00     0.123 A 
ATOM     26  F   UNL A   1      27.021  29.430  22.636  1.00  0.00    -0.207 F 
ENDBRANCH  18  20
ENDBRANCH  16  18
ENDBRANCH  13  14
ENDBRANCH  10  13
ENDBRANCH   6  10
ENDBRANCH   3   6
ENDBRANCH   1   2
BRANCH   1  27
ATOM     27  C   UNL A   1      32.114  27.396  26.751  1.00  0.00     0.023 C 
BRANCH  27  28
ATOM     28  C   UNL A   1      31.642  28.840  26.604  1.00  0.00     0.023 C 
BRANCH  28  29
ATOM     29  C   UNL A   1      32.665  29.891  26.176  1.00  0.00     0.116 C 
BRANCH  29  30
ATOM     30  N   UNL A   1      32.423  31.244  26.654  1.00  0.00    -0.352 N 
ATOM     31  C   UNL A   1      33.264  32.051  27.395  1.00  0.00     0.251 C 
ATOM     32  H   UNL A   1      31.550  31.633  26.419  1.00  0.00     0.163 HD
ATOM     33  O   UNL A   1      32.909  33.180  27.730  1.00  0.00    -0.269 OA
BRANCH  31  34
ATOM     34  C   UNL A   1      34.574  31.523  27.841  1.00  0.00     0.039 A 
ATOM     35  C   UNL A   1      35.639  32.413  28.001  1.00  0.00     0.014 A 
ATOM     36  C   UNL A   1      34.722  30.178  28.187  1.00  0.00     0.014 A 
ATOM     37  C   UNL A   1      36.814  31.978  28.619  1.00  0.00     0.010 A 
ATOM     38  C   UNL A   1      35.869  29.764  28.865  1.00  0.00     0.010 A 
ATOM     39  C   UNL A   1      36.916  30.666  29.113  1.00  0.00    -0.014 A 
BRANCH  39  40
ATOM     40  C   UNL A   1      38.089  30.241  29.925  1.00  0.00     0.031 A 
ATOM     41  C   UNL A   1      39.083  29.260  29.369  1.00  0.00     0.074 A 
ATOM     42  C   UNL A   1      38.232  30.700  31.185  1.00  0.00     0.049 A 
ATOM     43  N   UNL A   1      40.125  28.721  29.950  1.00  0.00    -0.248 NA
ATOM     44  C   UNL A   1      38.867  28.805  27.987  1.00  0.00     0.031 C 
ATOM     45  C   UNL A   1      37.318  31.630  31.856  1.00  0.00     0.029 A 
ATOM     46  N   UNL A   1      39.197  30.453  32.131  1.00  0.00    -0.354 N 
ATOM     47  C   UNL A   1      40.683  27.861  29.013  1.00  0.00     0.074 A 
ATOM     48  C   UNL A   1      39.835  27.911  27.840  1.00  0.00     0.031 C 
ATOM     49  C   UNL A   1      37.789  31.904  33.084  1.00  0.00     0.029 A 
ATOM     50  C   UNL A   1      39.011  31.138  33.310  1.00  0.00     0.049 A 
ATOM     51  H   UNL A   1      39.955  29.842  31.979  1.00  0.00     0.167 HD
ATOM     52  C   UNL A   1      41.809  27.116  29.110  1.00  0.00     0.034 A 
ATOM     53  C   UNL A   1      39.733  31.147  34.449  1.00  0.00     0.034 A 
ATOM     54  C   UNL A   1      42.665  27.090  30.269  1.00  0.00     0.049 A 
ATOM     55  C   UNL A   1      40.970  30.294  34.540  1.00  0.00     0.074 A 
ATOM     56  C   UNL A   1      43.854  26.404  30.443  1.00  0.00     0.029 A 
ATOM     57  N   UNL A   1      42.427  27.780  31.450  1.00  0.00    -0.354 N 
ATOM     58  N   UNL A   1      41.485  29.492  33.637  1.00  0.00    -0.248 NA
ATOM     59  C   UNL A   1      41.724  30.342  35.801  1.00  0.00     0.031 C 
ATOM     60  C   UNL A   1      44.307  26.635  31.746  1.00  0.00     0.029 A 
ATOM     61  C   UNL A   1      43.435  27.517  32.363  1.00  0.00     0.049 A 
ATOM     62  H   UNL A   1      41.655  28.369  31.614  1.00  0.00     0.167 HD
ATOM     63  C   UNL A   1      42.633  28.959  34.213  1.00  0.00     0.074 A 
ATOM     64  C   UNL A   1      42.739  29.530  35.540  1.00  0.00     0.031 C 
ATOM     65  C   UNL A   1      43.522  28.081  33.687  1.00  0.00     0.034 A 
BRANCH  52  66
ATOM     66  C   UNL A   1      42.182  26.257  27.931  1.00  0.00     0.023 A 
ATOM     67  C   UNL A   1      41.753  24.924  27.831  1.00  0.00     0.031 A 
ATOM     68  C   UNL A   1      42.957  26.786  26.884  1.00  0.00     0.131 A 
ATOM     69  C   UNL A   1      42.138  24.148  26.727  1.00  0.00     0.055 A 
ATOM     70  C   UNL A   1      43.283  26.030  25.759  1.00  0.00     0.041 A 
ATOM     71  F   UNL A   1      43.406  28.051  26.939  1.00  0.00    -0.206 F 
ATOM     72  C   UNL A   1      42.879  24.700  25.679  1.00  0.00     0.022 A 
BRANCH  69  73
ATOM     73  S   UNL A   1      41.715  22.386  26.712  1.00  0.00     0.124 S 
ATOM     74  O   UNL A   1      42.169  21.987  25.382  1.00  0.00    -0.237 OA
ATOM     75  O   UNL A   1      42.487  21.863  27.833  1.00  0.00    -0.237 OA
ATOM     76  O   UNL A   1      40.266  22.381  26.899  1.00  0.00    -0.744 OA
ENDBRANCH  69  73
ENDBRANCH  52  66
BRANCH  53  77
ATOM     77  C   UNL A   1      39.306  31.989  35.601  1.00  0.00     0.023 A 
ATOM     78  C   UNL A   1      38.515  31.455  36.631  1.00  0.00     0.031 A 
ATOM     79  C   UNL A   1      39.675  33.343  35.683  1.00  0.00     0.131 A 
ATOM     80  C   UNL A   1      38.098  32.279  37.689  1.00  0.00     0.055 A 
ATOM     81  C   UNL A   1      39.288  34.148  36.755  1.00  0.00     0.041 A 
ATOM     82  F   UNL A   1      40.436  33.897  34.726  1.00  0.00    -0.206 F 
ATOM     83  C   UNL A   1      38.490  33.618  37.764  1.00  0.00     0.022 A 
BRANCH  80  84
ATOM     84  S   UNL A   1      37.007  31.582  38.960  1.00  0.00     0.124 S 
ATOM     85  O   UNL A   1      37.820  31.728  40.162  1.00  0.00    -0.237 OA
ATOM     86  O   UNL A   1      35.836  32.449  38.866  1.00  0.00    -0.237 OA
ATOM     87  O   UNL A   1      36.796  30.207  38.510  1.00  0.00    -0.744 OA
ENDBRANCH  80  84
ENDBRANCH  53  77
BRANCH  65  88
ATOM     88  C   UNL A   1      44.711  27.704  34.531  1.00  0.00     0.023 A 
ATOM     89  C   UNL A   1      44.701  26.558  35.343  1.00  0.00     0.031 A 
ATOM     90  C   UNL A   1      45.886  28.475  34.476  1.00  0.00     0.131 A 
ATOM     91  C   UNL A   1      45.842  26.226  36.089  1.00  0.00     0.055 A 
ATOM     92  C   UNL A   1      47.031  28.116  35.186  1.00  0.00     0.041 A 
ATOM     93  F   UNL A   1      45.943  29.577  33.711  1.00  0.00    -0.206 F 
ATOM     94  C   UNL A   1      47.011  26.988  36.002  1.00  0.00     0.022 A 
BRANCH  91  95
ATOM     95  S   UNL A   1      45.774  24.793  37.199  1.00  0.00     0.124 S 
ATOM     96  O   UNL A   1      45.842  25.425  38.512  1.00  0.00    -0.237 OA
ATOM     97  O   UNL A   1      44.495  24.183  36.850  1.00  0.00    -0.237 OA
ATOM     98  O   UNL A   1      46.953  24.013  36.824  1.00  0.00    -0.744 OA
ENDBRANCH  91  95
ENDBRANCH  65  88
ENDBRANCH  39  40
ENDBRANCH  31  34
ENDBRANCH  29  30
ENDBRANCH  28  29
ENDBRANCH  27  28
ENDBRANCH   1  27
TORSDOF 20
ENDMDL
MODEL 3
REMARK VINA RESULT:     -11.3      1.986      7.810
REMARK SMILES CC[C@@](C)([NH2+]CC(=O)N[C@@H](C)c1ccc(F)cc1)C(=O)NCCCCNC(=O)c1ccc(-c2c3nc(c(-c4cc(S(=O)(=O)[O-])ccc4F)c4ccc([nH]4)c(-c4cc(S(=O)(=O)[O-])ccc4F)c4nc(c(-c5cc(S(=O)(=O)[O-])ccc5F)c5ccc2[nH]5)C=C4)C=C3)cc1
REMARK SMILES IDX 22 1 21 2 19 3 20 4 3 6 4 7 2 8 1 9 5 10 6 13 7 14 8 15 9 16
REMARK SMILES IDX 10 18 11 19 12 20 13 21 18 22 14 23 17 24 15 25 16 26 23 27
REMARK SMILES IDX 24 28 25 29 26 30 27 31 28 33 29 34 30 35 91 36 31 37 90 38
REMARK SMILES IDX 32 39 33 40 34 41 84 42 35 43 89 44 83 45 85 46 36 47 88 48
REMARK SMILES IDX 82 49 81 50 37 52 69 53 49 54 68 55 50 56 53 57 67 58 86 59
REMARK SMILES IDX 51 60 52 61 66 63 87 64 54 65 38 66 39 67 47 68 40 69 46 70
REMARK SMILES IDX 48 71 45 72 41 73 42 74 43 75 44 76 70 77 71 78 79 79 72 80
REMARK SMILES IDX 78 81 80 82 77 83 73 84 74 85 75 86 76 87 55 88 56 89 64 90
REMARK SMILES IDX 57 91 63 92 65 93 62 94 58 95 59 96 60 97 61 98
REMARK H PARENT 21 5 5 11 5 12 9 17 26 32 85 51 53 62
REMARK Flexibility Score: inf
ROOT
ATOM      1  C   UNL A   1      33.490  27.973  23.714  1.00  0.00     0.116 C 
ENDROOT
BRANCH   1   2
ATOM      2  N   UNL A   1      32.163  27.784  23.119  1.00  0.00    -0.351 N 
ATOM      3  C   UNL A   1      31.242  26.751  23.172  1.00  0.00     0.281 C 
ATOM      4  O   UNL A   1      30.069  27.116  23.008  1.00  0.00    -0.268 OA
ATOM      5  H   UNL A   1      31.866  28.547  22.571  1.00  0.00     0.163 HD
BRANCH   3   6
ATOM      6  C   UNL A   1      31.582  25.178  23.319  1.00  0.00     0.172 C 
ATOM      7  C   UNL A   1      30.628  24.018  22.982  1.00  0.00     0.090 C 
BRANCH   6   8
ATOM      8  C   UNL A   1      32.722  24.964  22.236  1.00  0.00     0.075 C 
ATOM      9  C   UNL A   1      33.914  24.092  22.730  1.00  0.00     0.011 C 
ENDBRANCH   6   8
BRANCH   6  10
ATOM     10  N   UNL A   1      31.993  24.968  24.707  1.00  0.00    -0.326 N 
ATOM     11  H   UNL A   1      32.317  25.865  25.067  1.00  0.00     0.347 HD
ATOM     12  H   UNL A   1      32.697  24.232  24.657  1.00  0.00     0.347 HD
BRANCH  10  13
ATOM     13  C   UNL A   1      30.975  24.448  25.665  1.00  0.00     0.362 C 
BRANCH  13  14
ATOM     14  C   UNL A   1      31.124  23.145  26.541  1.00  0.00     0.275 C 
ATOM     15  O   UNL A   1      30.507  23.192  27.628  1.00  0.00    -0.268 OA
ATOM     16  N   UNL A   1      31.846  21.999  26.449  1.00  0.00    -0.345 N 
ATOM     17  H   UNL A   1      31.688  21.473  27.266  1.00  0.00     0.164 HD
BRANCH  16  18
ATOM     18  C   UNL A   1      32.786  21.236  25.587  1.00  0.00     0.109 C 
ATOM     19  C   UNL A   1      32.275  21.033  24.148  1.00  0.00     0.036 C 
BRANCH  18  20
ATOM     20  C   UNL A   1      34.191  21.884  25.552  1.00  0.00    -0.026 A 
ATOM     21  C   UNL A   1      34.499  23.059  26.269  1.00  0.00     0.009 A 
ATOM     22  C   UNL A   1      35.197  21.370  24.714  1.00  0.00     0.009 A 
ATOM     23  C   UNL A   1      35.731  23.703  26.132  1.00  0.00     0.039 A 
ATOM     24  C   UNL A   1      36.446  21.997  24.598  1.00  0.00     0.039 A 
ATOM     25  C   UNL A   1      36.696  23.165  25.300  1.00  0.00     0.123 A 
ATOM     26  F   UNL A   1      37.871  23.790  25.161  1.00  0.00    -0.207 F 
ENDBRANCH  18  20
ENDBRANCH  16  18
ENDBRANCH  13  14
ENDBRANCH  10  13
ENDBRANCH   6  10
ENDBRANCH   3   6
ENDBRANCH   1   2
BRANCH   1  27
ATOM     27  C   UNL A   1      33.552  28.630  25.088  1.00  0.00     0.023 C 
BRANCH  27  28
ATOM     28  C   UNL A   1      32.528  29.716  25.408  1.00  0.00     0.023 C 
BRANCH  28  29
ATOM     29  C   UNL A   1      32.407  30.187  26.856  1.00  0.00     0.116 C 
BRANCH  29  30
ATOM     30  N   UNL A   1      32.360  31.628  27.054  1.00  0.00    -0.352 N 
ATOM     31  C   UNL A   1      33.360  32.459  27.519  1.00  0.00     0.251 C 
ATOM     32  H   UNL A   1      31.507  32.066  26.827  1.00  0.00     0.163 HD
ATOM     33  O   UNL A   1      33.162  33.668  27.637  1.00  0.00    -0.269 OA
BRANCH  31  34
ATOM     34  C   UNL A   1      34.654  31.876  27.939  1.00  0.00     0.039 A 
ATOM     35  C   UNL A   1      35.751  32.725  28.109  1.00  0.00     0.014 A 
ATOM     36  C   UNL A   1      34.759  30.519  28.252  1.00  0.00     0.014 A 
ATOM     37  C   UNL A   1      36.916  32.235  28.704  1.00  0.00     0.010 A 
ATOM     38  C   UNL A   1      35.897  30.050  28.908  1.00  0.00     0.010 A 
ATOM     39  C   UNL A   1      36.977  30.909  29.166  1.00  0.00    -0.014 A 
BRANCH  39  40
ATOM     40  C   UNL A   1      38.143  30.425  29.955  1.00  0.00     0.031 A 
ATOM     41  C   UNL A   1      39.096  29.422  29.367  1.00  0.00     0.074 A 
ATOM     42  C   UNL A   1      38.314  30.850  31.224  1.00  0.00     0.049 A 
ATOM     43  N   UNL A   1      40.124  28.835  29.925  1.00  0.00    -0.248 NA
ATOM     44  C   UNL A   1      38.851  29.007  27.977  1.00  0.00     0.031 C 
ATOM     45  C   UNL A   1      37.440  31.795  31.926  1.00  0.00     0.029 A 
ATOM     46  N   UNL A   1      39.280  30.547  32.154  1.00  0.00    -0.354 N 
ATOM     47  C   UNL A   1      40.642  27.977  28.962  1.00  0.00     0.074 A 
ATOM     48  C   UNL A   1      39.785  28.084  27.800  1.00  0.00     0.031 C 
ATOM     49  C   UNL A   1      37.933  32.024  33.155  1.00  0.00     0.029 A 
ATOM     50  C   UNL A   1      39.129  31.211  33.350  1.00  0.00     0.049 A 
ATOM     51  H   UNL A   1      40.013  29.913  31.980  1.00  0.00     0.167 HD
ATOM     52  C   UNL A   1      41.742  27.190  29.031  1.00  0.00     0.034 A 
ATOM     53  C   UNL A   1      39.863  31.168  34.481  1.00  0.00     0.034 A 
ATOM     54  C   UNL A   1      42.608  27.108  30.180  1.00  0.00     0.049 A 
ATOM     55  C   UNL A   1      41.070  30.270  34.540  1.00  0.00     0.074 A 
ATOM     56  C   UNL A   1      43.774  26.377  30.325  1.00  0.00     0.029 A 
ATOM     57  N   UNL A   1      42.406  27.779  31.378  1.00  0.00    -0.354 N 
ATOM     58  N   UNL A   1      41.546  29.472  33.613  1.00  0.00    -0.248 NA
ATOM     59  C   UNL A   1      41.837  30.263  35.794  1.00  0.00     0.031 C 
ATOM     60  C   UNL A   1      44.248  26.562  31.628  1.00  0.00     0.029 A 
ATOM     61  C   UNL A   1      43.413  27.459  32.274  1.00  0.00     0.049 A 
ATOM     62  H   UNL A   1      41.657  28.390  31.563  1.00  0.00     0.167 HD
ATOM     63  C   UNL A   1      42.681  28.886  34.165  1.00  0.00     0.074 A 
ATOM     64  C   UNL A   1      42.820  29.422  35.504  1.00  0.00     0.031 C 
ATOM     65  C   UNL A   1      43.533  27.990  33.609  1.00  0.00     0.034 A 
BRANCH  52  66
ATOM     66  C   UNL A   1      42.073  26.347  27.828  1.00  0.00     0.023 A 
ATOM     67  C   UNL A   1      41.686  24.999  27.750  1.00  0.00     0.031 A 
ATOM     68  C   UNL A   1      42.764  26.904  26.739  1.00  0.00     0.131 A 
ATOM     69  C   UNL A   1      42.030  24.239  26.623  1.00  0.00     0.055 A 
ATOM     70  C   UNL A   1      43.048  26.161  25.593  1.00  0.00     0.041 A 
ATOM     71  F   UNL A   1      43.171  28.184  26.770  1.00  0.00    -0.206 F 
ATOM     72  C   UNL A   1      42.687  24.818  25.533  1.00  0.00     0.022 A 
BRANCH  69  73
ATOM     73  S   UNL A   1      41.669  22.463  26.627  1.00  0.00     0.124 S 
ATOM     74  O   UNL A   1      40.209  22.462  26.680  1.00  0.00    -0.237 OA
ATOM     75  O   UNL A   1      42.262  22.013  25.373  1.00  0.00    -0.237 OA
ATOM     76  O   UNL A   1      42.333  21.982  27.837  1.00  0.00    -0.744 OA
ENDBRANCH  69  73
ENDBRANCH  52  66
BRANCH  53  77
ATOM     77  C   UNL A   1      39.476  31.998  35.657  1.00  0.00     0.023 A 
ATOM     78  C   UNL A   1      38.598  31.501  36.634  1.00  0.00     0.031 A 
ATOM     79  C   UNL A   1      39.973  33.303  35.814  1.00  0.00     0.131 A 
ATOM     80  C   UNL A   1      38.225  32.315  37.714  1.00  0.00     0.055 A 
ATOM     81  C   UNL A   1      39.627  34.096  36.910  1.00  0.00     0.041 A 
ATOM     82  F   UNL A   1      40.820  33.819  34.910  1.00  0.00    -0.206 F 
ATOM     83  C   UNL A   1      38.742  33.604  37.865  1.00  0.00     0.022 A 
BRANCH  80  84
ATOM     84  S   UNL A   1      37.022  31.676  38.914  1.00  0.00     0.124 S 
ATOM     85  O   UNL A   1      35.877  32.548  38.680  1.00  0.00    -0.237 OA
ATOM     86  O   UNL A   1      36.872  30.289  38.485  1.00  0.00    -0.237 OA
ATOM     87  O   UNL A   1      37.695  31.858  40.199  1.00  0.00    -0.744 OA
ENDBRANCH  80  84
ENDBRANCH  53  77
BRANCH  65  88
ATOM     88  C   UNL A   1      44.716  27.552  34.432  1.00  0.00     0.023 A 
ATOM     89  C   UNL A   1      44.662  26.408  35.246  1.00  0.00     0.031 A 
ATOM     90  C   UNL A   1      45.928  28.261  34.354  1.00  0.00     0.131 A 
ATOM     91  C   UNL A   1      45.798  26.018  35.971  1.00  0.00     0.055 A 
ATOM     92  C   UNL A   1      47.066  27.843  35.044  1.00  0.00     0.041 A 
ATOM     93  F   UNL A   1      46.028  29.358  33.587  1.00  0.00    -0.206 F 
ATOM     94  C   UNL A   1      47.003  26.719  35.862  1.00  0.00     0.022 A 
BRANCH  91  95
ATOM     95  S   UNL A   1      45.677  24.591  37.084  1.00  0.00     0.124 S 
ATOM     96  O   UNL A   1      47.005  24.565  37.687  1.00  0.00    -0.237 OA
ATOM     97  O   UNL A   1      44.582  24.974  37.971  1.00  0.00    -0.237 OA
ATOM     98  O   UNL A   1      45.381  23.478  36.184  1.00  0.00    -0.744 OA
ENDBRANCH  91  95
ENDBRANCH  65  88
ENDBRANCH  39  40
ENDBRANCH  31  34
ENDBRANCH  29  30
ENDBRANCH  28  29
ENDBRANCH  27  28
ENDBRANCH   1  27
TORSDOF 20
ENDMDL
