MODEL 1
REMARK VINA RESULT:     -12.4      0.000      0.000
REMARK SMILES CCN(CC)S(=O)(=O)c1ccc2nc(-c3ccncc3)cc(C(=O)NCCCCNC(=O)c3ccc(-c4c5nc(c(-c6cc(S(=O)(=O)[O-])ccc6F)c6ccc([nH]6)c(-c6cc(S(=O)(=O)[O-])ccc6F)c6nc(c(-c7cc(S(=O)(=O)[O-])ccc7F)c7ccc4[nH]7)C=C6)C=C5)cc3)c2c1
REMARK SMILES IDX 27 1 26 2 25 3 23 4 24 5 22 7 9 8 10 9 97 10 11 11 96 12
REMARK SMILES IDX 12 13 13 14 21 15 14 16 6 17 7 18 8 19 3 20 2 21 1 22 4 23
REMARK SMILES IDX 5 24 15 25 16 26 20 27 17 28 19 29 18 30 28 31 29 32 30 33
REMARK SMILES IDX 31 34 32 36 33 37 34 38 95 39 35 40 94 41 36 42 37 43 38 44
REMARK SMILES IDX 88 45 39 46 93 47 87 48 89 49 40 50 92 51 86 52 85 53 41 55
REMARK SMILES IDX 73 56 53 57 72 58 54 59 57 60 71 61 90 62 55 63 56 64 70 66
REMARK SMILES IDX 91 67 58 68 42 69 43 70 51 71 44 72 50 73 52 74 49 75 45 76
REMARK SMILES IDX 46 77 47 78 48 79 74 80 75 81 83 82 76 83 82 84 84 85 81 86
REMARK SMILES IDX 77 87 78 88 79 89 80 90 59 91 60 92 68 93 61 94 67 95 69 96
REMARK SMILES IDX 66 97 62 98 63 99 64 100 65 101
REMARK H PARENT 25 6 30 35 89 54 57 65
REMARK Flexibility Score: inf
ROOT
ATOM      1  C   UNL A   1      35.183  29.922  27.563  1.00  0.00     0.023 C 
ENDROOT
BRANCH   1   2
ATOM      2  C   UNL A   1      34.591  28.921  26.563  1.00  0.00     0.116 C 
BRANCH   2   3
ATOM      3  N   UNL A   1      33.362  28.396  27.120  1.00  0.00    -0.352 N 
ATOM      4  C   UNL A   1      32.114  28.141  26.627  1.00  0.00     0.252 C 
ATOM      5  O   UNL A   1      31.239  27.930  27.474  1.00  0.00    -0.269 OA
ATOM      6  H   UNL A   1      33.444  28.172  28.075  1.00  0.00     0.163 HD
BRANCH   4   7
ATOM      7  C   UNL A   1      31.732  27.964  25.190  1.00  0.00     0.051 A 
ATOM      8  C   UNL A   1      33.517  25.115  23.432  1.00  0.00     0.083 A 
ATOM      9  C   UNL A   1      32.832  25.110  22.229  1.00  0.00     0.024 A 
ATOM     10  C   UNL A   1      33.251  26.111  24.378  1.00  0.00     0.033 A 
ATOM     11  C   UNL A   1      31.893  26.115  21.994  1.00  0.00     0.030 A 
ATOM     12  C   UNL A   1      32.199  27.038  24.219  1.00  0.00     0.014 A 
ATOM     13  C   UNL A   1      31.568  27.071  22.951  1.00  0.00     0.072 A 
ATOM     14  N   UNL A   1      30.678  28.005  22.594  1.00  0.00    -0.248 NA
ATOM     15  C   UNL A   1      30.804  28.936  24.785  1.00  0.00     0.043 A 
ATOM     16  C   UNL A   1      30.351  28.965  23.481  1.00  0.00     0.072 A 
BRANCH   8  17
ATOM     17  S   UNL A   1      34.623  23.777  23.843  1.00  0.00     0.243 S 
ATOM     18  O   UNL A   1      35.639  24.305  24.729  1.00  0.00    -0.207 OA
ATOM     19  O   UNL A   1      34.979  23.180  22.574  1.00  0.00    -0.207 OA
BRANCH  17  20
ATOM     20  N   UNL A   1      33.665  22.670  24.735  1.00  0.00    -0.198 NA
BRANCH  20  21
ATOM     21  C   UNL A   1      33.764  21.242  24.274  1.00  0.00     0.099 C 
ATOM     22  C   UNL A   1      32.419  20.591  24.042  1.00  0.00     0.022 C 
ENDBRANCH  20  21
BRANCH  20  23
ATOM     23  C   UNL A   1      33.729  22.755  26.224  1.00  0.00     0.099 C 
ATOM     24  C   UNL A   1      32.495  23.364  26.868  1.00  0.00     0.022 C 
ENDBRANCH  20  23
ENDBRANCH  17  20
ENDBRANCH   8  17
BRANCH  16  25
ATOM     25  C   UNL A   1      29.555  30.086  22.967  1.00  0.00     0.003 A 
ATOM     26  C   UNL A   1      29.164  30.155  21.629  1.00  0.00     0.030 A 
ATOM     27  C   UNL A   1      29.182  31.143  23.812  1.00  0.00     0.030 A 
ATOM     28  C   UNL A   1      28.415  31.241  21.206  1.00  0.00     0.111 A 
ATOM     29  C   UNL A   1      28.441  32.193  23.295  1.00  0.00     0.111 A 
ATOM     30  N   UNL A   1      28.044  32.263  22.009  1.00  0.00    -0.265 NA
ENDBRANCH  16  25
ENDBRANCH   4   7
ENDBRANCH   2   3
ENDBRANCH   1   2
BRANCH   1  31
ATOM     31  C   UNL A   1      34.699  31.351  27.425  1.00  0.00     0.023 C 
BRANCH  31  32
ATOM     32  C   UNL A   1      33.331  31.604  28.037  1.00  0.00     0.116 C 
BRANCH  32  33
ATOM     33  N   UNL A   1      32.869  32.989  27.957  1.00  0.00    -0.352 N 
ATOM     34  C   UNL A   1      33.410  34.096  28.576  1.00  0.00     0.251 C 
ATOM     35  H   UNL A   1      32.078  33.151  27.394  1.00  0.00     0.163 HD
ATOM     36  O   UNL A   1      32.937  35.218  28.446  1.00  0.00    -0.269 OA
BRANCH  34  37
ATOM     37  C   UNL A   1      34.559  33.877  29.463  1.00  0.00     0.039 A 
ATOM     38  C   UNL A   1      34.413  33.032  30.567  1.00  0.00     0.014 A 
ATOM     39  C   UNL A   1      35.806  34.368  29.078  1.00  0.00     0.014 A 
ATOM     40  C   UNL A   1      35.552  32.601  31.244  1.00  0.00     0.010 A 
ATOM     41  C   UNL A   1      36.937  33.860  29.692  1.00  0.00     0.010 A 
ATOM     42  C   UNL A   1      36.822  32.972  30.777  1.00  0.00    -0.014 A 
BRANCH  42  43
ATOM     43  C   UNL A   1      38.076  32.504  31.414  1.00  0.00     0.031 A 
ATOM     44  C   UNL A   1      38.814  31.373  30.760  1.00  0.00     0.074 A 
ATOM     45  C   UNL A   1      38.455  32.980  32.615  1.00  0.00     0.049 A 
ATOM     46  N   UNL A   1      39.738  30.590  31.248  1.00  0.00    -0.248 NA
ATOM     47  C   UNL A   1      38.401  31.041  29.386  1.00  0.00     0.031 C 
ATOM     48  C   UNL A   1      37.800  34.066  33.348  1.00  0.00     0.029 A 
ATOM     49  N   UNL A   1      39.469  32.584  33.448  1.00  0.00    -0.354 N 
ATOM     50  C   UNL A   1      39.978  29.640  30.261  1.00  0.00     0.074 A 
ATOM     51  C   UNL A   1      39.063  29.916  29.175  1.00  0.00     0.031 C 
ATOM     52  C   UNL A   1      38.431  34.249  34.519  1.00  0.00     0.029 A 
ATOM     53  C   UNL A   1      39.493  33.257  34.649  1.00  0.00     0.049 A 
ATOM     54  H   UNL A   1      40.120  31.884  33.211  1.00  0.00     0.167 HD
ATOM     55  C   UNL A   1      40.892  28.641  30.261  1.00  0.00     0.034 A 
ATOM     56  C   UNL A   1      40.261  33.064  35.740  1.00  0.00     0.034 A 
ATOM     57  C   UNL A   1      41.819  28.422  31.341  1.00  0.00     0.049 A 
ATOM     58  C   UNL A   1      41.268  31.941  35.722  1.00  0.00     0.074 A 
ATOM     59  C   UNL A   1      42.844  27.497  31.425  1.00  0.00     0.029 A 
ATOM     60  N   UNL A   1      41.834  29.146  32.527  1.00  0.00    -0.354 N 
ATOM     61  N   UNL A   1      41.508  31.062  34.775  1.00  0.00    -0.248 NA
ATOM     62  C   UNL A   1      42.103  31.779  36.918  1.00  0.00     0.031 C 
ATOM     63  C   UNL A   1      43.442  27.625  32.684  1.00  0.00     0.029 A 
ATOM     64  C   UNL A   1      42.833  28.670  33.361  1.00  0.00     0.049 A 
ATOM     65  H   UNL A   1      41.225  29.888  32.743  1.00  0.00     0.167 HD
ATOM     66  C   UNL A   1      42.535  30.256  35.256  1.00  0.00     0.074 A 
ATOM     67  C   UNL A   1      42.879  30.763  36.569  1.00  0.00     0.031 C 
ATOM     68  C   UNL A   1      43.143  29.192  34.670  1.00  0.00     0.034 A 
BRANCH  55  69
ATOM     69  C   UNL A   1      40.901  27.711  29.072  1.00  0.00     0.023 A 
ATOM     70  C   UNL A   1      41.850  27.837  28.043  1.00  0.00     0.031 A 
ATOM     71  C   UNL A   1      39.912  26.721  28.936  1.00  0.00     0.131 A 
ATOM     72  C   UNL A   1      41.736  27.056  26.884  1.00  0.00     0.055 A 
ATOM     73  C   UNL A   1      39.858  25.884  27.820  1.00  0.00     0.041 A 
ATOM     74  F   UNL A   1      38.965  26.566  29.875  1.00  0.00    -0.206 F 
ATOM     75  C   UNL A   1      40.762  26.061  26.776  1.00  0.00     0.022 A 
BRANCH  72  76
ATOM     76  S   UNL A   1      42.781  27.467  25.461  1.00  0.00     0.124 S 
ATOM     77  O   UNL A   1      42.777  26.207  24.721  1.00  0.00    -0.237 OA
ATOM     78  O   UNL A   1      42.055  28.571  24.844  1.00  0.00    -0.237 OA
ATOM     79  O   UNL A   1      44.062  27.822  26.067  1.00  0.00    -0.744 OA
ENDBRANCH  72  76
ENDBRANCH  55  69
BRANCH  56  80
ATOM     80  C   UNL A   1      40.093  33.919  36.950  1.00  0.00     0.023 A 
ATOM     81  C   UNL A   1      40.983  34.971  37.215  1.00  0.00     0.031 A 
ATOM     82  C   UNL A   1      39.066  33.675  37.880  1.00  0.00     0.131 A 
ATOM     83  C   UNL A   1      40.857  35.716  38.399  1.00  0.00     0.055 A 
ATOM     84  C   UNL A   1      38.915  34.450  39.033  1.00  0.00     0.041 A 
ATOM     85  F   UNL A   1      38.183  32.686  37.673  1.00  0.00    -0.206 F 
ATOM     86  C   UNL A   1      39.822  35.469  39.304  1.00  0.00     0.022 A 
BRANCH  83  87
ATOM     87  S   UNL A   1      42.114  36.969  38.776  1.00  0.00     0.124 S 
ATOM     88  O   UNL A   1      42.734  37.169  37.471  1.00  0.00    -0.237 OA
ATOM     89  O   UNL A   1      41.301  38.071  39.276  1.00  0.00    -0.237 OA
ATOM     90  O   UNL A   1      42.957  36.315  39.775  1.00  0.00    -0.744 OA
ENDBRANCH  83  87
ENDBRANCH  56  80
BRANCH  68  91
ATOM     91  C   UNL A   1      44.261  28.539  35.439  1.00  0.00     0.023 A 
ATOM     92  C   UNL A   1      44.009  27.547  36.400  1.00  0.00     0.031 A 
ATOM     93  C   UNL A   1      45.595  28.907  35.194  1.00  0.00     0.131 A 
ATOM     94  C   UNL A   1      45.076  26.982  37.113  1.00  0.00     0.055 A 
ATOM     95  C   UNL A   1      46.656  28.305  35.868  1.00  0.00     0.041 A 
ATOM     96  F   UNL A   1      45.888  29.852  34.285  1.00  0.00    -0.206 F 
ATOM     97  C   UNL A   1      46.399  27.342  36.841  1.00  0.00     0.022 A 
BRANCH  94  98
ATOM     98  S   UNL A   1      44.708  25.812  38.448  1.00  0.00     0.124 S 
ATOM     99  O   UNL A   1      44.256  24.639  37.706  1.00  0.00    -0.237 OA
ATOM    100  O   UNL A   1      45.998  25.684  39.118  1.00  0.00    -0.237 OA
ATOM    101  O   UNL A   1      43.673  26.491  39.223  1.00  0.00    -0.744 OA
ENDBRANCH  94  98
ENDBRANCH  68  91
ENDBRANCH  42  43
ENDBRANCH  34  37
ENDBRANCH  32  33
ENDBRANCH  31  32
ENDBRANCH   1  31
TORSDOF 19
ENDMDL
MODEL 2
REMARK VINA RESULT:     -12.2      5.571      9.921
REMARK SMILES CCN(CC)S(=O)(=O)c1ccc2nc(-c3ccncc3)cc(C(=O)NCCCCNC(=O)c3ccc(-c4c5nc(c(-c6cc(S(=O)(=O)[O-])ccc6F)c6ccc([nH]6)c(-c6cc(S(=O)(=O)[O-])ccc6F)c6nc(c(-c7cc(S(=O)(=O)[O-])ccc7F)c7ccc4[nH]7)C=C6)C=C5)cc3)c2c1
REMARK SMILES IDX 27 1 26 2 25 3 23 4 24 5 22 7 9 8 10 9 97 10 11 11 96 12
REMARK SMILES IDX 12 13 13 14 21 15 14 16 6 17 7 18 8 19 3 20 2 21 1 22 4 23
REMARK SMILES IDX 5 24 15 25 16 26 20 27 17 28 19 29 18 30 28 31 29 32 30 33
REMARK SMILES IDX 31 34 32 36 33 37 34 38 95 39 35 40 94 41 36 42 37 43 38 44
REMARK SMILES IDX 88 45 39 46 93 47 87 48 89 49 40 50 92 51 86 52 85 53 41 55
REMARK SMILES IDX 73 56 53 57 72 58 54 59 57 60 71 61 90 62 55 63 56 64 70 66
REMARK SMILES IDX 91 67 58 68 42 69 43 70 51 71 44 72 50 73 52 74 49 75 45 76
REMARK SMILES IDX 46 77 47 78 48 79 74 80 75 81 83 82 76 83 82 84 84 85 81 86
REMARK SMILES IDX 77 87 78 88 79 89 80 90 59 91 60 92 68 93 61 94 67 95 69 96
REMARK SMILES IDX 66 97 62 98 63 99 64 100 65 101
REMARK H PARENT 25 6 30 35 89 54 57 65
REMARK Flexibility Score: inf
ROOT
ATOM      1  C   UNL A   1      38.827  23.226  26.255  1.00  0.00     0.023 C 
ENDROOT
BRANCH   1   2
ATOM      2  C   UNL A   1      37.364  23.661  26.105  1.00  0.00     0.116 C 
BRANCH   2   3
ATOM      3  N   UNL A   1      37.015  23.600  24.700  1.00  0.00    -0.352 N 
ATOM      4  C   UNL A   1      36.042  22.971  23.977  1.00  0.00     0.252 C 
ATOM      5  O   UNL A   1      36.216  22.951  22.754  1.00  0.00    -0.269 OA
ATOM      6  H   UNL A   1      37.619  24.136  24.137  1.00  0.00     0.163 HD
BRANCH   4   7
ATOM      7  C   UNL A   1      34.745  22.428  24.492  1.00  0.00     0.051 A 
ATOM      8  C   UNL A   1      32.412  25.048  25.936  1.00  0.00     0.083 A 
ATOM      9  C   UNL A   1      31.283  24.274  26.144  1.00  0.00     0.024 A 
ATOM     10  C   UNL A   1      33.595  24.445  25.498  1.00  0.00     0.033 A 
ATOM     11  C   UNL A   1      31.367  22.901  25.915  1.00  0.00     0.030 A 
ATOM     12  C   UNL A   1      33.652  23.088  25.115  1.00  0.00     0.014 A 
ATOM     13  C   UNL A   1      32.516  22.297  25.414  1.00  0.00     0.072 A 
ATOM     14  N   UNL A   1      32.485  20.966  25.271  1.00  0.00    -0.248 NA
ATOM     15  C   UNL A   1      34.687  21.033  24.362  1.00  0.00     0.043 A 
ATOM     16  C   UNL A   1      33.583  20.335  24.811  1.00  0.00     0.072 A 
BRANCH   8  17
ATOM     17  S   UNL A   1      32.323  26.825  26.077  1.00  0.00     0.243 S 
ATOM     18  O   UNL A   1      33.625  27.296  26.500  1.00  0.00    -0.207 OA
ATOM     19  O   UNL A   1      31.143  27.080  26.875  1.00  0.00    -0.207 OA
BRANCH  17  20
ATOM     20  N   UNL A   1      32.050  27.382  24.479  1.00  0.00    -0.198 NA
BRANCH  20  21
ATOM     21  C   UNL A   1      30.938  28.385  24.346  1.00  0.00     0.099 C 
ATOM     22  C   UNL A   1      29.800  27.907  23.473  1.00  0.00     0.022 C 
ENDBRANCH  20  21
BRANCH  20  23
ATOM     23  C   UNL A   1      33.245  27.801  23.688  1.00  0.00     0.099 C 
ATOM     24  C   UNL A   1      33.651  26.821  22.601  1.00  0.00     0.022 C 
ENDBRANCH  20  23
ENDBRANCH  17  20
ENDBRANCH   8  17
BRANCH  16  25
ATOM     25  C   UNL A   1      33.577  18.870  24.890  1.00  0.00     0.003 A 
ATOM     26  C   UNL A   1      34.550  18.098  24.250  1.00  0.00     0.030 A 
ATOM     27  C   UNL A   1      32.570  18.197  25.598  1.00  0.00     0.030 A 
ATOM     28  C   UNL A   1      34.487  16.719  24.361  1.00  0.00     0.111 A 
ATOM     29  C   UNL A   1      32.585  16.813  25.643  1.00  0.00     0.111 A 
ATOM     30  N   UNL A   1      33.527  16.057  25.043  1.00  0.00    -0.265 NA
ENDBRANCH  16  25
ENDBRANCH   4   7
ENDBRANCH   2   3
ENDBRANCH   1   2
BRANCH   1  31
ATOM     31  C   UNL A   1      39.125  21.788  25.884  1.00  0.00     0.023 C 
BRANCH  31  32
ATOM     32  C   UNL A   1      40.020  21.063  26.877  1.00  0.00     0.116 C 
BRANCH  32  33
ATOM     33  N   UNL A   1      41.007  20.170  26.274  1.00  0.00    -0.352 N 
ATOM     34  C   UNL A   1      42.314  20.457  25.941  1.00  0.00     0.251 C 
ATOM     35  H   UNL A   1      40.703  19.252  26.083  1.00  0.00     0.163 HD
ATOM     36  O   UNL A   1      43.058  19.630  25.430  1.00  0.00    -0.269 OA
BRANCH  34  37
ATOM     37  C   UNL A   1      42.780  21.830  26.166  1.00  0.00     0.039 A 
ATOM     38  C   UNL A   1      42.764  22.735  25.101  1.00  0.00     0.014 A 
ATOM     39  C   UNL A   1      43.047  22.241  27.471  1.00  0.00     0.014 A 
ATOM     40  C   UNL A   1      42.934  24.093  25.365  1.00  0.00     0.010 A 
ATOM     41  C   UNL A   1      43.118  23.597  27.738  1.00  0.00     0.010 A 
ATOM     42  C   UNL A   1      43.060  24.534  26.690  1.00  0.00    -0.014 A 
BRANCH  42  43
ATOM     43  C   UNL A   1      43.186  25.967  27.047  1.00  0.00     0.031 A 
ATOM     44  C   UNL A   1      44.557  26.578  27.023  1.00  0.00     0.074 A 
ATOM     45  C   UNL A   1      42.127  26.653  27.518  1.00  0.00     0.049 A 
ATOM     46  N   UNL A   1      44.983  27.686  27.565  1.00  0.00    -0.248 NA
ATOM     47  C   UNL A   1      45.602  25.790  26.349  1.00  0.00     0.031 C 
ATOM     48  C   UNL A   1      40.754  26.151  27.602  1.00  0.00     0.029 A 
ATOM     49  N   UNL A   1      42.051  27.914  28.050  1.00  0.00    -0.354 N 
ATOM     50  C   UNL A   1      46.357  27.702  27.344  1.00  0.00     0.074 A 
ATOM     51  C   UNL A   1      46.692  26.468  26.669  1.00  0.00     0.031 C 
ATOM     52  C   UNL A   1      39.973  27.096  28.150  1.00  0.00     0.029 A 
ATOM     53  C   UNL A   1      40.797  28.244  28.513  1.00  0.00     0.049 A 
ATOM     54  H   UNL A   1      42.820  28.527  28.097  1.00  0.00     0.167 HD
ATOM     55  C   UNL A   1      47.248  28.670  27.664  1.00  0.00     0.034 A 
ATOM     56  C   UNL A   1      40.376  29.332  29.188  1.00  0.00     0.034 A 
ATOM     57  C   UNL A   1      46.872  29.908  28.296  1.00  0.00     0.049 A 
ATOM     58  C   UNL A   1      41.387  30.396  29.540  1.00  0.00     0.074 A 
ATOM     59  C   UNL A   1      47.666  30.999  28.597  1.00  0.00     0.029 A 
ATOM     60  N   UNL A   1      45.587  30.220  28.720  1.00  0.00    -0.354 N 
ATOM     61  N   UNL A   1      42.679  30.417  29.305  1.00  0.00    -0.248 NA
ATOM     62  C   UNL A   1      40.885  31.578  30.251  1.00  0.00     0.031 C 
ATOM     63  C   UNL A   1      46.873  31.947  29.253  1.00  0.00     0.029 A 
ATOM     64  C   UNL A   1      45.570  31.475  29.306  1.00  0.00     0.049 A 
ATOM     65  H   UNL A   1      44.802  29.634  28.619  1.00  0.00     0.167 HD
ATOM     66  C   UNL A   1      43.140  31.623  29.824  1.00  0.00     0.074 A 
ATOM     67  C   UNL A   1      41.985  32.308  30.369  1.00  0.00     0.031 C 
ATOM     68  C   UNL A   1      44.402  32.124  29.850  1.00  0.00     0.034 A 
BRANCH  55  69
ATOM     69  C   UNL A   1      48.700  28.402  27.354  1.00  0.00     0.023 A 
ATOM     70  C   UNL A   1      49.233  28.611  26.071  1.00  0.00     0.031 A 
ATOM     71  C   UNL A   1      49.553  27.877  28.342  1.00  0.00     0.131 A 
ATOM     72  C   UNL A   1      50.546  28.210  25.782  1.00  0.00     0.055 A 
ATOM     73  C   UNL A   1      50.886  27.563  28.071  1.00  0.00     0.041 A 
ATOM     74  F   UNL A   1      49.097  27.635  29.581  1.00  0.00    -0.206 F 
ATOM     75  C   UNL A   1      51.385  27.712  26.781  1.00  0.00     0.022 A 
BRANCH  72  76
ATOM     76  S   UNL A   1      51.085  28.204  24.051  1.00  0.00     0.124 S 
ATOM     77  O   UNL A   1      52.057  27.114  24.051  1.00  0.00    -0.237 OA
ATOM     78  O   UNL A   1      49.841  27.952  23.333  1.00  0.00    -0.237 OA
ATOM     79  O   UNL A   1      51.654  29.537  23.865  1.00  0.00    -0.744 OA
ENDBRANCH  72  76
ENDBRANCH  55  69
BRANCH  56  80
ATOM     80  C   UNL A   1      38.951  29.465  29.608  1.00  0.00     0.023 A 
ATOM     81  C   UNL A   1      38.060  30.269  28.880  1.00  0.00     0.031 A 
ATOM     82  C   UNL A   1      38.467  28.823  30.762  1.00  0.00     0.131 A 
ATOM     83  C   UNL A   1      36.743  30.445  29.334  1.00  0.00     0.055 A 
ATOM     84  C   UNL A   1      37.142  28.962  31.183  1.00  0.00     0.041 A 
ATOM     85  F   UNL A   1      39.274  28.037  31.491  1.00  0.00    -0.206 F 
ATOM     86  C   UNL A   1      36.275  29.787  30.474  1.00  0.00     0.022 A 
BRANCH  83  87
ATOM     87  S   UNL A   1      35.667  31.607  28.449  1.00  0.00     0.124 S 
ATOM     88  O   UNL A   1      34.742  32.014  29.500  1.00  0.00    -0.237 OA
ATOM     89  O   UNL A   1      36.618  32.619  28.003  1.00  0.00    -0.237 OA
ATOM     90  O   UNL A   1      35.086  30.791  27.386  1.00  0.00    -0.744 OA
ENDBRANCH  83  87
ENDBRANCH  56  80
BRANCH  68  91
ATOM     91  C   UNL A   1      44.579  33.491  30.458  1.00  0.00     0.023 A 
ATOM     92  C   UNL A   1      44.427  34.659  29.693  1.00  0.00     0.031 A 
ATOM     93  C   UNL A   1      44.892  33.622  31.822  1.00  0.00     0.131 A 
ATOM     94  C   UNL A   1      44.627  35.912  30.291  1.00  0.00     0.055 A 
ATOM     95  C   UNL A   1      45.038  34.871  32.422  1.00  0.00     0.041 A 
ATOM     96  F   UNL A   1      45.049  32.534  32.594  1.00  0.00    -0.206 F 
ATOM     97  C   UNL A   1      44.914  36.026  31.654  1.00  0.00     0.022 A 
BRANCH  94  98
ATOM     98  S   UNL A   1      44.567  37.393  29.247  1.00  0.00     0.124 S 
ATOM     99  O   UNL A   1      43.165  37.422  28.843  1.00  0.00    -0.237 OA
ATOM    100  O   UNL A   1      44.987  38.444  30.168  1.00  0.00    -0.237 OA
ATOM    101  O   UNL A   1      45.515  37.095  28.176  1.00  0.00    -0.744 OA
ENDBRANCH  94  98
ENDBRANCH  68  91
ENDBRANCH  42  43
ENDBRANCH  34  37
ENDBRANCH  32  33
ENDBRANCH  31  32
ENDBRANCH   1  31
TORSDOF 19
ENDMDL
MODEL 3
REMARK VINA RESULT:     -12.2      5.724     11.508
REMARK SMILES CCN(CC)S(=O)(=O)c1ccc2nc(-c3ccncc3)cc(C(=O)NCCCCNC(=O)c3ccc(-c4c5nc(c(-c6cc(S(=O)(=O)[O-])ccc6F)c6ccc([nH]6)c(-c6cc(S(=O)(=O)[O-])ccc6F)c6nc(c(-c7cc(S(=O)(=O)[O-])ccc7F)c7ccc4[nH]7)C=C6)C=C5)cc3)c2c1
REMARK SMILES IDX 27 1 26 2 25 3 23 4 24 5 22 7 9 8 10 9 97 10 11 11 96 12
REMARK SMILES IDX 12 13 13 14 21 15 14 16 6 17 7 18 8 19 3 20 2 21 1 22 4 23
REMARK SMILES IDX 5 24 15 25 16 26 20 27 17 28 19 29 18 30 28 31 29 32 30 33
REMARK SMILES IDX 31 34 32 36 33 37 34 38 95 39 35 40 94 41 36 42 37 43 38 44
REMARK SMILES IDX 88 45 39 46 93 47 87 48 89 49 40 50 92 51 86 52 85 53 41 55
REMARK SMILES IDX 73 56 53 57 72 58 54 59 57 60 71 61 90 62 55 63 56 64 70 66
REMARK SMILES IDX 91 67 58 68 42 69 43 70 51 71 44 72 50 73 52 74 49 75 45 76
REMARK SMILES IDX 46 77 47 78 48 79 74 80 75 81 83 82 76 83 82 84 84 85 81 86
REMARK SMILES IDX 77 87 78 88 79 89 80 90 59 91 60 92 68 93 61 94 67 95 69 96
REMARK SMILES IDX 66 97 62 98 63 99 64 100 65 101
REMARK H PARENT 25 6 30 35 89 54 57 65
REMARK Flexibility Score: inf
ROOT
ATOM      1  C   UNL A   1      38.547  23.258  26.109  1.00  0.00     0.023 C 
ENDROOT
BRANCH   1   2
ATOM      2  C   UNL A   1      37.071  23.669  26.033  1.00  0.00     0.116 C 
BRANCH   2   3
ATOM      3  N   UNL A   1      36.664  23.646  24.644  1.00  0.00    -0.352 N 
ATOM      4  C   UNL A   1      35.686  23.005  23.938  1.00  0.00     0.252 C 
ATOM      5  O   UNL A   1      35.808  23.037  22.708  1.00  0.00    -0.269 OA
ATOM      6  H   UNL A   1      37.221  24.227  24.077  1.00  0.00     0.163 HD
BRANCH   4   7
ATOM      7  C   UNL A   1      34.436  22.390  24.486  1.00  0.00     0.051 A 
ATOM      8  C   UNL A   1      32.029  24.865  26.057  1.00  0.00     0.083 A 
ATOM      9  C   UNL A   1      30.947  24.033  26.287  1.00  0.00     0.024 A 
ATOM     10  C   UNL A   1      33.225  24.329  25.569  1.00  0.00     0.033 A 
ATOM     11  C   UNL A   1      31.090  22.669  26.029  1.00  0.00     0.030 A 
ATOM     12  C   UNL A   1      33.334  22.983  25.157  1.00  0.00     0.014 A 
ATOM     13  C   UNL A   1      32.249  22.132  25.479  1.00  0.00     0.072 A 
ATOM     14  N   UNL A   1      32.277  20.804  25.310  1.00  0.00    -0.248 NA
ATOM     15  C   UNL A   1      34.442  20.995  24.330  1.00  0.00     0.043 A 
ATOM     16  C   UNL A   1      33.389  20.236  24.803  1.00  0.00     0.072 A 
BRANCH   8  17
ATOM     17  S   UNL A   1      31.859  26.632  26.236  1.00  0.00     0.243 S 
ATOM     18  O   UNL A   1      33.107  27.141  26.766  1.00  0.00    -0.207 OA
ATOM     19  O   UNL A   1      30.614  26.820  26.950  1.00  0.00    -0.207 OA
BRANCH  17  20
ATOM     20  N   UNL A   1      31.682  27.223  24.636  1.00  0.00    -0.198 NA
BRANCH  20  21
ATOM     21  C   UNL A   1      30.281  27.630  24.269  1.00  0.00     0.099 C 
ATOM     22  C   UNL A   1      29.443  26.487  23.744  1.00  0.00     0.022 C 
ENDBRANCH  20  21
BRANCH  20  23
ATOM     23  C   UNL A   1      32.672  28.238  24.168  1.00  0.00     0.099 C 
ATOM     24  C   UNL A   1      32.807  28.329  22.658  1.00  0.00     0.022 C 
ENDBRANCH  20  23
ENDBRANCH  17  20
ENDBRANCH   8  17
BRANCH  16  25
ATOM     25  C   UNL A   1      33.457  18.772  24.853  1.00  0.00     0.003 A 
ATOM     26  C   UNL A   1      34.431  18.059  24.150  1.00  0.00     0.030 A 
ATOM     27  C   UNL A   1      32.520  18.038  25.596  1.00  0.00     0.030 A 
ATOM     28  C   UNL A   1      34.440  16.676  24.237  1.00  0.00     0.111 A 
ATOM     29  C   UNL A   1      32.603  16.655  25.614  1.00  0.00     0.111 A 
ATOM     30  N   UNL A   1      33.549  15.957  24.953  1.00  0.00    -0.265 NA
ENDBRANCH  16  25
ENDBRANCH   4   7
ENDBRANCH   2   3
ENDBRANCH   1   2
BRANCH   1  31
ATOM     31  C   UNL A   1      38.829  21.786  25.884  1.00  0.00     0.023 C 
BRANCH  31  32
ATOM     32  C   UNL A   1      39.986  21.244  26.708  1.00  0.00     0.116 C 
BRANCH  32  33
ATOM     33  N   UNL A   1      40.731  20.155  26.077  1.00  0.00    -0.352 N 
ATOM     34  C   UNL A   1      42.077  20.112  25.782  1.00  0.00     0.251 C 
ATOM     35  H   UNL A   1      40.209  19.356  25.834  1.00  0.00     0.163 HD
ATOM     36  O   UNL A   1      42.601  19.146  25.242  1.00  0.00    -0.269 OA
BRANCH  34  37
ATOM     37  C   UNL A   1      42.871  21.309  26.086  1.00  0.00     0.039 A 
ATOM     38  C   UNL A   1      42.955  22.328  25.132  1.00  0.00     0.014 A 
ATOM     39  C   UNL A   1      43.361  21.477  27.380  1.00  0.00     0.014 A 
ATOM     40  C   UNL A   1      43.463  23.569  25.511  1.00  0.00     0.010 A 
ATOM     41  C   UNL A   1      43.773  22.737  27.776  1.00  0.00     0.010 A 
ATOM     42  C   UNL A   1      43.826  23.794  26.848  1.00  0.00    -0.014 A 
BRANCH  42  43
ATOM     43  C   UNL A   1      44.319  25.105  27.332  1.00  0.00     0.031 A 
ATOM     44  C   UNL A   1      43.319  26.055  27.924  1.00  0.00     0.074 A 
ATOM     45  C   UNL A   1      45.593  25.483  27.111  1.00  0.00     0.049 A 
ATOM     46  N   UNL A   1      43.418  27.339  28.138  1.00  0.00    -0.248 NA
ATOM     47  C   UNL A   1      42.004  25.483  28.257  1.00  0.00     0.031 C 
ATOM     48  C   UNL A   1      46.642  24.646  26.527  1.00  0.00     0.029 A 
ATOM     49  N   UNL A   1      46.211  26.688  27.323  1.00  0.00    -0.354 N 
ATOM     50  C   UNL A   1      42.161  27.738  28.579  1.00  0.00     0.074 A 
ATOM     51  C   UNL A   1      41.309  26.570  28.547  1.00  0.00     0.031 C 
ATOM     52  C   UNL A   1      47.774  25.363  26.430  1.00  0.00     0.029 A 
ATOM     53  C   UNL A   1      47.516  26.725  26.886  1.00  0.00     0.049 A 
ATOM     54  H   UNL A   1      45.764  27.457  27.748  1.00  0.00     0.167 HD
ATOM     55  C   UNL A   1      41.765  28.967  28.988  1.00  0.00     0.034 A 
ATOM     56  C   UNL A   1      48.386  27.753  26.825  1.00  0.00     0.034 A 
ATOM     57  C   UNL A   1      42.652  30.100  29.050  1.00  0.00     0.049 A 
ATOM     58  C   UNL A   1      47.922  29.115  27.279  1.00  0.00     0.074 A 
ATOM     59  C   UNL A   1      42.394  31.374  29.521  1.00  0.00     0.029 A 
ATOM     60  N   UNL A   1      43.976  30.089  28.629  1.00  0.00    -0.354 N 
ATOM     61  N   UNL A   1      46.739  29.480  27.720  1.00  0.00    -0.248 NA
ATOM     62  C   UNL A   1      48.906  30.203  27.223  1.00  0.00     0.031 C 
ATOM     63  C   UNL A   1      43.545  32.148  29.334  1.00  0.00     0.029 A 
ATOM     64  C   UNL A   1      44.541  31.342  28.804  1.00  0.00     0.049 A 
ATOM     65  H   UNL A   1      44.445  29.306  28.260  1.00  0.00     0.167 HD
ATOM     66  C   UNL A   1      46.845  30.837  28.011  1.00  0.00     0.074 A 
ATOM     67  C   UNL A   1      48.210  31.220  27.710  1.00  0.00     0.031 C 
ATOM     68  C   UNL A   1      45.903  31.693  28.484  1.00  0.00     0.034 A 
BRANCH  55  69
ATOM     69  C   UNL A   1      40.314  29.136  29.367  1.00  0.00     0.023 A 
ATOM     70  C   UNL A   1      39.890  29.093  30.706  1.00  0.00     0.031 A 
ATOM     71  C   UNL A   1      39.332  29.285  28.371  1.00  0.00     0.131 A 
ATOM     72  C   UNL A   1      38.521  29.102  31.010  1.00  0.00     0.055 A 
ATOM     73  C   UNL A   1      37.975  29.385  28.687  1.00  0.00     0.041 A 
ATOM     74  F   UNL A   1      39.672  29.311  27.074  1.00  0.00    -0.206 F 
ATOM     75  C   UNL A   1      37.561  29.275  30.011  1.00  0.00     0.022 A 
BRANCH  72  76
ATOM     76  S   UNL A   1      38.012  28.730  32.709  1.00  0.00     0.124 S 
ATOM     77  O   UNL A   1      36.674  29.315  32.749  1.00  0.00    -0.237 OA
ATOM     78  O   UNL A   1      38.073  27.273  32.746  1.00  0.00    -0.237 OA
ATOM     79  O   UNL A   1      39.010  29.417  33.525  1.00  0.00    -0.744 OA
ENDBRANCH  72  76
ENDBRANCH  55  69
BRANCH  56  80
ATOM     80  C   UNL A   1      49.763  27.555  26.288  1.00  0.00     0.023 A 
ATOM     81  C   UNL A   1      50.059  27.846  24.947  1.00  0.00     0.031 A 
ATOM     82  C   UNL A   1      50.793  27.037  27.093  1.00  0.00     0.131 A 
ATOM     83  C   UNL A   1      51.341  27.579  24.439  1.00  0.00     0.055 A 
ATOM     84  C   UNL A   1      52.080  26.818  26.595  1.00  0.00     0.041 A 
ATOM     85  F   UNL A   1      50.565  26.747  28.384  1.00  0.00    -0.206 F 
ATOM     86  C   UNL A   1      52.356  27.078  25.257  1.00  0.00     0.022 A 
BRANCH  83  87
ATOM     87  S   UNL A   1      51.642  27.830  22.667  1.00  0.00     0.124 S 
ATOM     88  O   UNL A   1      50.617  26.983  22.069  1.00  0.00    -0.237 OA
ATOM     89  O   UNL A   1      51.448  29.269  22.529  1.00  0.00    -0.237 OA
ATOM     90  O   UNL A   1      53.017  27.368  22.488  1.00  0.00    -0.744 OA
ENDBRANCH  83  87
ENDBRANCH  56  80
BRANCH  68  91
ATOM     91  C   UNL A   1      46.338  33.113  28.734  1.00  0.00     0.023 A 
ATOM     92  C   UNL A   1      46.310  34.079  27.715  1.00  0.00     0.031 A 
ATOM     93  C   UNL A   1      46.773  33.504  30.012  1.00  0.00     0.131 A 
ATOM     94  C   UNL A   1      46.749  35.384  27.982  1.00  0.00     0.055 A 
ATOM     95  C   UNL A   1      47.159  34.815  30.285  1.00  0.00     0.041 A 
ATOM     96  F   UNL A   1      46.819  32.616  31.019  1.00  0.00    -0.206 F 
ATOM     97  C   UNL A   1      47.156  35.762  29.264  1.00  0.00     0.022 A 
BRANCH  94  98
ATOM     98  S   UNL A   1      46.838  36.569  26.613  1.00  0.00     0.124 S 
ATOM     99  O   UNL A   1      46.391  35.761  25.483  1.00  0.00    -0.237 OA
ATOM    100  O   UNL A   1      45.924  37.621  27.046  1.00  0.00    -0.237 OA
ATOM    101  O   UNL A   1      48.248  36.951  26.582  1.00  0.00    -0.744 OA
ENDBRANCH  94  98
ENDBRANCH  68  91
ENDBRANCH  42  43
ENDBRANCH  34  37
ENDBRANCH  32  33
ENDBRANCH  31  32
ENDBRANCH   1  31
TORSDOF 19
ENDMDL
