MODEL 1
REMARK VINA RESULT:     -15.0      0.000      0.000
REMARK SMILES Cc1ccc([C@@]23C[C@@H]4C[C@@H](C[C@@](C(=O)N5CCC(C(=O)NCCCCNC(=O)c6ccc(-c7c8nc(c(-c9cc(S(=O)(=O)[O-])ccc9F)c9ccc([nH]9)c(-c9cc(S(=O)(=O)[O-])ccc9F)c9nc(c(-c%10cc(S(=O)(=O)[O-])ccc%10F)c%10ccc7[nH]%10)C=C9)C=C8)cc6)CC5)(C4)C2)C3)cc1
REMARK SMILES IDX 24 1 23 2 22 3 21 4 19 5 20 6 18 8 13 9 14 10 15 11 16 12
REMARK SMILES IDX 93 13 17 14 92 15 12 16 6 17 7 18 95 19 96 20 8 21 10 22
REMARK SMILES IDX 9 23 94 24 11 25 5 26 1 27 2 28 3 29 98 30 4 31 97 32 25 33
REMARK SMILES IDX 26 34 27 35 28 37 29 38 30 39 91 40 31 41 90 42 32 43 33 44
REMARK SMILES IDX 34 45 84 46 35 47 89 48 83 49 85 50 36 51 88 52 82 53 81 54
REMARK SMILES IDX 37 56 69 57 49 58 68 59 50 60 53 61 67 62 86 63 51 64 52 65
REMARK SMILES IDX 66 67 87 68 54 69 38 70 39 71 47 72 40 73 46 74 48 75 45 76
REMARK SMILES IDX 41 77 42 78 43 79 44 80 70 81 71 82 79 83 72 84 78 85 80 86
REMARK SMILES IDX 77 87 73 88 74 89 75 90 76 91 55 92 56 93 64 94 57 95 63 96
REMARK SMILES IDX 65 97 62 98 58 99 59 100 60 101 61 102
REMARK H PARENT 21 7 26 36 85 55 53 66
REMARK Flexibility Score: inf
ROOT
ATOM      1  C   UNL A   1      32.984  30.721  26.880  1.00  0.00     0.023 C 
ENDROOT
BRANCH   1   2
ATOM      2  C   UNL A   1      31.878  29.709  26.587  1.00  0.00     0.023 C 
BRANCH   2   3
ATOM      3  C   UNL A   1      31.976  28.996  25.232  1.00  0.00     0.116 C 
BRANCH   3   4
ATOM      4  N   UNL A   1      31.258  29.707  24.171  1.00  0.00    -0.356 N 
ATOM      5  C   UNL A   1      30.567  29.253  23.090  1.00  0.00     0.223 C 
ATOM      6  O   UNL A   1      30.070  30.085  22.324  1.00  0.00    -0.275 OA
ATOM      7  H   UNL A   1      31.279  30.687  24.255  1.00  0.00     0.163 HD
BRANCH   5   8
ATOM      8  C   UNL A   1      30.416  27.767  22.798  1.00  0.00     0.082 C 
ATOM      9  C   UNL A   1      31.478  24.538  25.010  1.00  0.00     0.228 C 
ATOM     10  O   UNL A   1      30.702  24.281  25.937  1.00  0.00    -0.274 OA
ATOM     11  N   UNL A   1      30.998  25.176  23.861  1.00  0.00    -0.342 N 
ATOM     12  C   UNL A   1      29.595  25.575  23.827  1.00  0.00     0.120 C 
ATOM     13  C   UNL A   1      31.723  25.599  22.667  1.00  0.00     0.120 C 
ATOM     14  C   UNL A   1      29.467  27.091  23.805  1.00  0.00     0.035 C 
ATOM     15  C   UNL A   1      31.789  27.113  22.609  1.00  0.00     0.035 C 
BRANCH   9  16
ATOM     16  C   UNL A   1      32.922  23.976  25.055  1.00  0.00     0.051 C 
ATOM     17  C   UNL A   1      34.135  21.702  24.961  1.00  0.00    -0.003 C 
ATOM     18  C   UNL A   1      35.016  22.321  23.836  1.00  0.00     0.015 C 
ATOM     19  C   UNL A   1      32.786  22.448  24.940  1.00  0.00     0.028 C 
ATOM     20  C   UNL A   1      34.796  22.003  26.330  1.00  0.00     0.015 C 
ATOM     21  C   UNL A   1      35.237  23.834  24.055  1.00  0.00    -0.009 C 
ATOM     22  C   UNL A   1      34.964  23.525  26.528  1.00  0.00    -0.009 C 
ATOM     23  C   UNL A   1      35.885  24.065  25.426  1.00  0.00     0.007 C 
ATOM     24  C   UNL A   1      33.889  24.572  24.012  1.00  0.00     0.020 C 
ATOM     25  C   UNL A   1      33.590  24.228  26.443  1.00  0.00     0.020 C 
BRANCH  17  26
ATOM     26  C   UNL A   1      33.927  20.187  24.754  1.00  0.00    -0.042 A 
ATOM     27  C   UNL A   1      33.355  15.901  24.330  1.00  0.00     0.044 C 
ATOM     28  C   UNL A   1      33.533  17.382  24.456  1.00  0.00    -0.051 A 
ATOM     29  C   UNL A   1      34.818  17.913  24.517  1.00  0.00     0.004 A 
ATOM     30  C   UNL A   1      32.443  18.256  24.524  1.00  0.00     0.004 A 
ATOM     31  C   UNL A   1      35.008  19.288  24.655  1.00  0.00     0.004 A 
ATOM     32  C   UNL A   1      32.638  19.638  24.667  1.00  0.00     0.004 A 
ENDBRANCH  17  26
ENDBRANCH   9  16
ENDBRANCH   5   8
ENDBRANCH   3   4
ENDBRANCH   2   3
ENDBRANCH   1   2
BRANCH   1  33
ATOM     33  C   UNL A   1      34.121  30.176  27.735  1.00  0.00     0.116 C 
BRANCH  33  34
ATOM     34  N   UNL A   1      34.823  31.171  28.533  1.00  0.00    -0.352 N 
ATOM     35  C   UNL A   1      36.038  31.032  29.188  1.00  0.00     0.251 C 
ATOM     36  H   UNL A   1      34.383  32.047  28.618  1.00  0.00     0.163 HD
ATOM     37  O   UNL A   1      36.488  31.911  29.910  1.00  0.00    -0.269 OA
BRANCH  35  38
ATOM     38  C   UNL A   1      36.862  29.836  28.883  1.00  0.00     0.039 A 
ATOM     39  C   UNL A   1      37.160  28.985  29.952  1.00  0.00     0.014 A 
ATOM     40  C   UNL A   1      37.532  29.709  27.668  1.00  0.00     0.014 A 
ATOM     41  C   UNL A   1      38.288  28.171  29.882  1.00  0.00     0.010 A 
ATOM     42  C   UNL A   1      38.700  28.969  27.628  1.00  0.00     0.010 A 
ATOM     43  C   UNL A   1      39.115  28.258  28.761  1.00  0.00    -0.014 A 
BRANCH  43  44
ATOM     44  C   UNL A   1      40.488  27.755  28.764  1.00  0.00     0.031 A 
ATOM     45  C   UNL A   1      40.785  26.358  28.399  1.00  0.00     0.074 A 
ATOM     46  C   UNL A   1      41.502  28.565  29.141  1.00  0.00     0.049 A 
ATOM     47  N   UNL A   1      41.809  25.692  28.820  1.00  0.00    -0.248 NA
ATOM     48  C   UNL A   1      39.882  25.562  27.582  1.00  0.00     0.031 C 
ATOM     49  C   UNL A   1      42.934  28.304  29.041  1.00  0.00     0.029 A 
ATOM     50  N   UNL A   1      41.408  29.683  29.964  1.00  0.00    -0.354 N 
ATOM     51  C   UNL A   1      41.867  24.513  28.114  1.00  0.00     0.074 A 
ATOM     52  C   UNL A   1      40.584  24.432  27.457  1.00  0.00     0.031 C 
ATOM     53  C   UNL A   1      43.572  29.042  29.963  1.00  0.00     0.029 A 
ATOM     54  C   UNL A   1      42.560  29.708  30.765  1.00  0.00     0.049 A 
ATOM     55  H   UNL A   1      40.671  30.335  29.980  1.00  0.00     0.167 HD
ATOM     56  C   UNL A   1      43.048  23.827  28.059  1.00  0.00     0.034 A 
ATOM     57  C   UNL A   1      42.473  29.669  32.125  1.00  0.00     0.034 A 
ATOM     58  C   UNL A   1      44.034  24.387  28.997  1.00  0.00     0.049 A 
ATOM     59  C   UNL A   1      43.183  28.481  32.742  1.00  0.00     0.074 A 
ATOM     60  C   UNL A   1      45.174  25.157  28.833  1.00  0.00     0.029 A 
ATOM     61  N   UNL A   1      43.770  24.375  30.366  1.00  0.00    -0.354 N 
ATOM     62  N   UNL A   1      43.578  27.428  32.078  1.00  0.00    -0.248 NA
ATOM     63  C   UNL A   1      43.479  28.377  34.168  1.00  0.00     0.031 C 
ATOM     64  C   UNL A   1      45.560  25.655  30.107  1.00  0.00     0.029 A 
ATOM     65  C   UNL A   1      44.675  25.163  31.052  1.00  0.00     0.049 A 
ATOM     66  H   UNL A   1      43.036  23.873  30.787  1.00  0.00     0.167 HD
ATOM     67  C   UNL A   1      44.142  26.516  32.940  1.00  0.00     0.074 A 
ATOM     68  C   UNL A   1      44.078  27.175  34.234  1.00  0.00     0.031 C 
ATOM     69  C   UNL A   1      44.599  25.299  32.506  1.00  0.00     0.034 A 
BRANCH  56  70
ATOM     70  C   UNL A   1      43.429  22.842  26.955  1.00  0.00     0.023 A 
ATOM     71  C   UNL A   1      42.849  21.550  26.955  1.00  0.00     0.031 A 
ATOM     72  C   UNL A   1      44.396  23.045  25.948  1.00  0.00     0.131 A 
ATOM     73  C   UNL A   1      43.294  20.533  26.081  1.00  0.00     0.055 A 
ATOM     74  C   UNL A   1      44.863  22.028  25.103  1.00  0.00     0.041 A 
ATOM     75  F   UNL A   1      44.913  24.244  25.678  1.00  0.00    -0.206 F 
ATOM     76  C   UNL A   1      44.324  20.759  25.175  1.00  0.00     0.022 A 
BRANCH  73  77
ATOM     77  S   UNL A   1      42.523  18.893  26.149  1.00  0.00     0.124 S 
ATOM     78  O   UNL A   1      42.695  18.527  27.550  1.00  0.00    -0.237 OA
ATOM     79  O   UNL A   1      41.160  19.172  25.713  1.00  0.00    -0.237 OA
ATOM     80  O   UNL A   1      43.319  18.105  25.206  1.00  0.00    -0.744 OA
ENDBRANCH  73  77
ENDBRANCH  56  70
BRANCH  57  81
ATOM     81  C   UNL A   1      41.240  30.324  32.658  1.00  0.00     0.023 A 
ATOM     82  C   UNL A   1      41.194  31.739  32.655  1.00  0.00     0.031 A 
ATOM     83  C   UNL A   1      40.031  29.632  32.802  1.00  0.00     0.131 A 
ATOM     84  C   UNL A   1      39.962  32.410  32.626  1.00  0.00     0.055 A 
ATOM     85  C   UNL A   1      38.806  30.312  32.845  1.00  0.00     0.041 A 
ATOM     86  F   UNL A   1      40.000  28.292  32.777  1.00  0.00    -0.206 F 
ATOM     87  C   UNL A   1      38.765  31.700  32.713  1.00  0.00     0.022 A 
BRANCH  84  88
ATOM     88  S   UNL A   1      39.921  34.177  32.185  1.00  0.00     0.124 S 
ATOM     89  O   UNL A   1      40.367  34.165  30.797  1.00  0.00    -0.237 OA
ATOM     90  O   UNL A   1      38.525  34.546  32.408  1.00  0.00    -0.237 OA
ATOM     91  O   UNL A   1      40.847  34.788  33.137  1.00  0.00    -0.744 OA
ENDBRANCH  84  88
ENDBRANCH  57  81
BRANCH  69  92
ATOM     92  C   UNL A   1      45.098  24.150  33.374  1.00  0.00     0.023 A 
ATOM     93  C   UNL A   1      46.375  24.091  33.955  1.00  0.00     0.031 A 
ATOM     94  C   UNL A   1      44.242  23.065  33.700  1.00  0.00     0.131 A 
ATOM     95  C   UNL A   1      46.781  22.988  34.736  1.00  0.00     0.055 A 
ATOM     96  C   UNL A   1      44.623  22.004  34.531  1.00  0.00     0.041 A 
ATOM     97  F   UNL A   1      42.986  22.988  33.238  1.00  0.00    -0.206 F 
ATOM     98  C   UNL A   1      45.906  21.951  35.044  1.00  0.00     0.022 A 
BRANCH  95  99
ATOM     99  S   UNL A   1      48.503  22.917  35.307  1.00  0.00     0.124 S 
ATOM    100  O   UNL A   1      48.889  24.325  35.275  1.00  0.00    -0.237 OA
ATOM    101  O   UNL A   1      48.369  22.327  36.635  1.00  0.00    -0.237 OA
ATOM    102  O   UNL A   1      49.162  22.071  34.314  1.00  0.00    -0.744 OA
ENDBRANCH  95  99
ENDBRANCH  69  92
ENDBRANCH  43  44
ENDBRANCH  35  38
ENDBRANCH  33  34
ENDBRANCH   1  33
TORSDOF 16
ENDMDL
MODEL 2
REMARK VINA RESULT:     -14.9      2.102      2.378
REMARK SMILES Cc1ccc([C@@]23C[C@@H]4C[C@@H](C[C@@](C(=O)N5CCC(C(=O)NCCCCNC(=O)c6ccc(-c7c8nc(c(-c9cc(S(=O)(=O)[O-])ccc9F)c9ccc([nH]9)c(-c9cc(S(=O)(=O)[O-])ccc9F)c9nc(c(-c%10cc(S(=O)(=O)[O-])ccc%10F)c%10ccc7[nH]%10)C=C9)C=C8)cc6)CC5)(C4)C2)C3)cc1
REMARK SMILES IDX 24 1 23 2 22 3 21 4 19 5 20 6 18 8 13 9 14 10 15 11 16 12
REMARK SMILES IDX 93 13 17 14 92 15 12 16 6 17 7 18 95 19 96 20 8 21 10 22
REMARK SMILES IDX 9 23 94 24 11 25 5 26 1 27 2 28 3 29 98 30 4 31 97 32 25 33
REMARK SMILES IDX 26 34 27 35 28 37 29 38 30 39 91 40 31 41 90 42 32 43 33 44
REMARK SMILES IDX 34 45 84 46 35 47 89 48 83 49 85 50 36 51 88 52 82 53 81 54
REMARK SMILES IDX 37 56 69 57 49 58 68 59 50 60 53 61 67 62 86 63 51 64 52 65
REMARK SMILES IDX 66 67 87 68 54 69 38 70 39 71 47 72 40 73 46 74 48 75 45 76
REMARK SMILES IDX 41 77 42 78 43 79 44 80 70 81 71 82 79 83 72 84 78 85 80 86
REMARK SMILES IDX 77 87 73 88 74 89 75 90 76 91 55 92 56 93 64 94 57 95 63 96
REMARK SMILES IDX 65 97 62 98 58 99 59 100 60 101 61 102
REMARK H PARENT 21 7 26 36 85 55 53 66
REMARK Flexibility Score: inf
ROOT
ATOM      1  C   UNL A   1      32.303  30.376  26.535  1.00  0.00     0.023 C 
ENDROOT
BRANCH   1   2
ATOM      2  C   UNL A   1      31.816  29.188  25.707  1.00  0.00     0.023 C 
BRANCH   2   3
ATOM      3  C   UNL A   1      32.426  29.067  24.303  1.00  0.00     0.116 C 
BRANCH   3   4
ATOM      4  N   UNL A   1      31.543  29.597  23.261  1.00  0.00    -0.356 N 
ATOM      5  C   UNL A   1      30.667  28.978  22.421  1.00  0.00     0.223 C 
ATOM      6  O   UNL A   1      30.055  29.672  21.604  1.00  0.00    -0.275 OA
ATOM      7  H   UNL A   1      31.590  30.573  23.148  1.00  0.00     0.163 HD
BRANCH   5   8
ATOM      8  C   UNL A   1      30.449  27.473  22.453  1.00  0.00     0.082 C 
ATOM      9  C   UNL A   1      31.656  24.705  25.161  1.00  0.00     0.228 C 
ATOM     10  O   UNL A   1      30.976  24.674  26.193  1.00  0.00    -0.274 OA
ATOM     11  N   UNL A   1      31.074  25.122  23.959  1.00  0.00    -0.342 N 
ATOM     12  C   UNL A   1      29.686  25.570  23.982  1.00  0.00     0.120 C 
ATOM     13  C   UNL A   1      31.680  25.265  22.639  1.00  0.00     0.120 C 
ATOM     14  C   UNL A   1      29.595  27.056  23.665  1.00  0.00     0.035 C 
ATOM     15  C   UNL A   1      31.778  26.732  22.268  1.00  0.00     0.035 C 
BRANCH   9  16
ATOM     16  C   UNL A   1      33.082  24.097  25.177  1.00  0.00     0.051 C 
ATOM     17  C   UNL A   1      34.228  21.799  24.932  1.00  0.00    -0.003 C 
ATOM     18  C   UNL A   1      35.139  22.471  23.861  1.00  0.00     0.015 C 
ATOM     19  C   UNL A   1      32.903  22.586  24.953  1.00  0.00     0.028 C 
ATOM     20  C   UNL A   1      34.883  21.983  26.324  1.00  0.00     0.015 C 
ATOM     21  C   UNL A   1      35.402  23.956  24.190  1.00  0.00    -0.009 C 
ATOM     22  C   UNL A   1      35.094  23.480  26.631  1.00  0.00    -0.009 C 
ATOM     23  C   UNL A   1      36.043  24.070  25.579  1.00  0.00     0.007 C 
ATOM     24  C   UNL A   1      34.078  24.737  24.188  1.00  0.00     0.020 C 
ATOM     25  C   UNL A   1      33.742  24.229  26.586  1.00  0.00     0.020 C 
BRANCH  17  26
ATOM     26  C   UNL A   1      33.977  20.311  24.615  1.00  0.00    -0.042 A 
ATOM     27  C   UNL A   1      33.248  16.091  23.880  1.00  0.00     0.044 C 
ATOM     28  C   UNL A   1      33.485  17.551  24.110  1.00  0.00    -0.051 A 
ATOM     29  C   UNL A   1      34.756  17.988  24.473  1.00  0.00     0.004 A 
ATOM     30  C   UNL A   1      32.463  18.497  23.980  1.00  0.00     0.004 A 
ATOM     31  C   UNL A   1      34.996  19.341  24.712  1.00  0.00     0.004 A 
ATOM     32  C   UNL A   1      32.707  19.857  24.226  1.00  0.00     0.004 A 
ENDBRANCH  17  26
ENDBRANCH   9  16
ENDBRANCH   5   8
ENDBRANCH   3   4
ENDBRANCH   2   3
ENDBRANCH   1   2
BRANCH   1  33
ATOM     33  C   UNL A   1      33.590  30.116  27.307  1.00  0.00     0.116 C 
BRANCH  33  34
ATOM     34  N   UNL A   1      34.030  31.210  28.159  1.00  0.00    -0.352 N 
ATOM     35  C   UNL A   1      35.183  31.281  28.925  1.00  0.00     0.251 C 
ATOM     36  H   UNL A   1      33.437  31.995  28.196  1.00  0.00     0.163 HD
ATOM     37  O   UNL A   1      35.404  32.219  29.679  1.00  0.00    -0.269 OA
BRANCH  35  38
ATOM     38  C   UNL A   1      36.229  30.250  28.708  1.00  0.00     0.039 A 
ATOM     39  C   UNL A   1      36.495  29.385  29.774  1.00  0.00     0.014 A 
ATOM     40  C   UNL A   1      37.089  30.310  27.614  1.00  0.00     0.014 A 
ATOM     41  C   UNL A   1      37.738  28.763  29.854  1.00  0.00     0.010 A 
ATOM     42  C   UNL A   1      38.355  29.764  27.732  1.00  0.00     0.010 A 
ATOM     43  C   UNL A   1      38.702  29.052  28.886  1.00  0.00    -0.014 A 
BRANCH  43  44
ATOM     44  C   UNL A   1      40.121  28.768  29.090  1.00  0.00     0.031 A 
ATOM     45  C   UNL A   1      40.719  27.505  28.621  1.00  0.00     0.074 A 
ATOM     46  C   UNL A   1      40.898  29.656  29.751  1.00  0.00     0.049 A 
ATOM     47  N   UNL A   1      41.759  26.946  29.145  1.00  0.00    -0.248 NA
ATOM     48  C   UNL A   1      40.121  26.716  27.555  1.00  0.00     0.031 C 
ATOM     49  C   UNL A   1      42.350  29.633  29.896  1.00  0.00     0.029 A 
ATOM     50  N   UNL A   1      40.470  30.608  30.671  1.00  0.00    -0.354 N 
ATOM     51  C   UNL A   1      42.142  25.911  28.324  1.00  0.00     0.074 A 
ATOM     52  C   UNL A   1      41.023  25.738  27.429  1.00  0.00     0.031 C 
ATOM     53  C   UNL A   1      42.682  30.310  31.007  1.00  0.00     0.029 A 
ATOM     54  C   UNL A   1      41.448  30.685  31.675  1.00  0.00     0.049 A 
ATOM     55  H   UNL A   1      39.637  31.130  30.626  1.00  0.00     0.167 HD
ATOM     56  C   UNL A   1      43.417  25.429  28.414  1.00  0.00     0.034 A 
ATOM     57  C   UNL A   1      41.141  30.426  32.978  1.00  0.00     0.034 A 
ATOM     58  C   UNL A   1      44.117  25.982  29.584  1.00  0.00     0.049 A 
ATOM     59  C   UNL A   1      41.936  29.279  33.570  1.00  0.00     0.074 A 
ATOM     60  C   UNL A   1      45.114  26.933  29.737  1.00  0.00     0.029 A 
ATOM     61  N   UNL A   1      43.632  25.722  30.865  1.00  0.00    -0.354 N 
ATOM     62  N   UNL A   1      42.617  28.412  32.870  1.00  0.00    -0.248 NA
ATOM     63  C   UNL A   1      42.002  29.005  35.002  1.00  0.00     0.031 C 
ATOM     64  C   UNL A   1      45.185  27.283  31.113  1.00  0.00     0.029 A 
ATOM     65  C   UNL A   1      44.255  26.523  31.804  1.00  0.00     0.049 A 
ATOM     66  H   UNL A   1      42.939  25.056  31.073  1.00  0.00     0.167 HD
ATOM     67  C   UNL A   1      43.181  27.476  33.706  1.00  0.00     0.074 A 
ATOM     68  C   UNL A   1      42.784  27.912  35.034  1.00  0.00     0.031 C 
ATOM     69  C   UNL A   1      43.912  26.423  33.221  1.00  0.00     0.034 A 
BRANCH  56  70
ATOM     70  C   UNL A   1      44.148  24.693  27.291  1.00  0.00     0.023 A 
ATOM     71  C   UNL A   1      45.241  25.325  26.651  1.00  0.00     0.031 A 
ATOM     72  C   UNL A   1      43.792  23.446  26.736  1.00  0.00     0.131 A 
ATOM     73  C   UNL A   1      45.838  24.786  25.489  1.00  0.00     0.055 A 
ATOM     74  C   UNL A   1      44.360  22.926  25.564  1.00  0.00     0.041 A 
ATOM     75  F   UNL A   1      42.914  22.625  27.314  1.00  0.00    -0.206 F 
ATOM     76  C   UNL A   1      45.379  23.603  24.924  1.00  0.00     0.022 A 
BRANCH  73  77
ATOM     77  S   UNL A   1      47.222  25.659  24.705  1.00  0.00     0.124 S 
ATOM     78  O   UNL A   1      46.598  26.907  24.277  1.00  0.00    -0.237 OA
ATOM     79  O   UNL A   1      48.186  25.756  25.795  1.00  0.00    -0.237 OA
ATOM     80  O   UNL A   1      47.614  24.764  23.616  1.00  0.00    -0.744 OA
ENDBRANCH  73  77
ENDBRANCH  56  70
BRANCH  57  81
ATOM     81  C   UNL A   1      39.740  30.797  33.341  1.00  0.00     0.023 A 
ATOM     82  C   UNL A   1      39.445  32.173  33.503  1.00  0.00     0.031 A 
ATOM     83  C   UNL A   1      38.666  29.916  33.166  1.00  0.00     0.131 A 
ATOM     84  C   UNL A   1      38.137  32.645  33.320  1.00  0.00     0.055 A 
ATOM     85  C   UNL A   1      37.350  30.386  33.057  1.00  0.00     0.041 A 
ATOM     86  F   UNL A   1      38.878  28.606  32.973  1.00  0.00    -0.206 F 
ATOM     87  C   UNL A   1      37.087  31.757  33.090  1.00  0.00     0.022 A 
BRANCH  84  88
ATOM     88  S   UNL A   1      37.858  34.431  33.099  1.00  0.00     0.124 S 
ATOM     89  O   UNL A   1      38.370  34.664  31.753  1.00  0.00    -0.237 OA
ATOM     90  O   UNL A   1      36.413  34.569  33.269  1.00  0.00    -0.237 OA
ATOM     91  O   UNL A   1      38.635  35.034  34.179  1.00  0.00    -0.744 OA
ENDBRANCH  84  88
ENDBRANCH  57  81
BRANCH  69  92
ATOM     92  C   UNL A   1      44.454  25.244  34.022  1.00  0.00     0.023 A 
ATOM     93  C   UNL A   1      45.816  24.938  34.160  1.00  0.00     0.031 A 
ATOM     94  C   UNL A   1      43.573  24.395  34.745  1.00  0.00     0.131 A 
ATOM     95  C   UNL A   1      46.251  23.819  34.903  1.00  0.00     0.055 A 
ATOM     96  C   UNL A   1      44.010  23.326  35.537  1.00  0.00     0.041 A 
ATOM     97  F   UNL A   1      42.245  24.571  34.728  1.00  0.00    -0.206 F 
ATOM     98  C   UNL A   1      45.357  23.021  35.608  1.00  0.00     0.022 A 
BRANCH  95  99
ATOM     99  S   UNL A   1      48.017  23.402  34.889  1.00  0.00     0.124 S 
ATOM    100  O   UNL A   1      47.986  21.972  34.596  1.00  0.00    -0.237 OA
ATOM    101  O   UNL A   1      48.533  24.255  33.822  1.00  0.00    -0.237 OA
ATOM    102  O   UNL A   1      48.467  23.751  36.235  1.00  0.00    -0.744 OA
ENDBRANCH  95  99
ENDBRANCH  69  92
ENDBRANCH  43  44
ENDBRANCH  35  38
ENDBRANCH  33  34
ENDBRANCH   1  33
TORSDOF 16
ENDMDL
MODEL 3
REMARK VINA RESULT:     -14.7      1.731      2.048
REMARK SMILES Cc1ccc([C@@]23C[C@@H]4C[C@@H](C[C@@](C(=O)N5CCC(C(=O)NCCCCNC(=O)c6ccc(-c7c8nc(c(-c9cc(S(=O)(=O)[O-])ccc9F)c9ccc([nH]9)c(-c9cc(S(=O)(=O)[O-])ccc9F)c9nc(c(-c%10cc(S(=O)(=O)[O-])ccc%10F)c%10ccc7[nH]%10)C=C9)C=C8)cc6)CC5)(C4)C2)C3)cc1
REMARK SMILES IDX 24 1 23 2 22 3 21 4 19 5 20 6 18 8 13 9 14 10 15 11 16 12
REMARK SMILES IDX 93 13 17 14 92 15 12 16 6 17 7 18 95 19 96 20 8 21 10 22
REMARK SMILES IDX 9 23 94 24 11 25 5 26 1 27 2 28 3 29 98 30 4 31 97 32 25 33
REMARK SMILES IDX 26 34 27 35 28 37 29 38 30 39 91 40 31 41 90 42 32 43 33 44
REMARK SMILES IDX 34 45 84 46 35 47 89 48 83 49 85 50 36 51 88 52 82 53 81 54
REMARK SMILES IDX 37 56 69 57 49 58 68 59 50 60 53 61 67 62 86 63 51 64 52 65
REMARK SMILES IDX 66 67 87 68 54 69 38 70 39 71 47 72 40 73 46 74 48 75 45 76
REMARK SMILES IDX 41 77 42 78 43 79 44 80 70 81 71 82 79 83 72 84 78 85 80 86
REMARK SMILES IDX 77 87 73 88 74 89 75 90 76 91 55 92 56 93 64 94 57 95 63 96
REMARK SMILES IDX 65 97 62 98 58 99 59 100 60 101 61 102
REMARK H PARENT 21 7 26 36 85 55 53 66
REMARK Flexibility Score: inf
ROOT
ATOM      1  C   UNL A   1      32.465  30.838  26.843  1.00  0.00     0.023 C 
ENDROOT
BRANCH   1   2
ATOM      2  C   UNL A   1      31.650  29.720  26.197  1.00  0.00     0.023 C 
BRANCH   2   3
ATOM      3  C   UNL A   1      32.253  29.114  24.921  1.00  0.00     0.116 C 
BRANCH   3   4
ATOM      4  N   UNL A   1      31.610  29.616  23.705  1.00  0.00    -0.356 N 
ATOM      5  C   UNL A   1      30.895  28.981  22.735  1.00  0.00     0.223 C 
ATOM      6  O   UNL A   1      30.479  29.651  21.785  1.00  0.00    -0.275 OA
ATOM      7  H   UNL A   1      31.711  30.585  23.563  1.00  0.00     0.163 HD
BRANCH   5   8
ATOM      8  C   UNL A   1      30.623  27.485  22.786  1.00  0.00     0.082 C 
ATOM      9  C   UNL A   1      32.017  24.652  25.331  1.00  0.00     0.228 C 
ATOM     10  O   UNL A   1      31.456  24.638  26.432  1.00  0.00    -0.274 OA
ATOM     11  N   UNL A   1      31.321  25.100  24.203  1.00  0.00    -0.342 N 
ATOM     12  C   UNL A   1      29.963  25.601  24.383  1.00  0.00     0.120 C 
ATOM     13  C   UNL A   1      31.780  25.230  22.824  1.00  0.00     0.120 C 
ATOM     14  C   UNL A   1      29.895  27.091  24.083  1.00  0.00     0.035 C 
ATOM     15  C   UNL A   1      31.893  26.695  22.450  1.00  0.00     0.035 C 
BRANCH   9  16
ATOM     16  C   UNL A   1      33.411  23.990  25.185  1.00  0.00     0.051 C 
ATOM     17  C   UNL A   1      34.439  21.637  24.941  1.00  0.00    -0.003 C 
ATOM     18  C   UNL A   1      35.204  22.199  23.706  1.00  0.00     0.015 C 
ATOM     19  C   UNL A   1      33.156  22.476  25.097  1.00  0.00     0.028 C 
ATOM     20  C   UNL A   1      35.296  21.885  26.209  1.00  0.00     0.015 C 
ATOM     21  C   UNL A   1      35.556  23.691  23.887  1.00  0.00    -0.009 C 
ATOM     22  C   UNL A   1      35.595  23.390  26.375  1.00  0.00    -0.009 C 
ATOM     23  C   UNL A   1      36.396  23.870  25.157  1.00  0.00     0.007 C 
ATOM     24  C   UNL A   1      34.270  24.522  24.020  1.00  0.00     0.020 C 
ATOM     25  C   UNL A   1      34.274  24.188  26.471  1.00  0.00     0.020 C 
BRANCH  17  26
ATOM     26  C   UNL A   1      34.100  20.141  24.771  1.00  0.00    -0.042 A 
ATOM     27  C   UNL A   1      33.170  15.910  24.448  1.00  0.00     0.044 C 
ATOM     28  C   UNL A   1      33.470  17.374  24.541  1.00  0.00    -0.051 A 
ATOM     29  C   UNL A   1      34.793  17.804  24.494  1.00  0.00     0.004 A 
ATOM     30  C   UNL A   1      32.459  18.329  24.683  1.00  0.00     0.004 A 
ATOM     31  C   UNL A   1      35.098  19.161  24.599  1.00  0.00     0.004 A 
ATOM     32  C   UNL A   1      32.770  19.693  24.793  1.00  0.00     0.004 A 
ENDBRANCH  17  26
ENDBRANCH   9  16
ENDBRANCH   5   8
ENDBRANCH   3   4
ENDBRANCH   2   3
ENDBRANCH   1   2
BRANCH   1  33
ATOM     33  C   UNL A   1      33.821  30.397  27.378  1.00  0.00     0.116 C 
BRANCH  33  34
ATOM     34  N   UNL A   1      34.468  31.344  28.274  1.00  0.00    -0.352 N 
ATOM     35  C   UNL A   1      35.661  31.184  28.963  1.00  0.00     0.251 C 
ATOM     36  H   UNL A   1      34.002  32.200  28.408  1.00  0.00     0.163 HD
ATOM     37  O   UNL A   1      36.062  32.016  29.765  1.00  0.00    -0.269 OA
BRANCH  35  38
ATOM     38  C   UNL A   1      36.526  30.033  28.601  1.00  0.00     0.039 A 
ATOM     39  C   UNL A   1      36.958  29.213  29.648  1.00  0.00     0.014 A 
ATOM     40  C   UNL A   1      37.103  29.931  27.337  1.00  0.00     0.014 A 
ATOM     41  C   UNL A   1      38.122  28.465  29.493  1.00  0.00     0.010 A 
ATOM     42  C   UNL A   1      38.305  29.259  27.208  1.00  0.00     0.010 A 
ATOM     43  C   UNL A   1      38.851  28.586  28.308  1.00  0.00    -0.014 A 
BRANCH  43  44
ATOM     44  C   UNL A   1      40.245  28.163  28.204  1.00  0.00     0.031 A 
ATOM     45  C   UNL A   1      40.596  26.744  28.010  1.00  0.00     0.074 A 
ATOM     46  C   UNL A   1      41.237  29.074  28.323  1.00  0.00     0.049 A 
ATOM     47  N   UNL A   1      41.709  26.206  28.385  1.00  0.00    -0.248 NA
ATOM     48  C   UNL A   1      39.660  25.786  27.443  1.00  0.00     0.031 C 
ATOM     49  C   UNL A   1      42.662  28.877  28.075  1.00  0.00     0.029 A 
ATOM     50  N   UNL A   1      41.164  30.298  28.980  1.00  0.00    -0.354 N 
ATOM     51  C   UNL A   1      41.765  24.937  27.856  1.00  0.00     0.074 A 
ATOM     52  C   UNL A   1      40.421  24.689  27.392  1.00  0.00     0.031 C 
ATOM     53  C   UNL A   1      43.352  29.780  28.789  1.00  0.00     0.029 A 
ATOM     54  C   UNL A   1      42.401  30.506  29.611  1.00  0.00     0.049 A 
ATOM     55  H   UNL A   1      40.389  30.905  28.998  1.00  0.00     0.167 HD
ATOM     56  C   UNL A   1      42.977  24.315  27.748  1.00  0.00     0.034 A 
ATOM     57  C   UNL A   1      42.483  30.672  30.962  1.00  0.00     0.034 A 
ATOM     58  C   UNL A   1      44.027  25.063  28.457  1.00  0.00     0.049 A 
ATOM     59  C   UNL A   1      43.346  29.631  31.647  1.00  0.00     0.074 A 
ATOM     60  C   UNL A   1      45.080  25.858  28.034  1.00  0.00     0.029 A 
ATOM     61  N   UNL A   1      43.933  25.247  29.835  1.00  0.00    -0.354 N 
ATOM     62  N   UNL A   1      43.732  28.512  31.097  1.00  0.00    -0.248 NA
ATOM     63  C   UNL A   1      43.821  29.763  33.021  1.00  0.00     0.031 C 
ATOM     64  C   UNL A   1      45.581  26.565  29.161  1.00  0.00     0.029 A 
ATOM     65  C   UNL A   1      44.856  26.178  30.275  1.00  0.00     0.049 A 
ATOM     66  H   UNL A   1      43.294  24.777  30.418  1.00  0.00     0.167 HD
ATOM     67  C   UNL A   1      44.461  27.774  32.000  1.00  0.00     0.074 A 
ATOM     68  C   UNL A   1      44.508  28.619  33.181  1.00  0.00     0.031 C 
ATOM     69  C   UNL A   1      44.948  26.531  31.691  1.00  0.00     0.034 A 
BRANCH  56  70
ATOM     70  C   UNL A   1      43.291  23.193  26.758  1.00  0.00     0.023 A 
ATOM     71  C   UNL A   1      42.723  21.913  26.965  1.00  0.00     0.031 A 
ATOM     72  C   UNL A   1      44.185  23.263  25.669  1.00  0.00     0.131 A 
ATOM     73  C   UNL A   1      43.116  20.791  26.203  1.00  0.00     0.055 A 
ATOM     74  C   UNL A   1      44.602  22.144  24.934  1.00  0.00     0.041 A 
ATOM     75  F   UNL A   1      44.673  24.416  25.210  1.00  0.00    -0.206 F 
ATOM     76  C   UNL A   1      44.080  20.896  25.208  1.00  0.00     0.022 A 
BRANCH  73  77
ATOM     77  S   UNL A   1      42.365  19.174  26.536  1.00  0.00     0.124 S 
ATOM     78  O   UNL A   1      42.049  19.265  27.957  1.00  0.00    -0.237 OA
ATOM     79  O   UNL A   1      41.232  19.162  25.618  1.00  0.00    -0.237 OA
ATOM     80  O   UNL A   1      43.433  18.229  26.204  1.00  0.00    -0.744 OA
ENDBRANCH  73  77
ENDBRANCH  56  70
BRANCH  57  81
ATOM     81  C   UNL A   1      41.279  31.335  31.551  1.00  0.00     0.023 A 
ATOM     82  C   UNL A   1      40.166  30.518  31.862  1.00  0.00     0.031 A 
ATOM     83  C   UNL A   1      41.340  32.607  32.134  1.00  0.00     0.131 A 
ATOM     84  C   UNL A   1      39.251  30.910  32.851  1.00  0.00     0.055 A 
ATOM     85  C   UNL A   1      40.382  33.023  33.069  1.00  0.00     0.041 A 
ATOM     86  F   UNL A   1      42.385  33.416  31.909  1.00  0.00    -0.206 F 
ATOM     87  C   UNL A   1      39.359  32.158  33.463  1.00  0.00     0.022 A 
BRANCH  84  88
ATOM     88  S   UNL A   1      38.099  29.678  33.537  1.00  0.00     0.124 S 
ATOM     89  O   UNL A   1      38.716  28.417  33.141  1.00  0.00    -0.237 OA
ATOM     90  O   UNL A   1      38.104  29.973  34.968  1.00  0.00    -0.237 OA
ATOM     91  O   UNL A   1      36.832  29.991  32.879  1.00  0.00    -0.744 OA
ENDBRANCH  84  88
ENDBRANCH  57  81
BRANCH  69  92
ATOM     92  C   UNL A   1      45.631  25.556  32.644  1.00  0.00     0.023 A 
ATOM     93  C   UNL A   1      44.964  24.555  33.367  1.00  0.00     0.031 A 
ATOM     94  C   UNL A   1      47.042  25.574  32.809  1.00  0.00     0.131 A 
ATOM     95  C   UNL A   1      45.654  23.695  34.247  1.00  0.00     0.055 A 
ATOM     96  C   UNL A   1      47.734  24.676  33.631  1.00  0.00     0.041 A 
ATOM     97  F   UNL A   1      47.820  26.459  32.170  1.00  0.00    -0.206 F 
ATOM     98  C   UNL A   1      47.039  23.737  34.371  1.00  0.00     0.022 A 
BRANCH  95  99
ATOM     99  S   UNL A   1      44.690  22.544  35.268  1.00  0.00     0.124 S 
ATOM    100  O   UNL A   1      43.339  23.079  35.131  1.00  0.00    -0.237 OA
ATOM    101  O   UNL A   1      44.934  21.264  34.612  1.00  0.00    -0.237 OA
ATOM    102  O   UNL A   1      45.281  22.683  36.598  1.00  0.00    -0.744 OA
ENDBRANCH  95  99
ENDBRANCH  69  92
ENDBRANCH  43  44
ENDBRANCH  35  38
ENDBRANCH  33  34
ENDBRANCH   1  33
TORSDOF 16
ENDMDL
