MODEL 1
REMARK VINA RESULT:     -12.5      0.000      0.000
REMARK SMILES CC(C)Cc1cc2c(cc1Cl)C=C(C(=O)NCCCCNC(=O)c1ccc(-c3c4nc(c(-c5cc(S(=O)(=O)[O-])ccc5F)c5ccc([nH]5)c(-c5cc(S(=O)(=O)[O-])ccc5F)c5nc(c(-c6cc(S(=O)(=O)[O-])ccc6F)c6ccc3[nH]6)C=C5)C=C4)cc1)[C@H](C(F)(F)F)O2
REMARK SMILES IDX 19 1 18 2 17 3 16 4 14 5 15 6 13 8 5 9 6 10 10 11 7 12 9 13
REMARK SMILES IDX 11 14 8 15 92 16 12 17 87 18 4 19 2 20 1 21 3 22 88 23 89 24
REMARK SMILES IDX 90 25 91 26 20 27 21 28 22 29 23 31 24 32 25 33 86 34 26 35
REMARK SMILES IDX 85 36 27 37 28 38 29 39 79 40 30 41 84 42 78 43 80 44 31 45
REMARK SMILES IDX 83 46 77 47 76 48 32 50 64 51 44 52 63 53 45 54 48 55 62 56
REMARK SMILES IDX 81 57 46 58 47 59 61 61 82 62 49 63 33 64 34 65 42 66 35 67
REMARK SMILES IDX 41 68 43 69 40 70 36 71 37 72 38 73 39 74 65 75 66 76 74 77
REMARK SMILES IDX 67 78 73 79 75 80 72 81 68 82 69 83 70 84 71 85 50 86 51 87
REMARK SMILES IDX 59 88 52 89 58 90 60 91 57 92 53 93 54 94 55 95 56 96
REMARK H PARENT 16 7 21 30 80 49 48 60
REMARK Flexibility Score: inf
ROOT
ATOM      1  C   UNL A   1      31.380  31.266  26.656  1.00  0.00     0.023 C 
ENDROOT
BRANCH   1   2
ATOM      2  C   UNL A   1      31.839  29.810  26.711  1.00  0.00     0.023 C 
BRANCH   2   3
ATOM      3  C   UNL A   1      31.660  29.035  25.409  1.00  0.00     0.116 C 
BRANCH   3   4
ATOM      4  N   UNL A   1      32.775  29.233  24.501  1.00  0.00    -0.352 N 
ATOM      5  C   UNL A   1      33.594  28.463  23.751  1.00  0.00     0.251 C 
ATOM      6  O   UNL A   1      34.418  29.088  23.074  1.00  0.00    -0.270 OA
ATOM      7  H   UNL A   1      32.993  30.188  24.404  1.00  0.00     0.163 HD
BRANCH   5   8
ATOM      8  C   UNL A   1      33.569  26.972  23.674  1.00  0.00     0.067 C 
ATOM      9  C   UNL A   1      33.986  22.065  24.812  1.00  0.00    -0.025 A 
ATOM     10  C   UNL A   1      33.991  22.806  23.617  1.00  0.00     0.052 A 
ATOM     11  C   UNL A   1      33.851  22.760  26.027  1.00  0.00     0.045 A 
ATOM     12  C   UNL A   1      33.876  24.192  23.643  1.00  0.00     0.128 A 
ATOM     13  C   UNL A   1      33.773  24.158  26.046  1.00  0.00     0.032 A 
ATOM     14  Cl  UNL A   1      33.797  21.945  27.550  1.00  0.00    -0.084 Cl
ATOM     15  C   UNL A   1      33.797  24.877  24.853  1.00  0.00     0.019 A 
ATOM     16  O   UNL A   1      33.887  24.839  22.439  1.00  0.00    -0.475 OA
ATOM     17  C   UNL A   1      33.803  26.334  24.838  1.00  0.00     0.025 C 
ATOM     18  C   UNL A   1      33.260  26.157  22.448  1.00  0.00     0.314 C 
BRANCH   9  19
ATOM     19  C   UNL A   1      34.178  20.568  24.720  1.00  0.00     0.040 C 
BRANCH  19  20
ATOM     20  C   UNL A   1      32.845  19.789  24.700  1.00  0.00    -0.013 C 
ATOM     21  C   UNL A   1      32.525  19.212  23.319  1.00  0.00     0.008 C 
ATOM     22  C   UNL A   1      32.886  18.660  25.731  1.00  0.00     0.008 C 
ENDBRANCH  19  20
ENDBRANCH   9  19
BRANCH  18  23
ATOM     23  C   UNL A   1      31.749  26.035  22.164  1.00  0.00     0.429 C 
ATOM     24  F   UNL A   1      31.431  26.352  20.888  1.00  0.00    -0.167 F 
ATOM     25  F   UNL A   1      31.334  24.761  22.374  1.00  0.00    -0.167 F 
ATOM     26  F   UNL A   1      30.998  26.832  22.958  1.00  0.00    -0.167 F 
ENDBRANCH  18  23
ENDBRANCH   5   8
ENDBRANCH   3   4
ENDBRANCH   2   3
ENDBRANCH   1   2
BRANCH   1  27
ATOM     27  C   UNL A   1      32.494  32.289  26.484  1.00  0.00     0.116 C 
BRANCH  27  28
ATOM     28  N   UNL A   1      32.313  33.505  27.265  1.00  0.00    -0.352 N 
ATOM     29  C   UNL A   1      33.168  34.013  28.220  1.00  0.00     0.251 C 
ATOM     30  H   UNL A   1      31.492  34.020  27.094  1.00  0.00     0.163 HD
ATOM     31  O   UNL A   1      32.883  35.023  28.854  1.00  0.00    -0.269 OA
BRANCH  29  32
ATOM     32  C   UNL A   1      34.408  33.261  28.491  1.00  0.00     0.039 A 
ATOM     33  C   UNL A   1      34.325  31.926  28.893  1.00  0.00     0.014 A 
ATOM     34  C   UNL A   1      35.622  33.948  28.517  1.00  0.00     0.014 A 
ATOM     35  C   UNL A   1      35.426  31.333  29.491  1.00  0.00     0.010 A 
ATOM     36  C   UNL A   1      36.749  33.318  29.045  1.00  0.00     0.010 A 
ATOM     37  C   UNL A   1      36.644  32.028  29.590  1.00  0.00    -0.014 A 
BRANCH  37  38
ATOM     38  C   UNL A   1      37.794  31.389  30.276  1.00  0.00     0.031 A 
ATOM     39  C   UNL A   1      38.112  31.710  31.711  1.00  0.00     0.074 A 
ATOM     40  C   UNL A   1      38.514  30.467  29.609  1.00  0.00     0.049 A 
ATOM     41  N   UNL A   1      39.073  31.240  32.462  1.00  0.00    -0.248 NA
ATOM     42  C   UNL A   1      37.241  32.680  32.392  1.00  0.00     0.031 C 
ATOM     43  C   UNL A   1      38.267  30.063  28.226  1.00  0.00     0.029 A 
ATOM     44  N   UNL A   1      39.570  29.687  30.003  1.00  0.00    -0.354 N 
ATOM     45  C   UNL A   1      38.938  31.868  33.695  1.00  0.00     0.074 A 
ATOM     46  C   UNL A   1      37.814  32.772  33.585  1.00  0.00     0.031 C 
ATOM     47  C   UNL A   1      39.105  29.070  27.903  1.00  0.00     0.029 A 
ATOM     48  C   UNL A   1      40.004  28.821  29.027  1.00  0.00     0.049 A 
ATOM     49  H   UNL A   1      39.978  29.741  30.897  1.00  0.00     0.167 HD
ATOM     50  C   UNL A   1      39.678  31.694  34.816  1.00  0.00     0.034 A 
ATOM     51  C   UNL A   1      41.024  27.940  29.024  1.00  0.00     0.034 A 
ATOM     52  C   UNL A   1      40.777  30.768  34.914  1.00  0.00     0.049 A 
ATOM     53  C   UNL A   1      41.866  27.807  30.263  1.00  0.00     0.074 A 
ATOM     54  C   UNL A   1      41.568  30.495  36.015  1.00  0.00     0.029 A 
ATOM     55  N   UNL A   1      41.237  29.963  33.882  1.00  0.00    -0.354 N 
ATOM     56  N   UNL A   1      41.716  28.399  31.425  1.00  0.00    -0.248 NA
ATOM     57  C   UNL A   1      43.024  26.906  30.193  1.00  0.00     0.031 C 
ATOM     58  C   UNL A   1      42.534  29.559  35.637  1.00  0.00     0.029 A 
ATOM     59  C   UNL A   1      42.319  29.214  34.313  1.00  0.00     0.049 A 
ATOM     60  H   UNL A   1      40.851  29.930  32.976  1.00  0.00     0.167 HD
ATOM     61  C   UNL A   1      42.760  27.945  32.224  1.00  0.00     0.074 A 
ATOM     62  C   UNL A   1      43.516  27.004  31.422  1.00  0.00     0.031 C 
ATOM     63  C   UNL A   1      43.067  28.285  33.500  1.00  0.00     0.034 A 
BRANCH  50  64
ATOM     64  C   UNL A   1      39.336  32.503  36.039  1.00  0.00     0.023 A 
ATOM     65  C   UNL A   1      38.474  31.974  37.017  1.00  0.00     0.031 A 
ATOM     66  C   UNL A   1      39.765  33.835  36.177  1.00  0.00     0.131 A 
ATOM     67  C   UNL A   1      38.048  32.782  38.080  1.00  0.00     0.055 A 
ATOM     68  C   UNL A   1      39.358  34.628  37.251  1.00  0.00     0.041 A 
ATOM     69  F   UNL A   1      40.591  34.382  35.271  1.00  0.00    -0.206 F 
ATOM     70  C   UNL A   1      38.488  34.105  38.203  1.00  0.00     0.022 A 
BRANCH  67  71
ATOM     71  S   UNL A   1      36.874  32.166  39.317  1.00  0.00     0.124 S 
ATOM     72  O   UNL A   1      37.031  30.719  39.183  1.00  0.00    -0.237 OA
ATOM     73  O   UNL A   1      37.401  32.738  40.553  1.00  0.00    -0.237 OA
ATOM     74  O   UNL A   1      35.588  32.694  38.874  1.00  0.00    -0.744 OA
ENDBRANCH  67  71
ENDBRANCH  50  64
BRANCH  51  75
ATOM     75  C   UNL A   1      41.257  27.114  27.806  1.00  0.00     0.023 A 
ATOM     76  C   UNL A   1      40.900  25.753  27.779  1.00  0.00     0.031 A 
ATOM     77  C   UNL A   1      41.977  27.632  26.717  1.00  0.00     0.131 A 
ATOM     78  C   UNL A   1      41.347  24.936  26.734  1.00  0.00     0.055 A 
ATOM     79  C   UNL A   1      42.354  26.828  25.639  1.00  0.00     0.041 A 
ATOM     80  F   UNL A   1      42.347  28.921  26.703  1.00  0.00    -0.206 F 
ATOM     81  C   UNL A   1      42.061  25.468  25.656  1.00  0.00     0.022 A 
BRANCH  78  82
ATOM     82  S   UNL A   1      41.167  23.132  26.829  1.00  0.00     0.124 S 
ATOM     83  O   UNL A   1      41.681  22.847  28.164  1.00  0.00    -0.237 OA
ATOM     84  O   UNL A   1      39.725  22.965  26.658  1.00  0.00    -0.237 OA
ATOM     85  O   UNL A   1      41.980  22.646  25.718  1.00  0.00    -0.744 OA
ENDBRANCH  78  82
ENDBRANCH  51  75
BRANCH  63  86
ATOM     86  C   UNL A   1      44.292  27.670  34.125  1.00  0.00     0.023 A 
ATOM     87  C   UNL A   1      44.185  26.487  34.879  1.00  0.00     0.031 A 
ATOM     88  C   UNL A   1      45.528  28.337  34.093  1.00  0.00     0.131 A 
ATOM     89  C   UNL A   1      45.290  26.029  35.607  1.00  0.00     0.055 A 
ATOM     90  C   UNL A   1      46.636  27.856  34.790  1.00  0.00     0.041 A 
ATOM     91  F   UNL A   1      45.671  29.472  33.389  1.00  0.00    -0.206 F 
ATOM     92  C   UNL A   1      46.515  26.703  35.562  1.00  0.00     0.022 A 
BRANCH  89  93
ATOM     93  S   UNL A   1      45.160  24.582  36.691  1.00  0.00     0.124 S 
ATOM     94  O   UNL A   1      46.526  24.456  37.193  1.00  0.00    -0.237 OA
ATOM     95  O   UNL A   1      44.173  25.021  37.673  1.00  0.00    -0.237 OA
ATOM     96  O   UNL A   1      44.727  23.511  35.799  1.00  0.00    -0.744 OA
ENDBRANCH  89  93
ENDBRANCH  63  86
ENDBRANCH  37  38
ENDBRANCH  29  32
ENDBRANCH  27  28
ENDBRANCH   1  27
TORSDOF 17
ENDMDL
MODEL 2
REMARK VINA RESULT:     -12.3      2.245      7.882
REMARK SMILES CC(C)Cc1cc2c(cc1Cl)C=C(C(=O)NCCCCNC(=O)c1ccc(-c3c4nc(c(-c5cc(S(=O)(=O)[O-])ccc5F)c5ccc([nH]5)c(-c5cc(S(=O)(=O)[O-])ccc5F)c5nc(c(-c6cc(S(=O)(=O)[O-])ccc6F)c6ccc3[nH]6)C=C5)C=C4)cc1)[C@H](C(F)(F)F)O2
REMARK SMILES IDX 19 1 18 2 17 3 16 4 14 5 15 6 13 8 5 9 6 10 10 11 7 12 9 13
REMARK SMILES IDX 11 14 8 15 92 16 12 17 87 18 4 19 2 20 1 21 3 22 88 23 89 24
REMARK SMILES IDX 90 25 91 26 20 27 21 28 22 29 23 31 24 32 25 33 86 34 26 35
REMARK SMILES IDX 85 36 27 37 28 38 29 39 79 40 30 41 84 42 78 43 80 44 31 45
REMARK SMILES IDX 83 46 77 47 76 48 32 50 64 51 44 52 63 53 45 54 48 55 62 56
REMARK SMILES IDX 81 57 46 58 47 59 61 61 82 62 49 63 33 64 34 65 42 66 35 67
REMARK SMILES IDX 41 68 43 69 40 70 36 71 37 72 38 73 39 74 65 75 66 76 74 77
REMARK SMILES IDX 67 78 73 79 75 80 72 81 68 82 69 83 70 84 71 85 50 86 51 87
REMARK SMILES IDX 59 88 52 89 58 90 60 91 57 92 53 93 54 94 55 95 56 96
REMARK H PARENT 16 7 21 30 80 49 48 60
REMARK Flexibility Score: inf
ROOT
ATOM      1  C   UNL A   1      31.708  28.595  26.027  1.00  0.00     0.023 C 
ENDROOT
BRANCH   1   2
ATOM      2  C   UNL A   1      32.192  27.155  26.191  1.00  0.00     0.023 C 
BRANCH   2   3
ATOM      3  C   UNL A   1      33.614  26.900  25.700  1.00  0.00     0.116 C 
BRANCH   3   4
ATOM      4  N   UNL A   1      33.645  26.516  24.301  1.00  0.00    -0.352 N 
ATOM      5  C   UNL A   1      33.648  25.369  23.585  1.00  0.00     0.251 C 
ATOM      6  O   UNL A   1      33.645  25.522  22.359  1.00  0.00    -0.270 OA
ATOM      7  H   UNL A   1      33.671  27.305  23.713  1.00  0.00     0.163 HD
BRANCH   5   8
ATOM      8  C   UNL A   1      33.642  23.985  24.147  1.00  0.00     0.067 C 
ATOM      9  C   UNL A   1      32.738  19.066  24.869  1.00  0.00    -0.025 A 
ATOM     10  C   UNL A   1      33.108  20.134  25.704  1.00  0.00     0.052 A 
ATOM     11  C   UNL A   1      32.537  19.325  23.502  1.00  0.00     0.045 A 
ATOM     12  C   UNL A   1      33.260  21.417  25.186  1.00  0.00     0.128 A 
ATOM     13  C   UNL A   1      32.655  20.625  22.996  1.00  0.00     0.032 A 
ATOM     14  Cl  UNL A   1      32.116  18.078  22.382  1.00  0.00    -0.084 Cl
ATOM     15  C   UNL A   1      33.006  21.677  23.842  1.00  0.00     0.019 A 
ATOM     16  O   UNL A   1      33.623  22.401  26.061  1.00  0.00    -0.475 OA
ATOM     17  C   UNL A   1      33.056  23.054  23.369  1.00  0.00     0.025 C 
ATOM     18  C   UNL A   1      34.266  23.559  25.447  1.00  0.00     0.314 C 
BRANCH   9  19
ATOM     19  C   UNL A   1      32.528  17.709  25.504  1.00  0.00     0.040 C 
BRANCH  19  20
ATOM     20  C   UNL A   1      33.279  16.578  24.770  1.00  0.00    -0.013 C 
ATOM     21  C   UNL A   1      34.799  16.756  24.818  1.00  0.00     0.008 C 
ATOM     22  C   UNL A   1      32.904  15.224  25.376  1.00  0.00     0.008 C 
ENDBRANCH  19  20
ENDBRANCH   9  19
BRANCH  18  23
ATOM     23  C   UNL A   1      35.789  23.337  25.347  1.00  0.00     0.429 C 
ATOM     24  F   UNL A   1      36.194  23.056  24.088  1.00  0.00    -0.167 F 
ATOM     25  F   UNL A   1      36.453  24.453  25.740  1.00  0.00    -0.167 F 
ATOM     26  F   UNL A   1      36.226  22.322  26.127  1.00  0.00    -0.167 F 
ENDBRANCH  18  23
ENDBRANCH   5   8
ENDBRANCH   3   4
ENDBRANCH   2   3
ENDBRANCH   1   2
BRANCH   1  27
ATOM     27  C   UNL A   1      32.809  29.639  25.922  1.00  0.00     0.116 C 
BRANCH  27  28
ATOM     28  N   UNL A   1      32.432  30.955  26.420  1.00  0.00    -0.352 N 
ATOM     29  C   UNL A   1      33.177  31.777  27.238  1.00  0.00     0.251 C 
ATOM     30  H   UNL A   1      31.551  31.295  26.143  1.00  0.00     0.163 HD
ATOM     31  O   UNL A   1      32.731  32.847  27.637  1.00  0.00    -0.269 OA
BRANCH  29  32
ATOM     32  C   UNL A   1      34.504  31.292  27.663  1.00  0.00     0.039 A 
ATOM     33  C   UNL A   1      34.675  29.938  27.959  1.00  0.00     0.014 A 
ATOM     34  C   UNL A   1      35.508  32.223  27.935  1.00  0.00     0.014 A 
ATOM     35  C   UNL A   1      35.784  29.544  28.692  1.00  0.00     0.010 A 
ATOM     36  C   UNL A   1      36.660  31.805  28.603  1.00  0.00     0.010 A 
ATOM     37  C   UNL A   1      36.778  30.475  29.038  1.00  0.00    -0.014 A 
BRANCH  37  38
ATOM     38  C   UNL A   1      37.931  30.039  29.863  1.00  0.00     0.031 A 
ATOM     39  C   UNL A   1      38.977  29.115  29.301  1.00  0.00     0.074 A 
ATOM     40  C   UNL A   1      38.059  30.533  31.109  1.00  0.00     0.049 A 
ATOM     41  N   UNL A   1      40.048  28.640  29.881  1.00  0.00    -0.248 NA
ATOM     42  C   UNL A   1      38.802  28.667  27.910  1.00  0.00     0.031 C 
ATOM     43  C   UNL A   1      37.115  31.459  31.734  1.00  0.00     0.029 A 
ATOM     44  N   UNL A   1      39.033  30.357  32.055  1.00  0.00    -0.354 N 
ATOM     45  C   UNL A   1      40.664  27.824  28.939  1.00  0.00     0.074 A 
ATOM     46  C   UNL A   1      39.835  27.849  27.754  1.00  0.00     0.031 C 
ATOM     47  C   UNL A   1      37.585  31.818  32.936  1.00  0.00     0.029 A 
ATOM     48  C   UNL A   1      38.820  31.085  33.203  1.00  0.00     0.049 A 
ATOM     49  H   UNL A   1      39.811  29.768  31.928  1.00  0.00     0.167 HD
ATOM     50  C   UNL A   1      41.822  27.130  29.053  1.00  0.00     0.034 A 
ATOM     51  C   UNL A   1      39.524  31.143  34.350  1.00  0.00     0.034 A 
ATOM     52  C   UNL A   1      42.649  27.140  30.233  1.00  0.00     0.049 A 
ATOM     53  C   UNL A   1      40.776  30.319  34.472  1.00  0.00     0.074 A 
ATOM     54  C   UNL A   1      43.856  26.496  30.434  1.00  0.00     0.029 A 
ATOM     55  N   UNL A   1      42.362  27.828  31.402  1.00  0.00    -0.354 N 
ATOM     56  N   UNL A   1      41.352  29.563  33.567  1.00  0.00    -0.248 NA
ATOM     57  C   UNL A   1      41.467  30.336  35.768  1.00  0.00     0.031 C 
ATOM     58  C   UNL A   1      44.277  26.758  31.740  1.00  0.00     0.029 A 
ATOM     59  C   UNL A   1      43.355  27.601  32.340  1.00  0.00     0.049 A 
ATOM     60  H   UNL A   1      41.569  28.394  31.546  1.00  0.00     0.167 HD
ATOM     61  C   UNL A   1      42.470  29.012  34.182  1.00  0.00     0.074 A 
ATOM     62  C   UNL A   1      42.508  29.548  35.528  1.00  0.00     0.031 C 
ATOM     63  C   UNL A   1      43.376  28.136  33.680  1.00  0.00     0.034 A 
BRANCH  50  64
ATOM     64  C   UNL A   1      42.286  26.304  27.882  1.00  0.00     0.023 A 
ATOM     65  C   UNL A   1      41.860  24.970  27.747  1.00  0.00     0.031 A 
ATOM     66  C   UNL A   1      43.239  26.796  26.973  1.00  0.00     0.131 A 
ATOM     67  C   UNL A   1      42.404  24.165  26.738  1.00  0.00     0.055 A 
ATOM     68  C   UNL A   1      43.759  25.998  25.954  1.00  0.00     0.041 A 
ATOM     69  F   UNL A   1      43.672  28.064  27.061  1.00  0.00    -0.206 F 
ATOM     70  C   UNL A   1      43.349  24.672  25.839  1.00  0.00     0.022 A 
BRANCH  67  71
ATOM     71  S   UNL A   1      41.944  22.418  26.578  1.00  0.00     0.124 S 
ATOM     72  O   UNL A   1      40.492  22.505  26.430  1.00  0.00    -0.237 OA
ATOM     73  O   UNL A   1      42.670  22.018  25.376  1.00  0.00    -0.237 OA
ATOM     74  O   UNL A   1      42.405  21.818  27.825  1.00  0.00    -0.744 OA
ENDBRANCH  67  71
ENDBRANCH  50  64
BRANCH  51  75
ATOM     75  C   UNL A   1      39.050  32.043  35.440  1.00  0.00     0.023 A 
ATOM     76  C   UNL A   1      39.476  33.384  35.503  1.00  0.00     0.031 A 
ATOM     77  C   UNL A   1      38.296  31.536  36.510  1.00  0.00     0.131 A 
ATOM     78  C   UNL A   1      39.227  34.140  36.655  1.00  0.00     0.055 A 
ATOM     79  C   UNL A   1      37.985  32.319  37.623  1.00  0.00     0.041 A 
ATOM     80  F   UNL A   1      37.877  30.262  36.497  1.00  0.00    -0.206 F 
ATOM     81  C   UNL A   1      38.473  33.620  37.711  1.00  0.00     0.022 A 
BRANCH  78  82
ATOM     82  S   UNL A   1      40.023  35.754  36.891  1.00  0.00     0.124 S 
ATOM     83  O   UNL A   1      41.430  35.383  37.007  1.00  0.00    -0.237 OA
ATOM     84  O   UNL A   1      39.653  36.453  35.662  1.00  0.00    -0.237 OA
ATOM     85  O   UNL A   1      39.400  36.270  38.106  1.00  0.00    -0.744 OA
ENDBRANCH  78  82
ENDBRANCH  51  75
BRANCH  63  86
ATOM     86  C   UNL A   1      44.482  27.660  34.585  1.00  0.00     0.023 A 
ATOM     87  C   UNL A   1      44.370  26.429  35.256  1.00  0.00     0.031 A 
ATOM     88  C   UNL A   1      45.570  28.496  34.893  1.00  0.00     0.131 A 
ATOM     89  C   UNL A   1      45.311  26.085  36.234  1.00  0.00     0.055 A 
ATOM     90  C   UNL A   1      46.525  28.132  35.841  1.00  0.00     0.041 A 
ATOM     91  F   UNL A   1      45.711  29.682  34.279  1.00  0.00    -0.206 F 
ATOM     92  C   UNL A   1      46.390  26.927  36.525  1.00  0.00     0.022 A 
BRANCH  89  93
ATOM     93  S   UNL A   1      45.133  24.568  37.210  1.00  0.00     0.124 S 
ATOM     94  O   UNL A   1      44.398  23.701  36.291  1.00  0.00    -0.237 OA
ATOM     95  O   UNL A   1      46.524  24.190  37.446  1.00  0.00    -0.237 OA
ATOM     96  O   UNL A   1      44.388  24.994  38.390  1.00  0.00    -0.744 OA
ENDBRANCH  89  93
ENDBRANCH  63  86
ENDBRANCH  37  38
ENDBRANCH  29  32
ENDBRANCH  27  28
ENDBRANCH   1  27
TORSDOF 17
ENDMDL
MODEL 3
REMARK VINA RESULT:     -12.3      5.655     11.021
REMARK SMILES CC(C)Cc1cc2c(cc1Cl)C=C(C(=O)NCCCCNC(=O)c1ccc(-c3c4nc(c(-c5cc(S(=O)(=O)[O-])ccc5F)c5ccc([nH]5)c(-c5cc(S(=O)(=O)[O-])ccc5F)c5nc(c(-c6cc(S(=O)(=O)[O-])ccc6F)c6ccc3[nH]6)C=C5)C=C4)cc1)[C@H](C(F)(F)F)O2
REMARK SMILES IDX 19 1 18 2 17 3 16 4 14 5 15 6 13 8 5 9 6 10 10 11 7 12 9 13
REMARK SMILES IDX 11 14 8 15 92 16 12 17 87 18 4 19 2 20 1 21 3 22 88 23 89 24
REMARK SMILES IDX 90 25 91 26 20 27 21 28 22 29 23 31 24 32 25 33 86 34 26 35
REMARK SMILES IDX 85 36 27 37 28 38 29 39 79 40 30 41 84 42 78 43 80 44 31 45
REMARK SMILES IDX 83 46 77 47 76 48 32 50 64 51 44 52 63 53 45 54 48 55 62 56
REMARK SMILES IDX 81 57 46 58 47 59 61 61 82 62 49 63 33 64 34 65 42 66 35 67
REMARK SMILES IDX 41 68 43 69 40 70 36 71 37 72 38 73 39 74 65 75 66 76 74 77
REMARK SMILES IDX 67 78 73 79 75 80 72 81 68 82 69 83 70 84 71 85 50 86 51 87
REMARK SMILES IDX 59 88 52 89 58 90 60 91 57 92 53 93 54 94 55 95 56 96
REMARK H PARENT 16 7 21 30 80 49 48 60
REMARK Flexibility Score: inf
ROOT
ATOM      1  C   UNL A   1      37.976  20.875  25.004  1.00  0.00     0.023 C 
ENDROOT
BRANCH   1   2
ATOM      2  C   UNL A   1      37.156  22.163  24.943  1.00  0.00     0.023 C 
BRANCH   2   3
ATOM      3  C   UNL A   1      35.647  21.963  25.044  1.00  0.00     0.116 C 
BRANCH   3   4
ATOM      4  N   UNL A   1      35.174  22.078  26.411  1.00  0.00    -0.352 N 
ATOM      5  C   UNL A   1      34.240  22.788  27.084  1.00  0.00     0.251 C 
ATOM      6  O   UNL A   1      34.157  22.527  28.289  1.00  0.00    -0.270 OA
ATOM      7  H   UNL A   1      35.666  21.475  27.013  1.00  0.00     0.163 HD
BRANCH   5   8
ATOM      8  C   UNL A   1      33.330  23.816  26.497  1.00  0.00     0.067 C 
ATOM      9  C   UNL A   1      31.536  28.031  24.361  1.00  0.00    -0.025 A 
ATOM     10  C   UNL A   1      30.990  27.032  25.184  1.00  0.00     0.052 A 
ATOM     11  C   UNL A   1      32.892  27.931  24.002  1.00  0.00     0.045 A 
ATOM     12  C   UNL A   1      31.778  25.978  25.638  1.00  0.00     0.128 A 
ATOM     13  C   UNL A   1      33.687  26.889  24.492  1.00  0.00     0.032 A 
ATOM     14  Cl  UNL A   1      33.655  29.085  22.965  1.00  0.00    -0.084 Cl
ATOM     15  C   UNL A   1      33.133  25.916  25.323  1.00  0.00     0.019 A 
ATOM     16  O   UNL A   1      31.172  25.047  26.433  1.00  0.00    -0.475 OA
ATOM     17  C   UNL A   1      33.947  24.866  25.920  1.00  0.00     0.025 C 
ATOM     18  C   UNL A   1      31.828  23.743  26.455  1.00  0.00     0.314 C 
BRANCH   9  19
ATOM     19  C   UNL A   1      30.644  29.181  23.953  1.00  0.00     0.040 C 
BRANCH  19  20
ATOM     20  C   UNL A   1      29.761  28.855  22.729  1.00  0.00    -0.013 C 
ATOM     21  C   UNL A   1      28.355  28.401  23.126  1.00  0.00     0.008 C 
ATOM     22  C   UNL A   1      29.665  30.077  21.814  1.00  0.00     0.008 C 
ENDBRANCH  19  20
ENDBRANCH   9  19
BRANCH  18  23
ATOM     23  C   UNL A   1      31.293  22.853  25.315  1.00  0.00     0.429 C 
ATOM     24  F   UNL A   1      30.278  23.430  24.634  1.00  0.00    -0.167 F 
ATOM     25  F   UNL A   1      32.280  22.596  24.419  1.00  0.00    -0.167 F 
ATOM     26  F   UNL A   1      30.835  21.657  25.751  1.00  0.00    -0.167 F 
ENDBRANCH  18  23
ENDBRANCH   5   8
ENDBRANCH   3   4
ENDBRANCH   2   3
ENDBRANCH   1   2
BRANCH   1  27
ATOM     27  C   UNL A   1      39.095  20.871  26.035  1.00  0.00     0.116 C 
BRANCH  27  28
ATOM     28  N   UNL A   1      39.916  19.667  26.018  1.00  0.00    -0.352 N 
ATOM     29  C   UNL A   1      41.280  19.591  26.202  1.00  0.00     0.251 C 
ATOM     30  H   UNL A   1      39.447  18.817  25.858  1.00  0.00     0.163 HD
ATOM     31  O   UNL A   1      41.873  18.521  26.114  1.00  0.00    -0.269 OA
BRANCH  29  32
ATOM     32  C   UNL A   1      42.005  20.852  26.448  1.00  0.00     0.039 A 
ATOM     33  C   UNL A   1      42.278  21.240  27.761  1.00  0.00     0.014 A 
ATOM     34  C   UNL A   1      42.240  21.715  25.376  1.00  0.00     0.014 A 
ATOM     35  C   UNL A   1      42.619  22.560  28.016  1.00  0.00     0.010 A 
ATOM     36  C   UNL A   1      42.662  23.020  25.634  1.00  0.00     0.010 A 
ATOM     37  C   UNL A   1      42.797  23.468  26.957  1.00  0.00    -0.014 A 
BRANCH  37  38
ATOM     38  C   UNL A   1      43.115  24.886  27.259  1.00  0.00     0.031 A 
ATOM     39  C   UNL A   1      44.427  25.488  26.837  1.00  0.00     0.074 A 
ATOM     40  C   UNL A   1      42.182  25.643  27.864  1.00  0.00     0.049 A 
ATOM     41  N   UNL A   1      44.864  26.708  27.015  1.00  0.00    -0.248 NA
ATOM     42  C   UNL A   1      45.372  24.613  26.124  1.00  0.00     0.031 C 
ATOM     43  C   UNL A   1      40.866  25.160  28.284  1.00  0.00     0.029 A 
ATOM     44  N   UNL A   1      42.176  26.971  28.203  1.00  0.00    -0.354 N 
ATOM     45  C   UNL A   1      46.136  26.744  26.457  1.00  0.00     0.074 A 
ATOM     46  C   UNL A   1      46.414  25.417  25.953  1.00  0.00     0.031 C 
ATOM     47  C   UNL A   1      40.158  26.188  28.769  1.00  0.00     0.029 A 
ATOM     48  C   UNL A   1      40.995  27.384  28.773  1.00  0.00     0.049 A 
ATOM     49  H   UNL A   1      42.942  27.570  28.053  1.00  0.00     0.167 HD
ATOM     50  C   UNL A   1      46.987  27.795  26.364  1.00  0.00     0.034 A 
ATOM     51  C   UNL A   1      40.630  28.585  29.265  1.00  0.00     0.034 A 
ATOM     52  C   UNL A   1      46.681  29.117  26.847  1.00  0.00     0.049 A 
ATOM     53  C   UNL A   1      41.614  29.721  29.201  1.00  0.00     0.074 A 
ATOM     54  C   UNL A   1      47.463  30.256  26.771  1.00  0.00     0.029 A 
ATOM     55  N   UNL A   1      45.506  29.481  27.488  1.00  0.00    -0.354 N 
ATOM     56  N   UNL A   1      42.808  29.743  28.657  1.00  0.00    -0.248 NA
ATOM     57  C   UNL A   1      41.216  30.988  29.827  1.00  0.00     0.031 C 
ATOM     58  C   UNL A   1      46.780  31.296  27.404  1.00  0.00     0.029 A 
ATOM     59  C   UNL A   1      45.553  30.820  27.838  1.00  0.00     0.049 A 
ATOM     60  H   UNL A   1      44.750  28.876  27.668  1.00  0.00     0.167 HD
ATOM     61  C   UNL A   1      43.307  31.021  28.878  1.00  0.00     0.074 A 
ATOM     62  C   UNL A   1      42.271  31.755  29.577  1.00  0.00     0.031 C 
ATOM     63  C   UNL A   1      44.516  31.536  28.540  1.00  0.00     0.034 A 
BRANCH  50  64
ATOM     64  C   UNL A   1      48.328  27.582  25.712  1.00  0.00     0.023 A 
ATOM     65  C   UNL A   1      48.455  27.671  24.314  1.00  0.00     0.031 A 
ATOM     66  C   UNL A   1      49.447  27.176  26.460  1.00  0.00     0.131 A 
ATOM     67  C   UNL A   1      49.670  27.336  23.703  1.00  0.00     0.055 A 
ATOM     68  C   UNL A   1      50.663  26.867  25.849  1.00  0.00     0.041 A 
ATOM     69  F   UNL A   1      49.374  27.081  27.798  1.00  0.00    -0.206 F 
ATOM     70  C   UNL A   1      50.775  26.936  24.463  1.00  0.00     0.022 A 
BRANCH  67  71
ATOM     71  S   UNL A   1      49.854  27.357  21.899  1.00  0.00     0.124 S 
ATOM     72  O   UNL A   1      48.682  26.595  21.472  1.00  0.00    -0.237 OA
ATOM     73  O   UNL A   1      49.810  28.786  21.603  1.00  0.00    -0.237 OA
ATOM     74  O   UNL A   1      51.137  26.703  21.668  1.00  0.00    -0.744 OA
ENDBRANCH  67  71
ENDBRANCH  50  64
BRANCH  51  75
ATOM     75  C   UNL A   1      39.258  28.746  29.824  1.00  0.00     0.023 A 
ATOM     76  C   UNL A   1      38.240  29.362  29.071  1.00  0.00     0.031 A 
ATOM     77  C   UNL A   1      38.990  28.431  31.165  1.00  0.00     0.131 A 
ATOM     78  C   UNL A   1      37.040  29.728  29.691  1.00  0.00     0.055 A 
ATOM     79  C   UNL A   1      37.762  28.730  31.758  1.00  0.00     0.041 A 
ATOM     80  F   UNL A   1      39.933  27.852  31.925  1.00  0.00    -0.206 F 
ATOM     81  C   UNL A   1      36.789  29.404  31.027  1.00  0.00     0.022 A 
BRANCH  78  82
ATOM     82  S   UNL A   1      35.843  30.789  28.832  1.00  0.00     0.124 S 
ATOM     83  O   UNL A   1      36.713  31.616  28.002  1.00  0.00    -0.237 OA
ATOM     84  O   UNL A   1      35.031  29.808  28.116  1.00  0.00    -0.237 OA
ATOM     85  O   UNL A   1      35.157  31.483  29.918  1.00  0.00    -0.744 OA
ENDBRANCH  78  82
ENDBRANCH  51  75
BRANCH  63  86
ATOM     86  C   UNL A   1      44.821  32.955  28.941  1.00  0.00     0.023 A 
ATOM     87  C   UNL A   1      44.450  34.024  28.104  1.00  0.00     0.031 A 
ATOM     88  C   UNL A   1      45.608  33.230  30.073  1.00  0.00     0.131 A 
ATOM     89  C   UNL A   1      44.901  35.317  28.392  1.00  0.00     0.055 A 
ATOM     90  C   UNL A   1      46.023  34.527  30.376  1.00  0.00     0.041 A 
ATOM     91  F   UNL A   1      45.988  32.238  30.894  1.00  0.00    -0.206 F 
ATOM     92  C   UNL A   1      45.681  35.575  29.526  1.00  0.00     0.022 A 
BRANCH  89  93
ATOM     93  S   UNL A   1      44.551  36.700  27.273  1.00  0.00     0.124 S 
ATOM     94  O   UNL A   1      45.807  36.818  26.536  1.00  0.00    -0.237 OA
ATOM     95  O   UNL A   1      43.421  36.193  26.501  1.00  0.00    -0.237 OA
ATOM     96  O   UNL A   1      44.253  37.812  28.170  1.00  0.00    -0.744 OA
ENDBRANCH  89  93
ENDBRANCH  63  86
ENDBRANCH  37  38
ENDBRANCH  29  32
ENDBRANCH  27  28
ENDBRANCH   1  27
TORSDOF 17
ENDMDL
