MODEL 1
REMARK VINA RESULT:     -13.1      0.000      0.000
REMARK SMILES Nn1c(S[C@@H](C(=O)NCCCCNC(=O)c2ccc(-c3c4nc(c(-c5cc(S(=O)(=O)[O-])ccc5F)c5ccc([nH]5)c(-c5cc(S(=O)(=O)[O-])ccc5F)c5nc(c(-c6cc(S(=O)(=O)[O-])ccc6F)c6ccc3[nH]6)C=C5)C=C4)cc2)c2ccccc2)nc2ccc(Br)cc2c1=O
REMARK SMILES IDX 10 1 9 2 8 3 6 4 7 5 5 7 4 8 3 9 2 10 93 11 85 12 92 13
REMARK SMILES IDX 94 14 86 15 91 16 87 17 89 18 88 19 90 20 1 21 79 24 80 25
REMARK SMILES IDX 84 26 81 27 83 28 82 29 11 30 12 31 13 32 14 33 15 35 16 36
REMARK SMILES IDX 17 37 78 38 18 39 77 40 19 41 20 42 21 43 71 44 22 45 76 46
REMARK SMILES IDX 70 47 72 48 23 49 75 50 69 51 68 52 24 54 56 55 36 56 55 57
REMARK SMILES IDX 37 58 40 59 54 60 73 61 38 62 39 63 53 65 74 66 41 67 25 68
REMARK SMILES IDX 26 69 34 70 27 71 33 72 35 73 32 74 28 75 29 76 30 77 31 78
REMARK SMILES IDX 57 79 58 80 66 81 59 82 65 83 67 84 64 85 60 86 61 87 62 88
REMARK SMILES IDX 63 89 42 90 43 91 51 92 44 93 50 94 52 95 49 96 45 97 46 98
REMARK SMILES IDX 47 99 48 100
REMARK H PARENT 8 6 1 22 1 23 13 34 72 53 40 64
REMARK Flexibility Score: inf
ROOT
ATOM      1  C   UNL A   1      31.884  27.974  27.178  1.00  0.00     0.023 C 
ENDROOT
BRANCH   1   2
ATOM      2  C   UNL A   1      32.164  26.682  26.408  1.00  0.00     0.116 C 
BRANCH   2   3
ATOM      3  N   UNL A   1      31.405  25.543  26.891  1.00  0.00    -0.355 N 
ATOM      4  C   UNL A   1      31.315  24.253  26.430  1.00  0.00     0.238 C 
ATOM      5  O   UNL A   1      30.777  23.468  27.220  1.00  0.00    -0.273 OA
ATOM      6  H   UNL A   1      30.859  25.727  27.689  1.00  0.00     0.163 HD
BRANCH   4   7
ATOM      7  C   UNL A   1      31.949  23.816  25.075  1.00  0.00     0.174 C 
BRANCH   7   8
ATOM      8  S   UNL A   1      30.880  24.195  23.665  1.00  0.00    -0.068 SA
BRANCH   8   9
ATOM      9  C   UNL A   1      30.806  25.904  23.304  1.00  0.00     0.191 A 
ATOM     10  N   UNL A   1      31.877  26.716  22.941  1.00  0.00    -0.202 N 
ATOM     11  C   UNL A   1      31.729  28.094  22.746  1.00  0.00     0.280 A 
ATOM     12  N   UNL A   1      29.598  26.367  23.416  1.00  0.00    -0.222 NA
ATOM     13  C   UNL A   1      30.364  28.622  22.866  1.00  0.00     0.069 A 
ATOM     14  O   UNL A   1      32.664  28.856  22.500  1.00  0.00    -0.267 OA
ATOM     15  C   UNL A   1      29.352  27.720  23.178  1.00  0.00     0.079 A 
ATOM     16  C   UNL A   1      30.097  29.982  22.674  1.00  0.00     0.031 A 
ATOM     17  C   UNL A   1      28.041  28.189  23.281  1.00  0.00     0.030 A 
ATOM     18  C   UNL A   1      28.786  30.433  22.794  1.00  0.00     0.018 A 
ATOM     19  C   UNL A   1      27.755  29.543  23.090  1.00  0.00     0.018 A 
ATOM     20  Br  UNL A   1      28.402  32.270  22.566  1.00  0.00    -0.051 Br
BRANCH  10  21
ATOM     21  N   UNL A   1      33.180  26.227  22.771  1.00  0.00    -0.334 N 
ATOM     22  H   UNL A   1      33.331  25.396  22.266  1.00  0.00     0.178 HD
ATOM     23  H   UNL A   1      33.943  26.715  23.156  1.00  0.00     0.178 HD
ENDBRANCH  10  21
ENDBRANCH   8   9
ENDBRANCH   7   8
BRANCH   7  24
ATOM     24  C   UNL A   1      32.678  22.458  25.038  1.00  0.00    -0.025 A 
ATOM     25  C   UNL A   1      34.058  22.396  25.304  1.00  0.00     0.005 A 
ATOM     26  C   UNL A   1      32.044  21.247  24.688  1.00  0.00     0.005 A 
ATOM     27  C   UNL A   1      34.751  21.181  25.296  1.00  0.00     0.000 A 
ATOM     28  C   UNL A   1      32.733  20.031  24.688  1.00  0.00     0.000 A 
ATOM     29  C   UNL A   1      34.086  19.996  25.000  1.00  0.00     0.000 A 
ENDBRANCH   7  24
ENDBRANCH   4   7
ENDBRANCH   2   3
ENDBRANCH   1   2
BRANCH   1  30
ATOM     30  C   UNL A   1      31.403  29.157  26.341  1.00  0.00     0.023 C 
BRANCH  30  31
ATOM     31  C   UNL A   1      32.469  30.175  25.957  1.00  0.00     0.116 C 
BRANCH  31  32
ATOM     32  N   UNL A   1      32.199  31.518  26.447  1.00  0.00    -0.352 N 
ATOM     33  C   UNL A   1      32.977  32.325  27.250  1.00  0.00     0.251 C 
ATOM     34  H   UNL A   1      31.339  31.906  26.164  1.00  0.00     0.163 HD
ATOM     35  O   UNL A   1      32.544  33.405  27.630  1.00  0.00    -0.269 OA
BRANCH  33  36
ATOM     36  C   UNL A   1      34.309  31.850  27.691  1.00  0.00     0.039 A 
ATOM     37  C   UNL A   1      34.533  30.501  27.966  1.00  0.00     0.014 A 
ATOM     38  C   UNL A   1      35.332  32.782  27.888  1.00  0.00     0.014 A 
ATOM     39  C   UNL A   1      35.698  30.116  28.619  1.00  0.00     0.010 A 
ATOM     40  C   UNL A   1      36.543  32.376  28.458  1.00  0.00     0.010 A 
ATOM     41  C   UNL A   1      36.712  31.052  28.887  1.00  0.00    -0.014 A 
BRANCH  41  42
ATOM     42  C   UNL A   1      37.930  30.613  29.623  1.00  0.00     0.031 A 
ATOM     43  C   UNL A   1      38.159  31.021  31.055  1.00  0.00     0.074 A 
ATOM     44  C   UNL A   1      38.796  29.780  29.015  1.00  0.00     0.049 A 
ATOM     45  N   UNL A   1      39.123  30.667  31.865  1.00  0.00    -0.248 NA
ATOM     46  C   UNL A   1      37.187  31.948  31.656  1.00  0.00     0.031 C 
ATOM     47  C   UNL A   1      38.675  29.319  27.632  1.00  0.00     0.029 A 
ATOM     48  N   UNL A   1      39.922  29.147  29.481  1.00  0.00    -0.354 N 
ATOM     49  C   UNL A   1      38.885  31.335  33.062  1.00  0.00     0.074 A 
ATOM     50  C   UNL A   1      37.705  32.146  32.861  1.00  0.00     0.031 C 
ATOM     51  C   UNL A   1      39.646  28.432  27.380  1.00  0.00     0.029 A 
ATOM     52  C   UNL A   1      40.503  28.308  28.557  1.00  0.00     0.049 A 
ATOM     53  H   UNL A   1      40.281  29.282  30.387  1.00  0.00     0.167 HD
ATOM     54  C   UNL A   1      39.576  31.262  34.225  1.00  0.00     0.034 A 
ATOM     55  C   UNL A   1      41.600  27.527  28.640  1.00  0.00     0.034 A 
ATOM     56  C   UNL A   1      40.738  30.433  34.419  1.00  0.00     0.049 A 
ATOM     57  C   UNL A   1      42.359  27.477  29.940  1.00  0.00     0.074 A 
ATOM     58  C   UNL A   1      41.488  30.271  35.570  1.00  0.00     0.029 A 
ATOM     59  N   UNL A   1      41.315  29.622  33.452  1.00  0.00    -0.354 N 
ATOM     60  N   UNL A   1      42.089  28.077  31.076  1.00  0.00    -0.248 NA
ATOM     61  C   UNL A   1      43.568  26.642  29.977  1.00  0.00     0.031 C 
ATOM     62  C   UNL A   1      42.550  29.411  35.284  1.00  0.00     0.029 A 
ATOM     63  C   UNL A   1      42.426  28.979  33.974  1.00  0.00     0.049 A 
ATOM     64  H   UNL A   1      40.984  29.520  32.530  1.00  0.00     0.167 HD
ATOM     65  C   UNL A   1      43.085  27.683  31.964  1.00  0.00     0.074 A 
ATOM     66  C   UNL A   1      43.945  26.768  31.244  1.00  0.00     0.031 C 
ATOM     67  C   UNL A   1      43.272  28.056  33.255  1.00  0.00     0.034 A 
BRANCH  54  68
ATOM     68  C   UNL A   1      39.104  32.083  35.401  1.00  0.00     0.023 A 
ATOM     69  C   UNL A   1      39.591  33.390  35.590  1.00  0.00     0.031 A 
ATOM     70  C   UNL A   1      38.285  31.529  36.400  1.00  0.00     0.131 A 
ATOM     71  C   UNL A   1      39.282  34.087  36.766  1.00  0.00     0.055 A 
ATOM     72  C   UNL A   1      37.948  32.241  37.552  1.00  0.00     0.041 A 
ATOM     73  F   UNL A   1      37.795  30.285  36.268  1.00  0.00    -0.206 F 
ATOM     74  C   UNL A   1      38.458  33.522  37.745  1.00  0.00     0.022 A 
BRANCH  71  75
ATOM     75  S   UNL A   1      39.985  35.725  37.101  1.00  0.00     0.124 S 
ATOM     76  O   UNL A   1      41.402  35.411  37.275  1.00  0.00    -0.237 OA
ATOM     77  O   UNL A   1      39.654  36.454  35.880  1.00  0.00    -0.237 OA
ATOM     78  O   UNL A   1      39.294  36.164  38.307  1.00  0.00    -0.744 OA
ENDBRANCH  71  75
ENDBRANCH  54  68
BRANCH  55  79
ATOM     79  C   UNL A   1      41.991  26.702  27.460  1.00  0.00     0.023 A 
ATOM     80  C   UNL A   1      41.642  25.341  27.384  1.00  0.00     0.031 A 
ATOM     81  C   UNL A   1      42.821  27.227  26.456  1.00  0.00     0.131 A 
ATOM     82  C   UNL A   1      42.189  24.535  26.377  1.00  0.00     0.055 A 
ATOM     83  C   UNL A   1      43.301  26.438  25.410  1.00  0.00     0.041 A 
ATOM     84  F   UNL A   1      43.191  28.516  26.492  1.00  0.00    -0.206 F 
ATOM     85  C   UNL A   1      43.002  25.079  25.380  1.00  0.00     0.022 A 
BRANCH  82  86
ATOM     86  S   UNL A   1      41.990  22.732  26.423  1.00  0.00     0.124 S 
ATOM     87  O   UNL A   1      42.629  22.325  25.176  1.00  0.00    -0.237 OA
ATOM     88  O   UNL A   1      42.710  22.384  27.645  1.00  0.00    -0.237 OA
ATOM     89  O   UNL A   1      40.543  22.546  26.483  1.00  0.00    -0.744 OA
ENDBRANCH  82  86
ENDBRANCH  55  79
BRANCH  67  90
ATOM     90  C   UNL A   1      44.454  27.489  34.006  1.00  0.00     0.023 A 
ATOM     91  C   UNL A   1      44.314  26.299  34.746  1.00  0.00     0.031 A 
ATOM     92  C   UNL A   1      45.660  28.202  34.114  1.00  0.00     0.131 A 
ATOM     93  C   UNL A   1      45.348  25.879  35.592  1.00  0.00     0.055 A 
ATOM     94  C   UNL A   1      46.705  27.754  34.923  1.00  0.00     0.041 A 
ATOM     95  F   UNL A   1      45.838  29.348  33.438  1.00  0.00    -0.206 F 
ATOM     96  C   UNL A   1      46.545  26.596  35.679  1.00  0.00     0.022 A 
BRANCH  93  97
ATOM     97  S   UNL A   1      45.144  24.440  36.678  1.00  0.00     0.124 S 
ATOM     98  O   UNL A   1      46.487  24.287  37.232  1.00  0.00    -0.237 OA
ATOM     99  O   UNL A   1      44.129  24.906  37.620  1.00  0.00    -0.237 OA
ATOM    100  O   UNL A   1      44.719  23.374  35.776  1.00  0.00    -0.744 OA
ENDBRANCH  93  97
ENDBRANCH  67  90
ENDBRANCH  41  42
ENDBRANCH  33  36
ENDBRANCH  31  32
ENDBRANCH  30  31
ENDBRANCH   1  30
TORSDOF 18
ENDMDL
MODEL 2
REMARK VINA RESULT:     -13.0      2.424      4.321
REMARK SMILES Nn1c(S[C@@H](C(=O)NCCCCNC(=O)c2ccc(-c3c4nc(c(-c5cc(S(=O)(=O)[O-])ccc5F)c5ccc([nH]5)c(-c5cc(S(=O)(=O)[O-])ccc5F)c5nc(c(-c6cc(S(=O)(=O)[O-])ccc6F)c6ccc3[nH]6)C=C5)C=C4)cc2)c2ccccc2)nc2ccc(Br)cc2c1=O
REMARK SMILES IDX 10 1 9 2 8 3 6 4 7 5 5 7 4 8 3 9 2 10 93 11 85 12 92 13
REMARK SMILES IDX 94 14 86 15 91 16 87 17 89 18 88 19 90 20 1 21 79 24 80 25
REMARK SMILES IDX 84 26 81 27 83 28 82 29 11 30 12 31 13 32 14 33 15 35 16 36
REMARK SMILES IDX 17 37 78 38 18 39 77 40 19 41 20 42 21 43 71 44 22 45 76 46
REMARK SMILES IDX 70 47 72 48 23 49 75 50 69 51 68 52 24 54 56 55 36 56 55 57
REMARK SMILES IDX 37 58 40 59 54 60 73 61 38 62 39 63 53 65 74 66 41 67 25 68
REMARK SMILES IDX 26 69 34 70 27 71 33 72 35 73 32 74 28 75 29 76 30 77 31 78
REMARK SMILES IDX 57 79 58 80 66 81 59 82 65 83 67 84 64 85 60 86 61 87 62 88
REMARK SMILES IDX 63 89 42 90 43 91 51 92 44 93 50 94 52 95 49 96 45 97 46 98
REMARK SMILES IDX 47 99 48 100
REMARK H PARENT 8 6 1 22 1 23 13 34 72 53 40 64
REMARK Flexibility Score: inf
ROOT
ATOM      1  C   UNL A   1      32.104  28.223  27.526  1.00  0.00     0.023 C 
ENDROOT
BRANCH   1   2
ATOM      2  C   UNL A   1      32.179  27.081  26.509  1.00  0.00     0.116 C 
BRANCH   2   3
ATOM      3  N   UNL A   1      31.285  25.978  26.809  1.00  0.00    -0.355 N 
ATOM      4  C   UNL A   1      30.624  25.099  25.988  1.00  0.00     0.238 C 
ATOM      5  O   UNL A   1      30.144  24.120  26.573  1.00  0.00    -0.273 OA
ATOM      6  H   UNL A   1      31.125  25.834  27.770  1.00  0.00     0.163 HD
BRANCH   4   7
ATOM      7  C   UNL A   1      30.595  25.279  24.440  1.00  0.00     0.174 C 
BRANCH   7   8
ATOM      8  S   UNL A   1      32.175  24.848  23.671  1.00  0.00    -0.068 SA
BRANCH   8   9
ATOM      9  C   UNL A   1      32.755  23.267  24.141  1.00  0.00     0.191 A 
ATOM     10  N   UNL A   1      33.631  22.989  25.187  1.00  0.00    -0.202 N 
ATOM     11  C   UNL A   1      34.098  21.693  25.438  1.00  0.00     0.280 A 
ATOM     12  N   UNL A   1      32.270  22.332  23.382  1.00  0.00    -0.222 NA
ATOM     13  C   UNL A   1      33.548  20.631  24.585  1.00  0.00     0.069 A 
ATOM     14  O   UNL A   1      34.931  21.420  26.301  1.00  0.00    -0.267 OA
ATOM     15  C   UNL A   1      32.637  21.003  23.603  1.00  0.00     0.079 A 
ATOM     16  C   UNL A   1      33.931  19.297  24.758  1.00  0.00     0.031 A 
ATOM     17  C   UNL A   1      32.082  20.013  22.789  1.00  0.00     0.030 A 
ATOM     18  C   UNL A   1      33.379  18.326  23.928  1.00  0.00     0.018 A 
ATOM     19  C   UNL A   1      32.451  18.675  22.949  1.00  0.00     0.018 A 
ATOM     20  Br  UNL A   1      33.900  16.519  24.124  1.00  0.00    -0.051 Br
BRANCH  10  21
ATOM     21  N   UNL A   1      34.130  23.978  26.045  1.00  0.00    -0.334 N 
ATOM     22  H   UNL A   1      34.755  23.734  26.765  1.00  0.00     0.178 HD
ATOM     23  H   UNL A   1      33.857  24.916  25.926  1.00  0.00     0.178 HD
ENDBRANCH  10  21
ENDBRANCH   8   9
ENDBRANCH   7   8
BRANCH   7  24
ATOM     24  C   UNL A   1      29.880  26.528  23.886  1.00  0.00    -0.025 A 
ATOM     25  C   UNL A   1      30.635  27.588  23.351  1.00  0.00     0.005 A 
ATOM     26  C   UNL A   1      28.481  26.706  23.936  1.00  0.00     0.005 A 
ATOM     27  C   UNL A   1      30.022  28.730  22.825  1.00  0.00     0.000 A 
ATOM     28  C   UNL A   1      27.867  27.843  23.403  1.00  0.00     0.000 A 
ATOM     29  C   UNL A   1      28.637  28.852  22.839  1.00  0.00     0.000 A 
ENDBRANCH   7  24
ENDBRANCH   4   7
ENDBRANCH   2   3
ENDBRANCH   1   2
BRANCH   1  30
ATOM     30  C   UNL A   1      31.580  29.555  26.994  1.00  0.00     0.023 C 
BRANCH  30  31
ATOM     31  C   UNL A   1      32.626  30.494  26.411  1.00  0.00     0.116 C 
BRANCH  31  32
ATOM     32  N   UNL A   1      32.494  31.870  26.863  1.00  0.00    -0.352 N 
ATOM     33  C   UNL A   1      33.379  32.637  27.592  1.00  0.00     0.251 C 
ATOM     34  H   UNL A   1      31.653  32.319  26.614  1.00  0.00     0.163 HD
ATOM     35  O   UNL A   1      33.058  33.761  27.954  1.00  0.00    -0.269 OA
BRANCH  33  36
ATOM     36  C   UNL A   1      34.692  32.068  27.978  1.00  0.00     0.039 A 
ATOM     37  C   UNL A   1      34.807  30.733  28.364  1.00  0.00     0.014 A 
ATOM     38  C   UNL A   1      35.812  32.904  28.008  1.00  0.00     0.014 A 
ATOM     39  C   UNL A   1      35.981  30.289  28.963  1.00  0.00     0.010 A 
ATOM     40  C   UNL A   1      37.021  32.427  28.524  1.00  0.00     0.010 A 
ATOM     41  C   UNL A   1      37.098  31.136  29.065  1.00  0.00    -0.014 A 
BRANCH  41  42
ATOM     42  C   UNL A   1      38.325  30.641  29.749  1.00  0.00     0.031 A 
ATOM     43  C   UNL A   1      38.637  31.041  31.167  1.00  0.00     0.074 A 
ATOM     44  C   UNL A   1      39.122  29.765  29.107  1.00  0.00     0.049 A 
ATOM     45  N   UNL A   1      39.618  30.643  31.935  1.00  0.00    -0.248 NA
ATOM     46  C   UNL A   1      37.738  32.016  31.806  1.00  0.00     0.031 C 
ATOM     47  C   UNL A   1      38.918  29.307  27.732  1.00  0.00     0.029 A 
ATOM     48  N   UNL A   1      40.237  29.081  29.525  1.00  0.00    -0.354 N 
ATOM     49  C   UNL A   1      39.466  31.325  33.138  1.00  0.00     0.074 A 
ATOM     50  C   UNL A   1      38.318  32.192  32.986  1.00  0.00     0.031 C 
ATOM     51  C   UNL A   1      39.833  28.374  27.441  1.00  0.00     0.029 A 
ATOM     52  C   UNL A   1      40.734  28.212  28.580  1.00  0.00     0.049 A 
ATOM     53  H   UNL A   1      40.642  29.200  30.414  1.00  0.00     0.167 HD
ATOM     54  C   UNL A   1      40.204  31.222  34.270  1.00  0.00     0.034 A 
ATOM     55  C   UNL A   1      41.795  27.380  28.618  1.00  0.00     0.034 A 
ATOM     56  C   UNL A   1      41.333  30.338  34.416  1.00  0.00     0.049 A 
ATOM     57  C   UNL A   1      42.608  27.296  29.883  1.00  0.00     0.074 A 
ATOM     58  C   UNL A   1      42.125  30.143  35.533  1.00  0.00     0.029 A 
ATOM     59  N   UNL A   1      41.826  29.498  33.427  1.00  0.00    -0.354 N 
ATOM     60  N   UNL A   1      42.419  27.912  31.027  1.00  0.00    -0.248 NA
ATOM     61  C   UNL A   1      43.777  26.404  29.871  1.00  0.00     0.031 C 
ATOM     62  C   UNL A   1      43.130  29.233  35.204  1.00  0.00     0.029 A 
ATOM     63  C   UNL A   1      42.927  28.804  33.903  1.00  0.00     0.049 A 
ATOM     64  H   UNL A   1      41.450  29.410  32.522  1.00  0.00     0.167 HD
ATOM     65  C   UNL A   1      43.433  27.472  31.872  1.00  0.00     0.074 A 
ATOM     66  C   UNL A   1      44.215  26.515  31.119  1.00  0.00     0.031 C 
ATOM     67  C   UNL A   1      43.696  27.839  33.152  1.00  0.00     0.034 A 
BRANCH  54  68
ATOM     68  C   UNL A   1      39.825  32.067  35.462  1.00  0.00     0.023 A 
ATOM     69  C   UNL A   1      38.954  31.554  36.442  1.00  0.00     0.031 A 
ATOM     70  C   UNL A   1      40.215  33.414  35.559  1.00  0.00     0.131 A 
ATOM     71  C   UNL A   1      38.474  32.393  37.456  1.00  0.00     0.055 A 
ATOM     72  C   UNL A   1      39.765  34.236  36.594  1.00  0.00     0.041 A 
ATOM     73  F   UNL A   1      41.045  33.952  34.650  1.00  0.00    -0.206 F 
ATOM     74  C   UNL A   1      38.880  33.730  37.541  1.00  0.00     0.022 A 
BRANCH  71  75
ATOM     75  S   UNL A   1      37.258  31.805  38.666  1.00  0.00     0.124 S 
ATOM     76  O   UNL A   1      37.057  30.421  38.239  1.00  0.00    -0.237 OA
ATOM     77  O   UNL A   1      37.977  31.970  39.926  1.00  0.00    -0.237 OA
ATOM     78  O   UNL A   1      36.113  32.686  38.472  1.00  0.00    -0.744 OA
ENDBRANCH  71  75
ENDBRANCH  54  68
BRANCH  55  79
ATOM     79  C   UNL A   1      42.093  26.533  27.425  1.00  0.00     0.023 A 
ATOM     80  C   UNL A   1      41.677  25.190  27.372  1.00  0.00     0.031 A 
ATOM     81  C   UNL A   1      42.901  27.016  26.383  1.00  0.00     0.131 A 
ATOM     82  C   UNL A   1      42.140  24.357  26.346  1.00  0.00     0.055 A 
ATOM     83  C   UNL A   1      43.296  26.202  25.320  1.00  0.00     0.041 A 
ATOM     84  F   UNL A   1      43.334  28.286  26.396  1.00  0.00    -0.206 F 
ATOM     85  C   UNL A   1      42.932  24.859  25.310  1.00  0.00     0.022 A 
BRANCH  82  86
ATOM     86  S   UNL A   1      41.858  22.565  26.409  1.00  0.00     0.124 S 
ATOM     87  O   UNL A   1      42.474  22.117  25.165  1.00  0.00    -0.237 OA
ATOM     88  O   UNL A   1      42.564  22.195  27.633  1.00  0.00    -0.237 OA
ATOM     89  O   UNL A   1      40.405  22.447  26.474  1.00  0.00    -0.744 OA
ENDBRANCH  82  86
ENDBRANCH  55  79
BRANCH  67  90
ATOM     90  C   UNL A   1      44.881  27.218  33.852  1.00  0.00     0.023 A 
ATOM     91  C   UNL A   1      44.733  26.000  34.543  1.00  0.00     0.031 A 
ATOM     92  C   UNL A   1      46.103  27.903  33.965  1.00  0.00     0.131 A 
ATOM     93  C   UNL A   1      45.775  25.524  35.347  1.00  0.00     0.055 A 
ATOM     94  C   UNL A   1      47.156  27.400  34.731  1.00  0.00     0.041 A 
ATOM     95  F   UNL A   1      46.289  29.074  33.335  1.00  0.00    -0.206 F 
ATOM     96  C   UNL A   1      46.988  26.214  35.439  1.00  0.00     0.022 A 
BRANCH  93  97
ATOM     97  S   UNL A   1      45.565  24.043  36.375  1.00  0.00     0.124 S 
ATOM     98  O   UNL A   1      45.348  24.622  37.698  1.00  0.00    -0.237 OA
ATOM     99  O   UNL A   1      44.395  23.412  35.770  1.00  0.00    -0.237 OA
ATOM    100  O   UNL A   1      46.822  23.320  36.212  1.00  0.00    -0.744 OA
ENDBRANCH  93  97
ENDBRANCH  67  90
ENDBRANCH  41  42
ENDBRANCH  33  36
ENDBRANCH  31  32
ENDBRANCH  30  31
ENDBRANCH   1  30
TORSDOF 18
ENDMDL
MODEL 3
REMARK VINA RESULT:     -13.0      1.859      4.092
REMARK SMILES Nn1c(S[C@@H](C(=O)NCCCCNC(=O)c2ccc(-c3c4nc(c(-c5cc(S(=O)(=O)[O-])ccc5F)c5ccc([nH]5)c(-c5cc(S(=O)(=O)[O-])ccc5F)c5nc(c(-c6cc(S(=O)(=O)[O-])ccc6F)c6ccc3[nH]6)C=C5)C=C4)cc2)c2ccccc2)nc2ccc(Br)cc2c1=O
REMARK SMILES IDX 10 1 9 2 8 3 6 4 7 5 5 7 4 8 3 9 2 10 93 11 85 12 92 13
REMARK SMILES IDX 94 14 86 15 91 16 87 17 89 18 88 19 90 20 1 21 79 24 80 25
REMARK SMILES IDX 84 26 81 27 83 28 82 29 11 30 12 31 13 32 14 33 15 35 16 36
REMARK SMILES IDX 17 37 78 38 18 39 77 40 19 41 20 42 21 43 71 44 22 45 76 46
REMARK SMILES IDX 70 47 72 48 23 49 75 50 69 51 68 52 24 54 56 55 36 56 55 57
REMARK SMILES IDX 37 58 40 59 54 60 73 61 38 62 39 63 53 65 74 66 41 67 25 68
REMARK SMILES IDX 26 69 34 70 27 71 33 72 35 73 32 74 28 75 29 76 30 77 31 78
REMARK SMILES IDX 57 79 58 80 66 81 59 82 65 83 67 84 64 85 60 86 61 87 62 88
REMARK SMILES IDX 63 89 42 90 43 91 51 92 44 93 50 94 52 95 49 96 45 97 46 98
REMARK SMILES IDX 47 99 48 100
REMARK H PARENT 8 6 1 22 1 23 13 34 72 53 40 64
REMARK Flexibility Score: inf
ROOT
ATOM      1  C   UNL A   1      32.211  29.144  27.254  1.00  0.00     0.023 C 
ENDROOT
BRANCH   1   2
ATOM      2  C   UNL A   1      31.958  27.988  26.283  1.00  0.00     0.116 C 
BRANCH   2   3
ATOM      3  N   UNL A   1      32.417  28.253  24.932  1.00  0.00    -0.355 N 
ATOM      4  C   UNL A   1      31.740  28.648  23.806  1.00  0.00     0.238 C 
ATOM      5  O   UNL A   1      32.469  29.030  22.882  1.00  0.00    -0.273 OA
ATOM      6  H   UNL A   1      33.385  28.129  24.801  1.00  0.00     0.163 HD
BRANCH   4   7
ATOM      7  C   UNL A   1      30.183  28.711  23.761  1.00  0.00     0.174 C 
BRANCH   7   8
ATOM      8  S   UNL A   1      29.448  27.131  23.276  1.00  0.00    -0.068 SA
BRANCH   8   9
ATOM      9  C   UNL A   1      30.604  25.820  23.246  1.00  0.00     0.191 A 
ATOM     10  N   UNL A   1      31.590  25.613  22.285  1.00  0.00    -0.202 N 
ATOM     11  C   UNL A   1      32.422  24.487  22.306  1.00  0.00     0.280 A 
ATOM     12  N   UNL A   1      30.443  25.014  24.251  1.00  0.00    -0.222 NA
ATOM     13  C   UNL A   1      32.248  23.577  23.445  1.00  0.00     0.069 A 
ATOM     14  O   UNL A   1      33.252  24.232  21.435  1.00  0.00    -0.267 OA
ATOM     15  C   UNL A   1      31.271  23.898  24.382  1.00  0.00     0.079 A 
ATOM     16  C   UNL A   1      33.036  22.428  23.577  1.00  0.00     0.031 A 
ATOM     17  C   UNL A   1      31.095  23.060  25.485  1.00  0.00     0.030 A 
ATOM     18  C   UNL A   1      32.837  21.598  24.676  1.00  0.00     0.018 A 
ATOM     19  C   UNL A   1      31.875  21.911  25.635  1.00  0.00     0.018 A 
ATOM     20  Br  UNL A   1      33.871  20.027  24.864  1.00  0.00    -0.051 Br
BRANCH  10  21
ATOM     21  N   UNL A   1      31.809  26.495  21.218  1.00  0.00    -0.334 N 
ATOM     22  H   UNL A   1      32.699  26.553  20.803  1.00  0.00     0.178 HD
ATOM     23  H   UNL A   1      31.072  27.055  20.883  1.00  0.00     0.178 HD
ENDBRANCH  10  21
ENDBRANCH   8   9
ENDBRANCH   7   8
BRANCH   7  24
ATOM     24  C   UNL A   1      29.543  29.979  23.161  1.00  0.00    -0.025 A 
ATOM     25  C   UNL A   1      29.202  30.013  21.796  1.00  0.00     0.005 A 
ATOM     26  C   UNL A   1      29.326  31.161  23.899  1.00  0.00     0.005 A 
ATOM     27  C   UNL A   1      28.605  31.139  21.219  1.00  0.00     0.000 A 
ATOM     28  C   UNL A   1      28.722  32.284  23.326  1.00  0.00     0.000 A 
ATOM     29  C   UNL A   1      28.354  32.270  21.987  1.00  0.00     0.000 A 
ENDBRANCH   7  24
ENDBRANCH   4   7
ENDBRANCH   2   3
ENDBRANCH   1   2
BRANCH   1  30
ATOM     30  C   UNL A   1      31.425  30.425  26.982  1.00  0.00     0.023 C 
BRANCH  30  31
ATOM     31  C   UNL A   1      32.188  31.533  26.270  1.00  0.00     0.116 C 
BRANCH  31  32
ATOM     32  N   UNL A   1      32.038  32.839  26.891  1.00  0.00    -0.352 N 
ATOM     33  C   UNL A   1      32.878  33.486  27.774  1.00  0.00     0.251 C 
ATOM     34  H   UNL A   1      31.221  33.333  26.646  1.00  0.00     0.163 HD
ATOM     35  O   UNL A   1      32.543  34.559  28.259  1.00  0.00    -0.269 OA
BRANCH  33  36
ATOM     36  C   UNL A   1      34.155  32.847  28.169  1.00  0.00     0.039 A 
ATOM     37  C   UNL A   1      34.176  31.552  28.687  1.00  0.00     0.014 A 
ATOM     38  C   UNL A   1      35.341  33.580  28.070  1.00  0.00     0.014 A 
ATOM     39  C   UNL A   1      35.334  31.070  29.287  1.00  0.00     0.010 A 
ATOM     40  C   UNL A   1      36.528  33.053  28.589  1.00  0.00     0.010 A 
ATOM     41  C   UNL A   1      36.522  31.821  29.259  1.00  0.00    -0.014 A 
BRANCH  41  42
ATOM     42  C   UNL A   1      37.732  31.292  29.945  1.00  0.00     0.031 A 
ATOM     43  C   UNL A   1      38.040  31.667  31.372  1.00  0.00     0.074 A 
ATOM     44  C   UNL A   1      38.517  30.410  29.298  1.00  0.00     0.049 A 
ATOM     45  N   UNL A   1      39.007  31.238  32.142  1.00  0.00    -0.248 NA
ATOM     46  C   UNL A   1      37.156  32.650  32.017  1.00  0.00     0.031 C 
ATOM     47  C   UNL A   1      38.316  29.976  27.916  1.00  0.00     0.029 A 
ATOM     48  N   UNL A   1      39.614  29.698  29.715  1.00  0.00    -0.354 N 
ATOM     49  C   UNL A   1      38.858  31.906  33.354  1.00  0.00     0.074 A 
ATOM     50  C   UNL A   1      37.729  32.797  33.204  1.00  0.00     0.031 C 
ATOM     51  C   UNL A   1      39.215  29.028  27.619  1.00  0.00     0.029 A 
ATOM     52  C   UNL A   1      40.103  28.832  28.762  1.00  0.00     0.049 A 
ATOM     53  H   UNL A   1      40.014  29.797  30.609  1.00  0.00     0.167 HD
ATOM     54  C   UNL A   1      39.585  31.773  34.489  1.00  0.00     0.034 A 
ATOM     55  C   UNL A   1      41.147  27.979  28.797  1.00  0.00     0.034 A 
ATOM     56  C   UNL A   1      40.694  30.864  34.632  1.00  0.00     0.049 A 
ATOM     57  C   UNL A   1      41.947  27.861  30.068  1.00  0.00     0.074 A 
ATOM     58  C   UNL A   1      41.472  30.638  35.753  1.00  0.00     0.029 A 
ATOM     59  N   UNL A   1      41.179  30.028  33.636  1.00  0.00    -0.354 N 
ATOM     60  N   UNL A   1      41.760  28.464  31.218  1.00  0.00    -0.248 NA
ATOM     61  C   UNL A   1      43.098  26.946  30.052  1.00  0.00     0.031 C 
ATOM     62  C   UNL A   1      42.462  29.712  35.420  1.00  0.00     0.029 A 
ATOM     63  C   UNL A   1      42.261  29.305  34.111  1.00  0.00     0.049 A 
ATOM     64  H   UNL A   1      40.809  29.960  32.727  1.00  0.00     0.167 HD
ATOM     65  C   UNL A   1      42.758  27.993  32.066  1.00  0.00     0.074 A 
ATOM     66  C   UNL A   1      43.527  27.031  31.306  1.00  0.00     0.031 C 
ATOM     67  C   UNL A   1      43.017  28.337  33.353  1.00  0.00     0.034 A 
BRANCH  54  68
ATOM     68  C   UNL A   1      39.212  32.608  35.690  1.00  0.00     0.023 A 
ATOM     69  C   UNL A   1      39.708  33.920  35.818  1.00  0.00     0.031 A 
ATOM     70  C   UNL A   1      38.484  32.067  36.764  1.00  0.00     0.131 A 
ATOM     71  C   UNL A   1      39.498  34.633  37.006  1.00  0.00     0.055 A 
ATOM     72  C   UNL A   1      38.245  32.795  37.930  1.00  0.00     0.041 A 
ATOM     73  F   UNL A   1      37.990  30.820  36.692  1.00  0.00    -0.206 F 
ATOM     74  C   UNL A   1      38.764  34.079  38.060  1.00  0.00     0.022 A 
BRANCH  71  75
ATOM     75  S   UNL A   1      40.221  36.277  37.256  1.00  0.00     0.124 S 
ATOM     76  O   UNL A   1      39.372  36.819  38.316  1.00  0.00    -0.237 OA
ATOM     77  O   UNL A   1      41.586  35.952  37.657  1.00  0.00    -0.237 OA
ATOM     78  O   UNL A   1      40.080  36.925  35.958  1.00  0.00    -0.744 OA
ENDBRANCH  71  75
ENDBRANCH  54  68
BRANCH  55  79
ATOM     79  C   UNL A   1      41.438  27.143  27.595  1.00  0.00     0.023 A 
ATOM     80  C   UNL A   1      41.144  25.767  27.585  1.00  0.00     0.031 A 
ATOM     81  C   UNL A   1      42.125  27.679  26.494  1.00  0.00     0.131 A 
ATOM     82  C   UNL A   1      41.608  24.962  26.537  1.00  0.00     0.055 A 
ATOM     83  C   UNL A   1      42.517  26.887  25.414  1.00  0.00     0.041 A 
ATOM     84  F   UNL A   1      42.439  28.983  26.464  1.00  0.00    -0.206 F 
ATOM     85  C   UNL A   1      42.278  25.517  25.443  1.00  0.00     0.022 A 
BRANCH  82  86
ATOM     86  S   UNL A   1      41.496  23.154  26.638  1.00  0.00     0.124 S 
ATOM     87  O   UNL A   1      40.077  22.923  26.389  1.00  0.00    -0.237 OA
ATOM     88  O   UNL A   1      42.401  22.738  25.569  1.00  0.00    -0.237 OA
ATOM     89  O   UNL A   1      41.958  22.855  27.990  1.00  0.00    -0.744 OA
ENDBRANCH  82  86
ENDBRANCH  55  79
BRANCH  67  90
ATOM     90  C   UNL A   1      44.183  27.682  34.054  1.00  0.00     0.023 A 
ATOM     91  C   UNL A   1      43.985  26.509  34.808  1.00  0.00     0.031 A 
ATOM     92  C   UNL A   1      45.445  28.299  34.102  1.00  0.00     0.131 A 
ATOM     93  C   UNL A   1      45.021  26.013  35.609  1.00  0.00     0.055 A 
ATOM     94  C   UNL A   1      46.488  27.774  34.866  1.00  0.00     0.041 A 
ATOM     95  F   UNL A   1      45.681  29.425  33.410  1.00  0.00    -0.206 F 
ATOM     96  C   UNL A   1      46.273  26.635  35.637  1.00  0.00     0.022 A 
BRANCH  93  97
ATOM     97  S   UNL A   1      44.755  24.599  36.714  1.00  0.00     0.124 S 
ATOM     98  O   UNL A   1      43.955  25.195  37.781  1.00  0.00    -0.237 OA
ATOM     99  O   UNL A   1      44.043  23.661  35.849  1.00  0.00    -0.237 OA
ATOM    100  O   UNL A   1      46.104  24.195  37.101  1.00  0.00    -0.744 OA
ENDBRANCH  93  97
ENDBRANCH  67  90
ENDBRANCH  41  42
ENDBRANCH  33  36
ENDBRANCH  31  32
ENDBRANCH  30  31
ENDBRANCH   1  30
TORSDOF 18
ENDMDL
