MODEL 1
REMARK VINA RESULT:     -10.6      0.000      0.000
REMARK SMILES C#CCN(CC(=O)NCCCCNC(=O)c1ccc(-c2c3nc(c(-c4cc(S(=O)(=O)[O-])ccc4F)c4ccc([nH]4)c(-c4cc(S(=O)(=O)[O-])ccc4F)c4nc(c(-c5cc(S(=O)(=O)[O-])ccc5F)c5ccc2[nH]5)C=C4)C=C3)cc1)C(=O)N(C)[C@H](C)c1cccs1
REMARK SMILES IDX 9 1 8 2 6 3 7 4 5 6 4 7 3 8 2 9 1 10 79 11 80 12 81 13 82 14
REMARK SMILES IDX 83 15 84 16 85 17 86 18 89 19 87 20 88 21 10 22 11 23 12 24
REMARK SMILES IDX 13 25 14 26 15 28 16 29 17 30 78 31 18 32 77 33 19 34 20 35
REMARK SMILES IDX 21 36 71 37 22 38 76 39 70 40 72 41 23 42 75 43 69 44 68 45
REMARK SMILES IDX 24 47 56 48 36 49 55 50 37 51 40 52 54 53 73 54 38 55 39 56
REMARK SMILES IDX 53 58 74 59 41 60 25 61 26 62 34 63 27 64 33 65 35 66 32 67
REMARK SMILES IDX 28 68 29 69 30 70 31 71 57 72 58 73 66 74 59 75 65 76 67 77
REMARK SMILES IDX 64 78 60 79 61 80 62 81 63 82 42 83 43 84 51 85 44 86 50 87
REMARK SMILES IDX 52 88 49 89 45 90 46 91 47 92 48 93
REMARK H PARENT 8 5 13 27 72 46 40 57
REMARK Flexibility Score: inf
ROOT
ATOM      1  C   UNL A   1      32.813  20.736  25.751  1.00  0.00     0.116 C 
ENDROOT
BRANCH   1   2
ATOM      2  N   UNL A   1      32.474  21.831  26.634  1.00  0.00    -0.355 N 
ATOM      3  C   UNL A   1      31.904  23.033  26.330  1.00  0.00     0.239 C 
ATOM      4  O   UNL A   1      31.409  23.688  27.252  1.00  0.00    -0.273 OA
ATOM      5  H   UNL A   1      32.684  21.690  27.586  1.00  0.00     0.163 HD
BRANCH   3   6
ATOM      6  C   UNL A   1      31.734  23.490  24.873  1.00  0.00     0.222 C 
BRANCH   6   7
ATOM      7  N   UNL A   1      32.886  24.183  24.291  1.00  0.00    -0.304 N 
BRANCH   7   8
ATOM      8  C   UNL A   1      33.433  23.576  23.068  1.00  0.00     0.211 C 
BRANCH   8   9
ATOM      9  C   UNL A   1      32.610  22.382  22.610  1.00  0.00    -0.085 C 
ATOM     10  C   UNL A   1      31.905  21.359  22.219  1.00  0.00     0.006 C 
ENDBRANCH   8   9
ENDBRANCH   7   8
BRANCH   7  11
ATOM     11  C   UNL A   1      33.575  25.284  24.785  1.00  0.00     0.321 C 
ATOM     12  O   UNL A   1      34.776  25.133  25.042  1.00  0.00    -0.248 OA
BRANCH  11  13
ATOM     13  N   UNL A   1      32.985  26.525  24.968  1.00  0.00    -0.320 N 
ATOM     14  C   UNL A   1      32.520  27.114  26.219  1.00  0.00     0.149 C 
BRANCH  13  15
ATOM     15  C   UNL A   1      32.945  27.488  23.835  1.00  0.00     0.124 C 
ATOM     16  C   UNL A   1      34.028  28.578  23.759  1.00  0.00     0.037 C 
BRANCH  15  17
ATOM     17  C   UNL A   1      31.544  28.027  23.634  1.00  0.00     0.027 A 
ATOM     18  C   UNL A   1      31.064  29.317  23.755  1.00  0.00     0.017 A 
ATOM     19  S   UNL A   1      30.287  26.945  23.163  1.00  0.00    -0.147 S 
ATOM     20  C   UNL A   1      29.670  29.413  23.463  1.00  0.00     0.012 A 
ATOM     21  C   UNL A   1      29.126  28.195  23.126  1.00  0.00     0.065 A 
ENDBRANCH  15  17
ENDBRANCH  13  15
ENDBRANCH  11  13
ENDBRANCH   7  11
ENDBRANCH   6   7
ENDBRANCH   3   6
ENDBRANCH   1   2
BRANCH   1  22
ATOM     22  C   UNL A   1      34.305  20.647  25.449  1.00  0.00     0.023 C 
BRANCH  22  23
ATOM     23  C   UNL A   1      35.161  21.763  26.045  1.00  0.00     0.023 C 
BRANCH  23  24
ATOM     24  C   UNL A   1      36.476  22.027  25.328  1.00  0.00     0.116 C 
BRANCH  24  25
ATOM     25  N   UNL A   1      37.414  20.916  25.403  1.00  0.00    -0.352 N 
ATOM     26  C   UNL A   1      38.719  20.933  25.833  1.00  0.00     0.251 C 
ATOM     27  H   UNL A   1      37.070  20.042  25.107  1.00  0.00     0.163 HD
ATOM     28  O   UNL A   1      39.409  19.921  25.750  1.00  0.00    -0.269 OA
BRANCH  26  29
ATOM     29  C   UNL A   1      39.288  22.196  26.349  1.00  0.00     0.039 A 
ATOM     30  C   UNL A   1      40.368  22.138  27.232  1.00  0.00     0.014 A 
ATOM     31  C   UNL A   1      38.796  23.428  25.909  1.00  0.00     0.014 A 
ATOM     32  C   UNL A   1      41.005  23.319  27.616  1.00  0.00     0.010 A 
ATOM     33  C   UNL A   1      39.479  24.595  26.234  1.00  0.00     0.010 A 
ATOM     34  C   UNL A   1      40.591  24.553  27.088  1.00  0.00    -0.014 A 
BRANCH  34  35
ATOM     35  C   UNL A   1      41.305  25.813  27.416  1.00  0.00     0.031 A 
ATOM     36  C   UNL A   1      40.619  26.868  28.238  1.00  0.00     0.074 A 
ATOM     37  C   UNL A   1      42.534  26.035  26.913  1.00  0.00     0.049 A 
ATOM     38  N   UNL A   1      41.029  28.069  28.554  1.00  0.00    -0.248 NA
ATOM     39  C   UNL A   1      39.276  26.538  28.737  1.00  0.00     0.031 C 
ATOM     40  C   UNL A   1      43.283  25.104  26.067  1.00  0.00     0.029 A 
ATOM     41  N   UNL A   1      43.366  27.120  27.028  1.00  0.00    -0.354 N 
ATOM     42  C   UNL A   1      39.990  28.643  29.279  1.00  0.00     0.074 A 
ATOM     43  C   UNL A   1      38.908  27.683  29.291  1.00  0.00     0.031 C 
ATOM     44  C   UNL A   1      44.473  25.647  25.762  1.00  0.00     0.029 A 
ATOM     45  C   UNL A   1      44.555  26.980  26.350  1.00  0.00     0.049 A 
ATOM     46  H   UNL A   1      43.135  27.923  27.548  1.00  0.00     0.167 HD
ATOM     47  C   UNL A   1      39.952  29.850  29.898  1.00  0.00     0.034 A 
ATOM     48  C   UNL A   1      45.588  27.834  26.208  1.00  0.00     0.034 A 
ATOM     49  C   UNL A   1      41.046  30.792  29.882  1.00  0.00     0.049 A 
ATOM     50  C   UNL A   1      45.517  29.180  26.882  1.00  0.00     0.074 A 
ATOM     51  C   UNL A   1      41.140  32.017  30.517  1.00  0.00     0.029 A 
ATOM     52  N   UNL A   1      42.235  30.616  29.184  1.00  0.00    -0.354 N 
ATOM     53  N   UNL A   1      44.547  29.692  27.605  1.00  0.00    -0.248 NA
ATOM     54  C   UNL A   1      46.683  30.058  26.727  1.00  0.00     0.031 C 
ATOM     55  C   UNL A   1      42.355  32.610  30.152  1.00  0.00     0.029 A 
ATOM     56  C   UNL A   1      43.055  31.723  29.349  1.00  0.00     0.049 A 
ATOM     57  H   UNL A   1      42.463  29.820  28.650  1.00  0.00     0.167 HD
ATOM     58  C   UNL A   1      45.001  30.942  28.017  1.00  0.00     0.074 A 
ATOM     59  C   UNL A   1      46.334  31.100  27.470  1.00  0.00     0.031 C 
ATOM     60  C   UNL A   1      44.376  31.872  28.785  1.00  0.00     0.034 A 
BRANCH  47  61
ATOM     61  C   UNL A   1      38.674  30.216  30.616  1.00  0.00     0.023 A 
ATOM     62  C   UNL A   1      37.626  30.886  29.958  1.00  0.00     0.031 A 
ATOM     63  C   UNL A   1      38.520  29.945  31.987  1.00  0.00     0.131 A 
ATOM     64  C   UNL A   1      36.521  31.347  30.689  1.00  0.00     0.055 A 
ATOM     65  C   UNL A   1      37.374  30.326  32.689  1.00  0.00     0.041 A 
ATOM     66  F   UNL A   1      39.491  29.327  32.676  1.00  0.00    -0.206 F 
ATOM     67  C   UNL A   1      36.374  31.049  32.044  1.00  0.00     0.022 A 
BRANCH  64  68
ATOM     68  S   UNL A   1      35.367  32.490  29.878  1.00  0.00     0.124 S 
ATOM     69  O   UNL A   1      34.400  32.738  30.946  1.00  0.00    -0.237 OA
ATOM     70  O   UNL A   1      36.230  33.610  29.523  1.00  0.00    -0.237 OA
ATOM     71  O   UNL A   1      34.853  31.714  28.751  1.00  0.00    -0.744 OA
ENDBRANCH  64  68
ENDBRANCH  47  61
BRANCH  48  72
ATOM     72  C   UNL A   1      46.777  27.448  25.398  1.00  0.00     0.023 A 
ATOM     73  C   UNL A   1      46.916  27.880  24.070  1.00  0.00     0.031 A 
ATOM     74  C   UNL A   1      47.782  26.623  25.934  1.00  0.00     0.131 A 
ATOM     75  C   UNL A   1      48.013  27.453  23.307  1.00  0.00     0.055 A 
ATOM     76  C   UNL A   1      48.897  26.239  25.185  1.00  0.00     0.041 A 
ATOM     77  F   UNL A   1      47.701  26.190  27.202  1.00  0.00    -0.206 F 
ATOM     78  C   UNL A   1      49.011  26.646  23.859  1.00  0.00     0.022 A 
BRANCH  75  79
ATOM     79  S   UNL A   1      48.087  27.918  21.556  1.00  0.00     0.124 S 
ATOM     80  O   UNL A   1      46.783  28.542  21.359  1.00  0.00    -0.237 OA
ATOM     81  O   UNL A   1      49.239  28.814  21.528  1.00  0.00    -0.237 OA
ATOM     82  O   UNL A   1      48.278  26.641  20.873  1.00  0.00    -0.744 OA
ENDBRANCH  75  79
ENDBRANCH  48  72
BRANCH  60  83
ATOM     83  C   UNL A   1      45.154  33.123  29.111  1.00  0.00     0.023 A 
ATOM     84  C   UNL A   1      45.153  34.241  28.258  1.00  0.00     0.031 A 
ATOM     85  C   UNL A   1      45.917  33.190  30.290  1.00  0.00     0.131 A 
ATOM     86  C   UNL A   1      45.939  35.359  28.572  1.00  0.00     0.055 A 
ATOM     87  C   UNL A   1      46.651  34.327  30.626  1.00  0.00     0.041 A 
ATOM     88  F   UNL A   1      45.955  32.150  31.139  1.00  0.00    -0.206 F 
ATOM     89  C   UNL A   1      46.676  35.415  29.758  1.00  0.00     0.022 A 
BRANCH  86  90
ATOM     90  S   UNL A   1      46.057  36.709  27.367  1.00  0.00     0.124 S 
ATOM     91  O   UNL A   1      46.712  37.755  28.146  1.00  0.00    -0.237 OA
ATOM     92  O   UNL A   1      46.858  36.110  26.304  1.00  0.00    -0.237 OA
ATOM     93  O   UNL A   1      44.664  36.978  27.015  1.00  0.00    -0.744 OA
ENDBRANCH  86  90
ENDBRANCH  60  83
ENDBRANCH  34  35
ENDBRANCH  26  29
ENDBRANCH  24  25
ENDBRANCH  23  24
ENDBRANCH  22  23
ENDBRANCH   1  22
TORSDOF 21
ENDMDL
MODEL 2
REMARK VINA RESULT:     -10.6      5.137     10.044
REMARK SMILES C#CCN(CC(=O)NCCCCNC(=O)c1ccc(-c2c3nc(c(-c4cc(S(=O)(=O)[O-])ccc4F)c4ccc([nH]4)c(-c4cc(S(=O)(=O)[O-])ccc4F)c4nc(c(-c5cc(S(=O)(=O)[O-])ccc5F)c5ccc2[nH]5)C=C4)C=C3)cc1)C(=O)N(C)[C@H](C)c1cccs1
REMARK SMILES IDX 9 1 8 2 6 3 7 4 5 6 4 7 3 8 2 9 1 10 79 11 80 12 81 13 82 14
REMARK SMILES IDX 83 15 84 16 85 17 86 18 89 19 87 20 88 21 10 22 11 23 12 24
REMARK SMILES IDX 13 25 14 26 15 28 16 29 17 30 78 31 18 32 77 33 19 34 20 35
REMARK SMILES IDX 21 36 71 37 22 38 76 39 70 40 72 41 23 42 75 43 69 44 68 45
REMARK SMILES IDX 24 47 56 48 36 49 55 50 37 51 40 52 54 53 73 54 38 55 39 56
REMARK SMILES IDX 53 58 74 59 41 60 25 61 26 62 34 63 27 64 33 65 35 66 32 67
REMARK SMILES IDX 28 68 29 69 30 70 31 71 57 72 58 73 66 74 59 75 65 76 67 77
REMARK SMILES IDX 64 78 60 79 61 80 62 81 63 82 42 83 43 84 51 85 44 86 50 87
REMARK SMILES IDX 52 88 49 89 45 90 46 91 47 92 48 93
REMARK H PARENT 8 5 13 27 72 46 40 57
REMARK Flexibility Score: inf
ROOT
ATOM      1  C   UNL A   1      33.441  28.904  23.035  1.00  0.00     0.116 C 
ENDROOT
BRANCH   1   2
ATOM      2  N   UNL A   1      33.608  27.934  21.975  1.00  0.00    -0.355 N 
ATOM      3  C   UNL A   1      33.485  26.576  22.027  1.00  0.00     0.239 C 
ATOM      4  O   UNL A   1      33.352  25.965  20.962  1.00  0.00    -0.273 OA
ATOM      5  H   UNL A   1      33.844  28.304  21.093  1.00  0.00     0.163 HD
BRANCH   3   6
ATOM      6  C   UNL A   1      33.352  25.838  23.368  1.00  0.00     0.222 C 
BRANCH   6   7
ATOM      7  N   UNL A   1      32.866  24.458  23.282  1.00  0.00    -0.304 N 
BRANCH   7   8
ATOM      8  C   UNL A   1      31.405  24.310  23.210  1.00  0.00     0.211 C 
BRANCH   8   9
ATOM      9  C   UNL A   1      30.700  25.093  24.305  1.00  0.00    -0.085 C 
ATOM     10  C   UNL A   1      30.096  25.764  25.245  1.00  0.00     0.006 C 
ENDBRANCH   8   9
ENDBRANCH   7   8
BRANCH   7  11
ATOM     11  C   UNL A   1      33.595  23.277  23.344  1.00  0.00     0.321 C 
ATOM     12  O   UNL A   1      34.484  23.114  22.498  1.00  0.00    -0.248 OA
BRANCH  11  13
ATOM     13  N   UNL A   1      33.387  22.309  24.315  1.00  0.00    -0.320 N 
ATOM     14  C   UNL A   1      32.826  20.974  24.136  1.00  0.00     0.149 C 
BRANCH  13  15
ATOM     15  C   UNL A   1      33.928  22.522  25.684  1.00  0.00     0.124 C 
ATOM     16  C   UNL A   1      33.235  23.549  26.596  1.00  0.00     0.037 C 
BRANCH  15  17
ATOM     17  C   UNL A   1      35.434  22.675  25.652  1.00  0.00     0.027 A 
ATOM     18  C   UNL A   1      36.214  23.803  25.824  1.00  0.00     0.017 A 
ATOM     19  S   UNL A   1      36.415  21.283  25.386  1.00  0.00    -0.147 S 
ATOM     20  C   UNL A   1      37.610  23.522  25.734  1.00  0.00     0.012 A 
ATOM     21  C   UNL A   1      37.857  22.189  25.499  1.00  0.00     0.065 A 
ENDBRANCH  15  17
ENDBRANCH  13  15
ENDBRANCH  11  13
ENDBRANCH   7  11
ENDBRANCH   6   7
ENDBRANCH   3   6
ENDBRANCH   1   2
BRANCH   1  22
ATOM     22  C   UNL A   1      32.007  28.996  23.545  1.00  0.00     0.023 C 
BRANCH  22  23
ATOM     23  C   UNL A   1      31.842  28.862  25.058  1.00  0.00     0.023 C 
BRANCH  23  24
ATOM     24  C   UNL A   1      32.903  29.565  25.891  1.00  0.00     0.116 C 
BRANCH  24  25
ATOM     25  N   UNL A   1      32.512  30.897  26.331  1.00  0.00    -0.352 N 
ATOM     26  C   UNL A   1      33.175  31.736  27.194  1.00  0.00     0.251 C 
ATOM     27  H   UNL A   1      31.664  31.238  25.965  1.00  0.00     0.163 HD
ATOM     28  O   UNL A   1      32.663  32.798  27.535  1.00  0.00    -0.269 OA
BRANCH  26  29
ATOM     29  C   UNL A   1      34.483  31.317  27.737  1.00  0.00     0.039 A 
ATOM     30  C   UNL A   1      35.515  32.256  27.809  1.00  0.00     0.014 A 
ATOM     31  C   UNL A   1      34.666  30.023  28.233  1.00  0.00     0.014 A 
ATOM     32  C   UNL A   1      36.709  31.916  28.448  1.00  0.00     0.010 A 
ATOM     33  C   UNL A   1      35.825  29.713  28.934  1.00  0.00     0.010 A 
ATOM     34  C   UNL A   1      36.858  30.657  29.051  1.00  0.00    -0.014 A 
BRANCH  34  35
ATOM     35  C   UNL A   1      38.085  30.303  29.808  1.00  0.00     0.031 A 
ATOM     36  C   UNL A   1      39.057  29.310  29.234  1.00  0.00     0.074 A 
ATOM     37  C   UNL A   1      38.282  30.814  31.039  1.00  0.00     0.049 A 
ATOM     38  N   UNL A   1      40.133  28.797  29.772  1.00  0.00    -0.248 NA
ATOM     39  C   UNL A   1      38.753  28.801  27.890  1.00  0.00     0.031 C 
ATOM     40  C   UNL A   1      37.387  31.753  31.719  1.00  0.00     0.029 A 
ATOM     41  N   UNL A   1      39.294  30.608  31.942  1.00  0.00    -0.354 N 
ATOM     42  C   UNL A   1      40.629  27.895  28.836  1.00  0.00     0.074 A 
ATOM     43  C   UNL A   1      39.694  27.883  27.732  1.00  0.00     0.031 C 
ATOM     44  C   UNL A   1      37.903  32.060  32.920  1.00  0.00     0.029 A 
ATOM     45  C   UNL A   1      39.138  31.308  33.116  1.00  0.00     0.049 A 
ATOM     46  H   UNL A   1      40.060  30.015  31.767  1.00  0.00     0.167 HD
ATOM     47  C   UNL A   1      41.771  27.165  28.884  1.00  0.00     0.034 A 
ATOM     48  C   UNL A   1      39.898  31.333  34.229  1.00  0.00     0.034 A 
ATOM     49  C   UNL A   1      42.696  27.198  29.993  1.00  0.00     0.049 A 
ATOM     50  C   UNL A   1      41.150  30.495  34.273  1.00  0.00     0.074 A 
ATOM     51  C   UNL A   1      43.907  26.543  30.126  1.00  0.00     0.029 A 
ATOM     52  N   UNL A   1      42.505  27.919  31.165  1.00  0.00    -0.354 N 
ATOM     53  N   UNL A   1      41.633  29.682  33.361  1.00  0.00    -0.248 NA
ATOM     54  C   UNL A   1      41.962  30.584  35.492  1.00  0.00     0.031 C 
ATOM     55  C   UNL A   1      44.417  26.816  31.401  1.00  0.00     0.029 A 
ATOM     56  C   UNL A   1      43.562  27.702  32.037  1.00  0.00     0.049 A 
ATOM     57  H   UNL A   1      41.732  28.501  31.350  1.00  0.00     0.167 HD
ATOM     58  C   UNL A   1      42.823  29.187  33.887  1.00  0.00     0.074 A 
ATOM     59  C   UNL A   1      42.988  29.801  35.189  1.00  0.00     0.031 C 
ATOM     60  C   UNL A   1      43.704  28.311  33.340  1.00  0.00     0.034 A 
BRANCH  47  61
ATOM     61  C   UNL A   1      42.056  26.255  27.712  1.00  0.00     0.023 A 
ATOM     62  C   UNL A   1      41.672  24.900  27.721  1.00  0.00     0.031 A 
ATOM     63  C   UNL A   1      42.769  26.726  26.596  1.00  0.00     0.131 A 
ATOM     64  C   UNL A   1      42.086  24.047  26.688  1.00  0.00     0.055 A 
ATOM     65  C   UNL A   1      43.097  25.891  25.526  1.00  0.00     0.041 A 
ATOM     66  F   UNL A   1      43.180  28.001  26.536  1.00  0.00    -0.206 F 
ATOM     67  C   UNL A   1      42.773  24.538  25.577  1.00  0.00     0.022 A 
BRANCH  64  68
ATOM     68  S   UNL A   1      41.863  22.259  26.904  1.00  0.00     0.124 S 
ATOM     69  O   UNL A   1      43.163  21.865  27.446  1.00  0.00    -0.237 OA
ATOM     70  O   UNL A   1      40.739  22.191  27.829  1.00  0.00    -0.237 OA
ATOM     71  O   UNL A   1      41.591  21.782  25.550  1.00  0.00    -0.744 OA
ENDBRANCH  64  68
ENDBRANCH  47  61
BRANCH  48  72
ATOM     72  C   UNL A   1      39.504  32.176  35.392  1.00  0.00     0.023 A 
ATOM     73  C   UNL A   1      39.990  33.485  35.532  1.00  0.00     0.031 A 
ATOM     74  C   UNL A   1      38.653  31.676  36.394  1.00  0.00     0.131 A 
ATOM     75  C   UNL A   1      39.655  34.238  36.667  1.00  0.00     0.055 A 
ATOM     76  C   UNL A   1      38.285  32.446  37.499  1.00  0.00     0.041 A 
ATOM     77  F   UNL A   1      38.154  30.433  36.303  1.00  0.00    -0.206 F 
ATOM     78  C   UNL A   1      38.796  33.732  37.645  1.00  0.00     0.022 A 
BRANCH  75  79
ATOM     79  S   UNL A   1      40.412  35.872  36.880  1.00  0.00     0.124 S 
ATOM     80  O   UNL A   1      39.687  36.666  35.894  1.00  0.00    -0.237 OA
ATOM     81  O   UNL A   1      40.118  36.163  38.280  1.00  0.00    -0.237 OA
ATOM     82  O   UNL A   1      41.822  35.636  36.578  1.00  0.00    -0.744 OA
ENDBRANCH  75  79
ENDBRANCH  48  72
BRANCH  60  83
ATOM     83  C   UNL A   1      44.947  28.004  34.138  1.00  0.00     0.023 A 
ATOM     84  C   UNL A   1      45.004  26.924  35.037  1.00  0.00     0.031 A 
ATOM     85  C   UNL A   1      46.089  28.813  34.002  1.00  0.00     0.131 A 
ATOM     86  C   UNL A   1      46.161  26.714  35.802  1.00  0.00     0.055 A 
ATOM     87  C   UNL A   1      47.257  28.564  34.723  1.00  0.00     0.041 A 
ATOM     88  F   UNL A   1      46.089  29.859  33.158  1.00  0.00    -0.206 F 
ATOM     89  C   UNL A   1      47.292  27.517  35.640  1.00  0.00     0.022 A 
BRANCH  86  90
ATOM     90  S   UNL A   1      46.139  25.426  37.080  1.00  0.00     0.124 S 
ATOM     91  O   UNL A   1      44.833  24.810  36.867  1.00  0.00    -0.237 OA
ATOM     92  O   UNL A   1      47.294  24.610  36.720  1.00  0.00    -0.237 OA
ATOM     93  O   UNL A   1      46.275  26.177  38.326  1.00  0.00    -0.744 OA
ENDBRANCH  86  90
ENDBRANCH  60  83
ENDBRANCH  34  35
ENDBRANCH  26  29
ENDBRANCH  24  25
ENDBRANCH  23  24
ENDBRANCH  22  23
ENDBRANCH   1  22
TORSDOF 21
ENDMDL
MODEL 3
REMARK VINA RESULT:     -10.3      5.329     10.689
REMARK SMILES C#CCN(CC(=O)NCCCCNC(=O)c1ccc(-c2c3nc(c(-c4cc(S(=O)(=O)[O-])ccc4F)c4ccc([nH]4)c(-c4cc(S(=O)(=O)[O-])ccc4F)c4nc(c(-c5cc(S(=O)(=O)[O-])ccc5F)c5ccc2[nH]5)C=C4)C=C3)cc1)C(=O)N(C)[C@H](C)c1cccs1
REMARK SMILES IDX 9 1 8 2 6 3 7 4 5 6 4 7 3 8 2 9 1 10 79 11 80 12 81 13 82 14
REMARK SMILES IDX 83 15 84 16 85 17 86 18 89 19 87 20 88 21 10 22 11 23 12 24
REMARK SMILES IDX 13 25 14 26 15 28 16 29 17 30 78 31 18 32 77 33 19 34 20 35
REMARK SMILES IDX 21 36 71 37 22 38 76 39 70 40 72 41 23 42 75 43 69 44 68 45
REMARK SMILES IDX 24 47 56 48 36 49 55 50 37 51 40 52 54 53 73 54 38 55 39 56
REMARK SMILES IDX 53 58 74 59 41 60 25 61 26 62 34 63 27 64 33 65 35 66 32 67
REMARK SMILES IDX 28 68 29 69 30 70 31 71 57 72 58 73 66 74 59 75 65 76 67 77
REMARK SMILES IDX 64 78 60 79 61 80 62 81 63 82 42 83 43 84 51 85 44 86 50 87
REMARK SMILES IDX 52 88 49 89 45 90 46 91 47 92 48 93
REMARK H PARENT 8 5 13 27 72 46 40 57
REMARK Flexibility Score: inf
ROOT
ATOM      1  C   UNL A   1      32.237  29.429  25.673  1.00  0.00     0.116 C 
ENDROOT
BRANCH   1   2
ATOM      2  N   UNL A   1      33.328  29.287  24.735  1.00  0.00    -0.355 N 
ATOM      3  C   UNL A   1      33.340  28.667  23.519  1.00  0.00     0.239 C 
ATOM      4  O   UNL A   1      34.264  28.931  22.744  1.00  0.00    -0.273 OA
ATOM      5  H   UNL A   1      34.182  29.693  25.012  1.00  0.00     0.163 HD
BRANCH   3   6
ATOM      6  C   UNL A   1      32.163  27.796  23.056  1.00  0.00     0.222 C 
BRANCH   6   7
ATOM      7  N   UNL A   1      32.295  26.362  23.327  1.00  0.00    -0.304 N 
BRANCH   7   8
ATOM      8  C   UNL A   1      31.210  25.771  24.124  1.00  0.00     0.211 C 
BRANCH   8   9
ATOM      9  C   UNL A   1      29.881  26.466  23.878  1.00  0.00    -0.085 C 
ATOM     10  C   UNL A   1      28.742  27.062  23.666  1.00  0.00     0.006 C 
ENDBRANCH   8   9
ENDBRANCH   7   8
BRANCH   7  11
ATOM     11  C   UNL A   1      33.345  25.512  23.002  1.00  0.00     0.321 C 
ATOM     12  O   UNL A   1      33.691  25.466  21.815  1.00  0.00    -0.248 OA
BRANCH  11  13
ATOM     13  N   UNL A   1      34.022  24.752  23.944  1.00  0.00    -0.320 N 
ATOM     14  C   UNL A   1      34.818  25.231  25.069  1.00  0.00     0.149 C 
BRANCH  13  15
ATOM     15  C   UNL A   1      33.820  23.279  23.974  1.00  0.00     0.124 C 
ATOM     16  C   UNL A   1      32.811  22.656  22.993  1.00  0.00     0.037 C 
BRANCH  15  17
ATOM     17  C   UNL A   1      33.651  22.787  25.396  1.00  0.00     0.027 A 
ATOM     18  C   UNL A   1      32.593  22.949  26.270  1.00  0.00     0.017 A 
ATOM     19  S   UNL A   1      34.907  21.853  26.117  1.00  0.00    -0.147 S 
ATOM     20  C   UNL A   1      32.817  22.312  27.527  1.00  0.00     0.012 A 
ATOM     21  C   UNL A   1      34.038  21.678  27.575  1.00  0.00     0.065 A 
ENDBRANCH  15  17
ENDBRANCH  13  15
ENDBRANCH  11  13
ENDBRANCH   7  11
ENDBRANCH   6   7
ENDBRANCH   3   6
ENDBRANCH   1   2
BRANCH   1  22
ATOM     22  C   UNL A   1      31.211  30.475  25.248  1.00  0.00     0.023 C 
BRANCH  22  23
ATOM     23  C   UNL A   1      31.039  31.651  26.208  1.00  0.00     0.023 C 
BRANCH  23  24
ATOM     24  C   UNL A   1      32.324  32.165  26.840  1.00  0.00     0.116 C 
BRANCH  24  25
ATOM     25  N   UNL A   1      32.232  33.539  27.313  1.00  0.00    -0.352 N 
ATOM     26  C   UNL A   1      33.082  34.203  28.164  1.00  0.00     0.251 C 
ATOM     27  H   UNL A   1      31.462  34.056  26.983  1.00  0.00     0.163 HD
ATOM     28  O   UNL A   1      32.813  35.341  28.539  1.00  0.00    -0.269 OA
BRANCH  26  29
ATOM     29  C   UNL A   1      34.292  33.512  28.654  1.00  0.00     0.039 A 
ATOM     30  C   UNL A   1      35.523  34.166  28.572  1.00  0.00     0.014 A 
ATOM     31  C   UNL A   1      34.198  32.250  29.249  1.00  0.00     0.014 A 
ATOM     32  C   UNL A   1      36.649  33.586  29.158  1.00  0.00     0.010 A 
ATOM     33  C   UNL A   1      35.304  31.712  29.896  1.00  0.00     0.010 A 
ATOM     34  C   UNL A   1      36.540  32.374  29.859  1.00  0.00    -0.014 A 
BRANCH  34  35
ATOM     35  C   UNL A   1      37.706  31.780  30.560  1.00  0.00     0.031 A 
ATOM     36  C   UNL A   1      38.537  30.732  29.874  1.00  0.00     0.074 A 
ATOM     37  C   UNL A   1      37.967  32.126  31.835  1.00  0.00     0.049 A 
ATOM     38  N   UNL A   1      39.532  30.025  30.342  1.00  0.00    -0.248 NA
ATOM     39  C   UNL A   1      38.171  30.414  28.486  1.00  0.00     0.031 C 
ATOM     40  C   UNL A   1      37.205  33.100  32.621  1.00  0.00     0.029 A 
ATOM     41  N   UNL A   1      38.939  31.692  32.701  1.00  0.00    -0.354 N 
ATOM     42  C   UNL A   1      39.905  29.169  29.311  1.00  0.00     0.074 A 
ATOM     43  C   UNL A   1      38.980  29.400  28.222  1.00  0.00     0.031 C 
ATOM     44  C   UNL A   1      37.754  33.205  33.842  1.00  0.00     0.029 A 
ATOM     45  C   UNL A   1      38.876  32.277  33.944  1.00  0.00     0.049 A 
ATOM     46  H   UNL A   1      39.619  31.023  32.455  1.00  0.00     0.167 HD
ATOM     47  C   UNL A   1      40.937  28.290  29.268  1.00  0.00     0.034 A 
ATOM     48  C   UNL A   1      39.629  32.081  35.044  1.00  0.00     0.034 A 
ATOM     49  C   UNL A   1      41.855  28.080  30.363  1.00  0.00     0.049 A 
ATOM     50  C   UNL A   1      40.756  31.082  34.985  1.00  0.00     0.074 A 
ATOM     51  C   UNL A   1      42.966  27.258  30.413  1.00  0.00     0.029 A 
ATOM     52  N   UNL A   1      41.760  28.692  31.607  1.00  0.00    -0.354 N 
ATOM     53  N   UNL A   1      41.127  30.313  33.987  1.00  0.00    -0.248 NA
ATOM     54  C   UNL A   1      41.569  30.932  36.198  1.00  0.00     0.031 C 
ATOM     55  C   UNL A   1      43.504  27.323  31.704  1.00  0.00     0.029 A 
ATOM     56  C   UNL A   1      42.774  28.243  32.439  1.00  0.00     0.049 A 
ATOM     57  H   UNL A   1      41.072  29.350  31.861  1.00  0.00     0.167 HD
ATOM     58  C   UNL A   1      42.238  29.610  34.444  1.00  0.00     0.074 A 
ATOM     59  C   UNL A   1      42.480  30.054  35.802  1.00  0.00     0.031 C 
ATOM     60  C   UNL A   1      42.994  28.685  33.797  1.00  0.00     0.034 A 
BRANCH  47  61
ATOM     61  C   UNL A   1      41.100  27.480  28.003  1.00  0.00     0.023 A 
ATOM     62  C   UNL A   1      40.756  26.116  27.953  1.00  0.00     0.031 A 
ATOM     63  C   UNL A   1      41.658  28.056  26.849  1.00  0.00     0.131 A 
ATOM     64  C   UNL A   1      41.062  25.356  26.815  1.00  0.00     0.055 A 
ATOM     65  C   UNL A   1      41.874  27.315  25.686  1.00  0.00     0.041 A 
ATOM     66  F   UNL A   1      42.026  29.347  26.839  1.00  0.00    -0.206 F 
ATOM     67  C   UNL A   1      41.595  25.951  25.671  1.00  0.00     0.022 A 
BRANCH  64  68
ATOM     68  S   UNL A   1      40.914  23.550  26.917  1.00  0.00     0.124 S 
ATOM     69  O   UNL A   1      41.880  23.119  25.909  1.00  0.00    -0.237 OA
ATOM     70  O   UNL A   1      41.274  23.283  28.304  1.00  0.00    -0.237 OA
ATOM     71  O   UNL A   1      39.515  23.302  26.574  1.00  0.00    -0.744 OA
ENDBRANCH  64  68
ENDBRANCH  47  61
BRANCH  48  72
ATOM     72  C   UNL A   1      39.348  32.841  36.294  1.00  0.00     0.023 A 
ATOM     73  C   UNL A   1      38.589  32.273  37.329  1.00  0.00     0.031 A 
ATOM     74  C   UNL A   1      39.815  34.157  36.462  1.00  0.00     0.131 A 
ATOM     75  C   UNL A   1      38.285  33.030  38.470  1.00  0.00     0.055 A 
ATOM     76  C   UNL A   1      39.549  34.891  37.620  1.00  0.00     0.041 A 
ATOM     77  F   UNL A   1      40.553  34.744  35.505  1.00  0.00    -0.206 F 
ATOM     78  C   UNL A   1      38.771  34.330  38.628  1.00  0.00     0.022 A 
BRANCH  75  79
ATOM     79  S   UNL A   1      37.189  32.311  39.722  1.00  0.00     0.124 S 
ATOM     80  O   UNL A   1      38.061  31.324  40.349  1.00  0.00    -0.237 OA
ATOM     81  O   UNL A   1      36.851  33.476  40.535  1.00  0.00    -0.237 OA
ATOM     82  O   UNL A   1      36.087  31.763  38.936  1.00  0.00    -0.744 OA
ENDBRANCH  75  79
ENDBRANCH  48  72
BRANCH  60  83
ATOM     83  C   UNL A   1      44.182  28.131  34.544  1.00  0.00     0.023 A 
ATOM     84  C   UNL A   1      44.103  26.936  35.281  1.00  0.00     0.031 A 
ATOM     85  C   UNL A   1      45.409  28.817  34.525  1.00  0.00     0.131 A 
ATOM     86  C   UNL A   1      45.216  26.490  36.009  1.00  0.00     0.055 A 
ATOM     87  C   UNL A   1      46.529  28.339  35.204  1.00  0.00     0.041 A 
ATOM     88  F   UNL A   1      45.539  29.965  33.839  1.00  0.00    -0.206 F 
ATOM     89  C   UNL A   1      46.433  27.176  35.963  1.00  0.00     0.022 A 
BRANCH  86  90
ATOM     90  S   UNL A   1      45.030  25.046  37.091  1.00  0.00     0.124 S 
ATOM     91  O   UNL A   1      44.426  25.635  38.282  1.00  0.00    -0.237 OA
ATOM     92  O   UNL A   1      44.165  24.175  36.302  1.00  0.00    -0.237 OA
ATOM     93  O   UNL A   1      46.400  24.567  37.263  1.00  0.00    -0.744 OA
ENDBRANCH  86  90
ENDBRANCH  60  83
ENDBRANCH  34  35
ENDBRANCH  26  29
ENDBRANCH  24  25
ENDBRANCH  23  24
ENDBRANCH  22  23
ENDBRANCH   1  22
TORSDOF 21
ENDMDL
