MODEL 1
REMARK VINA RESULT:     -11.5      0.000      0.000
REMARK SMILES CN(CCS(C)(=O)=O)C(=O)N1CCC(C(=O)NCCCCNC(=O)c2ccc(-c3c4nc(c(-c5cc(S(=O)(=O)[O-])ccc5F)c5ccc([nH]5)c(-c5cc(S(=O)(=O)[O-])ccc5F)c5nc(c(-c6cc(S(=O)(=O)[O-])ccc6F)c6ccc3[nH]6)C=C5)C=C4)cc2)CC1
REMARK SMILES IDX 19 1 18 2 17 3 15 4 16 5 14 7 9 8 10 9 11 10 12 11 89 12
REMARK SMILES IDX 13 13 88 14 2 15 1 16 3 17 4 18 5 19 6 20 7 21 8 22 20 23
REMARK SMILES IDX 21 24 22 25 23 26 24 28 25 29 26 30 87 31 27 32 86 33 28 34
REMARK SMILES IDX 29 35 30 36 80 37 31 38 85 39 79 40 81 41 32 42 84 43 78 44
REMARK SMILES IDX 77 45 33 47 65 48 45 49 64 50 46 51 49 52 63 53 82 54 47 55
REMARK SMILES IDX 48 56 62 58 83 59 50 60 34 61 35 62 43 63 36 64 42 65 44 66
REMARK SMILES IDX 41 67 37 68 38 69 39 70 40 71 66 72 67 73 75 74 68 75 74 76
REMARK SMILES IDX 76 77 73 78 69 79 70 80 71 81 72 82 51 83 52 84 60 85 53 86
REMARK SMILES IDX 59 87 61 88 58 89 54 90 55 91 56 92 57 93
REMARK H PARENT 17 6 22 27 81 46 49 57
REMARK Flexibility Score: inf
ROOT
ATOM      1  C   UNL A   1      31.324  30.888  25.727  1.00  0.00     0.023 C 
ENDROOT
BRANCH   1   2
ATOM      2  C   UNL A   1      32.421  29.853  25.942  1.00  0.00     0.116 C 
BRANCH   2   3
ATOM      3  N   UNL A   1      33.269  29.735  24.763  1.00  0.00    -0.356 N 
ATOM      4  C   UNL A   1      33.559  28.641  24.003  1.00  0.00     0.223 C 
ATOM      5  O   UNL A   1      34.351  28.753  23.068  1.00  0.00    -0.275 OA
ATOM      6  H   UNL A   1      33.697  30.572  24.472  1.00  0.00     0.163 HD
BRANCH   4   7
ATOM      7  C   UNL A   1      32.856  27.320  24.271  1.00  0.00     0.082 C 
ATOM      8  C   UNL A   1      33.590  23.232  23.318  1.00  0.00     0.319 C 
ATOM      9  O   UNL A   1      33.461  22.929  22.130  1.00  0.00    -0.248 OA
ATOM     10  N   UNL A   1      33.145  24.451  23.804  1.00  0.00    -0.325 N 
ATOM     11  C   UNL A   1      32.084  25.167  23.113  1.00  0.00     0.122 C 
ATOM     12  C   UNL A   1      33.569  25.000  25.061  1.00  0.00     0.122 C 
ATOM     13  C   UNL A   1      32.354  26.658  22.983  1.00  0.00     0.035 C 
ATOM     14  C   UNL A   1      33.774  26.486  25.156  1.00  0.00     0.035 C 
BRANCH   8  15
ATOM     15  N   UNL A   1      34.196  22.351  24.225  1.00  0.00    -0.327 N 
ATOM     16  C   UNL A   1      35.643  22.228  24.097  1.00  0.00     0.148 C 
BRANCH  15  17
ATOM     17  C   UNL A   1      33.493  21.216  24.865  1.00  0.00     0.137 C 
BRANCH  17  18
ATOM     18  C   UNL A   1      32.684  20.326  23.920  1.00  0.00     0.158 C 
BRANCH  18  19
ATOM     19  S   UNL A   1      32.745  18.535  24.105  1.00  0.00     0.149 S 
ATOM     20  C   UNL A   1      34.428  17.997  24.372  1.00  0.00     0.158 C 
ATOM     21  O   UNL A   1      32.028  18.226  25.330  1.00  0.00    -0.229 OA
ATOM     22  O   UNL A   1      32.305  17.936  22.860  1.00  0.00    -0.229 OA
ENDBRANCH  18  19
ENDBRANCH  17  18
ENDBRANCH  15  17
ENDBRANCH   8  15
ENDBRANCH   4   7
ENDBRANCH   2   3
ENDBRANCH   1   2
BRANCH   1  23
ATOM     23  C   UNL A   1      31.295  31.964  26.805  1.00  0.00     0.023 C 
BRANCH  23  24
ATOM     24  C   UNL A   1      32.654  32.580  27.101  1.00  0.00     0.116 C 
BRANCH  24  25
ATOM     25  N   UNL A   1      32.549  33.933  27.631  1.00  0.00    -0.352 N 
ATOM     26  C   UNL A   1      33.273  34.506  28.646  1.00  0.00     0.251 C 
ATOM     27  H   UNL A   1      31.872  34.509  27.207  1.00  0.00     0.163 HD
ATOM     28  O   UNL A   1      32.942  35.593  29.112  1.00  0.00    -0.269 OA
BRANCH  26  29
ATOM     29  C   UNL A   1      34.432  33.771  29.184  1.00  0.00     0.039 A 
ATOM     30  C   UNL A   1      35.719  34.165  28.821  1.00  0.00     0.014 A 
ATOM     31  C   UNL A   1      34.233  32.749  30.118  1.00  0.00     0.014 A 
ATOM     32  C   UNL A   1      36.815  33.574  29.452  1.00  0.00     0.010 A 
ATOM     33  C   UNL A   1      35.320  32.238  30.813  1.00  0.00     0.010 A 
ATOM     34  C   UNL A   1      36.624  32.638  30.482  1.00  0.00    -0.014 A 
BRANCH  34  35
ATOM     35  C   UNL A   1      37.773  32.045  31.213  1.00  0.00     0.031 A 
ATOM     36  C   UNL A   1      38.544  30.913  30.588  1.00  0.00     0.074 A 
ATOM     37  C   UNL A   1      38.082  32.481  32.450  1.00  0.00     0.049 A 
ATOM     38  N   UNL A   1      39.521  30.203  31.087  1.00  0.00    -0.248 NA
ATOM     39  C   UNL A   1      38.138  30.507  29.234  1.00  0.00     0.031 C 
ATOM     40  C   UNL A   1      37.384  33.545  33.173  1.00  0.00     0.029 A 
ATOM     41  N   UNL A   1      39.062  32.078  33.323  1.00  0.00    -0.354 N 
ATOM     42  C   UNL A   1      39.839  29.261  30.114  1.00  0.00     0.074 A 
ATOM     43  C   UNL A   1      38.898  29.443  29.030  1.00  0.00     0.031 C 
ATOM     44  C   UNL A   1      37.978  33.735  34.362  1.00  0.00     0.029 A 
ATOM     45  C   UNL A   1      39.064  32.771  34.513  1.00  0.00     0.049 A 
ATOM     46  H   UNL A   1      39.705  31.361  33.117  1.00  0.00     0.167 HD
ATOM     47  C   UNL A   1      40.841  28.349  30.112  1.00  0.00     0.034 A 
ATOM     48  C   UNL A   1      39.842  32.634  35.605  1.00  0.00     0.034 A 
ATOM     49  C   UNL A   1      41.776  28.188  31.198  1.00  0.00     0.049 A 
ATOM     50  C   UNL A   1      40.922  31.580  35.598  1.00  0.00     0.074 A 
ATOM     51  C   UNL A   1      42.854  27.326  31.285  1.00  0.00     0.029 A 
ATOM     52  N   UNL A   1      41.739  28.900  32.390  1.00  0.00    -0.354 N 
ATOM     53  N   UNL A   1      41.239  30.726  34.650  1.00  0.00    -0.248 NA
ATOM     54  C   UNL A   1      41.757  31.477  36.801  1.00  0.00     0.031 C 
ATOM     55  C   UNL A   1      43.421  27.461  32.556  1.00  0.00     0.029 A 
ATOM     56  C   UNL A   1      42.756  28.473  33.231  1.00  0.00     0.049 A 
ATOM     57  H   UNL A   1      41.087  29.605  32.608  1.00  0.00     0.167 HD
ATOM     58  C   UNL A   1      42.334  30.013  35.132  1.00  0.00     0.074 A 
ATOM     59  C   UNL A   1      42.630  30.548  36.445  1.00  0.00     0.031 C 
ATOM     60  C   UNL A   1      43.036  29.013  34.541  1.00  0.00     0.034 A 
BRANCH  47  61
ATOM     61  C   UNL A   1      40.957  27.446  28.906  1.00  0.00     0.023 A 
ATOM     62  C   UNL A   1      41.955  27.637  27.934  1.00  0.00     0.031 A 
ATOM     63  C   UNL A   1      40.041  26.398  28.709  1.00  0.00     0.131 A 
ATOM     64  C   UNL A   1      41.967  26.845  26.776  1.00  0.00     0.055 A 
ATOM     65  C   UNL A   1      40.113  25.556  27.598  1.00  0.00     0.041 A 
ATOM     66  F   UNL A   1      39.050  26.182  29.589  1.00  0.00    -0.206 F 
ATOM     67  C   UNL A   1      41.070  25.787  26.615  1.00  0.00     0.022 A 
BRANCH  64  68
ATOM     68  S   UNL A   1      43.072  27.316  25.417  1.00  0.00     0.124 S 
ATOM     69  O   UNL A   1      43.321  26.025  24.779  1.00  0.00    -0.237 OA
ATOM     70  O   UNL A   1      42.256  28.256  24.659  1.00  0.00    -0.237 OA
ATOM     71  O   UNL A   1      44.226  27.898  26.099  1.00  0.00    -0.744 OA
ENDBRANCH  64  68
ENDBRANCH  47  61
BRANCH  48  72
ATOM     72  C   UNL A   1      39.634  33.499  36.803  1.00  0.00     0.023 A 
ATOM     73  C   UNL A   1      39.008  32.998  37.956  1.00  0.00     0.031 A 
ATOM     74  C   UNL A   1      40.004  34.857  36.793  1.00  0.00     0.131 A 
ATOM     75  C   UNL A   1      38.718  33.860  39.027  1.00  0.00     0.055 A 
ATOM     76  C   UNL A   1      39.770  35.693  37.886  1.00  0.00     0.041 A 
ATOM     77  F   UNL A   1      40.606  35.389  35.718  1.00  0.00    -0.206 F 
ATOM     78  C   UNL A   1      39.110  35.200  39.006  1.00  0.00     0.022 A 
BRANCH  75  79
ATOM     79  S   UNL A   1      37.724  33.226  40.405  1.00  0.00     0.124 S 
ATOM     80  O   UNL A   1      36.484  32.860  39.731  1.00  0.00    -0.237 OA
ATOM     81  O   UNL A   1      38.544  32.119  40.887  1.00  0.00    -0.237 OA
ATOM     82  O   UNL A   1      37.628  34.369  41.310  1.00  0.00    -0.744 OA
ENDBRANCH  75  79
ENDBRANCH  48  72
BRANCH  60  83
ATOM     83  C   UNL A   1      44.231  28.472  35.290  1.00  0.00     0.023 A 
ATOM     84  C   UNL A   1      44.106  27.471  36.270  1.00  0.00     0.031 A 
ATOM     85  C   UNL A   1      45.517  28.973  35.019  1.00  0.00     0.131 A 
ATOM     86  C   UNL A   1      45.238  27.046  36.982  1.00  0.00     0.055 A 
ATOM     87  C   UNL A   1      46.649  28.496  35.682  1.00  0.00     0.041 A 
ATOM     88  F   UNL A   1      45.697  29.932  34.096  1.00  0.00    -0.206 F 
ATOM     89  C   UNL A   1      46.510  27.538  36.681  1.00  0.00     0.022 A 
BRANCH  86  90
ATOM     90  S   UNL A   1      45.011  25.915  38.381  1.00  0.00     0.124 S 
ATOM     91  O   UNL A   1      43.914  26.547  39.108  1.00  0.00    -0.237 OA
ATOM     92  O   UNL A   1      44.693  24.656  37.717  1.00  0.00    -0.237 OA
ATOM     93  O   UNL A   1      46.305  25.947  39.061  1.00  0.00    -0.744 OA
ENDBRANCH  86  90
ENDBRANCH  60  83
ENDBRANCH  34  35
ENDBRANCH  26  29
ENDBRANCH  24  25
ENDBRANCH  23  24
ENDBRANCH   1  23
TORSDOF 18
ENDMDL
MODEL 2
REMARK VINA RESULT:     -11.4      5.856     11.925
REMARK SMILES CN(CCS(C)(=O)=O)C(=O)N1CCC(C(=O)NCCCCNC(=O)c2ccc(-c3c4nc(c(-c5cc(S(=O)(=O)[O-])ccc5F)c5ccc([nH]5)c(-c5cc(S(=O)(=O)[O-])ccc5F)c5nc(c(-c6cc(S(=O)(=O)[O-])ccc6F)c6ccc3[nH]6)C=C5)C=C4)cc2)CC1
REMARK SMILES IDX 19 1 18 2 17 3 15 4 16 5 14 7 9 8 10 9 11 10 12 11 89 12
REMARK SMILES IDX 13 13 88 14 2 15 1 16 3 17 4 18 5 19 6 20 7 21 8 22 20 23
REMARK SMILES IDX 21 24 22 25 23 26 24 28 25 29 26 30 87 31 27 32 86 33 28 34
REMARK SMILES IDX 29 35 30 36 80 37 31 38 85 39 79 40 81 41 32 42 84 43 78 44
REMARK SMILES IDX 77 45 33 47 65 48 45 49 64 50 46 51 49 52 63 53 82 54 47 55
REMARK SMILES IDX 48 56 62 58 83 59 50 60 34 61 35 62 43 63 36 64 42 65 44 66
REMARK SMILES IDX 41 67 37 68 38 69 39 70 40 71 66 72 67 73 75 74 68 75 74 76
REMARK SMILES IDX 76 77 73 78 69 79 70 80 71 81 72 82 51 83 52 84 60 85 53 86
REMARK SMILES IDX 59 87 61 88 58 89 54 90 55 91 56 92 57 93
REMARK H PARENT 17 6 22 27 81 46 49 57
REMARK Flexibility Score: inf
ROOT
ATOM      1  C   UNL A   1      37.228  21.492  24.933  1.00  0.00     0.023 C 
ENDROOT
BRANCH   1   2
ATOM      2  C   UNL A   1      35.791  20.995  24.858  1.00  0.00     0.116 C 
BRANCH   2   3
ATOM      3  N   UNL A   1      35.145  21.058  26.162  1.00  0.00    -0.356 N 
ATOM      4  C   UNL A   1      34.196  21.922  26.624  1.00  0.00     0.223 C 
ATOM      5  O   UNL A   1      33.818  21.829  27.792  1.00  0.00    -0.275 OA
ATOM      6  H   UNL A   1      35.436  20.374  26.806  1.00  0.00     0.163 HD
BRANCH   4   7
ATOM      7  C   UNL A   1      33.568  22.938  25.684  1.00  0.00     0.082 C 
ATOM      8  C   UNL A   1      31.029  26.332  26.124  1.00  0.00     0.319 C 
ATOM      9  O   UNL A   1      29.867  26.091  26.455  1.00  0.00    -0.248 OA
ATOM     10  N   UNL A   1      31.885  25.325  25.707  1.00  0.00    -0.325 N 
ATOM     11  C   UNL A   1      31.345  24.096  25.147  1.00  0.00     0.122 C 
ATOM     12  C   UNL A   1      33.312  25.478  25.649  1.00  0.00     0.122 C 
ATOM     13  C   UNL A   1      32.038  22.846  25.667  1.00  0.00     0.035 C 
ATOM     14  C   UNL A   1      34.169  24.298  26.016  1.00  0.00     0.035 C 
BRANCH   8  15
ATOM     15  N   UNL A   1      31.532  27.641  26.160  1.00  0.00    -0.327 N 
ATOM     16  C   UNL A   1      31.490  28.285  27.468  1.00  0.00     0.148 C 
BRANCH  15  17
ATOM     17  C   UNL A   1      31.573  28.540  24.985  1.00  0.00     0.137 C 
BRANCH  17  18
ATOM     18  C   UNL A   1      30.751  28.083  23.778  1.00  0.00     0.158 C 
BRANCH  18  19
ATOM     19  S   UNL A   1      29.582  29.217  23.010  1.00  0.00     0.149 S 
ATOM     20  C   UNL A   1      27.924  28.560  23.110  1.00  0.00     0.158 C 
ATOM     21  O   UNL A   1      29.584  30.420  23.825  1.00  0.00    -0.229 OA
ATOM     22  O   UNL A   1      29.909  29.320  21.601  1.00  0.00    -0.229 OA
ENDBRANCH  18  19
ENDBRANCH  17  18
ENDBRANCH  15  17
ENDBRANCH   8  15
ENDBRANCH   4   7
ENDBRANCH   2   3
ENDBRANCH   1   2
BRANCH   1  23
ATOM     23  C   UNL A   1      38.252  20.364  24.969  1.00  0.00     0.023 C 
BRANCH  23  24
ATOM     24  C   UNL A   1      39.431  20.629  25.894  1.00  0.00     0.116 C 
BRANCH  24  25
ATOM     25  N   UNL A   1      40.298  19.467  26.038  1.00  0.00    -0.352 N 
ATOM     26  C   UNL A   1      41.663  19.437  26.173  1.00  0.00     0.251 C 
ATOM     27  H   UNL A   1      39.846  18.592  26.038  1.00  0.00     0.163 HD
ATOM     28  O   UNL A   1      42.275  18.375  26.092  1.00  0.00    -0.269 OA
BRANCH  26  29
ATOM     29  C   UNL A   1      42.376  20.710  26.383  1.00  0.00     0.039 A 
ATOM     30  C   UNL A   1      42.558  21.576  25.306  1.00  0.00     0.014 A 
ATOM     31  C   UNL A   1      42.782  21.074  27.670  1.00  0.00     0.014 A 
ATOM     32  C   UNL A   1      43.090  22.846  25.536  1.00  0.00     0.010 A 
ATOM     33  C   UNL A   1      43.215  22.371  27.909  1.00  0.00     0.010 A 
ATOM     34  C   UNL A   1      43.382  23.269  26.844  1.00  0.00    -0.014 A 
BRANCH  34  35
ATOM     35  C   UNL A   1      43.887  24.638  27.120  1.00  0.00     0.031 A 
ATOM     36  C   UNL A   1      42.944  25.683  27.655  1.00  0.00     0.074 A 
ATOM     37  C   UNL A   1      45.167  24.954  26.839  1.00  0.00     0.049 A 
ATOM     38  N   UNL A   1      43.159  26.951  27.884  1.00  0.00    -0.248 NA
ATOM     39  C   UNL A   1      41.568  25.246  27.936  1.00  0.00     0.031 C 
ATOM     40  C   UNL A   1      46.164  24.036  26.283  1.00  0.00     0.029 A 
ATOM     41  N   UNL A   1      45.849  26.137  26.975  1.00  0.00    -0.354 N 
ATOM     42  C   UNL A   1      41.944  27.465  28.327  1.00  0.00     0.074 A 
ATOM     43  C   UNL A   1      40.982  26.388  28.258  1.00  0.00     0.031 C 
ATOM     44  C   UNL A   1      47.336  24.680  26.160  1.00  0.00     0.029 A 
ATOM     45  C   UNL A   1      47.164  26.069  26.573  1.00  0.00     0.049 A 
ATOM     46  H   UNL A   1      45.437  26.959  27.329  1.00  0.00     0.167 HD
ATOM     47  C   UNL A   1      41.665  28.713  28.777  1.00  0.00     0.034 A 
ATOM     48  C   UNL A   1      48.117  27.022  26.529  1.00  0.00     0.034 A 
ATOM     49  C   UNL A   1      42.641  29.772  28.848  1.00  0.00     0.049 A 
ATOM     50  C   UNL A   1      47.770  28.416  26.992  1.00  0.00     0.074 A 
ATOM     51  C   UNL A   1      42.480  31.060  29.326  1.00  0.00     0.029 A 
ATOM     52  N   UNL A   1      43.959  29.669  28.422  1.00  0.00    -0.354 N 
ATOM     53  N   UNL A   1      46.627  28.875  27.450  1.00  0.00    -0.248 NA
ATOM     54  C   UNL A   1      48.842  29.417  26.943  1.00  0.00     0.031 C 
ATOM     55  C   UNL A   1      43.674  31.757  29.117  1.00  0.00     0.029 A 
ATOM     56  C   UNL A   1      44.611  30.880  28.595  1.00  0.00     0.049 A 
ATOM     57  H   UNL A   1      44.371  28.855  28.050  1.00  0.00     0.167 HD
ATOM     58  C   UNL A   1      46.858  30.208  27.779  1.00  0.00     0.074 A 
ATOM     59  C   UNL A   1      48.251  30.473  27.481  1.00  0.00     0.031 C 
ATOM     60  C   UNL A   1      46.001  31.130  28.288  1.00  0.00     0.034 A 
BRANCH  47  61
ATOM     61  C   UNL A   1      40.244  28.996  29.205  1.00  0.00     0.023 A 
ATOM     62  C   UNL A   1      39.857  28.953  30.556  1.00  0.00     0.031 A 
ATOM     63  C   UNL A   1      39.256  29.285  28.248  1.00  0.00     0.131 A 
ATOM     64  C   UNL A   1      38.509  29.118  30.905  1.00  0.00     0.055 A 
ATOM     65  C   UNL A   1      37.931  29.536  28.610  1.00  0.00     0.041 A 
ATOM     66  F   UNL A   1      39.558  29.314  26.940  1.00  0.00    -0.206 F 
ATOM     67  C   UNL A   1      37.547  29.438  29.944  1.00  0.00     0.022 A 
BRANCH  64  68
ATOM     68  S   UNL A   1      38.006  28.757  32.610  1.00  0.00     0.124 S 
ATOM     69  O   UNL A   1      36.655  29.315  32.643  1.00  0.00    -0.237 OA
ATOM     70  O   UNL A   1      38.097  27.303  32.664  1.00  0.00    -0.237 OA
ATOM     71  O   UNL A   1      38.988  29.476  33.417  1.00  0.00    -0.744 OA
ENDBRANCH  64  68
ENDBRANCH  47  61
BRANCH  48  72
ATOM     72  C   UNL A   1      49.485  26.708  26.022  1.00  0.00     0.023 A 
ATOM     73  C   UNL A   1      49.899  27.134  24.749  1.00  0.00     0.031 A 
ATOM     74  C   UNL A   1      50.380  25.929  26.778  1.00  0.00     0.131 A 
ATOM     75  C   UNL A   1      51.146  26.730  24.246  1.00  0.00     0.055 A 
ATOM     76  C   UNL A   1      51.645  25.584  26.298  1.00  0.00     0.041 A 
ATOM     77  F   UNL A   1      50.039  25.496  28.001  1.00  0.00    -0.206 F 
ATOM     78  C   UNL A   1      52.029  25.972  25.018  1.00  0.00     0.022 A 
BRANCH  75  79
ATOM     79  S   UNL A   1      51.555  27.122  22.522  1.00  0.00     0.124 S 
ATOM     80  O   UNL A   1      52.612  26.157  22.244  1.00  0.00    -0.237 OA
ATOM     81  O   UNL A   1      50.281  26.891  21.850  1.00  0.00    -0.237 OA
ATOM     82  O   UNL A   1      51.982  28.517  22.583  1.00  0.00    -0.744 OA
ENDBRANCH  75  79
ENDBRANCH  48  72
BRANCH  60  83
ATOM     83  C   UNL A   1      46.564  32.494  28.608  1.00  0.00     0.023 A 
ATOM     84  C   UNL A   1      46.625  33.519  27.648  1.00  0.00     0.031 A 
ATOM     85  C   UNL A   1      47.051  32.769  29.899  1.00  0.00     0.131 A 
ATOM     86  C   UNL A   1      47.214  34.750  27.976  1.00  0.00     0.055 A 
ATOM     87  C   UNL A   1      47.572  34.018  30.239  1.00  0.00     0.041 A 
ATOM     88  F   UNL A   1      47.023  31.827  30.855  1.00  0.00    -0.206 F 
ATOM     89  C   UNL A   1      47.669  35.012  29.271  1.00  0.00     0.022 A 
BRANCH  86  90
ATOM     90  S   UNL A   1      47.470  35.971  26.660  1.00  0.00     0.124 S 
ATOM     91  O   UNL A   1      47.720  35.119  25.501  1.00  0.00    -0.237 OA
ATOM     92  O   UNL A   1      46.205  36.697  26.656  1.00  0.00    -0.237 OA
ATOM     93  O   UNL A   1      48.624  36.739  27.125  1.00  0.00    -0.744 OA
ENDBRANCH  86  90
ENDBRANCH  60  83
ENDBRANCH  34  35
ENDBRANCH  26  29
ENDBRANCH  24  25
ENDBRANCH  23  24
ENDBRANCH   1  23
TORSDOF 18
ENDMDL
MODEL 3
REMARK VINA RESULT:     -11.3      5.611      9.061
REMARK SMILES CN(CCS(C)(=O)=O)C(=O)N1CCC(C(=O)NCCCCNC(=O)c2ccc(-c3c4nc(c(-c5cc(S(=O)(=O)[O-])ccc5F)c5ccc([nH]5)c(-c5cc(S(=O)(=O)[O-])ccc5F)c5nc(c(-c6cc(S(=O)(=O)[O-])ccc6F)c6ccc3[nH]6)C=C5)C=C4)cc2)CC1
REMARK SMILES IDX 19 1 18 2 17 3 15 4 16 5 14 7 9 8 10 9 11 10 12 11 89 12
REMARK SMILES IDX 13 13 88 14 2 15 1 16 3 17 4 18 5 19 6 20 7 21 8 22 20 23
REMARK SMILES IDX 21 24 22 25 23 26 24 28 25 29 26 30 87 31 27 32 86 33 28 34
REMARK SMILES IDX 29 35 30 36 80 37 31 38 85 39 79 40 81 41 32 42 84 43 78 44
REMARK SMILES IDX 77 45 33 47 65 48 45 49 64 50 46 51 49 52 63 53 82 54 47 55
REMARK SMILES IDX 48 56 62 58 83 59 50 60 34 61 35 62 43 63 36 64 42 65 44 66
REMARK SMILES IDX 41 67 37 68 38 69 39 70 40 71 66 72 67 73 75 74 68 75 74 76
REMARK SMILES IDX 76 77 73 78 69 79 70 80 71 81 72 82 51 83 52 84 60 85 53 86
REMARK SMILES IDX 59 87 61 88 58 89 54 90 55 91 56 92 57 93
REMARK H PARENT 17 6 22 27 81 46 49 57
REMARK Flexibility Score: inf
ROOT
ATOM      1  C   UNL A   1      35.345  23.532  25.908  1.00  0.00     0.023 C 
ENDROOT
BRANCH   1   2
ATOM      2  C   UNL A   1      33.829  23.634  26.006  1.00  0.00     0.116 C 
BRANCH   2   3
ATOM      3  N   UNL A   1      33.200  22.344  25.756  1.00  0.00    -0.356 N 
ATOM      4  C   UNL A   1      31.935  22.057  25.335  1.00  0.00     0.223 C 
ATOM      5  O   UNL A   1      31.587  20.881  25.236  1.00  0.00    -0.275 OA
ATOM      6  H   UNL A   1      33.775  21.561  25.915  1.00  0.00     0.163 HD
BRANCH   4   7
ATOM      7  C   UNL A   1      30.996  23.181  24.928  1.00  0.00     0.082 C 
ATOM      8  C   UNL A   1      31.279  27.421  24.603  1.00  0.00     0.319 C 
ATOM      9  O   UNL A   1      31.367  28.033  25.669  1.00  0.00    -0.248 OA
ATOM     10  N   UNL A   1      30.933  26.079  24.568  1.00  0.00    -0.325 N 
ATOM     11  C   UNL A   1      30.171  25.495  25.661  1.00  0.00     0.122 C 
ATOM     12  C   UNL A   1      31.153  25.239  23.425  1.00  0.00     0.122 C 
ATOM     13  C   UNL A   1      30.689  24.132  26.091  1.00  0.00     0.035 C 
ATOM     14  C   UNL A   1      31.559  23.810  23.660  1.00  0.00     0.035 C 
BRANCH   8  15
ATOM     15  N   UNL A   1      31.530  28.061  23.381  1.00  0.00    -0.327 N 
ATOM     16  C   UNL A   1      32.888  28.564  23.212  1.00  0.00     0.148 C 
BRANCH  15  17
ATOM     17  C   UNL A   1      30.481  28.707  22.560  1.00  0.00     0.137 C 
BRANCH  17  18
ATOM     18  C   UNL A   1      29.623  29.745  23.286  1.00  0.00     0.158 C 
BRANCH  18  19
ATOM     19  S   UNL A   1      28.156  30.414  22.484  1.00  0.00     0.149 S 
ATOM     20  C   UNL A   1      28.251  32.196  22.402  1.00  0.00     0.158 C 
ATOM     21  O   UNL A   1      28.196  29.949  21.108  1.00  0.00    -0.229 OA
ATOM     22  O   UNL A   1      27.005  30.091  23.304  1.00  0.00    -0.229 OA
ENDBRANCH  18  19
ENDBRANCH  17  18
ENDBRANCH  15  17
ENDBRANCH   8  15
ENDBRANCH   4   7
ENDBRANCH   2   3
ENDBRANCH   1   2
BRANCH   1  23
ATOM     23  C   UNL A   1      35.835  22.119  25.620  1.00  0.00     0.023 C 
BRANCH  23  24
ATOM     24  C   UNL A   1      37.183  22.063  24.916  1.00  0.00     0.116 C 
BRANCH  24  25
ATOM     25  N   UNL A   1      38.014  20.964  25.389  1.00  0.00    -0.352 N 
ATOM     26  C   UNL A   1      39.203  21.032  26.071  1.00  0.00     0.251 C 
ATOM     27  H   UNL A   1      37.680  20.059  25.194  1.00  0.00     0.163 HD
ATOM     28  O   UNL A   1      39.885  20.023  26.236  1.00  0.00    -0.269 OA
BRANCH  26  29
ATOM     29  C   UNL A   1      39.654  22.343  26.568  1.00  0.00     0.039 A 
ATOM     30  C   UNL A   1      40.710  22.403  27.478  1.00  0.00     0.014 A 
ATOM     31  C   UNL A   1      39.083  23.513  26.059  1.00  0.00     0.014 A 
ATOM     32  C   UNL A   1      41.240  23.647  27.825  1.00  0.00     0.010 A 
ATOM     33  C   UNL A   1      39.677  24.738  26.329  1.00  0.00     0.010 A 
ATOM     34  C   UNL A   1      40.757  24.820  27.221  1.00  0.00    -0.014 A 
BRANCH  34  35
ATOM     35  C   UNL A   1      41.349  26.148  27.525  1.00  0.00     0.031 A 
ATOM     36  C   UNL A   1      42.727  26.480  27.018  1.00  0.00     0.074 A 
ATOM     37  C   UNL A   1      40.677  27.023  28.299  1.00  0.00     0.049 A 
ATOM     38  N   UNL A   1      43.456  27.541  27.239  1.00  0.00    -0.248 NA
ATOM     39  C   UNL A   1      43.382  25.465  26.178  1.00  0.00     0.031 C 
ATOM     40  C   UNL A   1      39.351  26.798  28.879  1.00  0.00     0.029 A 
ATOM     41  N   UNL A   1      41.019  28.278  28.738  1.00  0.00    -0.354 N 
ATOM     42  C   UNL A   1      44.658  27.318  26.574  1.00  0.00     0.074 A 
ATOM     43  C   UNL A   1      44.586  25.989  26.010  1.00  0.00     0.031 C 
ATOM     44  C   UNL A   1      38.979  27.891  29.565  1.00  0.00     0.029 A 
ATOM     45  C   UNL A   1      40.058  28.872  29.524  1.00  0.00     0.049 A 
ATOM     46  H   UNL A   1      41.873  28.714  28.510  1.00  0.00     0.167 HD
ATOM     47  C   UNL A   1      45.712  28.157  26.424  1.00  0.00     0.034 A 
ATOM     48  C   UNL A   1      40.055  30.065  30.152  1.00  0.00     0.034 A 
ATOM     49  C   UNL A   1      45.761  29.484  26.986  1.00  0.00     0.049 A 
ATOM     50  C   UNL A   1      41.259  30.963  30.008  1.00  0.00     0.074 A 
ATOM     51  C   UNL A   1      46.759  30.435  26.862  1.00  0.00     0.029 A 
ATOM     52  N   UNL A   1      44.774  30.047  27.786  1.00  0.00    -0.354 N 
ATOM     53  N   UNL A   1      42.371  30.756  29.338  1.00  0.00    -0.248 NA
ATOM     54  C   UNL A   1      41.205  32.260  30.694  1.00  0.00     0.031 C 
ATOM     55  C   UNL A   1      46.412  31.538  27.647  1.00  0.00     0.029 A 
ATOM     56  C   UNL A   1      45.156  31.318  28.188  1.00  0.00     0.049 A 
ATOM     57  H   UNL A   1      43.928  29.608  28.031  1.00  0.00     0.167 HD
ATOM     58  C   UNL A   1      43.129  31.913  29.493  1.00  0.00     0.074 A 
ATOM     59  C   UNL A   1      42.342  32.818  30.306  1.00  0.00     0.031 C 
ATOM     60  C   UNL A   1      44.361  32.207  29.004  1.00  0.00     0.034 A 
BRANCH  47  61
ATOM     61  C   UNL A   1      46.898  27.649  25.639  1.00  0.00     0.023 A 
ATOM     62  C   UNL A   1      47.123  28.038  24.306  1.00  0.00     0.031 A 
ATOM     63  C   UNL A   1      47.802  26.742  26.219  1.00  0.00     0.131 A 
ATOM     64  C   UNL A   1      48.174  27.465  23.576  1.00  0.00     0.055 A 
ATOM     65  C   UNL A   1      48.899  26.243  25.514  1.00  0.00     0.041 A 
ATOM     66  F   UNL A   1      47.626  26.313  27.479  1.00  0.00    -0.206 F 
ATOM     67  C   UNL A   1      49.081  26.591  24.180  1.00  0.00     0.022 A 
BRANCH  64  68
ATOM     68  S   UNL A   1      48.247  27.758  21.788  1.00  0.00     0.124 S 
ATOM     69  O   UNL A   1      49.300  28.768  21.697  1.00  0.00    -0.237 OA
ATOM     70  O   UNL A   1      48.581  26.440  21.265  1.00  0.00    -0.237 OA
ATOM     71  O   UNL A   1      46.905  28.239  21.464  1.00  0.00    -0.744 OA
ENDBRANCH  64  68
ENDBRANCH  47  61
BRANCH  48  72
ATOM     72  C   UNL A   1      38.889  30.486  30.982  1.00  0.00     0.023 A 
ATOM     73  C   UNL A   1      37.887  31.316  30.454  1.00  0.00     0.031 A 
ATOM     74  C   UNL A   1      38.787  30.113  32.335  1.00  0.00     0.131 A 
ATOM     75  C   UNL A   1      36.861  31.793  31.286  1.00  0.00     0.055 A 
ATOM     76  C   UNL A   1      37.729  30.539  33.141  1.00  0.00     0.041 A 
ATOM     77  F   UNL A   1      39.715  29.321  32.894  1.00  0.00    -0.206 F 
ATOM     78  C   UNL A   1      36.766  31.397  32.621  1.00  0.00     0.022 A 
BRANCH  75  79
ATOM     79  S   UNL A   1      35.709  33.028  30.621  1.00  0.00     0.124 S 
ATOM     80  O   UNL A   1      36.135  34.235  31.321  1.00  0.00    -0.237 OA
ATOM     81  O   UNL A   1      36.001  32.976  29.193  1.00  0.00    -0.237 OA
ATOM     82  O   UNL A   1      34.398  32.513  31.008  1.00  0.00    -0.744 OA
ENDBRANCH  75  79
ENDBRANCH  48  72
BRANCH  60  83
ATOM     83  C   UNL A   1      44.906  33.586  29.287  1.00  0.00     0.023 A 
ATOM     84  C   UNL A   1      44.734  34.654  28.390  1.00  0.00     0.031 A 
ATOM     85  C   UNL A   1      45.615  33.831  30.478  1.00  0.00     0.131 A 
ATOM     86  C   UNL A   1      45.314  35.902  28.670  1.00  0.00     0.055 A 
ATOM     87  C   UNL A   1      46.129  35.092  30.783  1.00  0.00     0.041 A 
ATOM     88  F   UNL A   1      45.814  32.848  31.370  1.00  0.00    -0.206 F 
ATOM     89  C   UNL A   1      45.992  36.133  29.869  1.00  0.00     0.022 A 
BRANCH  86  90
ATOM     90  S   UNL A   1      45.256  37.193  27.397  1.00  0.00     0.124 S 
ATOM     91  O   UNL A   1      45.758  38.356  28.122  1.00  0.00    -0.237 OA
ATOM     92  O   UNL A   1      46.137  36.655  26.366  1.00  0.00    -0.237 OA
ATOM     93  O   UNL A   1      43.842  37.253  27.033  1.00  0.00    -0.744 OA
ENDBRANCH  86  90
ENDBRANCH  60  83
ENDBRANCH  34  35
ENDBRANCH  26  29
ENDBRANCH  24  25
ENDBRANCH  23  24
ENDBRANCH   1  23
TORSDOF 18
ENDMDL
