MODEL 1
REMARK VINA RESULT:     -12.2      0.000      0.000
REMARK SMILES CCn1cc(S(=O)(=O)N2CCC(CCc3ccc(C(=O)NCCCCNC(=O)c4ccc(-c5c6nc(c(-c7cc(S(=O)(=O)[O-])ccc7F)c7ccc([nH]7)c(-c7cc(S(=O)(=O)[O-])ccc7F)c7nc(c(-c8cc(S(=O)(=O)[O-])ccc8F)c8ccc5[nH]8)C=C7)C=C6)cc4)cc3)CC2)cn1
REMARK SMILES IDX 22 1 21 2 19 3 20 4 18 6 15 7 16 8 93 9 17 10 92 11 14 12
REMARK SMILES IDX 13 13 12 14 9 15 10 16 95 17 11 18 94 19 6 20 7 21 8 22 5 23
REMARK SMILES IDX 3 24 4 25 97 26 96 27 2 28 1 29 23 30 24 31 25 32 26 33
REMARK SMILES IDX 27 34 28 36 29 37 30 38 91 39 31 40 90 41 32 42 33 43 34 44
REMARK SMILES IDX 84 45 35 46 89 47 83 48 85 49 36 50 88 51 82 52 81 53 37 55
REMARK SMILES IDX 69 56 49 57 68 58 50 59 53 60 67 61 86 62 51 63 52 64 66 66
REMARK SMILES IDX 87 67 54 68 38 69 39 70 47 71 40 72 46 73 48 74 45 75 41 76
REMARK SMILES IDX 42 77 43 78 44 79 70 80 71 81 79 82 72 83 78 84 80 85 77 86
REMARK SMILES IDX 73 87 74 88 75 89 76 90 55 91 56 92 64 93 57 94 63 95 65 96
REMARK SMILES IDX 62 97 58 98 59 99 60 100 61 101
REMARK H PARENT 21 5 26 35 85 54 53 65
REMARK Flexibility Score: inf
ROOT
ATOM      1  C   UNL A   1      39.671  21.353  26.064  1.00  0.00     0.116 C 
ENDROOT
BRANCH   1   2
ATOM      2  N   UNL A   1      39.313  22.736  26.323  1.00  0.00    -0.352 N 
ATOM      3  C   UNL A   1      38.173  23.480  26.137  1.00  0.00     0.251 C 
ATOM      4  O   UNL A   1      38.228  24.669  26.458  1.00  0.00    -0.269 OA
ATOM      5  H   UNL A   1      40.049  23.256  26.720  1.00  0.00     0.163 HD
BRANCH   3   6
ATOM      6  C   UNL A   1      36.887  22.956  25.582  1.00  0.00     0.039 A 
ATOM      7  C   UNL A   1      34.548  21.900  24.349  1.00  0.00    -0.048 A 
ATOM      8  C   UNL A   1      35.616  22.354  23.571  1.00  0.00     0.004 A 
ATOM      9  C   UNL A   1      34.642  22.053  25.735  1.00  0.00     0.004 A 
ATOM     10  C   UNL A   1      36.761  22.890  24.182  1.00  0.00     0.014 A 
ATOM     11  C   UNL A   1      35.816  22.501  26.344  1.00  0.00     0.014 A 
BRANCH   7  12
ATOM     12  C   UNL A   1      33.334  21.254  23.720  1.00  0.00     0.036 C 
BRANCH  12  13
ATOM     13  C   UNL A   1      32.318  22.250  23.108  1.00  0.00     0.008 C 
BRANCH  13  14
ATOM     14  C   UNL A   1      32.355  23.684  23.675  1.00  0.00    -0.008 C 
ATOM     15  N   UNL A   1      31.794  26.530  23.912  1.00  0.00    -0.198 NA
ATOM     16  C   UNL A   1      33.072  26.070  23.318  1.00  0.00     0.103 C 
ATOM     17  C   UNL A   1      31.116  25.553  24.808  1.00  0.00     0.103 C 
ATOM     18  C   UNL A   1      32.915  24.701  22.672  1.00  0.00     0.020 C 
ATOM     19  C   UNL A   1      30.980  24.181  24.137  1.00  0.00     0.020 C 
BRANCH  15  20
ATOM     20  S   UNL A   1      31.813  28.152  24.474  1.00  0.00     0.246 S 
ATOM     21  O   UNL A   1      33.097  28.728  24.155  1.00  0.00    -0.207 OA
ATOM     22  O   UNL A   1      31.271  28.184  25.817  1.00  0.00    -0.207 OA
BRANCH  20  23
ATOM     23  C   UNL A   1      30.712  29.099  23.565  1.00  0.00     0.120 A 
ATOM     24  N   UNL A   1      29.179  30.525  22.944  1.00  0.00    -0.272 N 
ATOM     25  C   UNL A   1      30.086  30.266  23.929  1.00  0.00     0.130 A 
ATOM     26  N   UNL A   1      29.273  29.674  21.905  1.00  0.00    -0.180 NA
ATOM     27  C   UNL A   1      30.218  28.804  22.288  1.00  0.00     0.156 A 
BRANCH  24  28
ATOM     28  C   UNL A   1      28.112  31.510  22.983  1.00  0.00     0.141 C 
ATOM     29  C   UNL A   1      28.515  32.859  22.401  1.00  0.00     0.029 C 
ENDBRANCH  24  28
ENDBRANCH  20  23
ENDBRANCH  15  20
ENDBRANCH  13  14
ENDBRANCH  12  13
ENDBRANCH   7  12
ENDBRANCH   3   6
ENDBRANCH   1   2
BRANCH   1  30
ATOM     30  C   UNL A   1      41.096  21.055  26.542  1.00  0.00     0.023 C 
BRANCH  30  31
ATOM     31  C   UNL A   1      41.680  19.714  26.070  1.00  0.00     0.023 C 
BRANCH  31  32
ATOM     32  C   UNL A   1      43.158  19.523  26.393  1.00  0.00     0.116 C 
BRANCH  32  33
ATOM     33  N   UNL A   1      43.970  19.219  25.214  1.00  0.00    -0.352 N 
ATOM     34  C   UNL A   1      44.472  20.117  24.288  1.00  0.00     0.251 C 
ATOM     35  H   UNL A   1      44.183  18.269  25.062  1.00  0.00     0.163 HD
ATOM     36  O   UNL A   1      44.754  19.750  23.153  1.00  0.00    -0.269 OA
BRANCH  34  37
ATOM     37  C   UNL A   1      44.646  21.519  24.708  1.00  0.00     0.039 A 
ATOM     38  C   UNL A   1      43.825  22.531  24.217  1.00  0.00     0.014 A 
ATOM     39  C   UNL A   1      45.578  21.775  25.715  1.00  0.00     0.014 A 
ATOM     40  C   UNL A   1      43.860  23.777  24.845  1.00  0.00     0.010 A 
ATOM     41  C   UNL A   1      45.518  22.962  26.413  1.00  0.00     0.010 A 
ATOM     42  C   UNL A   1      44.667  23.976  25.985  1.00  0.00    -0.014 A 
BRANCH  42  43
ATOM     43  C   UNL A   1      44.468  25.159  26.837  1.00  0.00     0.031 A 
ATOM     44  C   UNL A   1      45.554  26.169  26.715  1.00  0.00     0.074 A 
ATOM     45  C   UNL A   1      43.364  25.433  27.572  1.00  0.00     0.049 A 
ATOM     46  N   UNL A   1      46.525  26.346  27.546  1.00  0.00    -0.248 NA
ATOM     47  C   UNL A   1      45.713  26.924  25.461  1.00  0.00     0.031 C 
ATOM     48  C   UNL A   1      42.113  24.672  27.654  1.00  0.00     0.029 A 
ATOM     49  N   UNL A   1      43.104  26.508  28.377  1.00  0.00    -0.354 N 
ATOM     50  C   UNL A   1      47.261  27.420  27.066  1.00  0.00     0.074 A 
ATOM     51  C   UNL A   1      46.851  27.586  25.697  1.00  0.00     0.031 C 
ATOM     52  C   UNL A   1      41.165  25.399  28.289  1.00  0.00     0.029 A 
ATOM     53  C   UNL A   1      41.782  26.601  28.822  1.00  0.00     0.049 A 
ATOM     54  H   UNL A   1      43.794  27.165  28.624  1.00  0.00     0.167 HD
ATOM     55  C   UNL A   1      47.946  28.221  27.930  1.00  0.00     0.034 A 
ATOM     56  C   UNL A   1      41.232  27.544  29.639  1.00  0.00     0.034 A 
ATOM     57  C   UNL A   1      48.040  27.591  29.233  1.00  0.00     0.049 A 
ATOM     58  C   UNL A   1      42.342  28.081  30.453  1.00  0.00     0.074 A 
ATOM     59  C   UNL A   1      48.594  26.423  29.721  1.00  0.00     0.029 A 
ATOM     60  N   UNL A   1      47.139  28.005  30.189  1.00  0.00    -0.354 N 
ATOM     61  N   UNL A   1      42.988  27.362  31.328  1.00  0.00    -0.248 NA
ATOM     62  C   UNL A   1      43.042  29.264  29.985  1.00  0.00     0.031 C 
ATOM     63  C   UNL A   1      47.670  25.956  30.704  1.00  0.00     0.029 A 
ATOM     64  C   UNL A   1      46.648  26.900  30.836  1.00  0.00     0.049 A 
ATOM     65  H   UNL A   1      46.890  28.939  30.376  1.00  0.00     0.167 HD
ATOM     66  C   UNL A   1      44.315  27.721  31.167  1.00  0.00     0.074 A 
ATOM     67  C   UNL A   1      44.271  28.981  30.429  1.00  0.00     0.031 C 
ATOM     68  C   UNL A   1      45.314  26.821  31.407  1.00  0.00     0.034 A 
BRANCH  55  69
ATOM     69  C   UNL A   1      48.152  29.714  27.768  1.00  0.00     0.023 A 
ATOM     70  C   UNL A   1      46.990  30.513  27.704  1.00  0.00     0.031 A 
ATOM     71  C   UNL A   1      49.349  30.347  27.366  1.00  0.00     0.131 A 
ATOM     72  C   UNL A   1      47.023  31.798  27.139  1.00  0.00     0.055 A 
ATOM     73  C   UNL A   1      49.386  31.651  26.863  1.00  0.00     0.041 A 
ATOM     74  F   UNL A   1      50.531  29.722  27.350  1.00  0.00    -0.206 F 
ATOM     75  C   UNL A   1      48.215  32.373  26.711  1.00  0.00     0.022 A 
BRANCH  72  76
ATOM     76  S   UNL A   1      45.449  32.625  26.797  1.00  0.00     0.124 S 
ATOM     77  O   UNL A   1      45.703  33.961  27.325  1.00  0.00    -0.237 OA
ATOM     78  O   UNL A   1      45.358  32.509  25.346  1.00  0.00    -0.237 OA
ATOM     79  O   UNL A   1      44.480  31.830  27.547  1.00  0.00    -0.744 OA
ENDBRANCH  72  76
ENDBRANCH  55  69
BRANCH  56  80
ATOM     80  C   UNL A   1      39.895  28.197  29.562  1.00  0.00     0.023 A 
ATOM     81  C   UNL A   1      39.122  28.524  30.703  1.00  0.00     0.031 A 
ATOM     82  C   UNL A   1      39.492  28.779  28.340  1.00  0.00     0.131 A 
ATOM     83  C   UNL A   1      38.020  29.409  30.594  1.00  0.00     0.055 A 
ATOM     84  C   UNL A   1      38.411  29.660  28.242  1.00  0.00     0.041 A 
ATOM     85  F   UNL A   1      40.198  28.582  27.216  1.00  0.00    -0.206 F 
ATOM     86  C   UNL A   1      37.678  29.989  29.370  1.00  0.00     0.022 A 
BRANCH  83  87
ATOM     87  S   UNL A   1      37.058  29.902  32.067  1.00  0.00     0.124 S 
ATOM     88  O   UNL A   1      35.786  30.317  31.485  1.00  0.00    -0.237 OA
ATOM     89  O   UNL A   1      37.042  28.677  32.860  1.00  0.00    -0.237 OA
ATOM     90  O   UNL A   1      37.848  30.990  32.644  1.00  0.00    -0.744 OA
ENDBRANCH  83  87
ENDBRANCH  56  80
BRANCH  68  91
ATOM     91  C   UNL A   1      44.964  25.570  32.194  1.00  0.00     0.023 A 
ATOM     92  C   UNL A   1      44.909  25.472  33.605  1.00  0.00     0.031 A 
ATOM     93  C   UNL A   1      44.596  24.436  31.450  1.00  0.00     0.131 A 
ATOM     94  C   UNL A   1      44.515  24.261  34.213  1.00  0.00     0.055 A 
ATOM     95  C   UNL A   1      44.182  23.251  32.054  1.00  0.00     0.041 A 
ATOM     96  F   UNL A   1      44.610  24.469  30.107  1.00  0.00    -0.206 F 
ATOM     97  C   UNL A   1      44.149  23.156  33.439  1.00  0.00     0.022 A 
BRANCH  94  98
ATOM     98  S   UNL A   1      44.504  24.089  36.029  1.00  0.00     0.124 S 
ATOM     99  O   UNL A   1      44.888  22.699  36.246  1.00  0.00    -0.237 OA
ATOM    100  O   UNL A   1      45.478  25.092  36.451  1.00  0.00    -0.237 OA
ATOM    101  O   UNL A   1      43.119  24.400  36.392  1.00  0.00    -0.744 OA
ENDBRANCH  94  98
ENDBRANCH  68  91
ENDBRANCH  42  43
ENDBRANCH  34  37
ENDBRANCH  32  33
ENDBRANCH  31  32
ENDBRANCH  30  31
ENDBRANCH   1  30
TORSDOF 20
ENDMDL
MODEL 2
REMARK VINA RESULT:     -11.8      1.955      2.435
REMARK SMILES CCn1cc(S(=O)(=O)N2CCC(CCc3ccc(C(=O)NCCCCNC(=O)c4ccc(-c5c6nc(c(-c7cc(S(=O)(=O)[O-])ccc7F)c7ccc([nH]7)c(-c7cc(S(=O)(=O)[O-])ccc7F)c7nc(c(-c8cc(S(=O)(=O)[O-])ccc8F)c8ccc5[nH]8)C=C7)C=C6)cc4)cc3)CC2)cn1
REMARK SMILES IDX 22 1 21 2 19 3 20 4 18 6 15 7 16 8 93 9 17 10 92 11 14 12
REMARK SMILES IDX 13 13 12 14 9 15 10 16 95 17 11 18 94 19 6 20 7 21 8 22 5 23
REMARK SMILES IDX 3 24 4 25 97 26 96 27 2 28 1 29 23 30 24 31 25 32 26 33
REMARK SMILES IDX 27 34 28 36 29 37 30 38 91 39 31 40 90 41 32 42 33 43 34 44
REMARK SMILES IDX 84 45 35 46 89 47 83 48 85 49 36 50 88 51 82 52 81 53 37 55
REMARK SMILES IDX 69 56 49 57 68 58 50 59 53 60 67 61 86 62 51 63 52 64 66 66
REMARK SMILES IDX 87 67 54 68 38 69 39 70 47 71 40 72 46 73 48 74 45 75 41 76
REMARK SMILES IDX 42 77 43 78 44 79 70 80 71 81 79 82 72 83 78 84 80 85 77 86
REMARK SMILES IDX 73 87 74 88 75 89 76 90 55 91 56 92 64 93 57 94 63 95 65 96
REMARK SMILES IDX 62 97 58 98 59 99 60 100 61 101
REMARK H PARENT 21 5 26 35 85 54 53 65
REMARK Flexibility Score: inf
ROOT
ATOM      1  C   UNL A   1      39.730  20.838  25.716  1.00  0.00     0.116 C 
ENDROOT
BRANCH   1   2
ATOM      2  N   UNL A   1      39.409  22.241  25.903  1.00  0.00    -0.352 N 
ATOM      3  C   UNL A   1      38.237  22.953  25.975  1.00  0.00     0.251 C 
ATOM      4  O   UNL A   1      38.337  24.173  26.123  1.00  0.00    -0.269 OA
ATOM      5  H   UNL A   1      40.209  22.809  26.001  1.00  0.00     0.163 HD
BRANCH   3   6
ATOM      6  C   UNL A   1      36.866  22.360  25.891  1.00  0.00     0.039 A 
ATOM      7  C   UNL A   1      34.351  21.044  25.674  1.00  0.00    -0.048 A 
ATOM      8  C   UNL A   1      35.454  20.590  24.946  1.00  0.00     0.004 A 
ATOM      9  C   UNL A   1      34.512  22.199  26.445  1.00  0.00     0.004 A 
ATOM     10  C   UNL A   1      36.688  21.252  25.041  1.00  0.00     0.014 A 
ATOM     11  C   UNL A   1      35.760  22.801  26.609  1.00  0.00     0.014 A 
BRANCH   7  12
ATOM     12  C   UNL A   1      33.030  20.308  25.644  1.00  0.00     0.036 C 
BRANCH  12  13
ATOM     13  C   UNL A   1      31.981  20.906  24.674  1.00  0.00     0.008 C 
BRANCH  13  14
ATOM     14  C   UNL A   1      32.275  22.329  24.157  1.00  0.00    -0.008 C 
ATOM     15  N   UNL A   1      32.017  24.752  22.565  1.00  0.00    -0.198 NA
ATOM     16  C   UNL A   1      33.057  23.749  22.232  1.00  0.00     0.103 C 
ATOM     17  C   UNL A   1      31.521  24.718  23.968  1.00  0.00     0.103 C 
ATOM     18  C   UNL A   1      32.632  22.354  22.665  1.00  0.00     0.020 C 
ATOM     19  C   UNL A   1      31.110  23.301  24.382  1.00  0.00     0.020 C 
BRANCH  15  20
ATOM     20  S   UNL A   1      32.306  26.318  21.925  1.00  0.00     0.246 S 
ATOM     21  O   UNL A   1      31.042  26.881  21.513  1.00  0.00    -0.207 OA
ATOM     22  O   UNL A   1      33.443  26.250  21.029  1.00  0.00    -0.207 OA
BRANCH  20  23
ATOM     23  C   UNL A   1      32.827  27.373  23.170  1.00  0.00     0.120 A 
ATOM     24  N   UNL A   1      33.643  28.204  25.018  1.00  0.00    -0.272 N 
ATOM     25  C   UNL A   1      33.698  27.114  24.200  1.00  0.00     0.130 A 
ATOM     26  N   UNL A   1      32.894  29.203  24.512  1.00  0.00    -0.180 NA
ATOM     27  C   UNL A   1      32.400  28.691  23.377  1.00  0.00     0.156 A 
BRANCH  24  28
ATOM     28  C   UNL A   1      34.196  28.314  26.357  1.00  0.00     0.141 C 
ATOM     29  C   UNL A   1      33.153  28.654  27.413  1.00  0.00     0.029 C 
ENDBRANCH  24  28
ENDBRANCH  20  23
ENDBRANCH  15  20
ENDBRANCH  13  14
ENDBRANCH  12  13
ENDBRANCH   7  12
ENDBRANCH   3   6
ENDBRANCH   1   2
BRANCH   1  30
ATOM     30  C   UNL A   1      40.812  20.384  26.701  1.00  0.00     0.023 C 
BRANCH  30  31
ATOM     31  C   UNL A   1      41.603  19.136  26.280  1.00  0.00     0.023 C 
BRANCH  31  32
ATOM     32  C   UNL A   1      43.069  19.147  26.701  1.00  0.00     0.116 C 
BRANCH  32  33
ATOM     33  N   UNL A   1      43.977  18.736  25.630  1.00  0.00    -0.352 N 
ATOM     34  C   UNL A   1      44.524  19.537  24.641  1.00  0.00     0.251 C 
ATOM     35  H   UNL A   1      44.229  17.783  25.611  1.00  0.00     0.163 HD
ATOM     36  O   UNL A   1      44.903  19.048  23.583  1.00  0.00    -0.269 OA
BRANCH  34  37
ATOM     37  C   UNL A   1      44.625  20.984  24.900  1.00  0.00     0.039 A 
ATOM     38  C   UNL A   1      43.654  21.872  24.442  1.00  0.00     0.014 A 
ATOM     39  C   UNL A   1      45.657  21.415  25.733  1.00  0.00     0.014 A 
ATOM     40  C   UNL A   1      43.660  23.176  24.939  1.00  0.00     0.010 A 
ATOM     41  C   UNL A   1      45.585  22.661  26.319  1.00  0.00     0.010 A 
ATOM     42  C   UNL A   1      44.594  23.555  25.927  1.00  0.00    -0.014 A 
BRANCH  42  43
ATOM     43  C   UNL A   1      44.405  24.801  26.686  1.00  0.00     0.031 A 
ATOM     44  C   UNL A   1      45.436  25.836  26.397  1.00  0.00     0.074 A 
ATOM     45  C   UNL A   1      43.346  25.101  27.475  1.00  0.00     0.049 A 
ATOM     46  N   UNL A   1      46.455  26.121  27.135  1.00  0.00    -0.248 NA
ATOM     47  C   UNL A   1      45.474  26.480  25.074  1.00  0.00     0.031 C 
ATOM     48  C   UNL A   1      42.137  24.305  27.714  1.00  0.00     0.029 A 
ATOM     49  N   UNL A   1      43.097  26.233  28.200  1.00  0.00    -0.354 N 
ATOM     50  C   UNL A   1      47.109  27.174  26.510  1.00  0.00     0.074 A 
ATOM     51  C   UNL A   1      46.596  27.202  25.166  1.00  0.00     0.031 C 
ATOM     52  C   UNL A   1      41.206  25.051  28.353  1.00  0.00     0.029 A 
ATOM     53  C   UNL A   1      41.808  26.317  28.733  1.00  0.00     0.049 A 
ATOM     54  H   UNL A   1      43.774  26.934  28.338  1.00  0.00     0.167 HD
ATOM     55  C   UNL A   1      47.818  28.073  27.249  1.00  0.00     0.034 A 
ATOM     56  C   UNL A   1      41.277  27.309  29.503  1.00  0.00     0.034 A 
ATOM     57  C   UNL A   1      48.031  27.566  28.590  1.00  0.00     0.049 A 
ATOM     58  C   UNL A   1      42.418  27.957  30.183  1.00  0.00     0.074 A 
ATOM     59  C   UNL A   1      48.667  26.468  29.135  1.00  0.00     0.029 A 
ATOM     60  N   UNL A   1      47.183  28.032  29.571  1.00  0.00    -0.354 N 
ATOM     61  N   UNL A   1      43.154  27.343  31.066  1.00  0.00    -0.248 NA
ATOM     62  C   UNL A   1      43.032  29.118  29.563  1.00  0.00     0.031 C 
ATOM     63  C   UNL A   1      47.836  26.058  30.221  1.00  0.00     0.029 A 
ATOM     64  C   UNL A   1      46.787  26.972  30.346  1.00  0.00     0.049 A 
ATOM     65  H   UNL A   1      46.908  28.969  29.694  1.00  0.00     0.167 HD
ATOM     66  C   UNL A   1      44.450  27.734  30.777  1.00  0.00     0.074 A 
ATOM     67  C   UNL A   1      44.300  28.921  29.937  1.00  0.00     0.031 C 
ATOM     68  C   UNL A   1      45.501  26.896  31.020  1.00  0.00     0.034 A 
BRANCH  55  69
ATOM     69  C   UNL A   1      47.949  29.552  26.942  1.00  0.00     0.023 A 
ATOM     70  C   UNL A   1      49.221  30.132  27.138  1.00  0.00     0.031 A 
ATOM     71  C   UNL A   1      46.882  30.464  26.785  1.00  0.00     0.131 A 
ATOM     72  C   UNL A   1      49.369  31.518  27.308  1.00  0.00     0.055 A 
ATOM     73  C   UNL A   1      47.045  31.849  26.892  1.00  0.00     0.041 A 
ATOM     74  F   UNL A   1      45.614  30.076  26.611  1.00  0.00    -0.206 F 
ATOM     75  C   UNL A   1      48.286  32.383  27.192  1.00  0.00     0.022 A 
BRANCH  72  76
ATOM     76  S   UNL A   1      50.970  32.146  27.874  1.00  0.00     0.124 S 
ATOM     77  O   UNL A   1      51.877  31.543  26.904  1.00  0.00    -0.237 OA
ATOM     78  O   UNL A   1      50.779  33.589  27.771  1.00  0.00    -0.237 OA
ATOM     79  O   UNL A   1      51.074  31.627  29.235  1.00  0.00    -0.744 OA
ENDBRANCH  72  76
ENDBRANCH  55  69
BRANCH  56  80
ATOM     80  C   UNL A   1      39.911  27.905  29.469  1.00  0.00     0.023 A 
ATOM     81  C   UNL A   1      39.207  28.302  30.631  1.00  0.00     0.031 A 
ATOM     82  C   UNL A   1      39.399  28.361  28.235  1.00  0.00     0.131 A 
ATOM     83  C   UNL A   1      38.063  29.133  30.528  1.00  0.00     0.055 A 
ATOM     84  C   UNL A   1      38.277  29.191  28.142  1.00  0.00     0.041 A 
ATOM     85  F   UNL A   1      40.033  28.092  27.083  1.00  0.00    -0.206 F 
ATOM     86  C   UNL A   1      37.612  29.591  29.288  1.00  0.00     0.022 A 
BRANCH  83  87
ATOM     87  S   UNL A   1      37.187  29.719  32.021  1.00  0.00     0.124 S 
ATOM     88  O   UNL A   1      38.016  30.840  32.450  1.00  0.00    -0.237 OA
ATOM     89  O   UNL A   1      35.864  30.049  31.503  1.00  0.00    -0.237 OA
ATOM     90  O   UNL A   1      37.218  28.560  32.914  1.00  0.00    -0.744 OA
ENDBRANCH  83  87
ENDBRANCH  56  80
BRANCH  68  91
ATOM     91  C   UNL A   1      45.261  25.709  31.935  1.00  0.00     0.023 A 
ATOM     92  C   UNL A   1      45.392  25.716  33.345  1.00  0.00     0.031 A 
ATOM     93  C   UNL A   1      44.802  24.526  31.332  1.00  0.00     0.131 A 
ATOM     94  C   UNL A   1      45.085  24.556  34.087  1.00  0.00     0.055 A 
ATOM     95  C   UNL A   1      44.475  23.391  32.071  1.00  0.00     0.041 A 
ATOM     96  F   UNL A   1      44.640  24.459  30.000  1.00  0.00    -0.206 F 
ATOM     97  C   UNL A   1      44.623  23.398  33.451  1.00  0.00     0.022 A 
BRANCH  94  98
ATOM     98  S   UNL A   1      45.312  24.517  35.897  1.00  0.00     0.124 S 
ATOM     99  O   UNL A   1      44.490  25.625  36.370  1.00  0.00    -0.237 OA
ATOM    100  O   UNL A   1      44.841  23.179  36.249  1.00  0.00    -0.237 OA
ATOM    101  O   UNL A   1      46.753  24.715  36.064  1.00  0.00    -0.744 OA
ENDBRANCH  94  98
ENDBRANCH  68  91
ENDBRANCH  42  43
ENDBRANCH  34  37
ENDBRANCH  32  33
ENDBRANCH  31  32
ENDBRANCH  30  31
ENDBRANCH   1  30
TORSDOF 20
ENDMDL
MODEL 3
REMARK VINA RESULT:     -11.4      4.910      9.621
REMARK SMILES CCn1cc(S(=O)(=O)N2CCC(CCc3ccc(C(=O)NCCCCNC(=O)c4ccc(-c5c6nc(c(-c7cc(S(=O)(=O)[O-])ccc7F)c7ccc([nH]7)c(-c7cc(S(=O)(=O)[O-])ccc7F)c7nc(c(-c8cc(S(=O)(=O)[O-])ccc8F)c8ccc5[nH]8)C=C7)C=C6)cc4)cc3)CC2)cn1
REMARK SMILES IDX 22 1 21 2 19 3 20 4 18 6 15 7 16 8 93 9 17 10 92 11 14 12
REMARK SMILES IDX 13 13 12 14 9 15 10 16 95 17 11 18 94 19 6 20 7 21 8 22 5 23
REMARK SMILES IDX 3 24 4 25 97 26 96 27 2 28 1 29 23 30 24 31 25 32 26 33
REMARK SMILES IDX 27 34 28 36 29 37 30 38 91 39 31 40 90 41 32 42 33 43 34 44
REMARK SMILES IDX 84 45 35 46 89 47 83 48 85 49 36 50 88 51 82 52 81 53 37 55
REMARK SMILES IDX 69 56 49 57 68 58 50 59 53 60 67 61 86 62 51 63 52 64 66 66
REMARK SMILES IDX 87 67 54 68 38 69 39 70 47 71 40 72 46 73 48 74 45 75 41 76
REMARK SMILES IDX 42 77 43 78 44 79 70 80 71 81 79 82 72 83 78 84 80 85 77 86
REMARK SMILES IDX 73 87 74 88 75 89 76 90 55 91 56 92 64 93 57 94 63 95 65 96
REMARK SMILES IDX 62 97 58 98 59 99 60 100 61 101
REMARK H PARENT 21 5 26 35 85 54 53 65
REMARK Flexibility Score: inf
ROOT
ATOM      1  C   UNL A   1      36.225  22.529  26.069  1.00  0.00     0.116 C 
ENDROOT
BRANCH   1   2
ATOM      2  N   UNL A   1      35.306  21.981  25.088  1.00  0.00    -0.352 N 
ATOM      3  C   UNL A   1      34.182  22.458  24.458  1.00  0.00     0.251 C 
ATOM      4  O   UNL A   1      33.618  21.692  23.675  1.00  0.00    -0.269 OA
ATOM      5  H   UNL A   1      35.540  21.064  24.811  1.00  0.00     0.163 HD
BRANCH   3   6
ATOM      6  C   UNL A   1      33.605  23.825  24.652  1.00  0.00     0.039 A 
ATOM      7  C   UNL A   1      32.568  26.470  24.816  1.00  0.00    -0.048 A 
ATOM      8  C   UNL A   1      33.607  26.170  23.931  1.00  0.00     0.004 A 
ATOM      9  C   UNL A   1      32.117  25.451  25.658  1.00  0.00     0.004 A 
ATOM     10  C   UNL A   1      34.128  24.868  23.865  1.00  0.00     0.014 A 
ATOM     11  C   UNL A   1      32.572  24.138  25.528  1.00  0.00     0.014 A 
BRANCH   7  12
ATOM     12  C   UNL A   1      31.942  27.847  24.857  1.00  0.00     0.036 C 
BRANCH  12  13
ATOM     13  C   UNL A   1      31.449  28.289  26.256  1.00  0.00     0.008 C 
BRANCH  13  14
ATOM     14  C   UNL A   1      32.372  29.261  27.020  1.00  0.00    -0.008 C 
ATOM     15  N   UNL A   1      34.456  31.240  27.474  1.00  0.00    -0.198 NA
ATOM     16  C   UNL A   1      34.722  29.805  27.738  1.00  0.00     0.103 C 
ATOM     17  C   UNL A   1      33.023  31.641  27.495  1.00  0.00     0.103 C 
ATOM     18  C   UNL A   1      33.858  28.917  26.854  1.00  0.00     0.020 C 
ATOM     19  C   UNL A   1      32.174  30.725  26.605  1.00  0.00     0.020 C 
BRANCH  15  20
ATOM     20  S   UNL A   1      35.532  32.320  28.264  1.00  0.00     0.246 S 
ATOM     21  O   UNL A   1      35.855  33.390  27.349  1.00  0.00    -0.207 OA
ATOM     22  O   UNL A   1      36.560  31.546  28.930  1.00  0.00    -0.207 OA
BRANCH  20  23
ATOM     23  C   UNL A   1      34.724  33.119  29.545  1.00  0.00     0.120 A 
ATOM     24  N   UNL A   1      33.774  34.611  30.827  1.00  0.00    -0.272 N 
ATOM     25  C   UNL A   1      34.094  34.340  29.529  1.00  0.00     0.130 A 
ATOM     26  N   UNL A   1      34.037  33.585  31.659  1.00  0.00    -0.180 NA
ATOM     27  C   UNL A   1      34.615  32.672  30.869  1.00  0.00     0.156 A 
BRANCH  24  28
ATOM     28  C   UNL A   1      33.311  35.881  31.360  1.00  0.00     0.141 C 
ATOM     29  C   UNL A   1      32.181  35.734  32.371  1.00  0.00     0.029 C 
ENDBRANCH  24  28
ENDBRANCH  20  23
ENDBRANCH  15  20
ENDBRANCH  13  14
ENDBRANCH  12  13
ENDBRANCH   7  12
ENDBRANCH   3   6
ENDBRANCH   1   2
BRANCH   1  30
ATOM     30  C   UNL A   1      37.579  22.858  25.432  1.00  0.00     0.023 C 
BRANCH  30  31
ATOM     31  C   UNL A   1      38.734  23.081  26.420  1.00  0.00     0.023 C 
BRANCH  31  32
ATOM     32  C   UNL A   1      39.156  24.538  26.578  1.00  0.00     0.116 C 
BRANCH  32  33
ATOM     33  N   UNL A   1      40.364  24.872  25.823  1.00  0.00    -0.352 N 
ATOM     34  C   UNL A   1      41.064  26.067  25.848  1.00  0.00     0.251 C 
ATOM     35  H   UNL A   1      40.720  24.169  25.231  1.00  0.00     0.163 HD
ATOM     36  O   UNL A   1      41.772  26.393  24.902  1.00  0.00    -0.269 OA
BRANCH  34  37
ATOM     37  C   UNL A   1      40.922  26.927  27.036  1.00  0.00     0.039 A 
ATOM     38  C   UNL A   1      41.417  26.536  28.278  1.00  0.00     0.014 A 
ATOM     39  C   UNL A   1      40.392  28.203  26.843  1.00  0.00     0.014 A 
ATOM     40  C   UNL A   1      41.493  27.492  29.292  1.00  0.00     0.010 A 
ATOM     41  C   UNL A   1      40.587  29.174  27.801  1.00  0.00     0.010 A 
ATOM     42  C   UNL A   1      41.131  28.832  29.035  1.00  0.00    -0.014 A 
BRANCH  42  43
ATOM     43  C   UNL A   1      41.511  29.896  29.977  1.00  0.00     0.031 A 
ATOM     44  C   UNL A   1      40.359  30.466  30.727  1.00  0.00     0.074 A 
ATOM     45  C   UNL A   1      42.775  30.271  30.287  1.00  0.00     0.049 A 
ATOM     46  N   UNL A   1      39.763  31.582  30.473  1.00  0.00    -0.248 NA
ATOM     47  C   UNL A   1      39.655  29.641  31.723  1.00  0.00     0.031 C 
ATOM     48  C   UNL A   1      44.037  29.689  29.817  1.00  0.00     0.029 A 
ATOM     49  N   UNL A   1      43.205  31.239  31.152  1.00  0.00    -0.354 N 
ATOM     50  C   UNL A   1      38.789  31.737  31.450  1.00  0.00     0.074 A 
ATOM     51  C   UNL A   1      38.628  30.436  32.042  1.00  0.00     0.031 C 
ATOM     52  C   UNL A   1      45.071  30.169  30.546  1.00  0.00     0.029 A 
ATOM     53  C   UNL A   1      44.578  31.227  31.411  1.00  0.00     0.049 A 
ATOM     54  H   UNL A   1      42.595  31.894  31.560  1.00  0.00     0.167 HD
ATOM     55  C   UNL A   1      38.403  32.985  31.838  1.00  0.00     0.034 A 
ATOM     56  C   UNL A   1      45.293  32.068  32.211  1.00  0.00     0.034 A 
ATOM     57  C   UNL A   1      38.878  33.976  30.893  1.00  0.00     0.049 A 
ATOM     58  C   UNL A   1      44.525  33.329  32.272  1.00  0.00     0.074 A 
ATOM     59  C   UNL A   1      38.681  34.226  29.550  1.00  0.00     0.029 A 
ATOM     60  N   UNL A   1      40.025  34.659  31.236  1.00  0.00    -0.354 N 
ATOM     61  N   UNL A   1      44.341  34.094  31.233  1.00  0.00    -0.248 NA
ATOM     62  C   UNL A   1      43.576  33.517  33.357  1.00  0.00     0.031 C 
ATOM     63  C   UNL A   1      39.953  34.647  29.059  1.00  0.00     0.029 A 
ATOM     64  C   UNL A   1      40.841  34.724  30.135  1.00  0.00     0.049 A 
ATOM     65  H   UNL A   1      40.225  35.037  32.123  1.00  0.00     0.167 HD
ATOM     66  C   UNL A   1      43.022  34.504  31.327  1.00  0.00     0.074 A 
ATOM     67  C   UNL A   1      42.646  34.230  32.713  1.00  0.00     0.031 C 
ATOM     68  C   UNL A   1      42.292  34.765  30.202  1.00  0.00     0.034 A 
BRANCH  55  69
ATOM     69  C   UNL A   1      37.991  33.379  33.243  1.00  0.00     0.023 A 
ATOM     70  C   UNL A   1      38.465  32.566  34.296  1.00  0.00     0.031 A 
ATOM     71  C   UNL A   1      36.948  34.268  33.583  1.00  0.00     0.131 A 
ATOM     72  C   UNL A   1      37.830  32.557  35.548  1.00  0.00     0.055 A 
ATOM     73  C   UNL A   1      36.361  34.300  34.852  1.00  0.00     0.041 A 
ATOM     74  F   UNL A   1      36.376  35.090  32.697  1.00  0.00    -0.206 F 
ATOM     75  C   UNL A   1      36.774  33.416  35.833  1.00  0.00     0.022 A 
BRANCH  72  76
ATOM     76  S   UNL A   1      38.287  31.265  36.732  1.00  0.00     0.124 S 
ATOM     77  O   UNL A   1      38.344  30.089  35.869  1.00  0.00    -0.237 OA
ATOM     78  O   UNL A   1      39.564  31.758  37.236  1.00  0.00    -0.237 OA
ATOM     79  O   UNL A   1      37.188  31.283  37.693  1.00  0.00    -0.744 OA
ENDBRANCH  72  76
ENDBRANCH  55  69
BRANCH  56  80
ATOM     80  C   UNL A   1      46.421  31.762  33.135  1.00  0.00     0.023 A 
ATOM     81  C   UNL A   1      47.583  32.567  33.237  1.00  0.00     0.031 A 
ATOM     82  C   UNL A   1      46.225  30.808  34.157  1.00  0.00     0.131 A 
ATOM     83  C   UNL A   1      48.470  32.410  34.331  1.00  0.00     0.055 A 
ATOM     84  C   UNL A   1      47.098  30.668  35.239  1.00  0.00     0.041 A 
ATOM     85  F   UNL A   1      45.122  30.043  34.184  1.00  0.00    -0.206 F 
ATOM     86  C   UNL A   1      48.218  31.477  35.339  1.00  0.00     0.022 A 
BRANCH  83  87
ATOM     87  S   UNL A   1      49.933  33.490  34.520  1.00  0.00     0.124 S 
ATOM     88  O   UNL A   1      50.459  33.543  33.160  1.00  0.00    -0.237 OA
ATOM     89  O   UNL A   1      49.352  34.722  35.041  1.00  0.00    -0.237 OA
ATOM     90  O   UNL A   1      50.774  32.764  35.472  1.00  0.00    -0.744 OA
ENDBRANCH  83  87
ENDBRANCH  56  80
BRANCH  68  91
ATOM     91  C   UNL A   1      43.048  34.955  28.899  1.00  0.00     0.023 A 
ATOM     92  C   UNL A   1      43.483  33.917  28.040  1.00  0.00     0.031 A 
ATOM     93  C   UNL A   1      43.270  36.278  28.483  1.00  0.00     0.131 A 
ATOM     94  C   UNL A   1      44.130  34.232  26.826  1.00  0.00     0.055 A 
ATOM     95  C   UNL A   1      43.885  36.585  27.271  1.00  0.00     0.041 A 
ATOM     96  F   UNL A   1      42.866  37.309  29.244  1.00  0.00    -0.206 F 
ATOM     97  C   UNL A   1      44.326  35.562  26.441  1.00  0.00     0.022 A 
BRANCH  94  98
ATOM     98  S   UNL A   1      44.761  32.913  25.735  1.00  0.00     0.124 S 
ATOM     99  O   UNL A   1      44.130  31.705  26.254  1.00  0.00    -0.237 OA
ATOM    100  O   UNL A   1      44.311  33.349  24.415  1.00  0.00    -0.237 OA
ATOM    101  O   UNL A   1      46.211  32.974  25.931  1.00  0.00    -0.744 OA
ENDBRANCH  94  98
ENDBRANCH  68  91
ENDBRANCH  42  43
ENDBRANCH  34  37
ENDBRANCH  32  33
ENDBRANCH  31  32
ENDBRANCH  30  31
ENDBRANCH   1  30
TORSDOF 20
ENDMDL
