MODEL 1
REMARK VINA RESULT:     -12.5      0.000      0.000
REMARK SMILES O=C(NCCCCNC(=O)[C@@H]1C=C[C@@H](Nc2ccc3ccccc3n2)C1)c1ccc(-c2c3nc(c(-c4cc(S(=O)(=O)[O-])ccc4F)c4ccc([nH]4)c(-c4cc(S(=O)(=O)[O-])ccc4F)c4nc(c(-c5cc(S(=O)(=O)[O-])ccc5F)c5ccc2[nH]5)C=C4)C=C3)cc1
REMARK SMILES IDX 5 1 4 2 3 3 1 4 2 5 27 7 28 8 89 9 29 10 88 11 30 12 31 13
REMARK SMILES IDX 32 14 82 15 33 16 87 17 81 18 83 19 34 20 86 21 80 22 79 23
REMARK SMILES IDX 35 25 67 26 47 27 66 28 48 29 51 30 65 31 84 32 49 33 50 34
REMARK SMILES IDX 64 36 85 37 52 38 36 39 37 40 45 41 38 42 44 43 46 44 43 45
REMARK SMILES IDX 39 46 40 47 41 48 42 49 68 50 69 51 77 52 70 53 76 54 78 55
REMARK SMILES IDX 75 56 71 57 72 58 73 59 74 60 53 61 54 62 62 63 55 64 61 65
REMARK SMILES IDX 63 66 60 67 56 68 57 69 58 70 59 71 6 72 7 73 8 74 9 75
REMARK SMILES IDX 10 77 11 78 12 79 26 80 13 81 14 82 15 83 16 85 17 86 25 87
REMARK SMILES IDX 18 88 24 89 19 90 23 91 20 92 22 93 21 94
REMARK H PARENT 3 6 83 24 51 35 8 76 15 84
REMARK Flexibility Score: inf
ROOT
ATOM      1  C   UNL A   1      35.163  21.566  24.805  1.00  0.00     0.023 C 
ENDROOT
BRANCH   1   2
ATOM      2  C   UNL A   1      36.492  22.002  25.413  1.00  0.00     0.116 C 
BRANCH   2   3
ATOM      3  N   UNL A   1      37.477  20.931  25.473  1.00  0.00    -0.352 N 
ATOM      4  O   UNL A   1      39.505  19.986  25.751  1.00  0.00    -0.269 OA
ATOM      5  C   UNL A   1      38.791  20.977  25.880  1.00  0.00     0.251 C 
ATOM      6  H   UNL A   1      37.157  20.047  25.181  1.00  0.00     0.163 HD
BRANCH   5   7
ATOM      7  C   UNL A   1      39.349  22.229  26.440  1.00  0.00     0.039 A 
ATOM      8  C   UNL A   1      38.827  23.470  26.073  1.00  0.00     0.014 A 
ATOM      9  C   UNL A   1      40.428  22.160  27.326  1.00  0.00     0.014 A 
ATOM     10  C   UNL A   1      39.487  24.636  26.452  1.00  0.00     0.010 A 
ATOM     11  C   UNL A   1      41.036  23.337  27.777  1.00  0.00     0.010 A 
ATOM     12  C   UNL A   1      40.603  24.585  27.303  1.00  0.00    -0.014 A 
BRANCH  12  13
ATOM     13  C   UNL A   1      41.287  25.852  27.678  1.00  0.00     0.031 A 
ATOM     14  C   UNL A   1      42.679  26.159  27.187  1.00  0.00     0.074 A 
ATOM     15  C   UNL A   1      40.621  26.758  28.421  1.00  0.00     0.049 A 
ATOM     16  N   UNL A   1      43.398  27.239  27.366  1.00  0.00    -0.248 NA
ATOM     17  C   UNL A   1      43.353  25.113  26.406  1.00  0.00     0.031 C 
ATOM     18  C   UNL A   1      39.272  26.570  28.965  1.00  0.00     0.029 A 
ATOM     19  N   UNL A   1      40.966  28.022  28.824  1.00  0.00    -0.354 N 
ATOM     20  C   UNL A   1      44.617  26.996  26.741  1.00  0.00     0.074 A 
ATOM     21  C   UNL A   1      44.549  25.651  26.209  1.00  0.00     0.031 C 
ATOM     22  C   UNL A   1      38.883  27.699  29.576  1.00  0.00     0.029 A 
ATOM     23  C   UNL A   1      39.972  28.668  29.522  1.00  0.00     0.049 A 
ATOM     24  H   UNL A   1      41.842  28.430  28.632  1.00  0.00     0.167 HD
ATOM     25  C   UNL A   1      45.689  27.820  26.616  1.00  0.00     0.034 A 
ATOM     26  C   UNL A   1      39.939  29.900  30.064  1.00  0.00     0.034 A 
ATOM     27  C   UNL A   1      45.736  29.167  27.138  1.00  0.00     0.049 A 
ATOM     28  C   UNL A   1      41.141  30.793  29.916  1.00  0.00     0.074 A 
ATOM     29  C   UNL A   1      46.755  30.099  27.030  1.00  0.00     0.029 A 
ATOM     30  N   UNL A   1      44.724  29.774  27.871  1.00  0.00    -0.354 N 
ATOM     31  N   UNL A   1      42.277  30.553  29.303  1.00  0.00    -0.248 NA
ATOM     32  C   UNL A   1      41.053  32.123  30.530  1.00  0.00     0.031 C 
ATOM     33  C   UNL A   1      46.384  31.243  27.748  1.00  0.00     0.029 A 
ATOM     34  C   UNL A   1      45.105  31.054  28.246  1.00  0.00     0.049 A 
ATOM     35  H   UNL A   1      43.861  29.355  28.094  1.00  0.00     0.167 HD
ATOM     36  C   UNL A   1      43.031  31.714  29.440  1.00  0.00     0.074 A 
ATOM     37  C   UNL A   1      42.212  32.657  30.175  1.00  0.00     0.031 C 
ATOM     38  C   UNL A   1      44.286  31.977  28.996  1.00  0.00     0.034 A 
BRANCH  25  39
ATOM     39  C   UNL A   1      46.916  27.268  25.928  1.00  0.00     0.023 A 
ATOM     40  C   UNL A   1      47.931  26.601  26.636  1.00  0.00     0.031 A 
ATOM     41  C   UNL A   1      47.083  27.431  24.541  1.00  0.00     0.131 A 
ATOM     42  C   UNL A   1      49.097  26.189  25.970  1.00  0.00     0.055 A 
ATOM     43  C   UNL A   1      48.210  26.951  23.870  1.00  0.00     0.041 A 
ATOM     44  F   UNL A   1      46.158  28.075  23.812  1.00  0.00    -0.206 F 
ATOM     45  C   UNL A   1      49.233  26.338  24.588  1.00  0.00     0.022 A 
BRANCH  42  46
ATOM     46  S   UNL A   1      50.493  25.582  26.957  1.00  0.00     0.124 S 
ATOM     47  O   UNL A   1      49.900  24.429  27.631  1.00  0.00    -0.237 OA
ATOM     48  O   UNL A   1      51.493  25.282  25.939  1.00  0.00    -0.237 OA
ATOM     49  O   UNL A   1      50.811  26.709  27.832  1.00  0.00    -0.744 OA
ENDBRANCH  42  46
ENDBRANCH  25  39
BRANCH  26  50
ATOM     50  C   UNL A   1      38.733  30.359  30.808  1.00  0.00     0.023 A 
ATOM     51  C   UNL A   1      37.701  31.054  30.158  1.00  0.00     0.031 A 
ATOM     52  C   UNL A   1      38.607  30.127  32.189  1.00  0.00     0.131 A 
ATOM     53  C   UNL A   1      36.604  31.525  30.895  1.00  0.00     0.055 A 
ATOM     54  C   UNL A   1      37.491  30.554  32.910  1.00  0.00     0.041 A 
ATOM     55  F   UNL A   1      39.562  29.461  32.856  1.00  0.00    -0.206 F 
ATOM     56  C   UNL A   1      36.486  31.268  32.264  1.00  0.00     0.022 A 
BRANCH  53  57
ATOM     57  S   UNL A   1      35.362  32.541  30.052  1.00  0.00     0.124 S 
ATOM     58  O   UNL A   1      35.013  31.701  28.913  1.00  0.00    -0.237 OA
ATOM     59  O   UNL A   1      34.337  32.683  31.083  1.00  0.00    -0.237 OA
ATOM     60  O   UNL A   1      36.087  33.767  29.728  1.00  0.00    -0.744 OA
ENDBRANCH  53  57
ENDBRANCH  26  50
BRANCH  38  61
ATOM     61  C   UNL A   1      44.824  33.360  29.271  1.00  0.00     0.023 A 
ATOM     62  C   UNL A   1      44.690  34.403  28.336  1.00  0.00     0.031 A 
ATOM     63  C   UNL A   1      45.515  33.627  30.465  1.00  0.00     0.131 A 
ATOM     64  C   UNL A   1      45.296  35.644  28.582  1.00  0.00     0.055 A 
ATOM     65  C   UNL A   1      46.066  34.881  30.731  1.00  0.00     0.041 A 
ATOM     66  F   UNL A   1      45.674  32.667  31.391  1.00  0.00    -0.206 F 
ATOM     67  C   UNL A   1      45.972  35.893  29.780  1.00  0.00     0.022 A 
BRANCH  64  68
ATOM     68  S   UNL A   1      45.281  36.896  27.270  1.00  0.00     0.124 S 
ATOM     69  O   UNL A   1      43.859  36.989  26.954  1.00  0.00    -0.237 OA
ATOM     70  O   UNL A   1      45.862  38.055  27.939  1.00  0.00    -0.237 OA
ATOM     71  O   UNL A   1      46.111  36.305  26.221  1.00  0.00    -0.744 OA
ENDBRANCH  64  68
ENDBRANCH  38  61
ENDBRANCH  12  13
ENDBRANCH   5   7
ENDBRANCH   2   3
ENDBRANCH   1   2
BRANCH   1  72
ATOM     72  C   UNL A   1      34.219  20.816  25.745  1.00  0.00     0.023 C 
BRANCH  72  73
ATOM     73  C   UNL A   1      32.734  21.105  25.545  1.00  0.00     0.116 C 
BRANCH  73  74
ATOM     74  N   UNL A   1      32.229  22.086  26.487  1.00  0.00    -0.356 N 
ATOM     75  C   UNL A   1      31.992  23.419  26.305  1.00  0.00     0.227 C 
ATOM     76  H   UNL A   1      32.027  21.741  27.387  1.00  0.00     0.163 HD
ATOM     77  O   UNL A   1      31.543  24.069  27.250  1.00  0.00    -0.274 OA
BRANCH  75  78
ATOM     78  C   UNL A   1      32.299  24.045  24.947  1.00  0.00     0.103 C 
ATOM     79  C   UNL A   1      33.529  24.899  25.031  1.00  0.00    -0.016 C 
ATOM     80  C   UNL A   1      31.213  25.034  24.503  1.00  0.00     0.046 C 
ATOM     81  C   UNL A   1      33.249  26.197  24.881  1.00  0.00    -0.006 C 
ATOM     82  C   UNL A   1      31.790  26.447  24.690  1.00  0.00     0.104 C 
BRANCH  82  83
ATOM     83  N   UNL A   1      31.601  27.188  23.469  1.00  0.00    -0.364 N 
ATOM     84  H   UNL A   1      31.987  26.854  22.628  1.00  0.00     0.162 HD
BRANCH  83  85
ATOM     85  C   UNL A   1      30.881  28.360  23.474  1.00  0.00     0.127 A 
ATOM     86  C   UNL A   1      30.975  29.196  24.578  1.00  0.00     0.047 A 
ATOM     87  N   UNL A   1      30.151  28.691  22.393  1.00  0.00    -0.231 NA
ATOM     88  C   UNL A   1      30.308  30.416  24.569  1.00  0.00     0.014 A 
ATOM     89  C   UNL A   1      29.470  29.850  22.392  1.00  0.00     0.073 A 
ATOM     90  C   UNL A   1      29.529  30.763  23.464  1.00  0.00     0.000 A 
ATOM     91  C   UNL A   1      28.670  30.174  21.304  1.00  0.00     0.029 A 
ATOM     92  C   UNL A   1      28.820  31.976  23.409  1.00  0.00     0.010 A 
ATOM     93  C   UNL A   1      27.948  31.372  21.251  1.00  0.00     0.002 A 
ATOM     94  C   UNL A   1      28.030  32.277  22.303  1.00  0.00     0.001 A 
ENDBRANCH  83  85
ENDBRANCH  82  83
ENDBRANCH  75  78
ENDBRANCH  73  74
ENDBRANCH  72  73
ENDBRANCH   1  72
TORSDOF 16
ENDMDL
MODEL 2
REMARK VINA RESULT:     -12.4      1.949      2.256
REMARK SMILES O=C(NCCCCNC(=O)[C@@H]1C=C[C@@H](Nc2ccc3ccccc3n2)C1)c1ccc(-c2c3nc(c(-c4cc(S(=O)(=O)[O-])ccc4F)c4ccc([nH]4)c(-c4cc(S(=O)(=O)[O-])ccc4F)c4nc(c(-c5cc(S(=O)(=O)[O-])ccc5F)c5ccc2[nH]5)C=C4)C=C3)cc1
REMARK SMILES IDX 5 1 4 2 3 3 1 4 2 5 27 7 28 8 89 9 29 10 88 11 30 12 31 13
REMARK SMILES IDX 32 14 82 15 33 16 87 17 81 18 83 19 34 20 86 21 80 22 79 23
REMARK SMILES IDX 35 25 67 26 47 27 66 28 48 29 51 30 65 31 84 32 49 33 50 34
REMARK SMILES IDX 64 36 85 37 52 38 36 39 37 40 45 41 38 42 44 43 46 44 43 45
REMARK SMILES IDX 39 46 40 47 41 48 42 49 68 50 69 51 77 52 70 53 76 54 78 55
REMARK SMILES IDX 75 56 71 57 72 58 73 59 74 60 53 61 54 62 62 63 55 64 61 65
REMARK SMILES IDX 63 66 60 67 56 68 57 69 58 70 59 71 6 72 7 73 8 74 9 75
REMARK SMILES IDX 10 77 11 78 12 79 26 80 13 81 14 82 15 83 16 85 17 86 25 87
REMARK SMILES IDX 18 88 24 89 19 90 23 91 20 92 22 93 21 94
REMARK H PARENT 3 6 83 24 51 35 8 76 15 84
REMARK Flexibility Score: inf
ROOT
ATOM      1  C   UNL A   1      35.639  21.425  24.659  1.00  0.00     0.023 C 
ENDROOT
BRANCH   1   2
ATOM      2  C   UNL A   1      36.884  21.910  25.394  1.00  0.00     0.116 C 
BRANCH   2   3
ATOM      3  N   UNL A   1      37.894  20.874  25.560  1.00  0.00    -0.352 N 
ATOM      4  O   UNL A   1      39.928  20.007  26.004  1.00  0.00    -0.269 OA
ATOM      5  C   UNL A   1      39.178  20.979  26.046  1.00  0.00     0.251 C 
ATOM      6  H   UNL A   1      37.620  19.969  25.287  1.00  0.00     0.163 HD
BRANCH   5   7
ATOM      7  C   UNL A   1      39.663  22.270  26.586  1.00  0.00     0.039 A 
ATOM      8  C   UNL A   1      39.126  23.478  26.137  1.00  0.00     0.014 A 
ATOM      9  C   UNL A   1      40.688  22.272  27.536  1.00  0.00     0.014 A 
ATOM     10  C   UNL A   1      39.726  24.679  26.505  1.00  0.00     0.010 A 
ATOM     11  C   UNL A   1      41.230  23.486  27.973  1.00  0.00     0.010 A 
ATOM     12  C   UNL A   1      40.789  24.699  27.423  1.00  0.00    -0.014 A 
BRANCH  12  13
ATOM     13  C   UNL A   1      41.409  26.002  27.785  1.00  0.00     0.031 A 
ATOM     14  C   UNL A   1      42.773  26.384  27.268  1.00  0.00     0.074 A 
ATOM     15  C   UNL A   1      40.709  26.871  28.540  1.00  0.00     0.049 A 
ATOM     16  N   UNL A   1      43.436  27.501  27.433  1.00  0.00    -0.248 NA
ATOM     17  C   UNL A   1      43.490  25.375  26.475  1.00  0.00     0.031 C 
ATOM     18  C   UNL A   1      39.383  26.611  29.108  1.00  0.00     0.029 A 
ATOM     19  N   UNL A   1      40.992  28.153  28.936  1.00  0.00    -0.354 N 
ATOM     20  C   UNL A   1      44.655  27.325  26.786  1.00  0.00     0.074 A 
ATOM     21  C   UNL A   1      44.650  25.977  26.255  1.00  0.00     0.031 C 
ATOM     22  C   UNL A   1      38.944  27.718  29.726  1.00  0.00     0.029 A 
ATOM     23  C   UNL A   1      39.977  28.745  29.651  1.00  0.00     0.049 A 
ATOM     24  H   UNL A   1      41.841  28.607  28.727  1.00  0.00     0.167 HD
ATOM     25  C   UNL A   1      45.678  28.205  26.641  1.00  0.00     0.034 A 
ATOM     26  C   UNL A   1      39.888  29.974  30.194  1.00  0.00     0.034 A 
ATOM     27  C   UNL A   1      45.661  29.553  27.161  1.00  0.00     0.049 A 
ATOM     28  C   UNL A   1      41.036  30.930  30.023  1.00  0.00     0.074 A 
ATOM     29  C   UNL A   1      46.625  30.540  27.034  1.00  0.00     0.029 A 
ATOM     30  N   UNL A   1      44.631  30.105  27.913  1.00  0.00    -0.354 N 
ATOM     31  N   UNL A   1      42.171  30.752  29.390  1.00  0.00    -0.248 NA
ATOM     32  C   UNL A   1      40.887  32.255  30.638  1.00  0.00     0.031 C 
ATOM     33  C   UNL A   1      46.205  31.662  27.759  1.00  0.00     0.029 A 
ATOM     34  C   UNL A   1      44.948  31.405  28.280  1.00  0.00     0.049 A 
ATOM     35  H   UNL A   1      43.796  29.640  28.152  1.00  0.00     0.167 HD
ATOM     36  C   UNL A   1      42.864  31.952  29.512  1.00  0.00     0.074 A 
ATOM     37  C   UNL A   1      42.009  32.850  30.262  1.00  0.00     0.031 C 
ATOM     38  C   UNL A   1      44.094  32.283  29.046  1.00  0.00     0.034 A 
BRANCH  25  39
ATOM     39  C   UNL A   1      46.920  27.720  25.930  1.00  0.00     0.023 A 
ATOM     40  C   UNL A   1      47.165  28.007  24.576  1.00  0.00     0.031 A 
ATOM     41  C   UNL A   1      47.867  26.936  26.615  1.00  0.00     0.131 A 
ATOM     42  C   UNL A   1      48.285  27.456  23.933  1.00  0.00     0.055 A 
ATOM     43  C   UNL A   1      49.019  26.454  25.991  1.00  0.00     0.041 A 
ATOM     44  F   UNL A   1      47.681  26.612  27.905  1.00  0.00    -0.206 F 
ATOM     45  C   UNL A   1      49.226  26.701  24.636  1.00  0.00     0.022 A 
BRANCH  42  46
ATOM     46  S   UNL A   1      48.421  27.622  22.131  1.00  0.00     0.124 S 
ATOM     47  O   UNL A   1      47.118  28.187  21.787  1.00  0.00    -0.237 OA
ATOM     48  O   UNL A   1      49.564  28.515  21.982  1.00  0.00    -0.237 OA
ATOM     49  O   UNL A   1      48.635  26.250  21.675  1.00  0.00    -0.744 OA
ENDBRANCH  42  46
ENDBRANCH  25  39
BRANCH  26  50
ATOM     50  C   UNL A   1      38.672  30.367  30.959  1.00  0.00     0.023 A 
ATOM     51  C   UNL A   1      37.643  31.107  30.357  1.00  0.00     0.031 A 
ATOM     52  C   UNL A   1      38.533  30.025  32.317  1.00  0.00     0.131 A 
ATOM     53  C   UNL A   1      36.537  31.514  31.118  1.00  0.00     0.055 A 
ATOM     54  C   UNL A   1      37.408  30.389  33.058  1.00  0.00     0.041 A 
ATOM     55  F   UNL A   1      39.485  29.312  32.938  1.00  0.00    -0.206 F 
ATOM     56  C   UNL A   1      36.407  31.149  32.461  1.00  0.00     0.022 A 
BRANCH  53  57
ATOM     57  S   UNL A   1      35.298  32.590  30.346  1.00  0.00     0.124 S 
ATOM     58  O   UNL A   1      34.434  32.908  31.477  1.00  0.00    -0.237 OA
ATOM     59  O   UNL A   1      36.121  33.684  29.840  1.00  0.00    -0.237 OA
ATOM     60  O   UNL A   1      34.699  31.738  29.321  1.00  0.00    -0.744 OA
ENDBRANCH  53  57
ENDBRANCH  26  50
BRANCH  38  61
ATOM     61  C   UNL A   1      44.561  33.694  29.309  1.00  0.00     0.023 A 
ATOM     62  C   UNL A   1      45.290  34.026  30.466  1.00  0.00     0.031 A 
ATOM     63  C   UNL A   1      44.237  34.725  28.412  1.00  0.00     0.131 A 
ATOM     64  C   UNL A   1      45.612  35.365  30.727  1.00  0.00     0.055 A 
ATOM     65  C   UNL A   1      44.612  36.049  28.648  1.00  0.00     0.041 A 
ATOM     66  F   UNL A   1      43.541  34.464  27.293  1.00  0.00    -0.206 F 
ATOM     67  C   UNL A   1      45.289  36.378  29.818  1.00  0.00     0.022 A 
BRANCH  64  68
ATOM     68  S   UNL A   1      46.367  35.785  32.322  1.00  0.00     0.124 S 
ATOM     69  O   UNL A   1      46.975  34.517  32.714  1.00  0.00    -0.237 OA
ATOM     70  O   UNL A   1      47.294  36.851  31.957  1.00  0.00    -0.237 OA
ATOM     71  O   UNL A   1      45.231  36.205  33.141  1.00  0.00    -0.744 OA
ENDBRANCH  64  68
ENDBRANCH  38  61
ENDBRANCH  12  13
ENDBRANCH   5   7
ENDBRANCH   2   3
ENDBRANCH   1   2
BRANCH   1  72
ATOM     72  C   UNL A   1      34.625  20.660  25.509  1.00  0.00     0.023 C 
BRANCH  72  73
ATOM     73  C   UNL A   1      33.300  20.345  24.818  1.00  0.00     0.116 C 
BRANCH  73  74
ATOM     74  N   UNL A   1      32.164  20.926  25.508  1.00  0.00    -0.356 N 
ATOM     75  C   UNL A   1      31.728  22.221  25.519  1.00  0.00     0.227 C 
ATOM     76  H   UNL A   1      31.629  20.297  26.045  1.00  0.00     0.163 HD
ATOM     77  O   UNL A   1      30.719  22.495  26.171  1.00  0.00    -0.274 OA
BRANCH  75  78
ATOM     78  C   UNL A   1      32.511  23.271  24.734  1.00  0.00     0.103 C 
ATOM     79  C   UNL A   1      33.249  24.181  25.670  1.00  0.00    -0.016 C 
ATOM     80  C   UNL A   1      31.590  24.227  23.964  1.00  0.00     0.046 C 
ATOM     81  C   UNL A   1      32.756  25.424  25.653  1.00  0.00    -0.006 C 
ATOM     82  C   UNL A   1      31.595  25.564  24.725  1.00  0.00     0.104 C 
BRANCH  82  83
ATOM     83  N   UNL A   1      31.871  26.626  23.792  1.00  0.00    -0.364 N 
ATOM     84  H   UNL A   1      32.561  26.504  23.100  1.00  0.00     0.162 HD
BRANCH  83  85
ATOM     85  C   UNL A   1      31.175  27.809  23.864  1.00  0.00     0.127 A 
ATOM     86  C   UNL A   1      31.667  28.827  24.669  1.00  0.00     0.047 A 
ATOM     87  N   UNL A   1      30.069  27.970  23.113  1.00  0.00    -0.231 NA
ATOM     88  C   UNL A   1      31.011  30.052  24.698  1.00  0.00     0.014 A 
ATOM     89  C   UNL A   1      29.405  29.138  23.166  1.00  0.00     0.073 A 
ATOM     90  C   UNL A   1      29.850  30.226  23.942  1.00  0.00     0.000 A 
ATOM     91  C   UNL A   1      28.233  29.294  22.438  1.00  0.00     0.029 A 
ATOM     92  C   UNL A   1      29.139  31.439  23.948  1.00  0.00     0.010 A 
ATOM     93  C   UNL A   1      27.510  30.492  22.453  1.00  0.00     0.002 A 
ATOM     94  C   UNL A   1      27.968  31.568  23.203  1.00  0.00     0.001 A 
ENDBRANCH  83  85
ENDBRANCH  82  83
ENDBRANCH  75  78
ENDBRANCH  73  74
ENDBRANCH  72  73
ENDBRANCH   1  72
TORSDOF 16
ENDMDL
MODEL 3
REMARK VINA RESULT:     -12.3      1.530      7.611
REMARK SMILES O=C(NCCCCNC(=O)[C@@H]1C=C[C@@H](Nc2ccc3ccccc3n2)C1)c1ccc(-c2c3nc(c(-c4cc(S(=O)(=O)[O-])ccc4F)c4ccc([nH]4)c(-c4cc(S(=O)(=O)[O-])ccc4F)c4nc(c(-c5cc(S(=O)(=O)[O-])ccc5F)c5ccc2[nH]5)C=C4)C=C3)cc1
REMARK SMILES IDX 5 1 4 2 3 3 1 4 2 5 27 7 28 8 89 9 29 10 88 11 30 12 31 13
REMARK SMILES IDX 32 14 82 15 33 16 87 17 81 18 83 19 34 20 86 21 80 22 79 23
REMARK SMILES IDX 35 25 67 26 47 27 66 28 48 29 51 30 65 31 84 32 49 33 50 34
REMARK SMILES IDX 64 36 85 37 52 38 36 39 37 40 45 41 38 42 44 43 46 44 43 45
REMARK SMILES IDX 39 46 40 47 41 48 42 49 68 50 69 51 77 52 70 53 76 54 78 55
REMARK SMILES IDX 75 56 71 57 72 58 73 59 74 60 53 61 54 62 62 63 55 64 61 65
REMARK SMILES IDX 63 66 60 67 56 68 57 69 58 70 59 71 6 72 7 73 8 74 9 75
REMARK SMILES IDX 10 77 11 78 12 79 26 80 13 81 14 82 15 83 16 85 17 86 25 87
REMARK SMILES IDX 18 88 24 89 19 90 23 91 20 92 22 93 21 94
REMARK H PARENT 3 6 83 24 51 35 8 76 15 84
REMARK Flexibility Score: inf
ROOT
ATOM      1  C   UNL A   1      35.074  21.221  24.708  1.00  0.00     0.023 C 
ENDROOT
BRANCH   1   2
ATOM      2  C   UNL A   1      36.353  21.650  25.419  1.00  0.00     0.116 C 
BRANCH   2   3
ATOM      3  N   UNL A   1      37.382  20.619  25.426  1.00  0.00    -0.352 N 
ATOM      4  O   UNL A   1      39.460  19.758  25.577  1.00  0.00    -0.269 OA
ATOM      5  C   UNL A   1      38.718  20.723  25.741  1.00  0.00     0.251 C 
ATOM      6  H   UNL A   1      37.078  19.719  25.170  1.00  0.00     0.163 HD
BRANCH   5   7
ATOM      7  C   UNL A   1      39.263  22.005  26.243  1.00  0.00     0.039 A 
ATOM      8  C   UNL A   1      38.698  23.221  25.855  1.00  0.00     0.014 A 
ATOM      9  C   UNL A   1      40.372  21.990  27.094  1.00  0.00     0.014 A 
ATOM     10  C   UNL A   1      39.342  24.413  26.175  1.00  0.00     0.010 A 
ATOM     11  C   UNL A   1      40.964  23.195  27.488  1.00  0.00     0.010 A 
ATOM     12  C   UNL A   1      40.485  24.417  26.990  1.00  0.00    -0.014 A 
BRANCH  12  13
ATOM     13  C   UNL A   1      41.150  25.711  27.302  1.00  0.00     0.031 A 
ATOM     14  C   UNL A   1      40.481  26.734  28.186  1.00  0.00     0.074 A 
ATOM     15  C   UNL A   1      42.391  25.938  26.831  1.00  0.00     0.049 A 
ATOM     16  N   UNL A   1      40.941  27.884  28.611  1.00  0.00    -0.248 NA
ATOM     17  C   UNL A   1      39.117  26.430  28.640  1.00  0.00     0.031 C 
ATOM     18  C   UNL A   1      43.137  25.029  25.956  1.00  0.00     0.029 A 
ATOM     19  N   UNL A   1      43.257  26.981  27.038  1.00  0.00    -0.354 N 
ATOM     20  C   UNL A   1      39.917  28.453  29.362  1.00  0.00     0.074 A 
ATOM     21  C   UNL A   1      38.801  27.533  29.304  1.00  0.00     0.031 C 
ATOM     22  C   UNL A   1      44.367  25.524  25.753  1.00  0.00     0.029 A 
ATOM     23  C   UNL A   1      44.479  26.811  26.430  1.00  0.00     0.049 A 
ATOM     24  H   UNL A   1      43.027  27.776  27.572  1.00  0.00     0.167 HD
ATOM     25  C   UNL A   1      39.912  29.628  30.042  1.00  0.00     0.034 A 
ATOM     26  C   UNL A   1      45.568  27.603  26.411  1.00  0.00     0.034 A 
ATOM     27  C   UNL A   1      41.040  30.529  30.105  1.00  0.00     0.049 A 
ATOM     28  C   UNL A   1      45.536  28.902  27.169  1.00  0.00     0.074 A 
ATOM     29  C   UNL A   1      41.155  31.722  30.799  1.00  0.00     0.029 A 
ATOM     30  N   UNL A   1      42.249  30.340  29.445  1.00  0.00    -0.354 N 
ATOM     31  N   UNL A   1      44.566  29.412  27.891  1.00  0.00    -0.248 NA
ATOM     32  C   UNL A   1      46.748  29.728  27.111  1.00  0.00     0.031 C 
ATOM     33  C   UNL A   1      42.406  32.282  30.510  1.00  0.00     0.029 A 
ATOM     34  C   UNL A   1      43.101  31.407  29.693  1.00  0.00     0.049 A 
ATOM     35  H   UNL A   1      42.468  29.562  28.883  1.00  0.00     0.167 HD
ATOM     36  C   UNL A   1      45.061  30.612  28.393  1.00  0.00     0.074 A 
ATOM     37  C   UNL A   1      46.420  30.736  27.906  1.00  0.00     0.031 C 
ATOM     38  C   UNL A   1      44.448  31.527  29.185  1.00  0.00     0.034 A 
BRANCH  25  39
ATOM     39  C   UNL A   1      38.628  30.028  30.733  1.00  0.00     0.023 A 
ATOM     40  C   UNL A   1      37.706  30.908  30.141  1.00  0.00     0.031 A 
ATOM     41  C   UNL A   1      38.333  29.536  32.017  1.00  0.00     0.131 A 
ATOM     42  C   UNL A   1      36.573  31.326  30.859  1.00  0.00     0.055 A 
ATOM     43  C   UNL A   1      37.166  29.893  32.696  1.00  0.00     0.041 A 
ATOM     44  F   UNL A   1      39.183  28.706  32.643  1.00  0.00    -0.206 F 
ATOM     45  C   UNL A   1      36.285  30.806  32.123  1.00  0.00     0.022 A 
BRANCH  42  46
ATOM     46  S   UNL A   1      35.556  32.664  30.176  1.00  0.00     0.124 S 
ATOM     47  O   UNL A   1      35.361  32.214  28.799  1.00  0.00    -0.237 OA
ATOM     48  O   UNL A   1      34.376  32.631  31.031  1.00  0.00    -0.237 OA
ATOM     49  O   UNL A   1      36.402  33.847  30.322  1.00  0.00    -0.744 OA
ENDBRANCH  42  46
ENDBRANCH  25  39
BRANCH  26  50
ATOM     50  C   UNL A   1      46.776  27.197  25.640  1.00  0.00     0.023 A 
ATOM     51  C   UNL A   1      47.008  27.686  24.346  1.00  0.00     0.031 A 
ATOM     52  C   UNL A   1      47.706  26.291  26.182  1.00  0.00     0.131 A 
ATOM     53  C   UNL A   1      48.124  27.240  23.620  1.00  0.00     0.055 A 
ATOM     54  C   UNL A   1      48.840  25.889  25.477  1.00  0.00     0.041 A 
ATOM     55  F   UNL A   1      47.533  25.800  27.419  1.00  0.00    -0.206 F 
ATOM     56  C   UNL A   1      49.048  26.355  24.182  1.00  0.00     0.022 A 
BRANCH  53  57
ATOM     57  S   UNL A   1      48.316  27.781  21.900  1.00  0.00     0.124 S 
ATOM     58  O   UNL A   1      48.343  26.508  21.189  1.00  0.00    -0.237 OA
ATOM     59  O   UNL A   1      47.123  28.600  21.706  1.00  0.00    -0.237 OA
ATOM     60  O   UNL A   1      49.578  28.517  21.913  1.00  0.00    -0.744 OA
ENDBRANCH  53  57
ENDBRANCH  26  50
BRANCH  38  61
ATOM     61  C   UNL A   1      45.270  32.723  29.598  1.00  0.00     0.023 A 
ATOM     62  C   UNL A   1      45.241  33.927  28.870  1.00  0.00     0.031 A 
ATOM     63  C   UNL A   1      46.125  32.643  30.710  1.00  0.00     0.131 A 
ATOM     64  C   UNL A   1      46.099  34.978  29.223  1.00  0.00     0.055 A 
ATOM     65  C   UNL A   1      46.935  33.714  31.093  1.00  0.00     0.041 A 
ATOM     66  F   UNL A   1      46.194  31.517  31.439  1.00  0.00    -0.206 F 
ATOM     67  C   UNL A   1      46.937  34.884  30.339  1.00  0.00     0.022 A 
BRANCH  64  68
ATOM     68  S   UNL A   1      46.185  36.432  28.143  1.00  0.00     0.124 S 
ATOM     69  O   UNL A   1      44.858  36.441  27.537  1.00  0.00    -0.237 OA
ATOM     70  O   UNL A   1      46.460  37.507  29.090  1.00  0.00    -0.237 OA
ATOM     71  O   UNL A   1      47.282  36.117  27.229  1.00  0.00    -0.744 OA
ENDBRANCH  64  68
ENDBRANCH  38  61
ENDBRANCH  12  13
ENDBRANCH   5   7
ENDBRANCH   2   3
ENDBRANCH   1   2
BRANCH   1  72
ATOM     72  C   UNL A   1      34.027  20.537  25.587  1.00  0.00     0.023 C 
BRANCH  72  73
ATOM     73  C   UNL A   1      32.579  20.923  25.295  1.00  0.00     0.116 C 
BRANCH  73  74
ATOM     74  N   UNL A   1      32.005  21.747  26.342  1.00  0.00    -0.356 N 
ATOM     75  C   UNL A   1      31.948  23.109  26.439  1.00  0.00     0.227 C 
ATOM     76  H   UNL A   1      31.596  21.255  27.090  1.00  0.00     0.163 HD
ATOM     77  O   UNL A   1      31.394  23.605  27.421  1.00  0.00    -0.274 OA
BRANCH  75  78
ATOM     78  C   UNL A   1      32.580  23.955  25.336  1.00  0.00     0.103 C 
ATOM     79  C   UNL A   1      33.637  24.854  25.904  1.00  0.00    -0.016 C 
ATOM     80  C   UNL A   1      31.580  24.937  24.711  1.00  0.00     0.046 C 
ATOM     81  C   UNL A   1      33.284  26.141  25.845  1.00  0.00    -0.006 C 
ATOM     82  C   UNL A   1      31.930  26.335  25.249  1.00  0.00     0.104 C 
BRANCH  82  83
ATOM     83  N   UNL A   1      32.037  27.244  24.136  1.00  0.00    -0.364 N 
ATOM     84  H   UNL A   1      32.677  27.059  23.412  1.00  0.00     0.162 HD
BRANCH  83  85
ATOM     85  C   UNL A   1      31.248  28.369  24.082  1.00  0.00     0.127 A 
ATOM     86  C   UNL A   1      31.477  29.390  24.994  1.00  0.00     0.047 A 
ATOM     87  N   UNL A   1      30.314  28.474  23.118  1.00  0.00    -0.231 NA
ATOM     88  C   UNL A   1      30.733  30.561  24.908  1.00  0.00     0.014 A 
ATOM     89  C   UNL A   1      29.562  29.586  23.053  1.00  0.00     0.073 A 
ATOM     90  C   UNL A   1      29.746  30.676  23.927  1.00  0.00     0.000 A 
ATOM     91  C   UNL A   1      28.560  29.681  22.097  1.00  0.00     0.029 A 
ATOM     92  C   UNL A   1      28.954  31.831  23.807  1.00  0.00     0.010 A 
ATOM     93  C   UNL A   1      27.755  30.820  21.983  1.00  0.00     0.002 A 
ATOM     94  C   UNL A   1      27.958  31.899  22.834  1.00  0.00     0.001 A 
ENDBRANCH  83  85
ENDBRANCH  82  83
ENDBRANCH  75  78
ENDBRANCH  73  74
ENDBRANCH  72  73
ENDBRANCH   1  72
TORSDOF 16
ENDMDL
