MODEL 1
REMARK VINA RESULT:     -10.8      0.000      0.000
REMARK SMILES COCCCC(=O)N[C@H]1CC[C@@H](C(=O)NCCCCNC(=O)c2ccc(-c3c4nc(c(-c5cc(S(=O)(=O)[O-])ccc5F)c5ccc([nH]5)c(-c5cc(S(=O)(=O)[O-])ccc5F)c5nc(c(-c6cc(S(=O)(=O)[O-])ccc6F)c6ccc3[nH]6)C=C5)C=C4)cc2)CC1
REMARK SMILES IDX 16 1 15 2 13 3 14 4 12 6 9 7 10 8 87 9 11 10 86 11 8 12 6 13
REMARK SMILES IDX 7 14 5 16 4 17 3 18 2 19 1 20 17 21 18 22 19 23 20 24 21 25
REMARK SMILES IDX 22 27 23 28 24 29 85 30 25 31 84 32 26 33 27 34 28 35 78 36
REMARK SMILES IDX 29 37 83 38 77 39 79 40 30 41 82 42 76 43 75 44 31 46 63 47
REMARK SMILES IDX 43 48 62 49 44 50 47 51 61 52 80 53 45 54 46 55 60 57 81 58
REMARK SMILES IDX 48 59 32 60 33 61 41 62 34 63 40 64 42 65 39 66 35 67 36 68
REMARK SMILES IDX 37 69 38 70 64 71 65 72 73 73 66 74 72 75 74 76 71 77 67 78
REMARK SMILES IDX 68 79 69 80 70 81 49 82 50 83 58 84 51 85 57 86 59 87 56 88
REMARK SMILES IDX 52 89 53 90 54 91 55 92
REMARK H PARENT 15 5 8 15 20 26 79 45 47 56
REMARK Flexibility Score: inf
ROOT
ATOM      1  C   UNL A   1      34.689  23.207  23.604  1.00  0.00     0.116 C 
ENDROOT
BRANCH   1   2
ATOM      2  N   UNL A   1      34.042  21.934  23.850  1.00  0.00    -0.356 N 
ATOM      3  C   UNL A   1      32.826  21.562  24.311  1.00  0.00     0.223 C 
ATOM      4  O   UNL A   1      32.552  20.360  24.182  1.00  0.00    -0.275 OA
ATOM      5  H   UNL A   1      34.618  21.165  23.633  1.00  0.00     0.163 HD
BRANCH   3   6
ATOM      6  C   UNL A   1      31.800  22.473  24.998  1.00  0.00     0.078 C 
ATOM      7  C   UNL A   1      32.263  25.397  25.460  1.00  0.00     0.082 C 
ATOM      8  C   UNL A   1      31.636  24.912  24.145  1.00  0.00     0.026 C 
ATOM      9  C   UNL A   1      32.937  24.339  26.330  1.00  0.00     0.026 C 
ATOM     10  C   UNL A   1      31.075  23.502  24.137  1.00  0.00     0.015 C 
ATOM     11  C   UNL A   1      32.216  23.005  26.366  1.00  0.00     0.015 C 
BRANCH   7  12
ATOM     12  N   UNL A   1      33.172  26.493  25.131  1.00  0.00    -0.353 N 
ATOM     13  C   UNL A   1      32.951  27.776  24.751  1.00  0.00     0.220 C 
ATOM     14  O   UNL A   1      33.894  28.402  24.270  1.00  0.00    -0.275 OA
ATOM     15  H   UNL A   1      34.125  26.255  25.197  1.00  0.00     0.163 HD
BRANCH  13  16
ATOM     16  C   UNL A   1      31.612  28.435  24.964  1.00  0.00     0.102 C 
BRANCH  16  17
ATOM     17  C   UNL A   1      30.976  29.055  23.717  1.00  0.00     0.038 C 
BRANCH  17  18
ATOM     18  C   UNL A   1      29.901  28.256  22.981  1.00  0.00     0.160 C 
BRANCH  18  19
ATOM     19  O   UNL A   1      28.943  28.984  22.216  1.00  0.00    -0.385 OA
ATOM     20  C   UNL A   1      29.336  30.223  21.657  1.00  0.00     0.194 C 
ENDBRANCH  18  19
ENDBRANCH  17  18
ENDBRANCH  16  17
ENDBRANCH  13  16
ENDBRANCH   7  12
ENDBRANCH   3   6
ENDBRANCH   1   2
BRANCH   1  21
ATOM     21  C   UNL A   1      36.165  23.236  24.016  1.00  0.00     0.023 C 
BRANCH  21  22
ATOM     22  C   UNL A   1      36.744  21.890  24.424  1.00  0.00     0.023 C 
BRANCH  22  23
ATOM     23  C   UNL A   1      37.522  21.903  25.736  1.00  0.00     0.116 C 
BRANCH  23  24
ATOM     24  N   UNL A   1      38.730  21.096  25.751  1.00  0.00    -0.352 N 
ATOM     25  C   UNL A   1      39.951  21.435  26.320  1.00  0.00     0.251 C 
ATOM     26  H   UNL A   1      38.678  20.217  25.311  1.00  0.00     0.163 HD
ATOM     27  O   UNL A   1      40.920  20.697  26.224  1.00  0.00    -0.269 OA
BRANCH  25  28
ATOM     28  C   UNL A   1      40.067  22.758  26.968  1.00  0.00     0.039 A 
ATOM     29  C   UNL A   1      40.994  22.911  28.000  1.00  0.00     0.014 A 
ATOM     30  C   UNL A   1      39.407  23.863  26.429  1.00  0.00     0.014 A 
ATOM     31  C   UNL A   1      41.355  24.198  28.407  1.00  0.00     0.010 A 
ATOM     32  C   UNL A   1      39.840  25.140  26.766  1.00  0.00     0.010 A 
ATOM     33  C   UNL A   1      40.834  25.321  27.742  1.00  0.00    -0.014 A 
BRANCH  33  34
ATOM     34  C   UNL A   1      41.330  26.691  28.037  1.00  0.00     0.031 A 
ATOM     35  C   UNL A   1      42.744  27.063  27.686  1.00  0.00     0.074 A 
ATOM     36  C   UNL A   1      40.541  27.566  28.695  1.00  0.00     0.049 A 
ATOM     37  N   UNL A   1      43.406  28.156  27.962  1.00  0.00    -0.248 NA
ATOM     38  C   UNL A   1      43.529  26.048  26.968  1.00  0.00     0.031 C 
ATOM     39  C   UNL A   1      39.174  27.300  29.152  1.00  0.00     0.029 A 
ATOM     40  N   UNL A   1      40.778  28.855  29.105  1.00  0.00    -0.354 N 
ATOM     41  C   UNL A   1      44.691  27.952  27.469  1.00  0.00     0.074 A 
ATOM     42  C   UNL A   1      44.730  26.603  26.946  1.00  0.00     0.031 C 
ATOM     43  C   UNL A   1      38.687  28.398  29.754  1.00  0.00     0.029 A 
ATOM     44  C   UNL A   1      39.715  29.433  29.764  1.00  0.00     0.049 A 
ATOM     45  H   UNL A   1      41.627  29.323  28.943  1.00  0.00     0.167 HD
ATOM     46  C   UNL A   1      45.731  28.821  27.422  1.00  0.00     0.034 A 
ATOM     47  C   UNL A   1      39.589  30.656  30.318  1.00  0.00     0.034 A 
ATOM     48  C   UNL A   1      45.669  30.170  27.923  1.00  0.00     0.049 A 
ATOM     49  C   UNL A   1      40.748  31.615  30.230  1.00  0.00     0.074 A 
ATOM     50  C   UNL A   1      46.649  31.148  27.899  1.00  0.00     0.029 A 
ATOM     51  N   UNL A   1      44.557  30.739  28.530  1.00  0.00    -0.354 N 
ATOM     52  N   UNL A   1      41.944  31.418  29.723  1.00  0.00    -0.248 NA
ATOM     53  C   UNL A   1      40.538  32.965  30.770  1.00  0.00     0.031 C 
ATOM     54  C   UNL A   1      46.143  32.292  28.528  1.00  0.00     0.029 A 
ATOM     55  C   UNL A   1      44.828  32.049  28.892  1.00  0.00     0.049 A 
ATOM     56  H   UNL A   1      43.699  30.278  28.682  1.00  0.00     0.167 HD
ATOM     57  C   UNL A   1      42.617  32.629  29.861  1.00  0.00     0.074 A 
ATOM     58  C   UNL A   1      41.689  33.552  30.482  1.00  0.00     0.031 C 
ATOM     59  C   UNL A   1      43.887  32.951  29.509  1.00  0.00     0.034 A 
BRANCH  46  60
ATOM     60  C   UNL A   1      47.017  28.316  26.816  1.00  0.00     0.023 A 
ATOM     61  C   UNL A   1      47.211  28.302  25.423  1.00  0.00     0.031 A 
ATOM     62  C   UNL A   1      48.039  27.796  27.627  1.00  0.00     0.131 A 
ATOM     63  C   UNL A   1      48.353  27.698  24.881  1.00  0.00     0.055 A 
ATOM     64  C   UNL A   1      49.215  27.274  27.084  1.00  0.00     0.041 A 
ATOM     65  F   UNL A   1      47.903  27.765  28.963  1.00  0.00    -0.206 F 
ATOM     66  C   UNL A   1      49.370  27.206  25.702  1.00  0.00     0.022 A 
BRANCH  63  67
ATOM     67  S   UNL A   1      48.419  27.429  23.089  1.00  0.00     0.124 S 
ATOM     68  O   UNL A   1      48.235  25.981  23.004  1.00  0.00    -0.237 OA
ATOM     69  O   UNL A   1      47.310  28.242  22.605  1.00  0.00    -0.237 OA
ATOM     70  O   UNL A   1      49.751  27.904  22.720  1.00  0.00    -0.744 OA
ENDBRANCH  63  67
ENDBRANCH  46  60
BRANCH  47  71
ATOM     71  C   UNL A   1      38.328  31.050  31.013  1.00  0.00     0.023 A 
ATOM     72  C   UNL A   1      37.292  31.695  30.320  1.00  0.00     0.031 A 
ATOM     73  C   UNL A   1      38.166  30.834  32.392  1.00  0.00     0.131 A 
ATOM     74  C   UNL A   1      36.161  32.151  31.017  1.00  0.00     0.055 A 
ATOM     75  C   UNL A   1      37.017  31.244  33.072  1.00  0.00     0.041 A 
ATOM     76  F   UNL A   1      39.122  30.211  33.100  1.00  0.00    -0.206 F 
ATOM     77  C   UNL A   1      36.013  31.921  32.386  1.00  0.00     0.022 A 
BRANCH  74  78
ATOM     78  S   UNL A   1      34.926  33.132  30.123  1.00  0.00     0.124 S 
ATOM     79  O   UNL A   1      35.760  34.123  29.453  1.00  0.00    -0.237 OA
ATOM     80  O   UNL A   1      34.308  32.128  29.264  1.00  0.00    -0.237 OA
ATOM     81  O   UNL A   1      34.069  33.653  31.186  1.00  0.00    -0.744 OA
ENDBRANCH  74  78
ENDBRANCH  47  71
BRANCH  59  82
ATOM     82  C   UNL A   1      44.320  34.375  29.744  1.00  0.00     0.023 A 
ATOM     83  C   UNL A   1      44.189  35.360  28.752  1.00  0.00     0.031 A 
ATOM     84  C   UNL A   1      44.878  34.745  30.980  1.00  0.00     0.131 A 
ATOM     85  C   UNL A   1      44.656  36.659  28.993  1.00  0.00     0.055 A 
ATOM     86  C   UNL A   1      45.295  36.051  31.233  1.00  0.00     0.041 A 
ATOM     87  F   UNL A   1      45.024  33.840  31.962  1.00  0.00    -0.206 F 
ATOM     88  C   UNL A   1      45.196  37.015  30.233  1.00  0.00     0.022 A 
BRANCH  85  89
ATOM     89  S   UNL A   1      44.618  37.866  27.640  1.00  0.00     0.124 S 
ATOM     90  O   UNL A   1      45.816  37.512  26.884  1.00  0.00    -0.237 OA
ATOM     91  O   UNL A   1      43.345  37.568  26.992  1.00  0.00    -0.237 OA
ATOM     92  O   UNL A   1      44.676  39.155  28.327  1.00  0.00    -0.744 OA
ENDBRANCH  85  89
ENDBRANCH  59  82
ENDBRANCH  33  34
ENDBRANCH  25  28
ENDBRANCH  23  24
ENDBRANCH  22  23
ENDBRANCH  21  22
ENDBRANCH   1  21
TORSDOF 19
ENDMDL
MODEL 2
REMARK VINA RESULT:     -10.7      1.657      2.110
REMARK SMILES COCCCC(=O)N[C@H]1CC[C@@H](C(=O)NCCCCNC(=O)c2ccc(-c3c4nc(c(-c5cc(S(=O)(=O)[O-])ccc5F)c5ccc([nH]5)c(-c5cc(S(=O)(=O)[O-])ccc5F)c5nc(c(-c6cc(S(=O)(=O)[O-])ccc6F)c6ccc3[nH]6)C=C5)C=C4)cc2)CC1
REMARK SMILES IDX 16 1 15 2 13 3 14 4 12 6 9 7 10 8 87 9 11 10 86 11 8 12 6 13
REMARK SMILES IDX 7 14 5 16 4 17 3 18 2 19 1 20 17 21 18 22 19 23 20 24 21 25
REMARK SMILES IDX 22 27 23 28 24 29 85 30 25 31 84 32 26 33 27 34 28 35 78 36
REMARK SMILES IDX 29 37 83 38 77 39 79 40 30 41 82 42 76 43 75 44 31 46 63 47
REMARK SMILES IDX 43 48 62 49 44 50 47 51 61 52 80 53 45 54 46 55 60 57 81 58
REMARK SMILES IDX 48 59 32 60 33 61 41 62 34 63 40 64 42 65 39 66 35 67 36 68
REMARK SMILES IDX 37 69 38 70 64 71 65 72 73 73 66 74 72 75 74 76 71 77 67 78
REMARK SMILES IDX 68 79 69 80 70 81 49 82 50 83 58 84 51 85 57 86 59 87 56 88
REMARK SMILES IDX 52 89 53 90 54 91 55 92
REMARK H PARENT 15 5 8 15 20 26 79 45 47 56
REMARK Flexibility Score: inf
ROOT
ATOM      1  C   UNL A   1      34.055  22.897  23.323  1.00  0.00     0.116 C 
ENDROOT
BRANCH   1   2
ATOM      2  N   UNL A   1      33.345  21.881  24.074  1.00  0.00    -0.356 N 
ATOM      3  C   UNL A   1      32.105  21.788  24.606  1.00  0.00     0.223 C 
ATOM      4  O   UNL A   1      31.779  20.660  25.002  1.00  0.00    -0.275 OA
ATOM      5  H   UNL A   1      33.889  21.076  24.234  1.00  0.00     0.163 HD
BRANCH   3   6
ATOM      6  C   UNL A   1      31.110  22.942  24.791  1.00  0.00     0.078 C 
ATOM      7  C   UNL A   1      31.867  25.821  24.456  1.00  0.00     0.082 C 
ATOM      8  C   UNL A   1      31.396  25.000  23.247  1.00  0.00     0.026 C 
ATOM      9  C   UNL A   1      32.256  25.038  25.708  1.00  0.00     0.026 C 
ATOM     10  C   UNL A   1      30.667  23.703  23.547  1.00  0.00     0.015 C 
ATOM     11  C   UNL A   1      31.372  23.839  25.996  1.00  0.00     0.015 C 
BRANCH   7  12
ATOM     12  N   UNL A   1      32.949  26.689  23.997  1.00  0.00    -0.353 N 
ATOM     13  C   UNL A   1      32.952  27.938  23.469  1.00  0.00     0.220 C 
ATOM     14  O   UNL A   1      33.981  28.323  22.915  1.00  0.00    -0.275 OA
ATOM     15  H   UNL A   1      33.846  26.293  24.090  1.00  0.00     0.163 HD
BRANCH  13  16
ATOM     16  C   UNL A   1      31.758  28.848  23.604  1.00  0.00     0.102 C 
BRANCH  16  17
ATOM     17  C   UNL A   1      31.527  29.430  25.001  1.00  0.00     0.038 C 
BRANCH  17  18
ATOM     18  C   UNL A   1      32.750  29.755  25.859  1.00  0.00     0.160 C 
BRANCH  18  19
ATOM     19  O   UNL A   1      33.051  28.877  26.941  1.00  0.00    -0.385 OA
ATOM     20  C   UNL A   1      31.974  28.247  27.610  1.00  0.00     0.194 C 
ENDBRANCH  18  19
ENDBRANCH  17  18
ENDBRANCH  16  17
ENDBRANCH  13  16
ENDBRANCH   7  12
ENDBRANCH   3   6
ENDBRANCH   1   2
BRANCH   1  21
ATOM     21  C   UNL A   1      35.536  23.017  23.699  1.00  0.00     0.023 C 
BRANCH  21  22
ATOM     22  C   UNL A   1      36.179  21.730  24.196  1.00  0.00     0.023 C 
BRANCH  22  23
ATOM     23  C   UNL A   1      37.126  21.907  25.377  1.00  0.00     0.116 C 
BRANCH  23  24
ATOM     24  N   UNL A   1      38.189  20.920  25.475  1.00  0.00    -0.352 N 
ATOM     25  C   UNL A   1      39.409  21.071  26.121  1.00  0.00     0.251 C 
ATOM     26  H   UNL A   1      38.025  20.053  25.039  1.00  0.00     0.163 HD
ATOM     27  O   UNL A   1      40.253  20.188  26.093  1.00  0.00    -0.269 OA
BRANCH  25  28
ATOM     28  C   UNL A   1      39.691  22.370  26.768  1.00  0.00     0.039 A 
ATOM     29  C   UNL A   1      40.744  22.441  27.681  1.00  0.00     0.014 A 
ATOM     30  C   UNL A   1      39.047  23.527  26.328  1.00  0.00     0.014 A 
ATOM     31  C   UNL A   1      41.237  23.692  28.058  1.00  0.00     0.010 A 
ATOM     32  C   UNL A   1      39.602  24.766  26.627  1.00  0.00     0.010 A 
ATOM     33  C   UNL A   1      40.717  24.860  27.476  1.00  0.00    -0.014 A 
BRANCH  33  34
ATOM     34  C   UNL A   1      41.336  26.189  27.727  1.00  0.00     0.031 A 
ATOM     35  C   UNL A   1      42.737  26.459  27.253  1.00  0.00     0.074 A 
ATOM     36  C   UNL A   1      40.674  27.114  28.453  1.00  0.00     0.049 A 
ATOM     37  N   UNL A   1      43.499  27.499  27.470  1.00  0.00    -0.248 NA
ATOM     38  C   UNL A   1      43.379  25.394  26.468  1.00  0.00     0.031 C 
ATOM     39  C   UNL A   1      39.336  26.946  29.029  1.00  0.00     0.029 A 
ATOM     40  N   UNL A   1      41.039  28.380  28.840  1.00  0.00    -0.354 N 
ATOM     41  C   UNL A   1      44.716  27.205  26.865  1.00  0.00     0.074 A 
ATOM     42  C   UNL A   1      44.611  25.861  26.340  1.00  0.00     0.031 C 
ATOM     43  C   UNL A   1      38.986  28.073  29.672  1.00  0.00     0.029 A 
ATOM     44  C   UNL A   1      40.084  29.030  29.591  1.00  0.00     0.049 A 
ATOM     45  H   UNL A   1      41.903  28.786  28.604  1.00  0.00     0.167 HD
ATOM     46  C   UNL A   1      45.810  27.996  26.727  1.00  0.00     0.034 A 
ATOM     47  C   UNL A   1      40.097  30.254  30.155  1.00  0.00     0.034 A 
ATOM     48  C   UNL A   1      45.890  29.343  27.231  1.00  0.00     0.049 A 
ATOM     49  C   UNL A   1      41.311  31.127  29.964  1.00  0.00     0.074 A 
ATOM     50  C   UNL A   1      46.933  30.247  27.122  1.00  0.00     0.029 A 
ATOM     51  N   UNL A   1      44.881  29.987  27.935  1.00  0.00    -0.354 N 
ATOM     52  N   UNL A   1      42.440  30.847  29.354  1.00  0.00    -0.248 NA
ATOM     53  C   UNL A   1      41.248  32.485  30.522  1.00  0.00     0.031 C 
ATOM     54  C   UNL A   1      46.570  31.420  27.793  1.00  0.00     0.029 A 
ATOM     55  C   UNL A   1      45.278  31.271  28.271  1.00  0.00     0.049 A 
ATOM     56  H   UNL A   1      44.009  29.589  28.162  1.00  0.00     0.167 HD
ATOM     57  C   UNL A   1      43.209  32.004  29.433  1.00  0.00     0.074 A 
ATOM     58  C   UNL A   1      42.410  32.989  30.133  1.00  0.00     0.031 C 
ATOM     59  C   UNL A   1      44.464  32.236  28.969  1.00  0.00     0.034 A 
BRANCH  46  60
ATOM     60  C   UNL A   1      46.997  27.403  26.009  1.00  0.00     0.023 A 
ATOM     61  C   UNL A   1      47.970  26.658  26.700  1.00  0.00     0.031 A 
ATOM     62  C   UNL A   1      47.191  27.626  24.636  1.00  0.00     0.131 A 
ATOM     63  C   UNL A   1      49.132  26.241  26.038  1.00  0.00     0.055 A 
ATOM     64  C   UNL A   1      48.310  27.133  23.963  1.00  0.00     0.041 A 
ATOM     65  F   UNL A   1      46.306  28.346  23.928  1.00  0.00    -0.206 F 
ATOM     66  C   UNL A   1      49.299  26.451  24.667  1.00  0.00     0.022 A 
BRANCH  63  67
ATOM     67  S   UNL A   1      50.490  25.557  27.026  1.00  0.00     0.124 S 
ATOM     68  O   UNL A   1      50.783  26.669  27.929  1.00  0.00    -0.237 OA
ATOM     69  O   UNL A   1      49.876  24.384  27.638  1.00  0.00    -0.237 OA
ATOM     70  O   UNL A   1      51.527  25.276  26.036  1.00  0.00    -0.744 OA
ENDBRANCH  63  67
ENDBRANCH  46  60
BRANCH  47  71
ATOM     71  C   UNL A   1      38.935  30.734  30.958  1.00  0.00     0.023 A 
ATOM     72  C   UNL A   1      37.865  31.411  30.350  1.00  0.00     0.031 A 
ATOM     73  C   UNL A   1      38.903  30.570  32.353  1.00  0.00     0.131 A 
ATOM     74  C   UNL A   1      36.835  31.946  31.141  1.00  0.00     0.055 A 
ATOM     75  C   UNL A   1      37.852  31.060  33.130  1.00  0.00     0.041 A 
ATOM     76  F   UNL A   1      39.896  29.921  32.983  1.00  0.00    -0.206 F 
ATOM     77  C   UNL A   1      36.817  31.767  32.525  1.00  0.00     0.022 A 
BRANCH  74  78
ATOM     78  S   UNL A   1      35.563  32.962  30.340  1.00  0.00     0.124 S 
ATOM     79  O   UNL A   1      34.763  31.953  29.655  1.00  0.00    -0.237 OA
ATOM     80  O   UNL A   1      34.933  33.613  31.483  1.00  0.00    -0.237 OA
ATOM     81  O   UNL A   1      36.334  33.846  29.468  1.00  0.00    -0.744 OA
ENDBRANCH  74  78
ENDBRANCH  47  71
BRANCH  59  82
ATOM     82  C   UNL A   1      45.019  33.622  29.166  1.00  0.00     0.023 A 
ATOM     83  C   UNL A   1      44.721  34.669  28.279  1.00  0.00     0.031 A 
ATOM     84  C   UNL A   1      45.863  33.894  30.257  1.00  0.00     0.131 A 
ATOM     85  C   UNL A   1      45.304  35.930  28.468  1.00  0.00     0.055 A 
ATOM     86  C   UNL A   1      46.401  35.163  30.469  1.00  0.00     0.041 A 
ATOM     87  F   UNL A   1      46.178  32.927  31.134  1.00  0.00    -0.206 F 
ATOM     88  C   UNL A   1      46.131  36.188  29.565  1.00  0.00     0.022 A 
BRANCH  85  89
ATOM     89  S   UNL A   1      45.027  37.215  27.218  1.00  0.00     0.124 S 
ATOM     90  O   UNL A   1      43.865  36.696  26.502  1.00  0.00    -0.237 OA
ATOM     91  O   UNL A   1      44.793  38.401  28.036  1.00  0.00    -0.237 OA
ATOM     92  O   UNL A   1      46.273  37.226  26.454  1.00  0.00    -0.744 OA
ENDBRANCH  85  89
ENDBRANCH  59  82
ENDBRANCH  33  34
ENDBRANCH  25  28
ENDBRANCH  23  24
ENDBRANCH  22  23
ENDBRANCH  21  22
ENDBRANCH   1  21
TORSDOF 19
ENDMDL
MODEL 3
REMARK VINA RESULT:     -10.5      5.103      8.558
REMARK SMILES COCCCC(=O)N[C@H]1CC[C@@H](C(=O)NCCCCNC(=O)c2ccc(-c3c4nc(c(-c5cc(S(=O)(=O)[O-])ccc5F)c5ccc([nH]5)c(-c5cc(S(=O)(=O)[O-])ccc5F)c5nc(c(-c6cc(S(=O)(=O)[O-])ccc6F)c6ccc3[nH]6)C=C5)C=C4)cc2)CC1
REMARK SMILES IDX 16 1 15 2 13 3 14 4 12 6 9 7 10 8 87 9 11 10 86 11 8 12 6 13
REMARK SMILES IDX 7 14 5 16 4 17 3 18 2 19 1 20 17 21 18 22 19 23 20 24 21 25
REMARK SMILES IDX 22 27 23 28 24 29 85 30 25 31 84 32 26 33 27 34 28 35 78 36
REMARK SMILES IDX 29 37 83 38 77 39 79 40 30 41 82 42 76 43 75 44 31 46 63 47
REMARK SMILES IDX 43 48 62 49 44 50 47 51 61 52 80 53 45 54 46 55 60 57 81 58
REMARK SMILES IDX 48 59 32 60 33 61 41 62 34 63 40 64 42 65 39 66 35 67 36 68
REMARK SMILES IDX 37 69 38 70 64 71 65 72 73 73 66 74 72 75 74 76 71 77 67 78
REMARK SMILES IDX 68 79 69 80 70 81 49 82 50 83 58 84 51 85 57 86 59 87 56 88
REMARK SMILES IDX 52 89 53 90 54 91 55 92
REMARK H PARENT 15 5 8 15 20 26 79 45 47 56
REMARK Flexibility Score: inf
ROOT
ATOM      1  C   UNL A   1      32.394  30.026  25.532  1.00  0.00     0.116 C 
ENDROOT
BRANCH   1   2
ATOM      2  N   UNL A   1      32.603  29.270  24.313  1.00  0.00    -0.356 N 
ATOM      3  C   UNL A   1      32.705  27.954  24.019  1.00  0.00     0.223 C 
ATOM      4  O   UNL A   1      32.670  27.673  22.812  1.00  0.00    -0.275 OA
ATOM      5  H   UNL A   1      32.692  29.845  23.518  1.00  0.00     0.163 HD
BRANCH   3   6
ATOM      6  C   UNL A   1      32.894  26.813  25.027  1.00  0.00     0.078 C 
ATOM      7  C   UNL A   1      32.321  23.945  24.377  1.00  0.00     0.082 C 
ATOM      8  C   UNL A   1      33.708  24.540  24.092  1.00  0.00     0.026 C 
ATOM      9  C   UNL A   1      31.195  24.935  24.660  1.00  0.00     0.026 C 
ATOM     10  C   UNL A   1      34.047  25.843  24.793  1.00  0.00     0.015 C 
ATOM     11  C   UNL A   1      31.609  26.135  25.491  1.00  0.00     0.015 C 
BRANCH   7  12
ATOM     12  N   UNL A   1      31.996  23.051  23.269  1.00  0.00    -0.353 N 
ATOM     13  C   UNL A   1      32.240  21.733  23.059  1.00  0.00     0.220 C 
ATOM     14  O   UNL A   1      32.097  21.298  21.918  1.00  0.00    -0.275 OA
ATOM     15  H   UNL A   1      31.506  23.487  22.533  1.00  0.00     0.163 HD
BRANCH  13  16
ATOM     16  C   UNL A   1      32.617  20.817  24.196  1.00  0.00     0.102 C 
BRANCH  16  17
ATOM     17  C   UNL A   1      34.098  20.821  24.583  1.00  0.00     0.038 C 
BRANCH  17  18
ATOM     18  C   UNL A   1      34.468  21.176  26.023  1.00  0.00     0.160 C 
BRANCH  18  19
ATOM     19  O   UNL A   1      33.407  21.502  26.918  1.00  0.00    -0.385 OA
ATOM     20  C   UNL A   1      33.598  22.578  27.817  1.00  0.00     0.194 C 
ENDBRANCH  18  19
ENDBRANCH  17  18
ENDBRANCH  16  17
ENDBRANCH  13  16
ENDBRANCH   7  12
ENDBRANCH   3   6
ENDBRANCH   1   2
BRANCH   1  21
ATOM     21  C   UNL A   1      31.048  30.757  25.577  1.00  0.00     0.023 C 
BRANCH  21  22
ATOM     22  C   UNL A   1      31.102  32.168  26.144  1.00  0.00     0.023 C 
BRANCH  22  23
ATOM     23  C   UNL A   1      32.372  32.493  26.923  1.00  0.00     0.116 C 
BRANCH  23  24
ATOM     24  N   UNL A   1      32.381  33.787  27.584  1.00  0.00    -0.352 N 
ATOM     25  C   UNL A   1      33.385  34.299  28.396  1.00  0.00     0.251 C 
ATOM     26  H   UNL A   1      31.595  34.360  27.441  1.00  0.00     0.163 HD
ATOM     27  O   UNL A   1      33.262  35.383  28.947  1.00  0.00    -0.269 OA
BRANCH  25  28
ATOM     28  C   UNL A   1      34.571  33.453  28.646  1.00  0.00     0.039 A 
ATOM     29  C   UNL A   1      35.835  33.999  28.423  1.00  0.00     0.014 A 
ATOM     30  C   UNL A   1      34.427  32.214  29.273  1.00  0.00     0.014 A 
ATOM     31  C   UNL A   1      36.958  33.356  28.946  1.00  0.00     0.010 A 
ATOM     32  C   UNL A   1      35.534  31.629  29.877  1.00  0.00     0.010 A 
ATOM     33  C   UNL A   1      36.808  32.205  29.739  1.00  0.00    -0.014 A 
BRANCH  33  34
ATOM     34  C   UNL A   1      37.966  31.601  30.450  1.00  0.00     0.031 A 
ATOM     35  C   UNL A   1      38.777  30.529  29.776  1.00  0.00     0.074 A 
ATOM     36  C   UNL A   1      38.231  31.953  31.725  1.00  0.00     0.049 A 
ATOM     37  N   UNL A   1      39.745  29.796  30.260  1.00  0.00    -0.248 NA
ATOM     38  C   UNL A   1      38.418  30.213  28.386  1.00  0.00     0.031 C 
ATOM     39  C   UNL A   1      37.473  32.930  32.513  1.00  0.00     0.029 A 
ATOM     40  N   UNL A   1      39.206  31.522  32.591  1.00  0.00    -0.354 N 
ATOM     41  C   UNL A   1      40.097  28.918  29.240  1.00  0.00     0.074 A 
ATOM     42  C   UNL A   1      39.187  29.165  28.142  1.00  0.00     0.031 C 
ATOM     43  C   UNL A   1      38.027  33.041  33.733  1.00  0.00     0.029 A 
ATOM     44  C   UNL A   1      39.152  32.118  33.832  1.00  0.00     0.049 A 
ATOM     45  H   UNL A   1      39.881  30.849  32.348  1.00  0.00     0.167 HD
ATOM     46  C   UNL A   1      41.107  28.014  29.207  1.00  0.00     0.034 A 
ATOM     47  C   UNL A   1      39.919  31.934  34.926  1.00  0.00     0.034 A 
ATOM     48  C   UNL A   1      42.023  27.799  30.299  1.00  0.00     0.049 A 
ATOM     49  C   UNL A   1      41.055  30.946  34.857  1.00  0.00     0.074 A 
ATOM     50  C   UNL A   1      43.102  26.935  30.364  1.00  0.00     0.029 A 
ATOM     51  N   UNL A   1      41.972  28.463  31.517  1.00  0.00    -0.354 N 
ATOM     52  N   UNL A   1      41.398  30.152  33.868  1.00  0.00    -0.248 NA
ATOM     53  C   UNL A   1      41.917  30.840  36.042  1.00  0.00     0.031 C 
ATOM     54  C   UNL A   1      43.679  27.048  31.635  1.00  0.00     0.029 A 
ATOM     55  C   UNL A   1      42.995  28.024  32.342  1.00  0.00     0.049 A 
ATOM     56  H   UNL A   1      41.307  29.147  31.760  1.00  0.00     0.167 HD
ATOM     57  C   UNL A   1      42.531  29.472  34.305  1.00  0.00     0.074 A 
ATOM     58  C   UNL A   1      42.823  29.962  35.638  1.00  0.00     0.031 C 
ATOM     59  C   UNL A   1      43.267  28.528  33.666  1.00  0.00     0.034 A 
BRANCH  46  60
ATOM     60  C   UNL A   1      41.253  27.196  27.948  1.00  0.00     0.023 A 
ATOM     61  C   UNL A   1      40.839  25.852  27.899  1.00  0.00     0.031 A 
ATOM     62  C   UNL A   1      41.858  27.740  26.803  1.00  0.00     0.131 A 
ATOM     63  C   UNL A   1      41.116  25.076  26.766  1.00  0.00     0.055 A 
ATOM     64  C   UNL A   1      42.052  26.985  25.645  1.00  0.00     0.041 A 
ATOM     65  F   UNL A   1      42.291  29.011  26.797  1.00  0.00    -0.206 F 
ATOM     66  C   UNL A   1      41.697  25.639  25.627  1.00  0.00     0.022 A 
BRANCH  63  67
ATOM     67  S   UNL A   1      40.843  23.286  26.859  1.00  0.00     0.124 S 
ATOM     68  O   UNL A   1      41.196  23.009  28.251  1.00  0.00    -0.237 OA
ATOM     69  O   UNL A   1      39.430  23.162  26.522  1.00  0.00    -0.237 OA
ATOM     70  O   UNL A   1      41.772  22.745  25.868  1.00  0.00    -0.744 OA
ENDBRANCH  63  67
ENDBRANCH  46  60
BRANCH  47  71
ATOM     71  C   UNL A   1      39.644  32.689  36.183  1.00  0.00     0.023 A 
ATOM     72  C   UNL A   1      38.755  32.188  37.148  1.00  0.00     0.031 A 
ATOM     73  C   UNL A   1      40.224  33.948  36.411  1.00  0.00     0.131 A 
ATOM     74  C   UNL A   1      38.431  32.966  38.272  1.00  0.00     0.055 A 
ATOM     75  C   UNL A   1      39.937  34.697  37.555  1.00  0.00     0.041 A 
ATOM     76  F   UNL A   1      41.089  34.469  35.525  1.00  0.00    -0.206 F 
ATOM     77  C   UNL A   1      39.024  34.212  38.486  1.00  0.00     0.022 A 
BRANCH  74  78
ATOM     78  S   UNL A   1      37.151  32.363  39.406  1.00  0.00     0.124 S 
ATOM     79  O   UNL A   1      35.955  32.441  38.574  1.00  0.00    -0.237 OA
ATOM     80  O   UNL A   1      37.630  31.020  39.715  1.00  0.00    -0.237 OA
ATOM     81  O   UNL A   1      37.203  33.313  40.515  1.00  0.00    -0.744 OA
ENDBRANCH  74  78
ENDBRANCH  47  71
BRANCH  59  82
ATOM     82  C   UNL A   1      44.483  28.007  34.387  1.00  0.00     0.023 A 
ATOM     83  C   UNL A   1      44.418  26.884  35.227  1.00  0.00     0.031 A 
ATOM     84  C   UNL A   1      45.722  28.653  34.234  1.00  0.00     0.131 A 
ATOM     85  C   UNL A   1      45.561  26.466  35.923  1.00  0.00     0.055 A 
ATOM     86  C   UNL A   1      46.868  28.204  34.890  1.00  0.00     0.041 A 
ATOM     87  F   UNL A   1      45.837  29.732  33.443  1.00  0.00    -0.206 F 
ATOM     88  C   UNL A   1      46.789  27.111  35.750  1.00  0.00     0.022 A 
BRANCH  85  89
ATOM     89  S   UNL A   1      45.407  25.111  37.119  1.00  0.00     0.124 S 
ATOM     90  O   UNL A   1      44.129  24.516  36.742  1.00  0.00    -0.237 OA
ATOM     91  O   UNL A   1      46.592  24.309  36.835  1.00  0.00    -0.237 OA
ATOM     92  O   UNL A   1      45.417  25.793  38.413  1.00  0.00    -0.744 OA
ENDBRANCH  85  89
ENDBRANCH  59  82
ENDBRANCH  33  34
ENDBRANCH  25  28
ENDBRANCH  23  24
ENDBRANCH  22  23
ENDBRANCH  21  22
ENDBRANCH   1  21
TORSDOF 19
ENDMDL
