MODEL 1
REMARK VINA RESULT:     -12.5      0.000      0.000
REMARK SMILES O=C(NCCCCNC(=O)c1cc(S(=O)(=O)Nc2cccc(Cl)c2)ccc1O)c1ccc(-c2c3nc(c(-c4cc(S(=O)(=O)[O-])ccc4F)c4ccc([nH]4)c(-c4cc(S(=O)(=O)[O-])ccc4F)c4nc(c(-c5cc(S(=O)(=O)[O-])ccc5F)c5ccc2[nH]5)C=C4)C=C3)cc1
REMARK SMILES IDX 5 1 4 2 3 3 1 4 2 5 29 7 30 8 91 9 31 10 90 11 32 12 33 13
REMARK SMILES IDX 34 14 84 15 35 16 89 17 83 18 85 19 36 20 88 21 82 22 81 23
REMARK SMILES IDX 37 25 69 26 49 27 68 28 50 29 53 30 67 31 86 32 51 33 52 34
REMARK SMILES IDX 66 36 87 37 54 38 38 39 39 40 47 41 40 42 46 43 48 44 45 45
REMARK SMILES IDX 41 46 42 47 43 48 44 49 70 50 71 51 79 52 72 53 78 54 80 55
REMARK SMILES IDX 77 56 73 57 74 58 75 59 76 60 55 61 56 62 64 63 57 64 63 65
REMARK SMILES IDX 65 66 62 67 58 68 59 69 60 70 61 71 6 72 7 73 8 74 9 75
REMARK SMILES IDX 10 77 11 78 12 79 27 80 13 81 26 82 25 83 28 84 14 86 15 87
REMARK SMILES IDX 16 88 17 89 18 91 19 92 24 93 20 94 22 95 21 96 23 97
REMARK H PARENT 3 6 85 24 53 35 8 76 28 85 17 90
REMARK Flexibility Score: inf
ROOT
ATOM      1  C   UNL A   1      35.821  22.475  25.090  1.00  0.00     0.023 C 
ENDROOT
BRANCH   1   2
ATOM      2  C   UNL A   1      37.301  22.726  24.838  1.00  0.00     0.116 C 
BRANCH   2   3
ATOM      3  N   UNL A   1      38.161  21.622  25.247  1.00  0.00    -0.352 N 
ATOM      4  O   UNL A   1      39.934  20.617  26.226  1.00  0.00    -0.269 OA
ATOM      5  C   UNL A   1      39.272  21.637  26.062  1.00  0.00     0.251 C 
ATOM      6  H   UNL A   1      37.912  20.738  24.890  1.00  0.00     0.163 HD
BRANCH   5   7
ATOM      7  C   UNL A   1      39.679  22.905  26.707  1.00  0.00     0.039 A 
ATOM      8  C   UNL A   1      39.108  24.112  26.306  1.00  0.00     0.014 A 
ATOM      9  C   UNL A   1      40.688  22.890  27.674  1.00  0.00     0.014 A 
ATOM     10  C   UNL A   1      39.683  25.309  26.714  1.00  0.00     0.010 A 
ATOM     11  C   UNL A   1      41.192  24.099  28.166  1.00  0.00     0.010 A 
ATOM     12  C   UNL A   1      40.733  25.319  27.648  1.00  0.00    -0.014 A 
BRANCH  12  13
ATOM     13  C   UNL A   1      41.315  26.625  28.061  1.00  0.00     0.031 A 
ATOM     14  C   UNL A   1      42.715  27.016  27.663  1.00  0.00     0.074 A 
ATOM     15  C   UNL A   1      40.542  27.488  28.748  1.00  0.00     0.049 A 
ATOM     16  N   UNL A   1      43.356  28.136  27.893  1.00  0.00    -0.248 NA
ATOM     17  C   UNL A   1      43.503  26.019  26.926  1.00  0.00     0.031 C 
ATOM     18  C   UNL A   1      39.172  27.217  29.193  1.00  0.00     0.029 A 
ATOM     19  N   UNL A   1      40.776  28.774  29.164  1.00  0.00    -0.354 N 
ATOM     20  C   UNL A   1      44.629  27.969  27.356  1.00  0.00     0.074 A 
ATOM     21  C   UNL A   1      44.676  26.627  26.814  1.00  0.00     0.031 C 
ATOM     22  C   UNL A   1      38.664  28.322  29.754  1.00  0.00     0.029 A 
ATOM     23  C   UNL A   1      39.691  29.357  29.777  1.00  0.00     0.049 A 
ATOM     24  H   UNL A   1      41.636  29.234  29.037  1.00  0.00     0.167 HD
ATOM     25  C   UNL A   1      45.657  28.855  27.313  1.00  0.00     0.034 A 
ATOM     26  C   UNL A   1      39.539  30.585  30.308  1.00  0.00     0.034 A 
ATOM     27  C   UNL A   1      45.583  30.198  27.839  1.00  0.00     0.049 A 
ATOM     28  C   UNL A   1      40.697  31.543  30.257  1.00  0.00     0.074 A 
ATOM     29  C   UNL A   1      46.548  31.192  27.807  1.00  0.00     0.029 A 
ATOM     30  N   UNL A   1      44.485  30.739  28.497  1.00  0.00    -0.354 N 
ATOM     31  N   UNL A   1      41.887  31.372  29.732  1.00  0.00    -0.248 NA
ATOM     32  C   UNL A   1      40.487  32.860  30.869  1.00  0.00     0.031 C 
ATOM     33  C   UNL A   1      46.057  32.306  28.500  1.00  0.00     0.029 A 
ATOM     34  C   UNL A   1      44.760  32.037  28.904  1.00  0.00     0.049 A 
ATOM     35  H   UNL A   1      43.634  30.268  28.653  1.00  0.00     0.167 HD
ATOM     36  C   UNL A   1      42.565  32.568  29.937  1.00  0.00     0.074 A 
ATOM     37  C   UNL A   1      41.640  33.458  30.612  1.00  0.00     0.031 C 
ATOM     38  C   UNL A   1      43.836  32.904  29.598  1.00  0.00     0.034 A 
BRANCH  25  39
ATOM     39  C   UNL A   1      46.964  28.378  26.722  1.00  0.00     0.023 A 
ATOM     40  C   UNL A   1      47.172  28.293  25.334  1.00  0.00     0.031 A 
ATOM     41  C   UNL A   1      48.016  27.978  27.568  1.00  0.00     0.131 A 
ATOM     42  C   UNL A   1      48.368  27.755  24.836  1.00  0.00     0.055 A 
ATOM     43  C   UNL A   1      49.234  27.515  27.065  1.00  0.00     0.041 A 
ATOM     44  F   UNL A   1      47.872  28.019  28.902  1.00  0.00    -0.206 F 
ATOM     45  C   UNL A   1      49.410  27.387  25.690  1.00  0.00     0.022 A 
BRANCH  42  46
ATOM     46  S   UNL A   1      48.490  27.405  23.059  1.00  0.00     0.124 S 
ATOM     47  O   UNL A   1      49.873  27.783  22.777  1.00  0.00    -0.237 OA
ATOM     48  O   UNL A   1      48.192  25.979  22.998  1.00  0.00    -0.237 OA
ATOM     49  O   UNL A   1      47.480  28.280  22.467  1.00  0.00    -0.744 OA
ENDBRANCH  42  46
ENDBRANCH  25  39
BRANCH  26  50
ATOM     50  C   UNL A   1      38.252  30.968  30.950  1.00  0.00     0.023 A 
ATOM     51  C   UNL A   1      37.250  31.630  30.225  1.00  0.00     0.031 A 
ATOM     52  C   UNL A   1      38.012  30.688  32.307  1.00  0.00     0.131 A 
ATOM     53  C   UNL A   1      36.067  32.023  30.869  1.00  0.00     0.055 A 
ATOM     54  C   UNL A   1      36.813  31.035  32.931  1.00  0.00     0.041 A 
ATOM     55  F   UNL A   1      38.936  30.049  33.043  1.00  0.00    -0.206 F 
ATOM     56  C   UNL A   1      35.836  31.716  32.212  1.00  0.00     0.022 A 
BRANCH  53  57
ATOM     57  S   UNL A   1      34.855  32.999  29.938  1.00  0.00     0.124 S 
ATOM     58  O   UNL A   1      33.943  33.427  30.993  1.00  0.00    -0.237 OA
ATOM     59  O   UNL A   1      35.691  34.040  29.351  1.00  0.00    -0.237 OA
ATOM     60  O   UNL A   1      34.301  32.036  28.987  1.00  0.00    -0.744 OA
ENDBRANCH  53  57
ENDBRANCH  26  50
BRANCH  38  61
ATOM     61  C   UNL A   1      44.273  34.308  29.931  1.00  0.00     0.023 A 
ATOM     62  C   UNL A   1      44.024  35.383  29.062  1.00  0.00     0.031 A 
ATOM     63  C   UNL A   1      44.989  34.563  31.115  1.00  0.00     0.131 A 
ATOM     64  C   UNL A   1      44.544  36.654  29.354  1.00  0.00     0.055 A 
ATOM     65  C   UNL A   1      45.453  35.841  31.430  1.00  0.00     0.041 A 
ATOM     66  F   UNL A   1      45.257  33.572  31.980  1.00  0.00    -0.206 F 
ATOM     67  C   UNL A   1      45.245  36.892  30.540  1.00  0.00     0.022 A 
BRANCH  64  68
ATOM     68  S   UNL A   1      44.383  37.967  28.113  1.00  0.00     0.124 S 
ATOM     69  O   UNL A   1      45.680  38.633  28.205  1.00  0.00    -0.237 OA
ATOM     70  O   UNL A   1      44.140  37.212  26.889  1.00  0.00    -0.237 OA
ATOM     71  O   UNL A   1      43.248  38.754  28.591  1.00  0.00    -0.744 OA
ENDBRANCH  64  68
ENDBRANCH  38  61
ENDBRANCH  12  13
ENDBRANCH   5   7
ENDBRANCH   2   3
ENDBRANCH   1   2
BRANCH   1  72
ATOM     72  C   UNL A   1      35.325  22.844  26.479  1.00  0.00     0.023 C 
BRANCH  72  73
ATOM     73  C   UNL A   1      34.331  21.872  27.093  1.00  0.00     0.116 C 
BRANCH  73  74
ATOM     74  N   UNL A   1      33.141  22.494  27.661  1.00  0.00    -0.352 N 
ATOM     75  C   UNL A   1      32.008  22.895  26.981  1.00  0.00     0.255 C 
ATOM     76  H   UNL A   1      33.147  22.646  28.633  1.00  0.00     0.163 HD
ATOM     77  O   UNL A   1      31.049  23.397  27.555  1.00  0.00    -0.269 OA
BRANCH  75  78
ATOM     78  C   UNL A   1      32.028  22.816  25.508  1.00  0.00     0.082 A 
ATOM     79  C   UNL A   1      32.215  24.010  24.801  1.00  0.00     0.040 A 
ATOM     80  C   UNL A   1      32.047  21.585  24.846  1.00  0.00     0.128 A 
ATOM     81  C   UNL A   1      32.584  23.946  23.456  1.00  0.00     0.088 A 
ATOM     82  C   UNL A   1      32.508  21.522  23.541  1.00  0.00     0.048 A 
ATOM     83  C   UNL A   1      32.850  22.700  22.879  1.00  0.00     0.026 A 
BRANCH  80  84
ATOM     84  O   UNL A   1      31.709  20.437  25.500  1.00  0.00    -0.507 OA
ATOM     85  H   UNL A   1      31.490  19.667  25.013  1.00  0.00     0.293 HD
ENDBRANCH  80  84
BRANCH  81  86
ATOM     86  S   UNL A   1      32.591  25.476  22.538  1.00  0.00     0.261 S 
ATOM     87  O   UNL A   1      33.972  25.746  22.194  1.00  0.00    -0.201 OA
ATOM     88  O   UNL A   1      31.569  25.359  21.524  1.00  0.00    -0.201 OA
BRANCH  86  89
ATOM     89  N   UNL A   1      32.059  26.714  23.543  1.00  0.00    -0.280 N 
ATOM     90  H   UNL A   1      32.709  27.104  24.171  1.00  0.00     0.180 HD
BRANCH  89  91
ATOM     91  C   UNL A   1      30.738  27.239  23.551  1.00  0.00     0.050 A 
ATOM     92  C   UNL A   1      29.637  26.546  24.065  1.00  0.00     0.027 A 
ATOM     93  C   UNL A   1      30.541  28.447  22.875  1.00  0.00     0.047 A 
ATOM     94  C   UNL A   1      28.341  26.982  23.769  1.00  0.00     0.004 A 
ATOM     95  C   UNL A   1      29.247  28.882  22.596  1.00  0.00     0.043 A 
ATOM     96  C   UNL A   1      28.147  28.139  23.015  1.00  0.00     0.020 A 
ATOM     97  Cl  UNL A   1      29.012  30.307  21.661  1.00  0.00    -0.084 Cl
ENDBRANCH  89  91
ENDBRANCH  86  89
ENDBRANCH  81  86
ENDBRANCH  75  78
ENDBRANCH  73  74
ENDBRANCH  72  73
ENDBRANCH   1  72
TORSDOF 18
ENDMDL
MODEL 2
REMARK VINA RESULT:     -12.5      1.849      2.112
REMARK SMILES O=C(NCCCCNC(=O)c1cc(S(=O)(=O)Nc2cccc(Cl)c2)ccc1O)c1ccc(-c2c3nc(c(-c4cc(S(=O)(=O)[O-])ccc4F)c4ccc([nH]4)c(-c4cc(S(=O)(=O)[O-])ccc4F)c4nc(c(-c5cc(S(=O)(=O)[O-])ccc5F)c5ccc2[nH]5)C=C4)C=C3)cc1
REMARK SMILES IDX 5 1 4 2 3 3 1 4 2 5 29 7 30 8 91 9 31 10 90 11 32 12 33 13
REMARK SMILES IDX 34 14 84 15 35 16 89 17 83 18 85 19 36 20 88 21 82 22 81 23
REMARK SMILES IDX 37 25 69 26 49 27 68 28 50 29 53 30 67 31 86 32 51 33 52 34
REMARK SMILES IDX 66 36 87 37 54 38 38 39 39 40 47 41 40 42 46 43 48 44 45 45
REMARK SMILES IDX 41 46 42 47 43 48 44 49 70 50 71 51 79 52 72 53 78 54 80 55
REMARK SMILES IDX 77 56 73 57 74 58 75 59 76 60 55 61 56 62 64 63 57 64 63 65
REMARK SMILES IDX 65 66 62 67 58 68 59 69 60 70 61 71 6 72 7 73 8 74 9 75
REMARK SMILES IDX 10 77 11 78 12 79 27 80 13 81 26 82 25 83 28 84 14 86 15 87
REMARK SMILES IDX 16 88 17 89 18 91 19 92 24 93 20 94 22 95 21 96 23 97
REMARK H PARENT 3 6 85 24 53 35 8 76 28 85 17 90
REMARK Flexibility Score: inf
ROOT
ATOM      1  C   UNL A   1      35.799  22.014  24.893  1.00  0.00     0.023 C 
ENDROOT
BRANCH   1   2
ATOM      2  C   UNL A   1      37.294  22.109  24.621  1.00  0.00     0.116 C 
BRANCH   2   3
ATOM      3  N   UNL A   1      38.055  20.971  25.124  1.00  0.00    -0.352 N 
ATOM      4  O   UNL A   1      39.712  19.900  26.227  1.00  0.00    -0.269 OA
ATOM      5  C   UNL A   1      39.133  20.954  25.981  1.00  0.00     0.251 C 
ATOM      6  H   UNL A   1      37.754  20.088  24.806  1.00  0.00     0.163 HD
BRANCH   5   7
ATOM      7  C   UNL A   1      39.609  22.224  26.572  1.00  0.00     0.039 A 
ATOM      8  C   UNL A   1      39.044  23.437  26.178  1.00  0.00     0.014 A 
ATOM      9  C   UNL A   1      40.673  22.204  27.477  1.00  0.00     0.014 A 
ATOM     10  C   UNL A   1      39.672  24.627  26.523  1.00  0.00     0.010 A 
ATOM     11  C   UNL A   1      41.235  23.410  27.911  1.00  0.00     0.010 A 
ATOM     12  C   UNL A   1      40.775  24.630  27.393  1.00  0.00    -0.014 A 
BRANCH  12  13
ATOM     13  C   UNL A   1      41.413  25.930  27.741  1.00  0.00     0.031 A 
ATOM     14  C   UNL A   1      42.769  26.303  27.199  1.00  0.00     0.074 A 
ATOM     15  C   UNL A   1      40.726  26.802  28.503  1.00  0.00     0.049 A 
ATOM     16  N   UNL A   1      43.443  27.415  27.359  1.00  0.00    -0.248 NA
ATOM     17  C   UNL A   1      43.464  25.296  26.386  1.00  0.00     0.031 C 
ATOM     18  C   UNL A   1      39.406  26.548  29.088  1.00  0.00     0.029 A 
ATOM     19  N   UNL A   1      41.017  28.085  28.890  1.00  0.00    -0.354 N 
ATOM     20  C   UNL A   1      44.651  27.232  26.692  1.00  0.00     0.074 A 
ATOM     21  C   UNL A   1      44.626  25.890  26.151  1.00  0.00     0.031 C 
ATOM     22  C   UNL A   1      38.973  27.660  29.697  1.00  0.00     0.029 A 
ATOM     23  C   UNL A   1      40.009  28.682  29.611  1.00  0.00     0.049 A 
ATOM     24  H   UNL A   1      41.864  28.535  28.673  1.00  0.00     0.167 HD
ATOM     25  C   UNL A   1      45.680  28.106  26.542  1.00  0.00     0.034 A 
ATOM     26  C   UNL A   1      39.927  29.911  30.153  1.00  0.00     0.034 A 
ATOM     27  C   UNL A   1      45.677  29.451  27.070  1.00  0.00     0.049 A 
ATOM     28  C   UNL A   1      41.085  30.856  29.979  1.00  0.00     0.074 A 
ATOM     29  C   UNL A   1      46.645  30.433  26.936  1.00  0.00     0.029 A 
ATOM     30  N   UNL A   1      44.660  30.005  27.838  1.00  0.00    -0.354 N 
ATOM     31  N   UNL A   1      42.212  30.670  29.334  1.00  0.00    -0.248 NA
ATOM     32  C   UNL A   1      40.956  32.175  30.607  1.00  0.00     0.031 C 
ATOM     33  C   UNL A   1      46.242  31.553  27.674  1.00  0.00     0.029 A 
ATOM     34  C   UNL A   1      44.991  31.300  28.211  1.00  0.00     0.049 A 
ATOM     35  H   UNL A   1      43.824  29.544  28.081  1.00  0.00     0.167 HD
ATOM     36  C   UNL A   1      42.921  31.859  29.465  1.00  0.00     0.074 A 
ATOM     37  C   UNL A   1      42.082  32.759  30.231  1.00  0.00     0.031 C 
ATOM     38  C   UNL A   1      44.154  32.178  28.995  1.00  0.00     0.034 A 
BRANCH  25  39
ATOM     39  C   UNL A   1      46.913  27.614  25.819  1.00  0.00     0.023 A 
ATOM     40  C   UNL A   1      47.173  27.936  24.476  1.00  0.00     0.031 A 
ATOM     41  C   UNL A   1      47.835  26.783  26.484  1.00  0.00     0.131 A 
ATOM     42  C   UNL A   1      48.281  27.377  23.822  1.00  0.00     0.055 A 
ATOM     43  C   UNL A   1      48.978  26.291  25.849  1.00  0.00     0.041 A 
ATOM     44  F   UNL A   1      47.633  26.424  27.761  1.00  0.00    -0.206 F 
ATOM     45  C   UNL A   1      49.199  26.576  24.504  1.00  0.00     0.022 A 
BRANCH  42  46
ATOM     46  S   UNL A   1      48.431  27.592  22.026  1.00  0.00     0.124 S 
ATOM     47  O   UNL A   1      49.576  28.494  21.929  1.00  0.00    -0.237 OA
ATOM     48  O   UNL A   1      48.651  26.227  21.563  1.00  0.00    -0.237 OA
ATOM     49  O   UNL A   1      47.149  28.182  21.643  1.00  0.00    -0.744 OA
ENDBRANCH  42  46
ENDBRANCH  25  39
BRANCH  26  50
ATOM     50  C   UNL A   1      38.718  30.311  30.924  1.00  0.00     0.023 A 
ATOM     51  C   UNL A   1      37.683  31.041  30.321  1.00  0.00     0.031 A 
ATOM     52  C   UNL A   1      38.589  29.978  32.284  1.00  0.00     0.131 A 
ATOM     53  C   UNL A   1      36.578  31.445  31.085  1.00  0.00     0.055 A 
ATOM     54  C   UNL A   1      37.465  30.338  33.028  1.00  0.00     0.041 A 
ATOM     55  F   UNL A   1      39.549  29.274  32.906  1.00  0.00    -0.206 F 
ATOM     56  C   UNL A   1      36.456  31.086  32.430  1.00  0.00     0.022 A 
BRANCH  53  57
ATOM     57  S   UNL A   1      35.328  32.505  30.310  1.00  0.00     0.124 S 
ATOM     58  O   UNL A   1      36.101  33.705  30.007  1.00  0.00    -0.237 OA
ATOM     59  O   UNL A   1      34.916  31.700  29.166  1.00  0.00    -0.237 OA
ATOM     60  O   UNL A   1      34.318  32.661  31.357  1.00  0.00    -0.744 OA
ENDBRANCH  53  57
ENDBRANCH  26  50
BRANCH  38  61
ATOM     61  C   UNL A   1      44.641  33.577  29.279  1.00  0.00     0.023 A 
ATOM     62  C   UNL A   1      45.377  33.881  30.437  1.00  0.00     0.031 A 
ATOM     63  C   UNL A   1      44.323  34.628  28.400  1.00  0.00     0.131 A 
ATOM     64  C   UNL A   1      45.716  35.213  30.721  1.00  0.00     0.055 A 
ATOM     65  C   UNL A   1      44.713  35.943  28.658  1.00  0.00     0.041 A 
ATOM     66  F   UNL A   1      43.619  34.395  27.281  1.00  0.00    -0.206 F 
ATOM     67  C   UNL A   1      45.400  36.243  29.831  1.00  0.00     0.022 A 
BRANCH  64  68
ATOM     68  S   UNL A   1      46.481  35.594  32.320  1.00  0.00     0.124 S 
ATOM     69  O   UNL A   1      47.448  36.626  31.956  1.00  0.00    -0.237 OA
ATOM     70  O   UNL A   1      45.341  36.040  33.114  1.00  0.00    -0.237 OA
ATOM     71  O   UNL A   1      47.063  34.319  32.735  1.00  0.00    -0.744 OA
ENDBRANCH  64  68
ENDBRANCH  38  61
ENDBRANCH  12  13
ENDBRANCH   5   7
ENDBRANCH   2   3
ENDBRANCH   1   2
BRANCH   1  72
ATOM     72  C   UNL A   1      35.361  22.452  26.282  1.00  0.00     0.023 C 
BRANCH  72  73
ATOM     73  C   UNL A   1      34.388  21.517  26.981  1.00  0.00     0.116 C 
BRANCH  73  74
ATOM     74  N   UNL A   1      33.236  22.176  27.584  1.00  0.00    -0.352 N 
ATOM     75  C   UNL A   1      32.091  22.602  26.940  1.00  0.00     0.255 C 
ATOM     76  H   UNL A   1      33.280  22.335  28.554  1.00  0.00     0.163 HD
ATOM     77  O   UNL A   1      31.166  23.135  27.543  1.00  0.00    -0.269 OA
BRANCH  75  78
ATOM     78  C   UNL A   1      32.057  22.511  25.469  1.00  0.00     0.082 A 
ATOM     79  C   UNL A   1      32.229  23.696  24.744  1.00  0.00     0.040 A 
ATOM     80  C   UNL A   1      32.040  21.274  24.818  1.00  0.00     0.128 A 
ATOM     81  C   UNL A   1      32.548  23.618  23.388  1.00  0.00     0.088 A 
ATOM     82  C   UNL A   1      32.453  21.195  23.496  1.00  0.00     0.048 A 
ATOM     83  C   UNL A   1      32.782  22.365  22.813  1.00  0.00     0.026 A 
BRANCH  80  84
ATOM     84  O   UNL A   1      31.715  20.135  25.493  1.00  0.00    -0.507 OA
ATOM     85  H   UNL A   1      32.391  19.598  25.859  1.00  0.00     0.293 HD
ENDBRANCH  80  84
BRANCH  81  86
ATOM     86  S   UNL A   1      32.535  25.139  22.457  1.00  0.00     0.261 S 
ATOM     87  O   UNL A   1      33.397  24.931  21.310  1.00  0.00    -0.201 OA
ATOM     88  O   UNL A   1      31.151  25.522  22.301  1.00  0.00    -0.201 OA
BRANCH  86  89
ATOM     89  N   UNL A   1      33.214  26.357  23.397  1.00  0.00    -0.280 N 
ATOM     90  H   UNL A   1      34.193  26.363  23.499  1.00  0.00     0.180 HD
BRANCH  89  91
ATOM     91  C   UNL A   1      32.476  27.378  24.054  1.00  0.00     0.050 A 
ATOM     92  C   UNL A   1      32.095  28.573  23.436  1.00  0.00     0.027 A 
ATOM     93  C   UNL A   1      32.264  27.211  25.427  1.00  0.00     0.047 A 
ATOM     94  C   UNL A   1      31.646  29.646  24.212  1.00  0.00     0.004 A 
ATOM     95  C   UNL A   1      31.804  28.280  26.192  1.00  0.00     0.043 A 
ATOM     96  C   UNL A   1      31.522  29.507  25.594  1.00  0.00     0.020 A 
ATOM     97  Cl  UNL A   1      31.657  28.105  27.897  1.00  0.00    -0.084 Cl
ENDBRANCH  89  91
ENDBRANCH  86  89
ENDBRANCH  81  86
ENDBRANCH  75  78
ENDBRANCH  73  74
ENDBRANCH  72  73
ENDBRANCH   1  72
TORSDOF 18
ENDMDL
MODEL 3
REMARK VINA RESULT:     -12.4      5.150     10.153
REMARK SMILES O=C(NCCCCNC(=O)c1cc(S(=O)(=O)Nc2cccc(Cl)c2)ccc1O)c1ccc(-c2c3nc(c(-c4cc(S(=O)(=O)[O-])ccc4F)c4ccc([nH]4)c(-c4cc(S(=O)(=O)[O-])ccc4F)c4nc(c(-c5cc(S(=O)(=O)[O-])ccc5F)c5ccc2[nH]5)C=C4)C=C3)cc1
REMARK SMILES IDX 5 1 4 2 3 3 1 4 2 5 29 7 30 8 91 9 31 10 90 11 32 12 33 13
REMARK SMILES IDX 34 14 84 15 35 16 89 17 83 18 85 19 36 20 88 21 82 22 81 23
REMARK SMILES IDX 37 25 69 26 49 27 68 28 50 29 53 30 67 31 86 32 51 33 52 34
REMARK SMILES IDX 66 36 87 37 54 38 38 39 39 40 47 41 40 42 46 43 48 44 45 45
REMARK SMILES IDX 41 46 42 47 43 48 44 49 70 50 71 51 79 52 72 53 78 54 80 55
REMARK SMILES IDX 77 56 73 57 74 58 75 59 76 60 55 61 56 62 64 63 57 64 63 65
REMARK SMILES IDX 65 66 62 67 58 68 59 69 60 70 61 71 6 72 7 73 8 74 9 75
REMARK SMILES IDX 10 77 11 78 12 79 27 80 13 81 26 82 25 83 28 84 14 86 15 87
REMARK SMILES IDX 16 88 17 89 18 91 19 92 24 93 20 94 22 95 21 96 23 97
REMARK H PARENT 3 6 85 24 53 35 8 76 28 85 17 90
REMARK Flexibility Score: inf
ROOT
ATOM      1  C   UNL A   1      31.638  29.005  25.257  1.00  0.00     0.023 C 
ENDROOT
BRANCH   1   2
ATOM      2  C   UNL A   1      32.738  29.643  26.094  1.00  0.00     0.116 C 
BRANCH   2   3
ATOM      3  N   UNL A   1      32.453  31.018  26.489  1.00  0.00    -0.352 N 
ATOM      4  O   UNL A   1      32.760  32.977  27.573  1.00  0.00    -0.269 OA
ATOM      5  C   UNL A   1      33.202  31.874  27.265  1.00  0.00     0.251 C 
ATOM      6  H   UNL A   1      31.604  31.387  26.151  1.00  0.00     0.163 HD
BRANCH   5   7
ATOM      7  C   UNL A   1      34.528  31.437  27.753  1.00  0.00     0.039 A 
ATOM      8  C   UNL A   1      34.756  30.097  28.063  1.00  0.00     0.014 A 
ATOM      9  C   UNL A   1      35.530  32.389  27.966  1.00  0.00     0.014 A 
ATOM     10  C   UNL A   1      35.897  29.743  28.772  1.00  0.00     0.010 A 
ATOM     11  C   UNL A   1      36.726  32.008  28.583  1.00  0.00     0.010 A 
ATOM     12  C   UNL A   1      36.896  30.693  29.043  1.00  0.00    -0.014 A 
BRANCH  12  13
ATOM     13  C   UNL A   1      38.105  30.268  29.800  1.00  0.00     0.031 A 
ATOM     14  C   UNL A   1      38.319  30.692  31.230  1.00  0.00     0.074 A 
ATOM     15  C   UNL A   1      38.983  29.439  29.203  1.00  0.00     0.049 A 
ATOM     16  N   UNL A   1      39.288  30.369  32.051  1.00  0.00    -0.248 NA
ATOM     17  C   UNL A   1      37.327  31.608  31.810  1.00  0.00     0.031 C 
ATOM     18  C   UNL A   1      38.882  28.965  27.820  1.00  0.00     0.029 A 
ATOM     19  N   UNL A   1      40.108  28.819  29.683  1.00  0.00    -0.354 N 
ATOM     20  C   UNL A   1      39.039  31.062  33.233  1.00  0.00     0.074 A 
ATOM     21  C   UNL A   1      37.843  31.845  33.009  1.00  0.00     0.031 C 
ATOM     22  C   UNL A   1      39.858  28.078  27.586  1.00  0.00     0.029 A 
ATOM     23  C   UNL A   1      40.698  27.972  28.774  1.00  0.00     0.049 A 
ATOM     24  H   UNL A   1      40.459  28.966  30.591  1.00  0.00     0.167 HD
ATOM     25  C   UNL A   1      39.741  31.039  34.395  1.00  0.00     0.034 A 
ATOM     26  C   UNL A   1      41.797  27.203  28.877  1.00  0.00     0.034 A 
ATOM     27  C   UNL A   1      40.921  30.232  34.607  1.00  0.00     0.049 A 
ATOM     28  C   UNL A   1      42.561  27.203  30.172  1.00  0.00     0.074 A 
ATOM     29  C   UNL A   1      41.680  30.099  35.758  1.00  0.00     0.029 A 
ATOM     30  N   UNL A   1      41.519  29.425  33.647  1.00  0.00    -0.354 N 
ATOM     31  N   UNL A   1      42.303  27.854  31.283  1.00  0.00    -0.248 NA
ATOM     32  C   UNL A   1      43.764  26.365  30.226  1.00  0.00     0.031 C 
ATOM     33  C   UNL A   1      42.768  29.264  35.475  1.00  0.00     0.029 A 
ATOM     34  C   UNL A   1      42.652  28.817  34.169  1.00  0.00     0.049 A 
ATOM     35  H   UNL A   1      41.185  29.301  32.728  1.00  0.00     0.167 HD
ATOM     36  C   UNL A   1      43.305  27.489  32.174  1.00  0.00     0.074 A 
ATOM     37  C   UNL A   1      44.156  26.544  31.477  1.00  0.00     0.031 C 
ATOM     38  C   UNL A   1      43.505  27.896  33.454  1.00  0.00     0.034 A 
BRANCH  25  39
ATOM     39  C   UNL A   1      39.278  31.952  35.507  1.00  0.00     0.023 A 
ATOM     40  C   UNL A   1      39.735  33.276  35.628  1.00  0.00     0.031 A 
ATOM     41  C   UNL A   1      38.379  31.478  36.481  1.00  0.00     0.131 A 
ATOM     42  C   UNL A   1      39.349  34.053  36.731  1.00  0.00     0.055 A 
ATOM     43  C   UNL A   1      37.939  32.282  37.534  1.00  0.00     0.041 A 
ATOM     44  F   UNL A   1      37.921  30.217  36.431  1.00  0.00    -0.206 F 
ATOM     45  C   UNL A   1      38.437  33.574  37.673  1.00  0.00     0.022 A 
BRANCH  42  46
ATOM     46  S   UNL A   1      40.170  35.650  36.999  1.00  0.00     0.124 S 
ATOM     47  O   UNL A   1      41.581  35.276  36.913  1.00  0.00    -0.237 OA
ATOM     48  O   UNL A   1      39.655  36.456  35.899  1.00  0.00    -0.237 OA
ATOM     49  O   UNL A   1      39.720  36.049  38.330  1.00  0.00    -0.744 OA
ENDBRANCH  42  46
ENDBRANCH  25  39
BRANCH  26  50
ATOM     50  C   UNL A   1      42.250  26.386  27.718  1.00  0.00     0.023 A 
ATOM     51  C   UNL A   1      41.871  25.042  27.587  1.00  0.00     0.031 A 
ATOM     52  C   UNL A   1      43.084  26.938  26.729  1.00  0.00     0.131 A 
ATOM     53  C   UNL A   1      42.353  24.283  26.510  1.00  0.00     0.055 A 
ATOM     54  C   UNL A   1      43.519  26.194  25.632  1.00  0.00     0.041 A 
ATOM     55  F   UNL A   1      43.468  28.223  26.805  1.00  0.00    -0.206 F 
ATOM     56  C   UNL A   1      43.162  24.854  25.524  1.00  0.00     0.022 A 
BRANCH  53  57
ATOM     57  S   UNL A   1      41.957  22.514  26.448  1.00  0.00     0.124 S 
ATOM     58  O   UNL A   1      40.501  22.532  26.527  1.00  0.00    -0.237 OA
ATOM     59  O   UNL A   1      42.526  22.122  25.163  1.00  0.00    -0.237 OA
ATOM     60  O   UNL A   1      42.641  21.972  27.621  1.00  0.00    -0.744 OA
ENDBRANCH  53  57
ENDBRANCH  26  50
BRANCH  38  61
ATOM     61  C   UNL A   1      44.678  27.285  34.179  1.00  0.00     0.023 A 
ATOM     62  C   UNL A   1      44.563  26.068  34.872  1.00  0.00     0.031 A 
ATOM     63  C   UNL A   1      45.914  27.955  34.214  1.00  0.00     0.131 A 
ATOM     64  C   UNL A   1      45.645  25.589  35.627  1.00  0.00     0.055 A 
ATOM     65  C   UNL A   1      47.005  27.444  34.918  1.00  0.00     0.041 A 
ATOM     66  F   UNL A   1      46.078  29.123  33.573  1.00  0.00    -0.206 F 
ATOM     67  C   UNL A   1      46.869  26.262  35.642  1.00  0.00     0.022 A 
BRANCH  64  68
ATOM     68  S   UNL A   1      45.397  24.128  36.673  1.00  0.00     0.124 S 
ATOM     69  O   UNL A   1      44.536  23.297  35.836  1.00  0.00    -0.237 OA
ATOM     70  O   UNL A   1      46.761  23.644  36.863  1.00  0.00    -0.237 OA
ATOM     71  O   UNL A   1      44.760  24.668  37.872  1.00  0.00    -0.744 OA
ENDBRANCH  64  68
ENDBRANCH  38  61
ENDBRANCH  12  13
ENDBRANCH   5   7
ENDBRANCH   2   3
ENDBRANCH   1   2
BRANCH   1  72
ATOM     72  C   UNL A   1      31.987  28.764  23.797  1.00  0.00     0.023 C 
BRANCH  72  73
ATOM     73  C   UNL A   1      33.247  27.948  23.557  1.00  0.00     0.116 C 
BRANCH  73  74
ATOM     74  N   UNL A   1      33.335  27.336  22.237  1.00  0.00    -0.352 N 
ATOM     75  C   UNL A   1      33.096  26.015  21.916  1.00  0.00     0.255 C 
ATOM     76  H   UNL A   1      33.592  27.929  21.495  1.00  0.00     0.163 HD
ATOM     77  O   UNL A   1      33.181  25.600  20.766  1.00  0.00    -0.269 OA
BRANCH  75  78
ATOM     78  C   UNL A   1      32.853  25.073  23.024  1.00  0.00     0.082 A 
ATOM     79  C   UNL A   1      33.944  24.330  23.491  1.00  0.00     0.040 A 
ATOM     80  C   UNL A   1      31.633  25.052  23.706  1.00  0.00     0.128 A 
ATOM     81  C   UNL A   1      33.849  23.701  24.734  1.00  0.00     0.088 A 
ATOM     82  C   UNL A   1      31.575  24.511  24.981  1.00  0.00     0.048 A 
ATOM     83  C   UNL A   1      32.711  23.908  25.518  1.00  0.00     0.026 A 
BRANCH  80  84
ATOM     84  O   UNL A   1      30.526  25.644  23.172  1.00  0.00    -0.507 OA
ATOM     85  H   UNL A   1      30.063  26.298  23.658  1.00  0.00     0.293 HD
ENDBRANCH  80  84
BRANCH  81  86
ATOM     86  S   UNL A   1      35.166  22.586  25.186  1.00  0.00     0.261 S 
ATOM     87  O   UNL A   1      35.991  22.420  24.006  1.00  0.00    -0.201 OA
ATOM     88  O   UNL A   1      35.716  23.071  26.429  1.00  0.00    -0.201 OA
BRANCH  86  89
ATOM     89  N   UNL A   1      34.504  21.088  25.565  1.00  0.00    -0.280 N 
ATOM     90  H   UNL A   1      34.514  20.810  26.510  1.00  0.00     0.180 HD
BRANCH  89  91
ATOM     91  C   UNL A   1      33.931  20.193  24.621  1.00  0.00     0.050 A 
ATOM     92  C   UNL A   1      32.828  20.517  23.824  1.00  0.00     0.027 A 
ATOM     93  C   UNL A   1      34.427  18.886  24.617  1.00  0.00     0.047 A 
ATOM     94  C   UNL A   1      32.137  19.506  23.149  1.00  0.00     0.004 A 
ATOM     95  C   UNL A   1      33.741  17.886  23.931  1.00  0.00     0.043 A 
ATOM     96  C   UNL A   1      32.580  18.186  23.221  1.00  0.00     0.020 A 
ATOM     97  Cl  UNL A   1      34.289  16.259  24.027  1.00  0.00    -0.084 Cl
ENDBRANCH  89  91
ENDBRANCH  86  89
ENDBRANCH  81  86
ENDBRANCH  75  78
ENDBRANCH  73  74
ENDBRANCH  72  73
ENDBRANCH   1  72
TORSDOF 18
ENDMDL
