MODEL 1
REMARK VINA RESULT:     -12.8      0.000      0.000
REMARK SMILES O=C(NCCCCNC(=O)c1cccn1CC(=O)N1CCc2ccccc2C1)c1ccc(-c2c3nc(c(-c4cc(S(=O)(=O)[O-])ccc4F)c4ccc([nH]4)c(-c4cc(S(=O)(=O)[O-])ccc4F)c4nc(c(-c5cc(S(=O)(=O)[O-])ccc5F)c5ccc2[nH]5)C=C4)C=C3)cc1
REMARK SMILES IDX 5 1 4 2 3 3 1 4 2 5 29 7 30 8 91 9 31 10 90 11 32 12 33 13
REMARK SMILES IDX 34 14 84 15 35 16 89 17 83 18 85 19 36 20 88 21 82 22 81 23
REMARK SMILES IDX 37 25 69 26 49 27 68 28 50 29 53 30 67 31 86 32 51 33 52 34
REMARK SMILES IDX 66 36 87 37 54 38 38 39 39 40 47 41 40 42 46 43 48 44 45 45
REMARK SMILES IDX 41 46 42 47 43 48 44 49 70 50 71 51 79 52 72 53 78 54 80 55
REMARK SMILES IDX 77 56 73 57 74 58 75 59 76 60 55 61 56 62 64 63 57 64 63 65
REMARK SMILES IDX 65 66 62 67 58 68 59 69 60 70 61 71 6 72 7 73 8 74 9 75
REMARK SMILES IDX 10 77 11 78 12 79 15 80 13 81 14 82 16 83 17 84 18 85 19 86
REMARK SMILES IDX 20 87 28 88 21 89 27 90 22 91 26 92 23 93 25 94 24 95
REMARK H PARENT 3 6 85 24 53 35 8 76
REMARK Flexibility Score: inf
ROOT
ATOM      1  C   UNL A   1      33.304  28.301  27.363  1.00  0.00     0.023 C 
ENDROOT
BRANCH   1   2
ATOM      2  C   UNL A   1      34.472  28.993  26.669  1.00  0.00     0.116 C 
BRANCH   2   3
ATOM      3  N   UNL A   1      34.878  30.269  27.227  1.00  0.00    -0.352 N 
ATOM      4  O   UNL A   1      36.111  31.968  27.950  1.00  0.00    -0.269 OA
ATOM      5  C   UNL A   1      36.064  30.758  27.717  1.00  0.00     0.251 C 
ATOM      6  H   UNL A   1      34.145  30.925  27.262  1.00  0.00     0.163 HD
BRANCH   5   7
ATOM      7  C   UNL A   1      37.242  29.911  28.045  1.00  0.00     0.039 A 
ATOM      8  C   UNL A   1      38.422  29.891  27.302  1.00  0.00     0.014 A 
ATOM      9  C   UNL A   1      37.149  29.087  29.182  1.00  0.00     0.014 A 
ATOM     10  C   UNL A   1      39.437  28.992  27.603  1.00  0.00     0.010 A 
ATOM     11  C   UNL A   1      38.188  28.218  29.527  1.00  0.00     0.010 A 
ATOM     12  C   UNL A   1      39.333  28.166  28.725  1.00  0.00    -0.014 A 
BRANCH  12  13
ATOM     13  C   UNL A   1      40.581  27.498  29.166  1.00  0.00     0.031 A 
ATOM     14  C   UNL A   1      40.907  26.290  28.245  1.00  0.00     0.074 A 
ATOM     15  C   UNL A   1      41.180  27.959  30.309  1.00  0.00     0.049 A 
ATOM     16  N   UNL A   1      41.529  25.176  28.493  1.00  0.00    -0.248 NA
ATOM     17  C   UNL A   1      40.350  26.276  26.858  1.00  0.00     0.031 C 
ATOM     18  C   UNL A   1      40.731  29.133  31.098  1.00  0.00     0.029 A 
ATOM     19  N   UNL A   1      42.269  27.544  31.051  1.00  0.00    -0.354 N 
ATOM     20  C   UNL A   1      41.678  24.490  27.259  1.00  0.00     0.074 A 
ATOM     21  C   UNL A   1      40.784  25.126  26.344  1.00  0.00     0.031 C 
ATOM     22  C   UNL A   1      41.478  29.286  32.219  1.00  0.00     0.029 A 
ATOM     23  C   UNL A   1      42.505  28.261  32.264  1.00  0.00     0.049 A 
ATOM     24  H   UNL A   1      42.847  26.802  30.762  1.00  0.00     0.167 HD
ATOM     25  C   UNL A   1      42.656  23.563  27.019  1.00  0.00     0.034 A 
ATOM     26  C   UNL A   1      43.448  28.032  33.235  1.00  0.00     0.034 A 
ATOM     27  C   UNL A   1      43.409  23.351  28.208  1.00  0.00     0.049 A 
ATOM     28  C   UNL A   1      44.316  26.996  32.659  1.00  0.00     0.074 A 
ATOM     29  C   UNL A   1      43.129  22.748  29.403  1.00  0.00     0.029 A 
ATOM     30  N   UNL A   1      44.580  24.063  28.329  1.00  0.00    -0.354 N 
ATOM     31  N   UNL A   1      45.174  27.204  31.709  1.00  0.00    -0.248 NA
ATOM     32  C   UNL A   1      44.212  25.619  33.160  1.00  0.00     0.031 C 
ATOM     33  C   UNL A   1      43.866  23.514  30.329  1.00  0.00     0.029 A 
ATOM     34  C   UNL A   1      44.687  24.423  29.644  1.00  0.00     0.049 A 
ATOM     35  H   UNL A   1      45.216  24.274  27.608  1.00  0.00     0.167 HD
ATOM     36  C   UNL A   1      45.470  25.934  31.290  1.00  0.00     0.074 A 
ATOM     37  C   UNL A   1      45.137  25.051  32.388  1.00  0.00     0.031 C 
ATOM     38  C   UNL A   1      45.394  25.647  29.966  1.00  0.00     0.034 A 
BRANCH  25  39
ATOM     39  C   UNL A   1      43.237  22.971  25.750  1.00  0.00     0.023 A 
ATOM     40  C   UNL A   1      43.379  21.557  25.731  1.00  0.00     0.031 A 
ATOM     41  C   UNL A   1      43.927  23.666  24.749  1.00  0.00     0.131 A 
ATOM     42  C   UNL A   1      44.288  20.915  24.883  1.00  0.00     0.055 A 
ATOM     43  C   UNL A   1      44.777  23.011  23.842  1.00  0.00     0.041 A 
ATOM     44  F   UNL A   1      43.880  25.001  24.652  1.00  0.00    -0.206 F 
ATOM     45  C   UNL A   1      44.997  21.638  23.933  1.00  0.00     0.022 A 
BRANCH  42  46
ATOM     46  S   UNL A   1      44.671  19.166  25.200  1.00  0.00     0.124 S 
ATOM     47  O   UNL A   1      46.051  19.232  25.667  1.00  0.00    -0.237 OA
ATOM     48  O   UNL A   1      43.672  18.816  26.206  1.00  0.00    -0.237 OA
ATOM     49  O   UNL A   1      44.485  18.537  23.894  1.00  0.00    -0.744 OA
ENDBRANCH  42  46
ENDBRANCH  25  39
BRANCH  26  50
ATOM     50  C   UNL A   1      43.851  28.474  34.641  1.00  0.00     0.023 A 
ATOM     51  C   UNL A   1      44.079  27.651  35.759  1.00  0.00     0.031 A 
ATOM     52  C   UNL A   1      44.125  29.867  34.874  1.00  0.00     0.131 A 
ATOM     53  C   UNL A   1      44.613  28.208  36.961  1.00  0.00     0.055 A 
ATOM     54  C   UNL A   1      44.736  30.384  36.014  1.00  0.00     0.041 A 
ATOM     55  F   UNL A   1      43.814  30.818  33.983  1.00  0.00    -0.206 F 
ATOM     56  C   UNL A   1      44.998  29.548  37.067  1.00  0.00     0.022 A 
BRANCH  53  57
ATOM     57  S   UNL A   1      44.846  27.207  38.464  1.00  0.00     0.124 S 
ATOM     58  O   UNL A   1      46.016  26.408  38.114  1.00  0.00    -0.237 OA
ATOM     59  O   UNL A   1      45.045  28.209  39.505  1.00  0.00    -0.237 OA
ATOM     60  O   UNL A   1      43.592  26.461  38.562  1.00  0.00    -0.744 OA
ENDBRANCH  53  57
ENDBRANCH  26  50
BRANCH  38  61
ATOM     61  C   UNL A   1      45.623  26.846  29.042  1.00  0.00     0.023 A 
ATOM     62  C   UNL A   1      44.532  27.601  28.564  1.00  0.00     0.031 A 
ATOM     63  C   UNL A   1      46.879  27.200  28.517  1.00  0.00     0.131 A 
ATOM     64  C   UNL A   1      44.714  28.615  27.598  1.00  0.00     0.055 A 
ATOM     65  C   UNL A   1      47.067  28.208  27.563  1.00  0.00     0.041 A 
ATOM     66  F   UNL A   1      47.984  26.572  28.908  1.00  0.00    -0.206 F 
ATOM     67  C   UNL A   1      45.977  28.920  27.092  1.00  0.00     0.022 A 
BRANCH  64  68
ATOM     68  S   UNL A   1      43.280  29.564  27.016  1.00  0.00     0.124 S 
ATOM     69  O   UNL A   1      42.653  29.994  28.261  1.00  0.00    -0.237 OA
ATOM     70  O   UNL A   1      43.901  30.614  26.215  1.00  0.00    -0.237 OA
ATOM     71  O   UNL A   1      42.512  28.585  26.246  1.00  0.00    -0.744 OA
ENDBRANCH  64  68
ENDBRANCH  38  61
ENDBRANCH  12  13
ENDBRANCH   5   7
ENDBRANCH   2   3
ENDBRANCH   1   2
BRANCH   1  72
ATOM     72  C   UNL A   1      32.084  28.045  26.488  1.00  0.00     0.023 C 
BRANCH  72  73
ATOM     73  C   UNL A   1      31.662  26.590  26.324  1.00  0.00     0.116 C 
BRANCH  73  74
ATOM     74  N   UNL A   1      30.386  26.470  25.639  1.00  0.00    -0.351 N 
ATOM     75  C   UNL A   1      30.113  26.337  24.297  1.00  0.00     0.267 C 
ATOM     76  H   UNL A   1      29.596  26.489  26.225  1.00  0.00     0.163 HD
ATOM     77  O   UNL A   1      28.946  26.423  23.938  1.00  0.00    -0.268 OA
BRANCH  75  78
ATOM     78  C   UNL A   1      31.211  26.130  23.372  1.00  0.00     0.107 A 
ATOM     79  C   UNL A   1      32.005  27.081  22.748  1.00  0.00     0.033 A 
ATOM     80  N   UNL A   1      31.701  24.890  22.984  1.00  0.00    -0.334 N 
ATOM     81  C   UNL A   1      32.970  26.412  21.965  1.00  0.00     0.020 A 
ATOM     82  C   UNL A   1      32.773  25.061  22.142  1.00  0.00     0.087 A 
BRANCH  80  83
ATOM     83  C   UNL A   1      31.203  23.597  23.444  1.00  0.00     0.222 C 
BRANCH  83  84
ATOM     84  C   UNL A   1      31.604  23.114  24.833  1.00  0.00     0.242 C 
ATOM     85  O   UNL A   1      30.746  23.143  25.724  1.00  0.00    -0.273 OA
BRANCH  84  86
ATOM     86  N   UNL A   1      32.832  22.490  25.039  1.00  0.00    -0.336 N 
ATOM     87  C   UNL A   1      33.188  21.198  24.462  1.00  0.00     0.124 C 
ATOM     88  C   UNL A   1      33.864  23.233  25.783  1.00  0.00     0.155 C 
ATOM     89  C   UNL A   1      34.424  20.522  25.039  1.00  0.00     0.057 C 
ATOM     90  C   UNL A   1      35.287  22.787  25.555  1.00  0.00    -0.025 A 
ATOM     91  C   UNL A   1      35.567  21.471  25.164  1.00  0.00    -0.041 A 
ATOM     92  C   UNL A   1      36.356  23.640  25.856  1.00  0.00     0.006 A 
ATOM     93  C   UNL A   1      36.888  21.029  25.028  1.00  0.00     0.004 A 
ATOM     94  C   UNL A   1      37.674  23.194  25.732  1.00  0.00     0.000 A 
ATOM     95  C   UNL A   1      37.940  21.896  25.304  1.00  0.00     0.000 A 
ENDBRANCH  84  86
ENDBRANCH  83  84
ENDBRANCH  80  83
ENDBRANCH  75  78
ENDBRANCH  73  74
ENDBRANCH  72  73
ENDBRANCH   1  72
TORSDOF 17
ENDMDL
MODEL 2
REMARK VINA RESULT:     -12.8      4.299      9.881
REMARK SMILES O=C(NCCCCNC(=O)c1cccn1CC(=O)N1CCc2ccccc2C1)c1ccc(-c2c3nc(c(-c4cc(S(=O)(=O)[O-])ccc4F)c4ccc([nH]4)c(-c4cc(S(=O)(=O)[O-])ccc4F)c4nc(c(-c5cc(S(=O)(=O)[O-])ccc5F)c5ccc2[nH]5)C=C4)C=C3)cc1
REMARK SMILES IDX 5 1 4 2 3 3 1 4 2 5 29 7 30 8 91 9 31 10 90 11 32 12 33 13
REMARK SMILES IDX 34 14 84 15 35 16 89 17 83 18 85 19 36 20 88 21 82 22 81 23
REMARK SMILES IDX 37 25 69 26 49 27 68 28 50 29 53 30 67 31 86 32 51 33 52 34
REMARK SMILES IDX 66 36 87 37 54 38 38 39 39 40 47 41 40 42 46 43 48 44 45 45
REMARK SMILES IDX 41 46 42 47 43 48 44 49 70 50 71 51 79 52 72 53 78 54 80 55
REMARK SMILES IDX 77 56 73 57 74 58 75 59 76 60 55 61 56 62 64 63 57 64 63 65
REMARK SMILES IDX 65 66 62 67 58 68 59 69 60 70 61 71 6 72 7 73 8 74 9 75
REMARK SMILES IDX 10 77 11 78 12 79 15 80 13 81 14 82 16 83 17 84 18 85 19 86
REMARK SMILES IDX 20 87 28 88 21 89 27 90 22 91 26 92 23 93 25 94 24 95
REMARK H PARENT 3 6 85 24 53 35 8 76
REMARK Flexibility Score: inf
ROOT
ATOM      1  C   UNL A   1      36.723  23.521  24.785  1.00  0.00     0.023 C 
ENDROOT
BRANCH   1   2
ATOM      2  C   UNL A   1      37.206  23.837  26.196  1.00  0.00     0.116 C 
BRANCH   2   3
ATOM      3  N   UNL A   1      38.529  23.350  26.539  1.00  0.00    -0.352 N 
ATOM      4  O   UNL A   1      40.496  23.087  27.536  1.00  0.00    -0.269 OA
ATOM      5  C   UNL A   1      39.561  23.853  27.294  1.00  0.00     0.251 C 
ATOM      6  H   UNL A   1      38.731  22.471  26.146  1.00  0.00     0.163 HD
BRANCH   5   7
ATOM      7  C   UNL A   1      39.640  25.264  27.761  1.00  0.00     0.039 A 
ATOM      8  C   UNL A   1      39.354  25.674  29.062  1.00  0.00     0.014 A 
ATOM      9  C   UNL A   1      40.037  26.233  26.821  1.00  0.00     0.014 A 
ATOM     10  C   UNL A   1      39.340  27.022  29.397  1.00  0.00     0.010 A 
ATOM     11  C   UNL A   1      40.083  27.589  27.163  1.00  0.00     0.010 A 
ATOM     12  C   UNL A   1      39.722  27.982  28.456  1.00  0.00    -0.014 A 
BRANCH  12  13
ATOM     13  C   UNL A   1      40.010  29.339  28.981  1.00  0.00     0.031 A 
ATOM     14  C   UNL A   1      38.688  30.104  29.265  1.00  0.00     0.074 A 
ATOM     15  C   UNL A   1      41.322  29.729  29.049  1.00  0.00     0.049 A 
ATOM     16  N   UNL A   1      38.421  31.376  29.233  1.00  0.00    -0.248 NA
ATOM     17  C   UNL A   1      37.442  29.316  29.511  1.00  0.00     0.031 C 
ATOM     18  C   UNL A   1      42.489  28.873  28.722  1.00  0.00     0.029 A 
ATOM     19  N   UNL A   1      41.950  30.912  29.391  1.00  0.00    -0.354 N 
ATOM     20  C   UNL A   1      37.097  31.541  29.720  1.00  0.00     0.074 A 
ATOM     21  C   UNL A   1      36.503  30.243  29.699  1.00  0.00     0.031 C 
ATOM     22  C   UNL A   1      43.649  29.570  28.809  1.00  0.00     0.029 A 
ATOM     23  C   UNL A   1      43.369  30.931  29.229  1.00  0.00     0.049 A 
ATOM     24  H   UNL A   1      41.451  31.691  29.725  1.00  0.00     0.167 HD
ATOM     25  C   UNL A   1      36.634  32.702  30.279  1.00  0.00     0.034 A 
ATOM     26  C   UNL A   1      44.246  31.972  29.408  1.00  0.00     0.034 A 
ATOM     27  C   UNL A   1      37.645  33.700  30.205  1.00  0.00     0.049 A 
ATOM     28  C   UNL A   1      43.428  33.034  30.008  1.00  0.00     0.074 A 
ATOM     29  C   UNL A   1      38.189  34.413  29.172  1.00  0.00     0.029 A 
ATOM     30  N   UNL A   1      38.428  33.866  31.324  1.00  0.00    -0.354 N 
ATOM     31  N   UNL A   1      43.003  33.028  31.233  1.00  0.00    -0.248 NA
ATOM     32  C   UNL A   1      43.034  34.184  29.184  1.00  0.00     0.031 C 
ATOM     33  C   UNL A   1      39.532  34.577  29.567  1.00  0.00     0.029 A 
ATOM     34  C   UNL A   1      39.698  34.117  30.882  1.00  0.00     0.049 A 
ATOM     35  H   UNL A   1      38.132  33.813  32.261  1.00  0.00     0.167 HD
ATOM     36  C   UNL A   1      42.039  33.999  31.221  1.00  0.00     0.074 A 
ATOM     37  C   UNL A   1      42.336  34.859  30.095  1.00  0.00     0.031 C 
ATOM     38  C   UNL A   1      40.810  33.709  31.718  1.00  0.00     0.034 A 
BRANCH  25  39
ATOM     39  C   UNL A   1      35.443  33.028  31.159  1.00  0.00     0.023 A 
ATOM     40  C   UNL A   1      34.664  34.149  30.761  1.00  0.00     0.031 A 
ATOM     41  C   UNL A   1      35.215  32.558  32.459  1.00  0.00     0.131 A 
ATOM     42  C   UNL A   1      33.856  34.847  31.666  1.00  0.00     0.055 A 
ATOM     43  C   UNL A   1      34.340  33.212  33.342  1.00  0.00     0.041 A 
ATOM     44  F   UNL A   1      35.881  31.509  32.959  1.00  0.00    -0.206 F 
ATOM     45  C   UNL A   1      33.690  34.386  32.965  1.00  0.00     0.022 A 
BRANCH  42  46
ATOM     46  S   UNL A   1      33.212  36.472  31.165  1.00  0.00     0.124 S 
ATOM     47  O   UNL A   1      33.982  37.382  32.005  1.00  0.00    -0.237 OA
ATOM     48  O   UNL A   1      33.531  36.496  29.739  1.00  0.00    -0.237 OA
ATOM     49  O   UNL A   1      31.789  36.385  31.482  1.00  0.00    -0.744 OA
ENDBRANCH  42  46
ENDBRANCH  25  39
BRANCH  26  50
ATOM     50  C   UNL A   1      45.707  32.360  29.183  1.00  0.00     0.023 A 
ATOM     51  C   UNL A   1      46.281  32.867  28.004  1.00  0.00     0.031 A 
ATOM     52  C   UNL A   1      46.615  32.299  30.297  1.00  0.00     0.131 A 
ATOM     53  C   UNL A   1      47.630  33.338  28.008  1.00  0.00     0.055 A 
ATOM     54  C   UNL A   1      47.895  32.848  30.319  1.00  0.00     0.041 A 
ATOM     55  F   UNL A   1      46.296  31.696  31.450  1.00  0.00    -0.206 F 
ATOM     56  C   UNL A   1      48.408  33.387  29.169  1.00  0.00     0.022 A 
BRANCH  53  57
ATOM     57  S   UNL A   1      48.449  33.924  26.492  1.00  0.00     0.124 S 
ATOM     58  O   UNL A   1      47.320  34.081  25.582  1.00  0.00    -0.237 OA
ATOM     59  O   UNL A   1      49.102  35.155  26.920  1.00  0.00    -0.237 OA
ATOM     60  O   UNL A   1      49.362  32.828  26.165  1.00  0.00    -0.744 OA
ENDBRANCH  53  57
ENDBRANCH  26  50
BRANCH  38  61
ATOM     61  C   UNL A   1      40.801  32.615  32.790  1.00  0.00     0.023 A 
ATOM     62  C   UNL A   1      40.651  31.259  32.429  1.00  0.00     0.031 A 
ATOM     63  C   UNL A   1      40.816  32.874  34.172  1.00  0.00     0.131 A 
ATOM     64  C   UNL A   1      40.494  30.257  33.410  1.00  0.00     0.055 A 
ATOM     65  C   UNL A   1      40.665  31.883  35.150  1.00  0.00     0.041 A 
ATOM     66  F   UNL A   1      40.972  34.112  34.633  1.00  0.00    -0.206 F 
ATOM     67  C   UNL A   1      40.497  30.563  34.770  1.00  0.00     0.022 A 
BRANCH  64  68
ATOM     68  S   UNL A   1      40.309  28.525  32.898  1.00  0.00     0.124 S 
ATOM     69  O   UNL A   1      38.950  28.490  32.370  1.00  0.00    -0.237 OA
ATOM     70  O   UNL A   1      41.381  28.368  31.920  1.00  0.00    -0.237 OA
ATOM     71  O   UNL A   1      40.506  27.778  34.141  1.00  0.00    -0.744 OA
ENDBRANCH  64  68
ENDBRANCH  38  61
ENDBRANCH  12  13
ENDBRANCH   5   7
ENDBRANCH   2   3
ENDBRANCH   1   2
BRANCH   1  72
ATOM     72  C   UNL A   1      36.927  22.081  24.333  1.00  0.00     0.023 C 
BRANCH  72  73
ATOM     73  C   UNL A   1      36.614  20.999  25.360  1.00  0.00     0.116 C 
BRANCH  73  74
ATOM     74  N   UNL A   1      35.565  20.104  24.900  1.00  0.00    -0.351 N 
ATOM     75  C   UNL A   1      34.212  20.131  25.145  1.00  0.00     0.267 C 
ATOM     76  H   UNL A   1      35.870  19.366  24.326  1.00  0.00     0.163 HD
ATOM     77  O   UNL A   1      33.545  19.170  24.786  1.00  0.00    -0.268 OA
BRANCH  75  78
ATOM     78  C   UNL A   1      33.643  21.272  25.837  1.00  0.00     0.107 A 
ATOM     79  C   UNL A   1      33.701  21.579  27.189  1.00  0.00     0.033 A 
ATOM     80  N   UNL A   1      32.964  22.316  25.224  1.00  0.00    -0.334 N 
ATOM     81  C   UNL A   1      33.038  22.807  27.397  1.00  0.00     0.020 A 
ATOM     82  C   UNL A   1      32.608  23.251  26.167  1.00  0.00     0.087 A 
BRANCH  80  83
ATOM     83  C   UNL A   1      32.715  22.445  23.791  1.00  0.00     0.222 C 
BRANCH  83  84
ATOM     84  C   UNL A   1      33.374  23.595  23.038  1.00  0.00     0.242 C 
ATOM     85  O   UNL A   1      34.270  23.318  22.230  1.00  0.00    -0.273 OA
BRANCH  84  86
ATOM     86  N   UNL A   1      32.855  24.885  23.120  1.00  0.00    -0.336 N 
ATOM     87  C   UNL A   1      31.485  25.229  22.755  1.00  0.00     0.124 C 
ATOM     88  C   UNL A   1      33.705  25.930  23.718  1.00  0.00     0.155 C 
ATOM     89  C   UNL A   1      31.183  26.713  22.601  1.00  0.00     0.057 C 
ATOM     90  C   UNL A   1      32.978  27.138  24.257  1.00  0.00    -0.025 A 
ATOM     91  C   UNL A   1      31.733  27.511  23.736  1.00  0.00    -0.041 A 
ATOM     92  C   UNL A   1      33.594  27.979  25.191  1.00  0.00     0.006 A 
ATOM     93  C   UNL A   1      31.090  28.674  24.174  1.00  0.00     0.004 A 
ATOM     94  C   UNL A   1      32.958  29.146  25.620  1.00  0.00     0.000 A 
ATOM     95  C   UNL A   1      31.702  29.486  25.124  1.00  0.00     0.000 A 
ENDBRANCH  84  86
ENDBRANCH  83  84
ENDBRANCH  80  83
ENDBRANCH  75  78
ENDBRANCH  73  74
ENDBRANCH  72  73
ENDBRANCH   1  72
TORSDOF 17
ENDMDL
MODEL 3
REMARK VINA RESULT:     -12.8      4.336     10.086
REMARK SMILES O=C(NCCCCNC(=O)c1cccn1CC(=O)N1CCc2ccccc2C1)c1ccc(-c2c3nc(c(-c4cc(S(=O)(=O)[O-])ccc4F)c4ccc([nH]4)c(-c4cc(S(=O)(=O)[O-])ccc4F)c4nc(c(-c5cc(S(=O)(=O)[O-])ccc5F)c5ccc2[nH]5)C=C4)C=C3)cc1
REMARK SMILES IDX 5 1 4 2 3 3 1 4 2 5 29 7 30 8 91 9 31 10 90 11 32 12 33 13
REMARK SMILES IDX 34 14 84 15 35 16 89 17 83 18 85 19 36 20 88 21 82 22 81 23
REMARK SMILES IDX 37 25 69 26 49 27 68 28 50 29 53 30 67 31 86 32 51 33 52 34
REMARK SMILES IDX 66 36 87 37 54 38 38 39 39 40 47 41 40 42 46 43 48 44 45 45
REMARK SMILES IDX 41 46 42 47 43 48 44 49 70 50 71 51 79 52 72 53 78 54 80 55
REMARK SMILES IDX 77 56 73 57 74 58 75 59 76 60 55 61 56 62 64 63 57 64 63 65
REMARK SMILES IDX 65 66 62 67 58 68 59 69 60 70 61 71 6 72 7 73 8 74 9 75
REMARK SMILES IDX 10 77 11 78 12 79 15 80 13 81 14 82 16 83 17 84 18 85 19 86
REMARK SMILES IDX 20 87 28 88 21 89 27 90 22 91 26 92 23 93 25 94 24 95
REMARK H PARENT 3 6 85 24 53 35 8 76
REMARK Flexibility Score: inf
ROOT
ATOM      1  C   UNL A   1      36.813  23.119  25.014  1.00  0.00     0.023 C 
ENDROOT
BRANCH   1   2
ATOM      2  C   UNL A   1      37.477  23.956  26.102  1.00  0.00     0.116 C 
BRANCH   2   3
ATOM      3  N   UNL A   1      38.743  23.456  26.605  1.00  0.00    -0.352 N 
ATOM      4  O   UNL A   1      40.578  23.184  27.825  1.00  0.00    -0.269 OA
ATOM      5  C   UNL A   1      39.690  23.959  27.462  1.00  0.00     0.251 C 
ATOM      6  H   UNL A   1      38.972  22.565  26.255  1.00  0.00     0.163 HD
BRANCH   5   7
ATOM      7  C   UNL A   1      39.742  25.378  27.906  1.00  0.00     0.039 A 
ATOM      8  C   UNL A   1      39.522  25.796  29.218  1.00  0.00     0.014 A 
ATOM      9  C   UNL A   1      40.039  26.349  26.931  1.00  0.00     0.014 A 
ATOM     10  C   UNL A   1      39.475  27.147  29.536  1.00  0.00     0.010 A 
ATOM     11  C   UNL A   1      40.051  27.710  27.253  1.00  0.00     0.010 A 
ATOM     12  C   UNL A   1      39.757  28.107  28.561  1.00  0.00    -0.014 A 
BRANCH  12  13
ATOM     13  C   UNL A   1      40.022  29.482  29.051  1.00  0.00     0.031 A 
ATOM     14  C   UNL A   1      38.690  30.207  29.387  1.00  0.00     0.074 A 
ATOM     15  C   UNL A   1      41.321  29.918  29.048  1.00  0.00     0.049 A 
ATOM     16  N   UNL A   1      38.376  31.468  29.348  1.00  0.00    -0.248 NA
ATOM     17  C   UNL A   1      37.485  29.381  29.706  1.00  0.00     0.031 C 
ATOM     18  C   UNL A   1      42.500  29.098  28.678  1.00  0.00     0.029 A 
ATOM     19  N   UNL A   1      41.923  31.128  29.340  1.00  0.00    -0.354 N 
ATOM     20  C   UNL A   1      37.072  31.596  29.897  1.00  0.00     0.074 A 
ATOM     21  C   UNL A   1      36.524  30.277  29.925  1.00  0.00     0.031 C 
ATOM     22  C   UNL A   1      43.637  29.835  28.696  1.00  0.00     0.029 A 
ATOM     23  C   UNL A   1      43.331  31.193  29.109  1.00  0.00     0.049 A 
ATOM     24  H   UNL A   1      41.414  31.895  29.686  1.00  0.00     0.167 HD
ATOM     25  C   UNL A   1      36.596  32.749  30.460  1.00  0.00     0.034 A 
ATOM     26  C   UNL A   1      44.178  32.267  29.228  1.00  0.00     0.034 A 
ATOM     27  C   UNL A   1      37.567  33.780  30.321  1.00  0.00     0.049 A 
ATOM     28  C   UNL A   1      43.354  33.310  29.851  1.00  0.00     0.074 A 
ATOM     29  C   UNL A   1      38.035  34.493  29.252  1.00  0.00     0.029 A 
ATOM     30  N   UNL A   1      38.397  33.992  31.398  1.00  0.00    -0.354 N 
ATOM     31  N   UNL A   1      42.989  33.311  31.096  1.00  0.00    -0.248 NA
ATOM     32  C   UNL A   1      42.879  34.432  29.029  1.00  0.00     0.031 C 
ATOM     33  C   UNL A   1      39.389  34.711  29.577  1.00  0.00     0.029 A 
ATOM     34  C   UNL A   1      39.634  34.279  30.890  1.00  0.00     0.049 A 
ATOM     35  H   UNL A   1      38.149  33.945  32.349  1.00  0.00     0.167 HD
ATOM     36  C   UNL A   1      41.991  34.248  31.115  1.00  0.00     0.074 A 
ATOM     37  C   UNL A   1      42.204  35.098  29.962  1.00  0.00     0.031 C 
ATOM     38  C   UNL A   1      40.799  33.924  31.676  1.00  0.00     0.034 A 
BRANCH  25  39
ATOM     39  C   UNL A   1      35.439  33.049  31.392  1.00  0.00     0.023 A 
ATOM     40  C   UNL A   1      34.551  34.077  30.970  1.00  0.00     0.031 A 
ATOM     41  C   UNL A   1      35.328  32.661  32.733  1.00  0.00     0.131 A 
ATOM     42  C   UNL A   1      33.746  34.778  31.876  1.00  0.00     0.055 A 
ATOM     43  C   UNL A   1      34.459  33.311  33.625  1.00  0.00     0.041 A 
ATOM     44  F   UNL A   1      36.104  31.705  33.259  1.00  0.00    -0.206 F 
ATOM     45  C   UNL A   1      33.696  34.402  33.211  1.00  0.00     0.022 A 
BRANCH  42  46
ATOM     46  S   UNL A   1      32.946  36.308  31.307  1.00  0.00     0.124 S 
ATOM     47  O   UNL A   1      31.752  36.360  32.141  1.00  0.00    -0.237 OA
ATOM     48  O   UNL A   1      33.971  37.309  31.595  1.00  0.00    -0.237 OA
ATOM     49  O   UNL A   1      32.705  36.057  29.888  1.00  0.00    -0.744 OA
ENDBRANCH  42  46
ENDBRANCH  25  39
BRANCH  26  50
ATOM     50  C   UNL A   1      45.612  32.700  28.926  1.00  0.00     0.023 A 
ATOM     51  C   UNL A   1      46.111  33.203  27.711  1.00  0.00     0.031 A 
ATOM     52  C   UNL A   1      46.573  32.694  29.996  1.00  0.00     0.131 A 
ATOM     53  C   UNL A   1      47.441  33.720  27.641  1.00  0.00     0.055 A 
ATOM     54  C   UNL A   1      47.833  33.288  29.946  1.00  0.00     0.041 A 
ATOM     55  F   UNL A   1      46.332  32.105  31.175  1.00  0.00    -0.206 F 
ATOM     56  C   UNL A   1      48.271  33.821  28.762  1.00  0.00     0.022 A 
BRANCH  53  57
ATOM     57  S   UNL A   1      48.166  34.303  26.077  1.00  0.00     0.124 S 
ATOM     58  O   UNL A   1      49.114  33.236  25.769  1.00  0.00    -0.237 OA
ATOM     59  O   UNL A   1      47.012  34.407  25.192  1.00  0.00    -0.237 OA
ATOM     60  O   UNL A   1      48.771  35.582  26.449  1.00  0.00    -0.744 OA
ENDBRANCH  53  57
ENDBRANCH  26  50
BRANCH  38  61
ATOM     61  C   UNL A   1      40.881  32.849  32.764  1.00  0.00     0.023 A 
ATOM     62  C   UNL A   1      40.689  31.489  32.443  1.00  0.00     0.031 A 
ATOM     63  C   UNL A   1      41.024  33.132  34.134  1.00  0.00     0.131 A 
ATOM     64  C   UNL A   1      40.616  30.505  33.453  1.00  0.00     0.055 A 
ATOM     65  C   UNL A   1      40.957  32.160  35.140  1.00  0.00     0.041 A 
ATOM     66  F   UNL A   1      41.230  34.376  34.557  1.00  0.00    -0.206 F 
ATOM     67  C   UNL A   1      40.745  30.835  34.801  1.00  0.00     0.022 A 
BRANCH  64  68
ATOM     68  S   UNL A   1      40.373  28.766  32.991  1.00  0.00     0.124 S 
ATOM     69  O   UNL A   1      38.994  28.750  32.516  1.00  0.00    -0.237 OA
ATOM     70  O   UNL A   1      41.403  28.561  31.978  1.00  0.00    -0.237 OA
ATOM     71  O   UNL A   1      40.600  28.045  34.245  1.00  0.00    -0.744 OA
ENDBRANCH  64  68
ENDBRANCH  38  61
ENDBRANCH  12  13
ENDBRANCH   5   7
ENDBRANCH   2   3
ENDBRANCH   1   2
BRANCH   1  72
ATOM     72  C   UNL A   1      35.302  22.970  25.135  1.00  0.00     0.023 C 
BRANCH  72  73
ATOM     73  C   UNL A   1      34.542  24.186  25.649  1.00  0.00     0.116 C 
BRANCH  73  74
ATOM     74  N   UNL A   1      33.536  23.820  26.632  1.00  0.00    -0.351 N 
ATOM     75  C   UNL A   1      32.166  23.771  26.519  1.00  0.00     0.267 C 
ATOM     76  H   UNL A   1      33.890  23.569  27.515  1.00  0.00     0.163 HD
ATOM     77  O   UNL A   1      31.512  23.594  27.537  1.00  0.00    -0.268 OA
BRANCH  75  78
ATOM     78  C   UNL A   1      31.561  23.957  25.213  1.00  0.00     0.107 A 
ATOM     79  C   UNL A   1      31.207  22.994  24.280  1.00  0.00     0.033 A 
ATOM     80  N   UNL A   1      31.171  25.181  24.685  1.00  0.00    -0.334 N 
ATOM     81  C   UNL A   1      30.616  23.641  23.173  1.00  0.00     0.020 A 
ATOM     82  C   UNL A   1      30.589  24.988  23.456  1.00  0.00     0.087 A 
BRANCH  80  83
ATOM     83  C   UNL A   1      31.297  26.474  25.350  1.00  0.00     0.222 C 
BRANCH  83  84
ATOM     84  C   UNL A   1      32.541  27.314  25.082  1.00  0.00     0.242 C 
ATOM     85  O   UNL A   1      33.139  27.135  24.013  1.00  0.00    -0.273 OA
BRANCH  84  86
ATOM     86  N   UNL A   1      32.878  28.371  25.925  1.00  0.00    -0.336 N 
ATOM     87  C   UNL A   1      34.231  28.612  26.415  1.00  0.00     0.124 C 
ATOM     88  C   UNL A   1      31.831  29.359  26.238  1.00  0.00     0.155 C 
ATOM     89  C   UNL A   1      34.361  29.603  27.564  1.00  0.00     0.057 C 
ATOM     90  C   UNL A   1      32.322  30.711  26.697  1.00  0.00    -0.025 A 
ATOM     91  C   UNL A   1      33.569  30.842  27.320  1.00  0.00    -0.041 A 
ATOM     92  C   UNL A   1      31.485  31.831  26.626  1.00  0.00     0.006 A 
ATOM     93  C   UNL A   1      33.995  32.078  27.819  1.00  0.00     0.004 A 
ATOM     94  C   UNL A   1      31.906  33.062  27.135  1.00  0.00     0.000 A 
ATOM     95  C   UNL A   1      33.165  33.190  27.716  1.00  0.00     0.000 A 
ENDBRANCH  84  86
ENDBRANCH  83  84
ENDBRANCH  80  83
ENDBRANCH  75  78
ENDBRANCH  73  74
ENDBRANCH  72  73
ENDBRANCH   1  72
TORSDOF 17
ENDMDL
