MODEL 1
REMARK VINA RESULT:     -11.4      0.000      0.000
REMARK SMILES CCN(CC)c1ccc(NS(=O)(=O)c2ccc(Cl)s2)cc1C(=O)NCCCCNC(=O)c1ccc(-c2c3nc(c(-c4cc(S(=O)(=O)[O-])ccc4F)c4ccc([nH]4)c(-c4cc(S(=O)(=O)[O-])ccc4F)c4nc(c(-c5cc(S(=O)(=O)[O-])ccc5F)c5ccc2[nH]5)C=C4)C=C3)cc1
REMARK SMILES IDX 26 1 25 2 24 3 22 4 23 5 21 7 6 8 7 9 8 10 20 11 9 12 3 13
REMARK SMILES IDX 2 14 1 15 4 16 5 17 10 18 11 20 12 21 13 22 14 23 15 24
REMARK SMILES IDX 19 25 16 26 17 27 18 28 27 29 28 30 29 31 30 32 31 34 32 35
REMARK SMILES IDX 33 36 94 37 34 38 93 39 35 40 36 41 37 42 87 43 38 44 92 45
REMARK SMILES IDX 86 46 88 47 39 48 91 49 85 50 84 51 40 53 72 54 52 55 71 56
REMARK SMILES IDX 53 57 56 58 70 59 89 60 54 61 55 62 69 64 90 65 57 66 41 67
REMARK SMILES IDX 42 68 50 69 43 70 49 71 51 72 48 73 44 74 45 75 46 76 47 77
REMARK SMILES IDX 73 78 74 79 82 80 75 81 81 82 83 83 80 84 76 85 77 86 78 87
REMARK SMILES IDX 79 88 58 89 59 90 67 91 60 92 66 93 68 94 65 95 61 96 62 97
REMARK SMILES IDX 63 98 64 99
REMARK H PARENT 24 6 10 19 29 33 88 52 56 63
REMARK Flexibility Score: inf
ROOT
ATOM      1  C   UNL A   1      32.165  29.236  27.215  1.00  0.00     0.023 C 
ENDROOT
BRANCH   1   2
ATOM      2  C   UNL A   1      33.174  28.217  26.694  1.00  0.00     0.116 C 
BRANCH   2   3
ATOM      3  N   UNL A   1      33.698  28.477  25.382  1.00  0.00    -0.352 N 
ATOM      4  C   UNL A   1      33.686  27.687  24.259  1.00  0.00     0.253 C 
ATOM      5  O   UNL A   1      34.270  28.130  23.264  1.00  0.00    -0.269 OA
ATOM      6  H   UNL A   1      34.133  29.354  25.271  1.00  0.00     0.163 HD
BRANCH   4   7
ATOM      7  C   UNL A   1      33.078  26.319  24.135  1.00  0.00     0.065 A 
ATOM      8  C   UNL A   1      31.755  25.995  23.767  1.00  0.00     0.050 A 
ATOM      9  C   UNL A   1      31.511  24.685  23.309  1.00  0.00     0.029 A 
ATOM     10  C   UNL A   1      32.477  23.684  23.345  1.00  0.00     0.029 A 
ATOM     11  C   UNL A   1      34.037  25.275  24.207  1.00  0.00     0.042 A 
ATOM     12  C   UNL A   1      33.730  23.954  23.868  1.00  0.00     0.050 A 
BRANCH   8  13
ATOM     13  N   UNL A   1      30.668  26.861  23.826  1.00  0.00    -0.371 N 
BRANCH  13  14
ATOM     14  C   UNL A   1      30.446  27.787  22.709  1.00  0.00     0.113 C 
ATOM     15  C   UNL A   1      30.589  29.243  23.127  1.00  0.00     0.027 C 
ENDBRANCH  13  14
BRANCH  13  16
ATOM     16  C   UNL A   1      29.490  26.390  24.588  1.00  0.00     0.113 C 
ATOM     17  C   UNL A   1      28.157  26.518  23.874  1.00  0.00     0.027 C 
ENDBRANCH  13  16
ENDBRANCH   8  13
BRANCH  12  18
ATOM     18  N   UNL A   1      34.682  22.946  24.214  1.00  0.00    -0.279 N 
ATOM     19  H   UNL A   1      35.547  22.948  23.744  1.00  0.00     0.180 HD
BRANCH  18  20
ATOM     20  S   UNL A   1      34.418  21.756  25.369  1.00  0.00     0.271 S 
ATOM     21  O   UNL A   1      35.706  21.335  25.890  1.00  0.00    -0.200 OA
ATOM     22  O   UNL A   1      33.380  22.219  26.245  1.00  0.00    -0.200 OA
BRANCH  20  23
ATOM     23  C   UNL A   1      33.765  20.279  24.607  1.00  0.00     0.141 A 
ATOM     24  C   UNL A   1      32.558  20.031  23.974  1.00  0.00     0.036 A 
ATOM     25  S   UNL A   1      34.727  18.863  24.696  1.00  0.00    -0.110 S 
ATOM     26  C   UNL A   1      32.379  18.648  23.675  1.00  0.00     0.034 A 
ATOM     27  C   UNL A   1      33.474  17.920  24.061  1.00  0.00     0.094 A 
ATOM     28  Cl  UNL A   1      33.656  16.215  23.960  1.00  0.00    -0.072 Cl
ENDBRANCH  20  23
ENDBRANCH  18  20
ENDBRANCH  12  18
ENDBRANCH   4   7
ENDBRANCH   2   3
ENDBRANCH   1   2
BRANCH   1  29
ATOM     29  C   UNL A   1      32.302  30.662  26.665  1.00  0.00     0.023 C 
BRANCH  29  30
ATOM     30  C   UNL A   1      33.314  31.588  27.344  1.00  0.00     0.116 C 
BRANCH  30  31
ATOM     31  N   UNL A   1      32.842  32.947  27.566  1.00  0.00    -0.352 N 
ATOM     32  C   UNL A   1      33.305  33.950  28.390  1.00  0.00     0.251 C 
ATOM     33  H   UNL A   1      32.052  33.195  27.032  1.00  0.00     0.163 HD
ATOM     34  O   UNL A   1      32.700  35.020  28.421  1.00  0.00    -0.269 OA
BRANCH  32  35
ATOM     35  C   UNL A   1      34.473  33.737  29.277  1.00  0.00     0.039 A 
ATOM     36  C   UNL A   1      34.282  33.022  30.465  1.00  0.00     0.014 A 
ATOM     37  C   UNL A   1      35.746  34.210  28.955  1.00  0.00     0.014 A 
ATOM     38  C   UNL A   1      35.384  32.663  31.249  1.00  0.00     0.010 A 
ATOM     39  C   UNL A   1      36.852  33.791  29.698  1.00  0.00     0.010 A 
ATOM     40  C   UNL A   1      36.686  32.978  30.830  1.00  0.00    -0.014 A 
BRANCH  40  41
ATOM     41  C   UNL A   1      37.875  32.376  31.495  1.00  0.00     0.031 A 
ATOM     42  C   UNL A   1      38.659  31.272  30.842  1.00  0.00     0.074 A 
ATOM     43  C   UNL A   1      38.192  32.771  32.746  1.00  0.00     0.049 A 
ATOM     44  N   UNL A   1      39.658  30.574  31.321  1.00  0.00    -0.248 NA
ATOM     45  C   UNL A   1      38.254  30.889  29.482  1.00  0.00     0.031 C 
ATOM     46  C   UNL A   1      37.481  33.801  33.511  1.00  0.00     0.029 A 
ATOM     47  N   UNL A   1      39.177  32.349  33.605  1.00  0.00    -0.354 N 
ATOM     48  C   UNL A   1      39.995  29.658  30.330  1.00  0.00     0.074 A 
ATOM     49  C   UNL A   1      39.064  29.866  29.239  1.00  0.00     0.031 C 
ATOM     50  C   UNL A   1      38.064  33.942  34.712  1.00  0.00     0.029 A 
ATOM     51  C   UNL A   1      39.156  32.981  34.827  1.00  0.00     0.049 A 
ATOM     52  H   UNL A   1      39.838  31.660  33.366  1.00  0.00     0.167 HD
ATOM     53  C   UNL A   1      40.994  28.740  30.326  1.00  0.00     0.034 A 
ATOM     54  C   UNL A   1      39.913  32.797  35.928  1.00  0.00     0.034 A 
ATOM     55  C   UNL A   1      41.924  28.549  31.414  1.00  0.00     0.049 A 
ATOM     56  C   UNL A   1      40.997  31.753  35.906  1.00  0.00     0.074 A 
ATOM     57  C   UNL A   1      43.018  27.700  31.473  1.00  0.00     0.029 A 
ATOM     58  N   UNL A   1      41.867  29.201  32.639  1.00  0.00    -0.354 N 
ATOM     59  N   UNL A   1      41.337  30.936  34.935  1.00  0.00    -0.248 NA
ATOM     60  C   UNL A   1      41.801  31.607  37.126  1.00  0.00     0.031 C 
ATOM     61  C   UNL A   1      43.580  27.793  32.751  1.00  0.00     0.029 A 
ATOM     62  C   UNL A   1      42.882  28.748  33.470  1.00  0.00     0.049 A 
ATOM     63  H   UNL A   1      41.204  29.887  32.881  1.00  0.00     0.167 HD
ATOM     64  C   UNL A   1      42.411  30.199  35.423  1.00  0.00     0.074 A 
ATOM     65  C   UNL A   1      42.672  30.678  36.764  1.00  0.00     0.031 C 
ATOM     66  C   UNL A   1      43.122  29.216  34.814  1.00  0.00     0.034 A 
BRANCH  53  67
ATOM     67  C   UNL A   1      41.117  27.850  29.114  1.00  0.00     0.023 A 
ATOM     68  C   UNL A   1      42.105  28.065  28.137  1.00  0.00     0.031 A 
ATOM     69  C   UNL A   1      40.237  26.768  28.934  1.00  0.00     0.131 A 
ATOM     70  C   UNL A   1      42.148  27.251  26.994  1.00  0.00     0.055 A 
ATOM     71  C   UNL A   1      40.331  25.918  27.830  1.00  0.00     0.041 A 
ATOM     72  F   UNL A   1      39.265  26.523  29.826  1.00  0.00    -0.206 F 
ATOM     73  C   UNL A   1      41.284  26.164  26.846  1.00  0.00     0.022 A 
BRANCH  70  74
ATOM     74  S   UNL A   1      43.278  27.704  25.650  1.00  0.00     0.124 S 
ATOM     75  O   UNL A   1      43.890  28.921  26.176  1.00  0.00    -0.237 OA
ATOM     76  O   UNL A   1      44.149  26.538  25.563  1.00  0.00    -0.237 OA
ATOM     77  O   UNL A   1      42.388  27.905  24.508  1.00  0.00    -0.744 OA
ENDBRANCH  70  74
ENDBRANCH  53  67
BRANCH  54  78
ATOM     78  C   UNL A   1      39.664  33.600  37.159  1.00  0.00     0.023 A 
ATOM     79  C   UNL A   1      40.413  34.756  37.427  1.00  0.00     0.031 A 
ATOM     80  C   UNL A   1      38.712  33.193  38.109  1.00  0.00     0.131 A 
ATOM     81  C   UNL A   1      40.232  35.440  38.639  1.00  0.00     0.055 A 
ATOM     82  C   UNL A   1      38.500  33.906  39.291  1.00  0.00     0.041 A 
ATOM     83  F   UNL A   1      37.965  32.097  37.897  1.00  0.00    -0.206 F 
ATOM     84  C   UNL A   1      39.273  35.029  39.568  1.00  0.00     0.022 A 
BRANCH  81  85
ATOM     85  S   UNL A   1      41.334  36.829  39.024  1.00  0.00     0.124 S 
ATOM     86  O   UNL A   1      42.086  36.306  40.159  1.00  0.00    -0.237 OA
ATOM     87  O   UNL A   1      42.076  36.979  37.776  1.00  0.00    -0.237 OA
ATOM     88  O   UNL A   1      40.412  37.919  39.333  1.00  0.00    -0.744 OA
ENDBRANCH  81  85
ENDBRANCH  54  78
BRANCH  66  89
ATOM     89  C   UNL A   1      44.272  28.627  35.591  1.00  0.00     0.023 A 
ATOM     90  C   UNL A   1      44.086  27.560  36.488  1.00  0.00     0.031 A 
ATOM     91  C   UNL A   1      45.566  29.157  35.452  1.00  0.00     0.131 A 
ATOM     92  C   UNL A   1      45.166  27.094  37.253  1.00  0.00     0.055 A 
ATOM     93  C   UNL A   1      46.648  28.653  36.176  1.00  0.00     0.041 A 
ATOM     94  F   UNL A   1      45.800  30.178  34.612  1.00  0.00    -0.206 F 
ATOM     95  C   UNL A   1      46.449  27.624  37.092  1.00  0.00     0.022 A 
BRANCH  92  96
ATOM     96  S   UNL A   1      44.855  25.841  38.529  1.00  0.00     0.124 S 
ATOM     97  O   UNL A   1      46.206  25.538  38.991  1.00  0.00    -0.237 OA
ATOM     98  O   UNL A   1      44.004  26.560  39.472  1.00  0.00    -0.237 OA
ATOM     99  O   UNL A   1      44.194  24.762  37.797  1.00  0.00    -0.744 OA
ENDBRANCH  92  96
ENDBRANCH  66  89
ENDBRANCH  40  41
ENDBRANCH  32  35
ENDBRANCH  30  31
ENDBRANCH  29  30
ENDBRANCH   1  29
TORSDOF 20
ENDMDL
MODEL 2
REMARK VINA RESULT:     -11.4      1.930      2.307
REMARK SMILES CCN(CC)c1ccc(NS(=O)(=O)c2ccc(Cl)s2)cc1C(=O)NCCCCNC(=O)c1ccc(-c2c3nc(c(-c4cc(S(=O)(=O)[O-])ccc4F)c4ccc([nH]4)c(-c4cc(S(=O)(=O)[O-])ccc4F)c4nc(c(-c5cc(S(=O)(=O)[O-])ccc5F)c5ccc2[nH]5)C=C4)C=C3)cc1
REMARK SMILES IDX 26 1 25 2 24 3 22 4 23 5 21 7 6 8 7 9 8 10 20 11 9 12 3 13
REMARK SMILES IDX 2 14 1 15 4 16 5 17 10 18 11 20 12 21 13 22 14 23 15 24
REMARK SMILES IDX 19 25 16 26 17 27 18 28 27 29 28 30 29 31 30 32 31 34 32 35
REMARK SMILES IDX 33 36 94 37 34 38 93 39 35 40 36 41 37 42 87 43 38 44 92 45
REMARK SMILES IDX 86 46 88 47 39 48 91 49 85 50 84 51 40 53 72 54 52 55 71 56
REMARK SMILES IDX 53 57 56 58 70 59 89 60 54 61 55 62 69 64 90 65 57 66 41 67
REMARK SMILES IDX 42 68 50 69 43 70 49 71 51 72 48 73 44 74 45 75 46 76 47 77
REMARK SMILES IDX 73 78 74 79 82 80 75 81 81 82 83 83 80 84 76 85 77 86 78 87
REMARK SMILES IDX 79 88 58 89 59 90 67 91 60 92 66 93 68 94 65 95 61 96 62 97
REMARK SMILES IDX 63 98 64 99
REMARK H PARENT 24 6 10 19 29 33 88 52 56 63
REMARK Flexibility Score: inf
ROOT
ATOM      1  C   UNL A   1      32.211  29.439  25.648  1.00  0.00     0.023 C 
ENDROOT
BRANCH   1   2
ATOM      2  C   UNL A   1      33.572  28.853  25.285  1.00  0.00     0.116 C 
BRANCH   2   3
ATOM      3  N   UNL A   1      33.880  28.823  23.882  1.00  0.00    -0.352 N 
ATOM      4  C   UNL A   1      33.692  27.820  22.963  1.00  0.00     0.253 C 
ATOM      5  O   UNL A   1      34.109  28.032  21.819  1.00  0.00    -0.269 OA
ATOM      6  H   UNL A   1      34.288  29.646  23.524  1.00  0.00     0.163 HD
BRANCH   4   7
ATOM      7  C   UNL A   1      33.078  26.474  23.222  1.00  0.00     0.065 A 
ATOM      8  C   UNL A   1      31.708  26.139  23.224  1.00  0.00     0.050 A 
ATOM      9  C   UNL A   1      31.371  24.779  23.071  1.00  0.00     0.029 A 
ATOM     10  C   UNL A   1      32.324  23.766  23.064  1.00  0.00     0.029 A 
ATOM     11  C   UNL A   1      34.033  25.424  23.259  1.00  0.00     0.042 A 
ATOM     12  C   UNL A   1      33.662  24.077  23.236  1.00  0.00     0.050 A 
BRANCH   8  13
ATOM     13  N   UNL A   1      30.659  27.041  23.373  1.00  0.00    -0.371 N 
BRANCH  13  14
ATOM     14  C   UNL A   1      30.304  27.899  22.236  1.00  0.00     0.113 C 
ATOM     15  C   UNL A   1      30.386  29.380  22.581  1.00  0.00     0.027 C 
ENDBRANCH  13  14
BRANCH  13  16
ATOM     16  C   UNL A   1      29.589  26.658  24.320  1.00  0.00     0.113 C 
ATOM     17  C   UNL A   1      28.173  26.773  23.786  1.00  0.00     0.027 C 
ENDBRANCH  13  16
ENDBRANCH   8  13
BRANCH  12  18
ATOM     18  N   UNL A   1      34.671  23.109  23.531  1.00  0.00    -0.279 N 
ATOM     19  H   UNL A   1      35.224  22.777  22.786  1.00  0.00     0.180 HD
BRANCH  18  20
ATOM     20  S   UNL A   1      34.977  22.500  25.066  1.00  0.00     0.271 S 
ATOM     21  O   UNL A   1      34.900  23.598  26.014  1.00  0.00    -0.200 OA
ATOM     22  O   UNL A   1      34.178  21.319  25.234  1.00  0.00    -0.200 OA
BRANCH  20  23
ATOM     23  C   UNL A   1      36.668  21.945  25.193  1.00  0.00     0.141 A 
ATOM     24  C   UNL A   1      37.268  20.745  24.847  1.00  0.00     0.036 A 
ATOM     25  S   UNL A   1      37.790  23.017  25.923  1.00  0.00    -0.110 S 
ATOM     26  C   UNL A   1      38.620  20.667  25.297  1.00  0.00     0.034 A 
ATOM     27  C   UNL A   1      38.991  21.826  25.928  1.00  0.00     0.094 A 
ATOM     28  Cl  UNL A   1      40.499  22.138  26.688  1.00  0.00    -0.072 Cl
ENDBRANCH  20  23
ENDBRANCH  18  20
ENDBRANCH  12  18
ENDBRANCH   4   7
ENDBRANCH   2   3
ENDBRANCH   1   2
BRANCH   1  29
ATOM     29  C   UNL A   1      32.166  30.307  26.912  1.00  0.00     0.023 C 
BRANCH  29  30
ATOM     30  C   UNL A   1      33.255  31.370  27.080  1.00  0.00     0.116 C 
BRANCH  30  31
ATOM     31  N   UNL A   1      32.758  32.720  27.305  1.00  0.00    -0.352 N 
ATOM     32  C   UNL A   1      33.199  33.726  28.135  1.00  0.00     0.251 C 
ATOM     33  H   UNL A   1      31.968  32.956  26.767  1.00  0.00     0.163 HD
ATOM     34  O   UNL A   1      32.576  34.786  28.168  1.00  0.00    -0.269 OA
BRANCH  32  35
ATOM     35  C   UNL A   1      34.366  33.530  29.029  1.00  0.00     0.039 A 
ATOM     36  C   UNL A   1      34.197  32.751  30.178  1.00  0.00     0.014 A 
ATOM     37  C   UNL A   1      35.617  34.081  28.747  1.00  0.00     0.014 A 
ATOM     38  C   UNL A   1      35.306  32.410  30.960  1.00  0.00     0.010 A 
ATOM     39  C   UNL A   1      36.734  33.681  29.486  1.00  0.00     0.010 A 
ATOM     40  C   UNL A   1      36.596  32.808  30.575  1.00  0.00    -0.014 A 
BRANCH  40  41
ATOM     41  C   UNL A   1      37.805  32.235  31.229  1.00  0.00     0.031 A 
ATOM     42  C   UNL A   1      38.572  31.106  30.598  1.00  0.00     0.074 A 
ATOM     43  C   UNL A   1      38.158  32.681  32.453  1.00  0.00     0.049 A 
ATOM     44  N   UNL A   1      39.585  30.429  31.075  1.00  0.00    -0.248 NA
ATOM     45  C   UNL A   1      38.127  30.668  29.267  1.00  0.00     0.031 C 
ATOM     46  C   UNL A   1      37.469  33.741  33.196  1.00  0.00     0.029 A 
ATOM     47  N   UNL A   1      39.169  32.296  33.298  1.00  0.00    -0.354 N 
ATOM     48  C   UNL A   1      39.894  29.473  30.113  1.00  0.00     0.074 A 
ATOM     49  C   UNL A   1      38.931  29.636  29.042  1.00  0.00     0.031 C 
ATOM     50  C   UNL A   1      38.087  33.931  34.372  1.00  0.00     0.029 A 
ATOM     51  C   UNL A   1      39.184  32.976  34.493  1.00  0.00     0.049 A 
ATOM     52  H   UNL A   1      39.825  31.597  33.068  1.00  0.00     0.167 HD
ATOM     53  C   UNL A   1      40.895  28.557  30.116  1.00  0.00     0.034 A 
ATOM     54  C   UNL A   1      39.974  32.839  35.577  1.00  0.00     0.034 A 
ATOM     55  C   UNL A   1      41.858  28.411  31.182  1.00  0.00     0.049 A 
ATOM     56  C   UNL A   1      41.059  31.795  35.565  1.00  0.00     0.074 A 
ATOM     57  C   UNL A   1      42.954  27.567  31.243  1.00  0.00     0.029 A 
ATOM     58  N   UNL A   1      41.836  29.113  32.381  1.00  0.00    -0.354 N 
ATOM     59  N   UNL A   1      41.371  30.940  34.620  1.00  0.00    -0.248 NA
ATOM     60  C   UNL A   1      41.899  31.700  36.766  1.00  0.00     0.031 C 
ATOM     61  C   UNL A   1      43.555  27.712  32.499  1.00  0.00     0.029 A 
ATOM     62  C   UNL A   1      42.876  28.695  33.199  1.00  0.00     0.049 A 
ATOM     63  H   UNL A   1      41.179  29.808  32.615  1.00  0.00     0.167 HD
ATOM     64  C   UNL A   1      42.461  30.224  35.105  1.00  0.00     0.074 A 
ATOM     65  C   UNL A   1      42.761  30.757  36.417  1.00  0.00     0.031 C 
ATOM     66  C   UNL A   1      43.156  29.218  34.515  1.00  0.00     0.034 A 
BRANCH  53  67
ATOM     67  C   UNL A   1      40.984  27.618  28.938  1.00  0.00     0.023 A 
ATOM     68  C   UNL A   1      41.969  27.769  27.946  1.00  0.00     0.031 A 
ATOM     69  C   UNL A   1      40.073  26.555  28.806  1.00  0.00     0.131 A 
ATOM     70  C   UNL A   1      41.981  26.911  26.835  1.00  0.00     0.055 A 
ATOM     71  C   UNL A   1      40.134  25.661  27.735  1.00  0.00     0.041 A 
ATOM     72  F   UNL A   1      39.102  26.372  29.714  1.00  0.00    -0.206 F 
ATOM     73  C   UNL A   1      41.085  25.844  26.735  1.00  0.00     0.022 A 
BRANCH  70  74
ATOM     74  S   UNL A   1      43.111  27.281  25.466  1.00  0.00     0.124 S 
ATOM     75  O   UNL A   1      42.260  28.082  24.590  1.00  0.00    -0.237 OA
ATOM     76  O   UNL A   1      44.192  27.995  26.134  1.00  0.00    -0.237 OA
ATOM     77  O   UNL A   1      43.463  25.960  24.946  1.00  0.00    -0.744 OA
ENDBRANCH  70  74
ENDBRANCH  53  67
BRANCH  54  78
ATOM     78  C   UNL A   1      39.760  33.691  36.782  1.00  0.00     0.023 A 
ATOM     79  C   UNL A   1      39.113  33.182  37.918  1.00  0.00     0.031 A 
ATOM     80  C   UNL A   1      40.152  35.041  36.793  1.00  0.00     0.131 A 
ATOM     81  C   UNL A   1      38.832  34.029  39.001  1.00  0.00     0.055 A 
ATOM     82  C   UNL A   1      39.916  35.867  37.893  1.00  0.00     0.041 A 
ATOM     83  F   UNL A   1      40.781  35.575  35.733  1.00  0.00    -0.206 F 
ATOM     84  C   UNL A   1      39.240  35.365  39.001  1.00  0.00     0.022 A 
BRANCH  81  85
ATOM     85  S   UNL A   1      37.846  33.378  40.377  1.00  0.00     0.124 S 
ATOM     86  O   UNL A   1      37.665  34.568  41.202  1.00  0.00    -0.237 OA
ATOM     87  O   UNL A   1      36.657  32.887  39.689  1.00  0.00    -0.237 OA
ATOM     88  O   UNL A   1      38.703  32.344  40.950  1.00  0.00    -0.744 OA
ENDBRANCH  81  85
ENDBRANCH  54  78
BRANCH  66  89
ATOM     89  C   UNL A   1      44.330  28.661  35.280  1.00  0.00     0.023 A 
ATOM     90  C   UNL A   1      44.159  27.712  36.304  1.00  0.00     0.031 A 
ATOM     91  C   UNL A   1      45.633  29.107  35.001  1.00  0.00     0.131 A 
ATOM     92  C   UNL A   1      45.268  27.281  37.048  1.00  0.00     0.055 A 
ATOM     93  C   UNL A   1      46.739  28.633  35.708  1.00  0.00     0.041 A 
ATOM     94  F   UNL A   1      45.852  30.015  34.036  1.00  0.00    -0.206 F 
ATOM     95  C   UNL A   1      46.558  27.724  36.747  1.00  0.00     0.022 A 
BRANCH  92  96
ATOM     96  S   UNL A   1      44.991  26.195  38.476  1.00  0.00     0.124 S 
ATOM     97  O   UNL A   1      43.611  26.507  38.832  1.00  0.00    -0.237 OA
ATOM     98  O   UNL A   1      45.220  24.870  37.908  1.00  0.00    -0.237 OA
ATOM     99  O   UNL A   1      45.996  26.636  39.442  1.00  0.00    -0.744 OA
ENDBRANCH  92  96
ENDBRANCH  66  89
ENDBRANCH  40  41
ENDBRANCH  32  35
ENDBRANCH  30  31
ENDBRANCH  29  30
ENDBRANCH   1  29
TORSDOF 20
ENDMDL
MODEL 3
REMARK VINA RESULT:     -11.4      1.711      2.425
REMARK SMILES CCN(CC)c1ccc(NS(=O)(=O)c2ccc(Cl)s2)cc1C(=O)NCCCCNC(=O)c1ccc(-c2c3nc(c(-c4cc(S(=O)(=O)[O-])ccc4F)c4ccc([nH]4)c(-c4cc(S(=O)(=O)[O-])ccc4F)c4nc(c(-c5cc(S(=O)(=O)[O-])ccc5F)c5ccc2[nH]5)C=C4)C=C3)cc1
REMARK SMILES IDX 26 1 25 2 24 3 22 4 23 5 21 7 6 8 7 9 8 10 20 11 9 12 3 13
REMARK SMILES IDX 2 14 1 15 4 16 5 17 10 18 11 20 12 21 13 22 14 23 15 24
REMARK SMILES IDX 19 25 16 26 17 27 18 28 27 29 28 30 29 31 30 32 31 34 32 35
REMARK SMILES IDX 33 36 94 37 34 38 93 39 35 40 36 41 37 42 87 43 38 44 92 45
REMARK SMILES IDX 86 46 88 47 39 48 91 49 85 50 84 51 40 53 72 54 52 55 71 56
REMARK SMILES IDX 53 57 56 58 70 59 89 60 54 61 55 62 69 64 90 65 57 66 41 67
REMARK SMILES IDX 42 68 50 69 43 70 49 71 51 72 48 73 44 74 45 75 46 76 47 77
REMARK SMILES IDX 73 78 74 79 82 80 75 81 81 82 83 83 80 84 76 85 77 86 78 87
REMARK SMILES IDX 79 88 58 89 59 90 67 91 60 92 66 93 68 94 65 95 61 96 62 97
REMARK SMILES IDX 63 98 64 99
REMARK H PARENT 24 6 10 19 29 33 88 52 56 63
REMARK Flexibility Score: inf
ROOT
ATOM      1  C   UNL A   1      31.400  30.654  26.157  1.00  0.00     0.023 C 
ENDROOT
BRANCH   1   2
ATOM      2  C   UNL A   1      32.775  30.035  25.924  1.00  0.00     0.116 C 
BRANCH   2   3
ATOM      3  N   UNL A   1      33.086  29.708  24.560  1.00  0.00    -0.352 N 
ATOM      4  C   UNL A   1      32.348  29.008  23.635  1.00  0.00     0.253 C 
ATOM      5  O   UNL A   1      32.881  28.810  22.538  1.00  0.00    -0.269 OA
ATOM      6  H   UNL A   1      33.958  30.033  24.238  1.00  0.00     0.163 HD
BRANCH   4   7
ATOM      7  C   UNL A   1      30.984  28.418  23.843  1.00  0.00     0.065 A 
ATOM      8  C   UNL A   1      29.759  28.868  23.305  1.00  0.00     0.050 A 
ATOM      9  C   UNL A   1      28.687  27.955  23.274  1.00  0.00     0.029 A 
ATOM     10  C   UNL A   1      28.751  26.701  23.873  1.00  0.00     0.029 A 
ATOM     11  C   UNL A   1      31.016  27.153  24.488  1.00  0.00     0.042 A 
ATOM     12  C   UNL A   1      29.896  26.320  24.554  1.00  0.00     0.050 A 
BRANCH   8  13
ATOM     13  N   UNL A   1      29.520  30.146  22.809  1.00  0.00    -0.371 N 
BRANCH  13  14
ATOM     14  C   UNL A   1      29.431  30.330  21.355  1.00  0.00     0.113 C 
ATOM     15  C   UNL A   1      28.008  30.612  20.895  1.00  0.00     0.027 C 
ENDBRANCH  13  14
BRANCH  13  16
ATOM     16  C   UNL A   1      28.741  31.056  23.678  1.00  0.00     0.113 C 
ATOM     17  C   UNL A   1      29.144  32.517  23.622  1.00  0.00     0.027 C 
ENDBRANCH  13  16
ENDBRANCH   8  13
BRANCH  12  18
ATOM     18  N   UNL A   1      29.960  25.197  25.435  1.00  0.00    -0.279 N 
ATOM     19  H   UNL A   1      29.130  24.692  25.600  1.00  0.00     0.180 HD
BRANCH  18  20
ATOM     20  S   UNL A   1      31.358  24.681  26.208  1.00  0.00     0.271 S 
ATOM     21  O   UNL A   1      32.141  25.852  26.562  1.00  0.00    -0.200 OA
ATOM     22  O   UNL A   1      30.977  23.717  27.202  1.00  0.00    -0.200 OA
BRANCH  20  23
ATOM     23  C   UNL A   1      32.410  23.793  25.072  1.00  0.00     0.141 A 
ATOM     24  C   UNL A   1      32.116  22.877  24.075  1.00  0.00     0.036 A 
ATOM     25  S   UNL A   1      34.102  24.021  25.232  1.00  0.00    -0.110 S 
ATOM     26  C   UNL A   1      33.289  22.275  23.531  1.00  0.00     0.034 A 
ATOM     27  C   UNL A   1      34.417  22.790  24.114  1.00  0.00     0.094 A 
ATOM     28  Cl  UNL A   1      36.036  22.302  23.816  1.00  0.00    -0.072 Cl
ENDBRANCH  20  23
ENDBRANCH  18  20
ENDBRANCH  12  18
ENDBRANCH   4   7
ENDBRANCH   2   3
ENDBRANCH   1   2
BRANCH   1  29
ATOM     29  C   UNL A   1      31.372  31.941  26.991  1.00  0.00     0.023 C 
BRANCH  29  30
ATOM     30  C   UNL A   1      32.508  32.945  26.782  1.00  0.00     0.116 C 
BRANCH  30  31
ATOM     31  N   UNL A   1      32.472  34.099  27.670  1.00  0.00    -0.352 N 
ATOM     32  C   UNL A   1      33.312  34.491  28.688  1.00  0.00     0.251 C 
ATOM     33  H   UNL A   1      31.714  34.707  27.513  1.00  0.00     0.163 HD
ATOM     34  O   UNL A   1      33.042  35.509  29.323  1.00  0.00    -0.269 OA
BRANCH  32  35
ATOM     35  C   UNL A   1      34.491  33.677  29.069  1.00  0.00     0.039 A 
ATOM     36  C   UNL A   1      35.765  34.183  28.789  1.00  0.00     0.014 A 
ATOM     37  C   UNL A   1      34.365  32.442  29.706  1.00  0.00     0.014 A 
ATOM     38  C   UNL A   1      36.900  33.525  29.273  1.00  0.00     0.010 A 
ATOM     39  C   UNL A   1      35.494  31.823  30.251  1.00  0.00     0.010 A 
ATOM     40  C   UNL A   1      36.769  32.380  30.075  1.00  0.00    -0.014 A 
BRANCH  40  41
ATOM     41  C   UNL A   1      37.933  31.826  30.821  1.00  0.00     0.031 A 
ATOM     42  C   UNL A   1      38.790  30.739  30.233  1.00  0.00     0.074 A 
ATOM     43  C   UNL A   1      38.160  32.246  32.083  1.00  0.00     0.049 A 
ATOM     44  N   UNL A   1      39.778  30.078  30.782  1.00  0.00    -0.248 NA
ATOM     45  C   UNL A   1      38.482  30.326  28.856  1.00  0.00     0.031 C 
ATOM     46  C   UNL A   1      37.372  33.262  32.788  1.00  0.00     0.029 A 
ATOM     47  N   UNL A   1      39.103  31.867  33.006  1.00  0.00    -0.354 N 
ATOM     48  C   UNL A   1      40.204  29.161  29.827  1.00  0.00     0.074 A 
ATOM     49  C   UNL A   1      39.336  29.326  28.678  1.00  0.00     0.031 C 
ATOM     50  C   UNL A   1      37.876  33.437  34.020  1.00  0.00     0.029 A 
ATOM     51  C   UNL A   1      38.988  32.513  34.215  1.00  0.00     0.049 A 
ATOM     52  H   UNL A   1      39.799  31.195  32.819  1.00  0.00     0.167 HD
ATOM     53  C   UNL A   1      41.229  28.276  29.898  1.00  0.00     0.034 A 
ATOM     54  C   UNL A   1      39.681  32.367  35.363  1.00  0.00     0.034 A 
ATOM     55  C   UNL A   1      42.097  28.128  31.043  1.00  0.00     0.049 A 
ATOM     56  C   UNL A   1      40.796  31.357  35.422  1.00  0.00     0.074 A 
ATOM     57  C   UNL A   1      43.210  27.316  31.181  1.00  0.00     0.029 A 
ATOM     58  N   UNL A   1      41.944  28.794  32.252  1.00  0.00    -0.354 N 
ATOM     59  N   UNL A   1      41.220  30.540  34.487  1.00  0.00    -0.248 NA
ATOM     60  C   UNL A   1      41.528  31.253  36.692  1.00  0.00     0.031 C 
ATOM     61  C   UNL A   1      43.690  27.442  32.489  1.00  0.00     0.029 A 
ATOM     62  C   UNL A   1      42.920  28.384  33.150  1.00  0.00     0.049 A 
ATOM     63  H   UNL A   1      41.246  29.461  32.444  1.00  0.00     0.167 HD
ATOM     64  C   UNL A   1      42.285  29.844  35.050  1.00  0.00     0.074 A 
ATOM     65  C   UNL A   1      42.448  30.347  36.397  1.00  0.00     0.031 C 
ATOM     66  C   UNL A   1      43.062  28.876  34.499  1.00  0.00     0.034 A 
BRANCH  53  67
ATOM     67  C   UNL A   1      41.455  27.375  28.708  1.00  0.00     0.023 A 
ATOM     68  C   UNL A   1      42.462  27.637  27.764  1.00  0.00     0.031 A 
ATOM     69  C   UNL A   1      40.652  26.236  28.517  1.00  0.00     0.131 A 
ATOM     70  C   UNL A   1      42.601  26.807  26.640  1.00  0.00     0.055 A 
ATOM     71  C   UNL A   1      40.841  25.375  27.435  1.00  0.00     0.041 A 
ATOM     72  F   UNL A   1      39.665  25.945  29.378  1.00  0.00    -0.206 F 
ATOM     73  C   UNL A   1      41.813  25.665  26.481  1.00  0.00     0.022 A 
BRANCH  70  74
ATOM     74  S   UNL A   1      43.749  27.309  25.329  1.00  0.00     0.124 S 
ATOM     75  O   UNL A   1      42.832  27.822  24.314  1.00  0.00    -0.237 OA
ATOM     76  O   UNL A   1      44.581  28.301  26.000  1.00  0.00    -0.237 OA
ATOM     77  O   UNL A   1      44.428  26.063  24.973  1.00  0.00    -0.744 OA
ENDBRANCH  70  74
ENDBRANCH  53  67
BRANCH  54  78
ATOM     78  C   UNL A   1      39.332  33.178  36.565  1.00  0.00     0.023 A 
ATOM     79  C   UNL A   1      39.963  34.406  36.812  1.00  0.00     0.031 A 
ATOM     80  C   UNL A   1      38.402  32.709  37.509  1.00  0.00     0.131 A 
ATOM     81  C   UNL A   1      39.694  35.104  37.999  1.00  0.00     0.055 A 
ATOM     82  C   UNL A   1      38.100  33.431  38.665  1.00  0.00     0.041 A 
ATOM     83  F   UNL A   1      37.766  31.542  37.316  1.00  0.00    -0.206 F 
ATOM     84  C   UNL A   1      38.757  34.630  38.922  1.00  0.00     0.022 A 
BRANCH  81  85
ATOM     85  S   UNL A   1      40.653  36.600  38.362  1.00  0.00     0.124 S 
ATOM     86  O   UNL A   1      41.326  36.838  37.091  1.00  0.00    -0.237 OA
ATOM     87  O   UNL A   1      39.605  37.549  38.722  1.00  0.00    -0.237 OA
ATOM     88  O   UNL A   1      41.521  36.188  39.462  1.00  0.00    -0.744 OA
ENDBRANCH  81  85
ENDBRANCH  54  78
BRANCH  66  89
ATOM     89  C   UNL A   1      44.180  28.334  35.354  1.00  0.00     0.023 A 
ATOM     90  C   UNL A   1      44.017  27.174  36.131  1.00  0.00     0.031 A 
ATOM     91  C   UNL A   1      45.415  29.002  35.411  1.00  0.00     0.131 A 
ATOM     92  C   UNL A   1      45.053  26.747  36.976  1.00  0.00     0.055 A 
ATOM     93  C   UNL A   1      46.462  28.542  36.212  1.00  0.00     0.041 A 
ATOM     94  F   UNL A   1      45.624  30.116  34.692  1.00  0.00    -0.206 F 
ATOM     95  C   UNL A   1      46.279  27.416  37.010  1.00  0.00     0.022 A 
BRANCH  92  96
ATOM     96  S   UNL A   1      44.747  25.354  38.097  1.00  0.00     0.124 S 
ATOM     97  O   UNL A   1      43.550  24.754  37.518  1.00  0.00    -0.237 OA
ATOM     98  O   UNL A   1      45.976  24.576  37.971  1.00  0.00    -0.237 OA
ATOM     99  O   UNL A   1      44.552  25.995  39.397  1.00  0.00    -0.744 OA
ENDBRANCH  92  96
ENDBRANCH  66  89
ENDBRANCH  40  41
ENDBRANCH  32  35
ENDBRANCH  30  31
ENDBRANCH  29  30
ENDBRANCH   1  29
TORSDOF 20
ENDMDL
