MODEL 1
REMARK VINA RESULT:     -11.1      0.000      0.000
REMARK SMILES CCOC[C@@H](O)C[C@]1(C(=O)NCCCCNC(=O)c2ccc(-c3c4nc(c(-c5cc(S(=O)(=O)[O-])ccc5F)c5ccc([nH]5)c(-c5cc(S(=O)(=O)[O-])ccc5F)c5nc(c(-c6cc(S(=O)(=O)[O-])ccc6F)c6ccc3[nH]6)C=C5)C=C4)cc2)CCc2ccccc21
REMARK SMILES IDX 12 1 11 2 9 3 10 4 8 6 82 7 89 8 83 9 84 10 88 11 85 12
REMARK SMILES IDX 87 13 86 14 7 15 5 16 4 17 3 18 2 19 1 20 6 21 13 23 14 24
REMARK SMILES IDX 15 25 16 26 17 27 18 29 19 30 20 31 81 32 21 33 80 34 22 35
REMARK SMILES IDX 23 36 24 37 74 38 25 39 79 40 73 41 75 42 26 43 78 44 72 45
REMARK SMILES IDX 71 46 27 48 59 49 39 50 58 51 40 52 43 53 57 54 76 55 41 56
REMARK SMILES IDX 42 57 56 59 77 60 44 61 28 62 29 63 37 64 30 65 36 66 38 67
REMARK SMILES IDX 35 68 31 69 32 70 33 71 34 72 60 73 61 74 69 75 62 76 68 77
REMARK SMILES IDX 70 78 67 79 63 80 64 81 65 82 66 83 45 84 46 85 54 86 47 87
REMARK SMILES IDX 53 88 55 89 52 90 48 91 49 92 50 93 51 94
REMARK H PARENT 11 5 6 22 16 28 75 47 43 58
REMARK Flexibility Score: inf
ROOT
ATOM      1  C   UNL A   1      33.267  24.676  24.112  1.00  0.00     0.116 C 
ENDROOT
BRANCH   1   2
ATOM      2  N   UNL A   1      33.646  25.563  23.035  1.00  0.00    -0.355 N 
ATOM      3  C   UNL A   1      33.121  26.731  22.588  1.00  0.00     0.230 C 
ATOM      4  O   UNL A   1      33.533  27.083  21.474  1.00  0.00    -0.274 OA
ATOM      5  H   UNL A   1      34.435  25.262  22.530  1.00  0.00     0.163 HD
BRANCH   3   6
ATOM      6  C   UNL A   1      32.047  27.563  23.323  1.00  0.00     0.077 C 
ATOM      7  C   UNL A   1      30.730  26.714  23.401  1.00  0.00     0.026 C 
ATOM      8  C   UNL A   1      32.298  27.883  24.784  1.00  0.00    -0.029 A 
ATOM      9  C   UNL A   1      30.430  26.373  24.864  1.00  0.00     0.037 C 
ATOM     10  C   UNL A   1      31.358  27.263  25.619  1.00  0.00    -0.044 A 
ATOM     11  C   UNL A   1      33.317  28.640  25.351  1.00  0.00     0.005 A 
ATOM     12  C   UNL A   1      31.412  27.393  27.001  1.00  0.00     0.004 A 
ATOM     13  C   UNL A   1      33.366  28.796  26.741  1.00  0.00     0.000 A 
ATOM     14  C   UNL A   1      32.420  28.177  27.561  1.00  0.00     0.000 A 
BRANCH   6  15
ATOM     15  C   UNL A   1      31.714  28.842  22.488  1.00  0.00     0.056 C 
BRANCH  15  16
ATOM     16  C   UNL A   1      30.254  29.318  22.344  1.00  0.00     0.141 C 
BRANCH  16  17
ATOM     17  C   UNL A   1      29.691  30.177  23.487  1.00  0.00     0.191 C 
BRANCH  17  18
ATOM     18  O   UNL A   1      28.258  30.255  23.470  1.00  0.00    -0.379 OA
BRANCH  18  19
ATOM     19  C   UNL A   1      27.681  31.536  23.253  1.00  0.00     0.157 C 
ATOM     20  C   UNL A   1      28.692  32.655  23.094  1.00  0.00     0.035 C 
ENDBRANCH  18  19
ENDBRANCH  17  18
ENDBRANCH  16  17
BRANCH  16  21
ATOM     21  O   UNL A   1      30.224  30.076  21.118  1.00  0.00    -0.391 OA
ATOM     22  H   UNL A   1      31.087  30.491  20.972  1.00  0.00     0.211 HD
ENDBRANCH  16  21
ENDBRANCH  15  16
ENDBRANCH   6  15
ENDBRANCH   3   6
ENDBRANCH   1   2
BRANCH   1  23
ATOM     23  C   UNL A   1      34.307  24.716  25.231  1.00  0.00     0.023 C 
BRANCH  23  24
ATOM     24  C   UNL A   1      35.351  23.598  25.156  1.00  0.00     0.023 C 
BRANCH  24  25
ATOM     25  C   UNL A   1      36.529  23.756  26.111  1.00  0.00     0.116 C 
BRANCH  25  26
ATOM     26  N   UNL A   1      37.489  22.667  26.021  1.00  0.00    -0.352 N 
ATOM     27  C   UNL A   1      38.840  22.696  26.279  1.00  0.00     0.251 C 
ATOM     28  H   UNL A   1      37.124  21.797  25.740  1.00  0.00     0.163 HD
ATOM     29  O   UNL A   1      39.530  21.715  26.044  1.00  0.00    -0.269 OA
BRANCH  27  30
ATOM     30  C   UNL A   1      39.440  23.942  26.797  1.00  0.00     0.039 A 
ATOM     31  C   UNL A   1      40.018  24.835  25.893  1.00  0.00     0.014 A 
ATOM     32  C   UNL A   1      39.389  24.244  28.161  1.00  0.00     0.014 A 
ATOM     33  C   UNL A   1      40.489  26.066  26.351  1.00  0.00     0.010 A 
ATOM     34  C   UNL A   1      39.794  25.498  28.603  1.00  0.00     0.010 A 
ATOM     35  C   UNL A   1      40.349  26.421  27.704  1.00  0.00    -0.014 A 
BRANCH  35  36
ATOM     36  C   UNL A   1      40.787  27.753  28.193  1.00  0.00     0.031 A 
ATOM     37  C   UNL A   1      42.253  28.070  28.295  1.00  0.00     0.074 A 
ATOM     38  C   UNL A   1      39.865  28.647  28.598  1.00  0.00     0.049 A 
ATOM     39  N   UNL A   1      42.836  29.154  28.739  1.00  0.00    -0.248 NA
ATOM     40  C   UNL A   1      43.186  27.015  27.874  1.00  0.00     0.031 C 
ATOM     41  C   UNL A   1      38.416  28.427  28.600  1.00  0.00     0.029 A 
ATOM     42  N   UNL A   1      40.005  29.920  29.094  1.00  0.00    -0.354 N 
ATOM     43  C   UNL A   1      44.202  28.906  28.665  1.00  0.00     0.074 A 
ATOM     44  C   UNL A   1      44.355  27.545  28.196  1.00  0.00     0.031 C 
ATOM     45  C   UNL A   1      37.803  29.534  29.047  1.00  0.00     0.029 A 
ATOM     46  C   UNL A   1      38.811  30.530  29.398  1.00  0.00     0.049 A 
ATOM     47  H   UNL A   1      40.879  30.354  29.220  1.00  0.00     0.167 HD
ATOM     48  C   UNL A   1      45.233  29.746  28.936  1.00  0.00     0.034 A 
ATOM     49  C   UNL A   1      38.558  31.751  29.906  1.00  0.00     0.034 A 
ATOM     50  C   UNL A   1      45.058  31.104  29.386  1.00  0.00     0.049 A 
ATOM     51  C   UNL A   1      39.718  32.672  30.192  1.00  0.00     0.074 A 
ATOM     52  C   UNL A   1      46.025  32.063  29.635  1.00  0.00     0.029 A 
ATOM     53  N   UNL A   1      43.831  31.698  29.662  1.00  0.00    -0.354 N 
ATOM     54  N   UNL A   1      41.004  32.446  30.055  1.00  0.00    -0.248 NA
ATOM     55  C   UNL A   1      39.391  34.016  30.682  1.00  0.00     0.031 C 
ATOM     56  C   UNL A   1      45.389  33.213  30.117  1.00  0.00     0.029 A 
ATOM     57  C   UNL A   1      44.019  32.999  30.100  1.00  0.00     0.049 A 
ATOM     58  H   UNL A   1      42.957  31.258  29.560  1.00  0.00     0.167 HD
ATOM     59  C   UNL A   1      41.638  33.633  30.412  1.00  0.00     0.074 A 
ATOM     60  C   UNL A   1      40.591  34.573  30.756  1.00  0.00     0.031 C 
ATOM     61  C   UNL A   1      42.963  33.922  30.447  1.00  0.00     0.034 A 
BRANCH  48  62
ATOM     62  C   UNL A   1      46.632  29.200  28.770  1.00  0.00     0.023 A 
ATOM     63  C   UNL A   1      47.223  29.056  27.502  1.00  0.00     0.031 A 
ATOM     64  C   UNL A   1      47.372  28.781  29.890  1.00  0.00     0.131 A 
ATOM     65  C   UNL A   1      48.473  28.433  27.377  1.00  0.00     0.055 A 
ATOM     66  C   UNL A   1      48.654  28.240  29.765  1.00  0.00     0.041 A 
ATOM     67  F   UNL A   1      46.855  28.874  31.125  1.00  0.00    -0.206 F 
ATOM     68  C   UNL A   1      49.204  28.047  28.502  1.00  0.00     0.022 A 
BRANCH  65  69
ATOM     69  S   UNL A   1      49.059  27.995  25.716  1.00  0.00     0.124 S 
ATOM     70  O   UNL A   1      49.456  26.601  25.903  1.00  0.00    -0.237 OA
ATOM     71  O   UNL A   1      47.875  28.218  24.895  1.00  0.00    -0.237 OA
ATOM     72  O   UNL A   1      50.163  28.924  25.487  1.00  0.00    -0.744 OA
ENDBRANCH  65  69
ENDBRANCH  48  62
BRANCH  49  73
ATOM     73  C   UNL A   1      37.157  32.186  30.170  1.00  0.00     0.023 A 
ATOM     74  C   UNL A   1      36.406  32.848  29.187  1.00  0.00     0.031 A 
ATOM     75  C   UNL A   1      36.558  31.971  31.424  1.00  0.00     0.131 A 
ATOM     76  C   UNL A   1      35.117  33.316  29.485  1.00  0.00     0.055 A 
ATOM     77  C   UNL A   1      35.257  32.395  31.702  1.00  0.00     0.041 A 
ATOM     78  F   UNL A   1      37.228  31.333  32.397  1.00  0.00    -0.206 F 
ATOM     79  C   UNL A   1      34.534  33.083  30.733  1.00  0.00     0.022 A 
BRANCH  76  80
ATOM     80  S   UNL A   1      34.241  34.305  28.242  1.00  0.00     0.124 S 
ATOM     81  O   UNL A   1      33.109  33.444  27.921  1.00  0.00    -0.237 OA
ATOM     82  O   UNL A   1      33.933  35.521  28.986  1.00  0.00    -0.237 OA
ATOM     83  O   UNL A   1      35.229  34.462  27.176  1.00  0.00    -0.744 OA
ENDBRANCH  76  80
ENDBRANCH  49  73
BRANCH  61  84
ATOM     84  C   UNL A   1      43.346  35.332  30.824  1.00  0.00     0.023 A 
ATOM     85  C   UNL A   1      43.526  35.718  32.163  1.00  0.00     0.031 A 
ATOM     86  C   UNL A   1      43.521  36.304  29.824  1.00  0.00     0.131 A 
ATOM     87  C   UNL A   1      43.816  37.056  32.470  1.00  0.00     0.055 A 
ATOM     88  C   UNL A   1      43.868  37.620  30.132  1.00  0.00     0.041 A 
ATOM     89  F   UNL A   1      43.362  35.990  28.529  1.00  0.00    -0.206 F 
ATOM     90  C   UNL A   1      44.004  38.006  31.463  1.00  0.00     0.022 A 
BRANCH  87  91
ATOM     91  S   UNL A   1      43.856  37.561  34.213  1.00  0.00     0.124 S 
ATOM     92  O   UNL A   1      43.768  36.277  34.903  1.00  0.00    -0.237 OA
ATOM     93  O   UNL A   1      45.139  38.249  34.309  1.00  0.00    -0.237 OA
ATOM     94  O   UNL A   1      42.681  38.419  34.348  1.00  0.00    -0.744 OA
ENDBRANCH  87  91
ENDBRANCH  61  84
ENDBRANCH  35  36
ENDBRANCH  27  30
ENDBRANCH  25  26
ENDBRANCH  24  25
ENDBRANCH  23  24
ENDBRANCH   1  23
TORSDOF 20
ENDMDL
MODEL 2
REMARK VINA RESULT:     -11.0      4.912      7.839
REMARK SMILES CCOC[C@@H](O)C[C@]1(C(=O)NCCCCNC(=O)c2ccc(-c3c4nc(c(-c5cc(S(=O)(=O)[O-])ccc5F)c5ccc([nH]5)c(-c5cc(S(=O)(=O)[O-])ccc5F)c5nc(c(-c6cc(S(=O)(=O)[O-])ccc6F)c6ccc3[nH]6)C=C5)C=C4)cc2)CCc2ccccc21
REMARK SMILES IDX 12 1 11 2 9 3 10 4 8 6 82 7 89 8 83 9 84 10 88 11 85 12
REMARK SMILES IDX 87 13 86 14 7 15 5 16 4 17 3 18 2 19 1 20 6 21 13 23 14 24
REMARK SMILES IDX 15 25 16 26 17 27 18 29 19 30 20 31 81 32 21 33 80 34 22 35
REMARK SMILES IDX 23 36 24 37 74 38 25 39 79 40 73 41 75 42 26 43 78 44 72 45
REMARK SMILES IDX 71 46 27 48 59 49 39 50 58 51 40 52 43 53 57 54 76 55 41 56
REMARK SMILES IDX 42 57 56 59 77 60 44 61 28 62 29 63 37 64 30 65 36 66 38 67
REMARK SMILES IDX 35 68 31 69 32 70 33 71 34 72 60 73 61 74 69 75 62 76 68 77
REMARK SMILES IDX 70 78 67 79 63 80 64 81 65 82 66 83 45 84 46 85 54 86 47 87
REMARK SMILES IDX 53 88 55 89 52 90 48 91 49 92 50 93 51 94
REMARK H PARENT 11 5 6 22 16 28 75 47 43 58
REMARK Flexibility Score: inf
ROOT
ATOM      1  C   UNL A   1      30.766  26.173  26.069  1.00  0.00     0.116 C 
ENDROOT
BRANCH   1   2
ATOM      2  N   UNL A   1      31.291  25.124  26.914  1.00  0.00    -0.355 N 
ATOM      3  C   UNL A   1      31.866  23.928  26.634  1.00  0.00     0.230 C 
ATOM      4  O   UNL A   1      31.951  23.162  27.603  1.00  0.00    -0.274 OA
ATOM      5  H   UNL A   1      31.217  25.314  27.877  1.00  0.00     0.163 HD
BRANCH   3   6
ATOM      6  C   UNL A   1      32.332  23.472  25.232  1.00  0.00     0.077 C 
ATOM      7  C   UNL A   1      31.112  22.817  24.494  1.00  0.00     0.026 C 
ATOM      8  C   UNL A   1      32.744  24.553  24.253  1.00  0.00    -0.029 A 
ATOM      9  C   UNL A   1      30.724  23.679  23.289  1.00  0.00     0.037 C 
ATOM     10  C   UNL A   1      31.876  24.615  23.154  1.00  0.00    -0.044 A 
ATOM     11  C   UNL A   1      33.795  25.459  24.342  1.00  0.00     0.005 A 
ATOM     12  C   UNL A   1      32.046  25.554  22.143  1.00  0.00     0.004 A 
ATOM     13  C   UNL A   1      33.987  26.393  23.318  1.00  0.00     0.000 A 
ATOM     14  C   UNL A   1      33.118  26.440  22.225  1.00  0.00     0.000 A 
BRANCH   6  15
ATOM     15  C   UNL A   1      33.423  22.362  25.380  1.00  0.00     0.056 C 
BRANCH  15  16
ATOM     16  C   UNL A   1      33.012  20.888  25.566  1.00  0.00     0.141 C 
BRANCH  16  17
ATOM     17  C   UNL A   1      33.633  19.869  24.596  1.00  0.00     0.191 C 
BRANCH  17  18
ATOM     18  O   UNL A   1      32.646  19.127  23.865  1.00  0.00    -0.379 OA
BRANCH  18  19
ATOM     19  C   UNL A   1      32.596  17.724  24.085  1.00  0.00     0.157 C 
ATOM     20  C   UNL A   1      33.769  16.959  23.502  1.00  0.00     0.035 C 
ENDBRANCH  18  19
ENDBRANCH  17  18
ENDBRANCH  16  17
BRANCH  16  21
ATOM     21  O   UNL A   1      33.396  20.557  26.916  1.00  0.00    -0.391 OA
ATOM     22  H   UNL A   1      32.603  20.459  27.463  1.00  0.00     0.211 HD
ENDBRANCH  16  21
ENDBRANCH  15  16
ENDBRANCH   6  15
ENDBRANCH   3   6
ENDBRANCH   1   2
BRANCH   1  23
ATOM     23  C   UNL A   1      31.407  27.515  26.419  1.00  0.00     0.023 C 
BRANCH  23  24
ATOM     24  C   UNL A   1      31.596  28.451  25.222  1.00  0.00     0.023 C 
BRANCH  24  25
ATOM     25  C   UNL A   1      32.671  29.517  25.404  1.00  0.00     0.116 C 
BRANCH  25  26
ATOM     26  N   UNL A   1      32.146  30.781  25.896  1.00  0.00    -0.352 N 
ATOM     27  C   UNL A   1      32.659  31.593  26.880  1.00  0.00     0.251 C 
ATOM     28  H   UNL A   1      31.317  31.096  25.468  1.00  0.00     0.163 HD
ATOM     29  O   UNL A   1      32.031  32.572  27.257  1.00  0.00    -0.269 OA
BRANCH  27  30
ATOM     30  C   UNL A   1      33.951  31.234  27.499  1.00  0.00     0.039 A 
ATOM     31  C   UNL A   1      34.831  32.257  27.856  1.00  0.00     0.014 A 
ATOM     32  C   UNL A   1      34.267  29.899  27.766  1.00  0.00     0.014 A 
ATOM     33  C   UNL A   1      36.006  31.943  28.541  1.00  0.00     0.010 A 
ATOM     34  C   UNL A   1      35.401  29.596  28.511  1.00  0.00     0.010 A 
ATOM     35  C   UNL A   1      36.282  30.614  28.905  1.00  0.00    -0.014 A 
BRANCH  35  36
ATOM     36  C   UNL A   1      37.495  30.275  29.692  1.00  0.00     0.031 A 
ATOM     37  C   UNL A   1      38.542  29.371  29.103  1.00  0.00     0.074 A 
ATOM     38  C   UNL A   1      37.618  30.731  30.953  1.00  0.00     0.049 A 
ATOM     39  N   UNL A   1      39.645  28.921  29.644  1.00  0.00    -0.248 NA
ATOM     40  C   UNL A   1      38.299  28.883  27.738  1.00  0.00     0.031 C 
ATOM     41  C   UNL A   1      36.636  31.567  31.649  1.00  0.00     0.029 A 
ATOM     42  N   UNL A   1      38.615  30.555  31.879  1.00  0.00    -0.354 N 
ATOM     43  C   UNL A   1      40.219  28.086  28.692  1.00  0.00     0.074 A 
ATOM     44  C   UNL A   1      39.307  28.042  27.568  1.00  0.00     0.031 C 
ATOM     45  C   UNL A   1      37.092  31.851  32.879  1.00  0.00     0.029 A 
ATOM     46  C   UNL A   1      38.380  31.191  33.074  1.00  0.00     0.049 A 
ATOM     47  H   UNL A   1      39.424  30.022  31.702  1.00  0.00     0.167 HD
ATOM     48  C   UNL A   1      41.410  27.437  28.740  1.00  0.00     0.034 A 
ATOM     49  C   UNL A   1      39.116  31.235  34.201  1.00  0.00     0.034 A 
ATOM     50  C   UNL A   1      42.312  27.508  29.862  1.00  0.00     0.049 A 
ATOM     51  C   UNL A   1      40.441  30.515  34.231  1.00  0.00     0.074 A 
ATOM     52  C   UNL A   1      43.568  26.942  29.998  1.00  0.00     0.029 A 
ATOM     53  N   UNL A   1      42.051  28.182  31.050  1.00  0.00    -0.354 N 
ATOM     54  N   UNL A   1      41.002  29.781  33.297  1.00  0.00    -0.248 NA
ATOM     55  C   UNL A   1      41.238  30.643  35.456  1.00  0.00     0.031 C 
ATOM     56  C   UNL A   1      44.040  27.223  31.286  1.00  0.00     0.029 A 
ATOM     57  C   UNL A   1      43.111  28.026  31.929  1.00  0.00     0.049 A 
ATOM     58  H   UNL A   1      41.233  28.695  31.238  1.00  0.00     0.167 HD
ATOM     59  C   UNL A   1      42.234  29.388  33.812  1.00  0.00     0.074 A 
ATOM     60  C   UNL A   1      42.337  29.978  35.131  1.00  0.00     0.031 C 
ATOM     61  C   UNL A   1      43.195  28.616  33.245  1.00  0.00     0.034 A 
BRANCH  48  62
ATOM     62  C   UNL A   1      41.783  26.585  27.549  1.00  0.00     0.023 A 
ATOM     63  C   UNL A   1      41.466  25.215  27.493  1.00  0.00     0.031 A 
ATOM     64  C   UNL A   1      42.497  27.138  26.472  1.00  0.00     0.131 A 
ATOM     65  C   UNL A   1      41.934  24.429  26.430  1.00  0.00     0.055 A 
ATOM     66  C   UNL A   1      42.885  26.366  25.373  1.00  0.00     0.041 A 
ATOM     67  F   UNL A   1      42.846  28.433  26.475  1.00  0.00    -0.206 F 
ATOM     68  C   UNL A   1      42.620  25.001  25.357  1.00  0.00     0.022 A 
BRANCH  65  69
ATOM     69  S   UNL A   1      41.767  22.627  26.548  1.00  0.00     0.124 S 
ATOM     70  O   UNL A   1      42.619  22.328  27.698  1.00  0.00    -0.237 OA
ATOM     71  O   UNL A   1      40.334  22.455  26.754  1.00  0.00    -0.237 OA
ATOM     72  O   UNL A   1      42.276  22.150  25.265  1.00  0.00    -0.744 OA
ENDBRANCH  65  69
ENDBRANCH  48  62
BRANCH  49  73
ATOM     73  C   UNL A   1      38.632  31.989  35.393  1.00  0.00     0.023 A 
ATOM     74  C   UNL A   1      38.138  31.319  36.523  1.00  0.00     0.031 A 
ATOM     75  C   UNL A   1      38.627  33.395  35.404  1.00  0.00     0.131 A 
ATOM     76  C   UNL A   1      37.616  32.052  37.599  1.00  0.00     0.055 A 
ATOM     77  C   UNL A   1      38.151  34.121  36.498  1.00  0.00     0.041 A 
ATOM     78  F   UNL A   1      39.097  34.085  34.353  1.00  0.00    -0.206 F 
ATOM     79  C   UNL A   1      37.630  33.449  37.599  1.00  0.00     0.022 A 
BRANCH  76  80
ATOM     80  S   UNL A   1      36.844  31.151  38.971  1.00  0.00     0.124 S 
ATOM     81  O   UNL A   1      37.828  31.326  40.033  1.00  0.00    -0.237 OA
ATOM     82  O   UNL A   1      35.586  31.872  39.136  1.00  0.00    -0.237 OA
ATOM     83  O   UNL A   1      36.717  29.790  38.455  1.00  0.00    -0.744 OA
ENDBRANCH  76  80
ENDBRANCH  49  73
BRANCH  61  84
ATOM     84  C   UNL A   1      44.463  28.411  34.037  1.00  0.00     0.023 A 
ATOM     85  C   UNL A   1      44.560  27.435  35.043  1.00  0.00     0.031 A 
ATOM     86  C   UNL A   1      45.587  29.217  33.786  1.00  0.00     0.131 A 
ATOM     87  C   UNL A   1      45.737  27.326  35.798  1.00  0.00     0.055 A 
ATOM     88  C   UNL A   1      46.775  29.065  34.501  1.00  0.00     0.041 A 
ATOM     89  F   UNL A   1      45.549  30.166  32.836  1.00  0.00    -0.206 F 
ATOM     90  C   UNL A   1      46.850  28.123  35.523  1.00  0.00     0.022 A 
BRANCH  87  91
ATOM     91  S   UNL A   1      45.764  26.186  37.210  1.00  0.00     0.124 S 
ATOM     92  O   UNL A   1      47.187  26.134  37.532  1.00  0.00    -0.237 OA
ATOM     93  O   UNL A   1      44.915  26.870  38.180  1.00  0.00    -0.237 OA
ATOM     94  O   UNL A   1      45.208  24.950  36.662  1.00  0.00    -0.744 OA
ENDBRANCH  87  91
ENDBRANCH  61  84
ENDBRANCH  35  36
ENDBRANCH  27  30
ENDBRANCH  25  26
ENDBRANCH  24  25
ENDBRANCH  23  24
ENDBRANCH   1  23
TORSDOF 20
ENDMDL
MODEL 3
REMARK VINA RESULT:     -10.8      4.508      9.659
REMARK SMILES CCOC[C@@H](O)C[C@]1(C(=O)NCCCCNC(=O)c2ccc(-c3c4nc(c(-c5cc(S(=O)(=O)[O-])ccc5F)c5ccc([nH]5)c(-c5cc(S(=O)(=O)[O-])ccc5F)c5nc(c(-c6cc(S(=O)(=O)[O-])ccc6F)c6ccc3[nH]6)C=C5)C=C4)cc2)CCc2ccccc21
REMARK SMILES IDX 12 1 11 2 9 3 10 4 8 6 82 7 89 8 83 9 84 10 88 11 85 12
REMARK SMILES IDX 87 13 86 14 7 15 5 16 4 17 3 18 2 19 1 20 6 21 13 23 14 24
REMARK SMILES IDX 15 25 16 26 17 27 18 29 19 30 20 31 81 32 21 33 80 34 22 35
REMARK SMILES IDX 23 36 24 37 74 38 25 39 79 40 73 41 75 42 26 43 78 44 72 45
REMARK SMILES IDX 71 46 27 48 59 49 39 50 58 51 40 52 43 53 57 54 76 55 41 56
REMARK SMILES IDX 42 57 56 59 77 60 44 61 28 62 29 63 37 64 30 65 36 66 38 67
REMARK SMILES IDX 35 68 31 69 32 70 33 71 34 72 60 73 61 74 69 75 62 76 68 77
REMARK SMILES IDX 70 78 67 79 63 80 64 81 65 82 66 83 45 84 46 85 54 86 47 87
REMARK SMILES IDX 53 88 55 89 52 90 48 91 49 92 50 93 51 94
REMARK H PARENT 11 5 6 22 16 28 75 47 43 58
REMARK Flexibility Score: inf
ROOT
ATOM      1  C   UNL A   1      30.883  26.303  26.049  1.00  0.00     0.116 C 
ENDROOT
BRANCH   1   2
ATOM      2  N   UNL A   1      31.391  25.248  26.898  1.00  0.00    -0.355 N 
ATOM      3  C   UNL A   1      31.937  24.038  26.623  1.00  0.00     0.230 C 
ATOM      4  O   UNL A   1      32.012  23.278  27.597  1.00  0.00    -0.274 OA
ATOM      5  H   UNL A   1      31.329  25.447  27.860  1.00  0.00     0.163 HD
BRANCH   3   6
ATOM      6  C   UNL A   1      32.381  23.560  25.222  1.00  0.00     0.077 C 
ATOM      7  C   UNL A   1      31.152  22.890  24.513  1.00  0.00     0.026 C 
ATOM      8  C   UNL A   1      32.774  24.627  24.219  1.00  0.00    -0.029 A 
ATOM      9  C   UNL A   1      30.741  23.732  23.301  1.00  0.00     0.037 C 
ATOM     10  C   UNL A   1      31.889  24.669  23.133  1.00  0.00    -0.044 A 
ATOM     11  C   UNL A   1      33.824  25.538  24.276  1.00  0.00     0.005 A 
ATOM     12  C   UNL A   1      32.039  25.592  22.105  1.00  0.00     0.004 A 
ATOM     13  C   UNL A   1      33.997  26.455  23.234  1.00  0.00     0.000 A 
ATOM     14  C   UNL A   1      33.110  26.482  22.155  1.00  0.00     0.000 A 
BRANCH   6  15
ATOM     15  C   UNL A   1      33.478  22.456  25.369  1.00  0.00     0.056 C 
BRANCH  15  16
ATOM     16  C   UNL A   1      33.089  20.965  25.334  1.00  0.00     0.141 C 
BRANCH  16  17
ATOM     17  C   UNL A   1      34.075  20.009  24.642  1.00  0.00     0.191 C 
BRANCH  17  18
ATOM     18  O   UNL A   1      33.700  18.631  24.778  1.00  0.00    -0.379 OA
BRANCH  18  19
ATOM     19  C   UNL A   1      32.449  18.242  24.227  1.00  0.00     0.157 C 
ATOM     20  C   UNL A   1      32.406  18.254  22.711  1.00  0.00     0.035 C 
ENDBRANCH  18  19
ENDBRANCH  17  18
ENDBRANCH  16  17
BRANCH  16  21
ATOM     21  O   UNL A   1      32.942  20.580  26.715  1.00  0.00    -0.391 OA
ATOM     22  H   UNL A   1      32.926  21.373  27.272  1.00  0.00     0.211 HD
ENDBRANCH  16  21
ENDBRANCH  15  16
ENDBRANCH   6  15
ENDBRANCH   3   6
ENDBRANCH   1   2
BRANCH   1  23
ATOM     23  C   UNL A   1      31.476  27.651  26.454  1.00  0.00     0.023 C 
BRANCH  23  24
ATOM     24  C   UNL A   1      31.914  28.523  25.274  1.00  0.00     0.023 C 
BRANCH  24  25
ATOM     25  C   UNL A   1      33.061  29.482  25.577  1.00  0.00     0.116 C 
BRANCH  25  26
ATOM     26  N   UNL A   1      32.613  30.758  26.113  1.00  0.00    -0.352 N 
ATOM     27  C   UNL A   1      33.194  31.519  27.101  1.00  0.00     0.251 C 
ATOM     28  H   UNL A   1      31.789  31.123  25.719  1.00  0.00     0.163 HD
ATOM     29  O   UNL A   1      32.627  32.518  27.519  1.00  0.00    -0.269 OA
BRANCH  27  30
ATOM     30  C   UNL A   1      34.485  31.082  27.672  1.00  0.00     0.039 A 
ATOM     31  C   UNL A   1      35.489  32.032  27.865  1.00  0.00     0.014 A 
ATOM     32  C   UNL A   1      34.680  29.753  28.056  1.00  0.00     0.014 A 
ATOM     33  C   UNL A   1      36.671  31.659  28.505  1.00  0.00     0.010 A 
ATOM     34  C   UNL A   1      35.828  29.400  28.756  1.00  0.00     0.010 A 
ATOM     35  C   UNL A   1      36.836  30.348  28.987  1.00  0.00    -0.014 A 
BRANCH  35  36
ATOM     36  C   UNL A   1      38.061  29.956  29.728  1.00  0.00     0.031 A 
ATOM     37  C   UNL A   1      38.304  30.491  31.111  1.00  0.00     0.074 A 
ATOM     38  C   UNL A   1      38.976  29.170  29.129  1.00  0.00     0.049 A 
ATOM     39  N   UNL A   1      39.330  30.305  31.902  1.00  0.00    -0.248 NA
ATOM     40  C   UNL A   1      37.272  31.380  31.665  1.00  0.00     0.031 C 
ATOM     41  C   UNL A   1      38.874  28.640  27.767  1.00  0.00     0.029 A 
ATOM     42  N   UNL A   1      40.176  28.682  29.583  1.00  0.00    -0.354 N 
ATOM     43  C   UNL A   1      39.074  31.065  33.038  1.00  0.00     0.074 A 
ATOM     44  C   UNL A   1      37.829  31.764  32.803  1.00  0.00     0.031 C 
ATOM     45  C   UNL A   1      39.951  27.881  27.508  1.00  0.00     0.029 A 
ATOM     46  C   UNL A   1      40.837  27.898  28.668  1.00  0.00     0.049 A 
ATOM     47  H   UNL A   1      40.530  28.877  30.481  1.00  0.00     0.167 HD
ATOM     48  C   UNL A   1      39.798  31.149  34.183  1.00  0.00     0.034 A 
ATOM     49  C   UNL A   1      42.024  27.267  28.753  1.00  0.00     0.034 A 
ATOM     50  C   UNL A   1      41.028  30.430  34.404  1.00  0.00     0.049 A 
ATOM     51  C   UNL A   1      42.808  27.367  30.037  1.00  0.00     0.074 A 
ATOM     52  C   UNL A   1      41.814  30.393  35.543  1.00  0.00     0.029 A 
ATOM     53  N   UNL A   1      41.658  29.625  33.462  1.00  0.00    -0.354 N 
ATOM     54  N   UNL A   1      42.521  28.038  31.129  1.00  0.00    -0.248 NA
ATOM     55  C   UNL A   1      44.064  26.610  30.107  1.00  0.00     0.031 C 
ATOM     56  C   UNL A   1      42.946  29.615  35.270  1.00  0.00     0.029 A 
ATOM     57  C   UNL A   1      42.832  29.106  33.986  1.00  0.00     0.049 A 
ATOM     58  H   UNL A   1      41.318  29.448  32.555  1.00  0.00     0.167 HD
ATOM     59  C   UNL A   1      43.547  27.756  32.027  1.00  0.00     0.074 A 
ATOM     60  C   UNL A   1      44.449  26.846  31.353  1.00  0.00     0.031 C 
ATOM     61  C   UNL A   1      43.724  28.205  33.296  1.00  0.00     0.034 A 
BRANCH  48  62
ATOM     62  C   UNL A   1      39.278  32.067  35.264  1.00  0.00     0.023 A 
ATOM     63  C   UNL A   1      39.702  33.405  35.364  1.00  0.00     0.031 A 
ATOM     64  C   UNL A   1      38.376  31.591  36.232  1.00  0.00     0.131 A 
ATOM     65  C   UNL A   1      39.294  34.192  36.451  1.00  0.00     0.055 A 
ATOM     66  C   UNL A   1      37.905  32.407  37.264  1.00  0.00     0.041 A 
ATOM     67  F   UNL A   1      37.949  30.319  36.202  1.00  0.00    -0.206 F 
ATOM     68  C   UNL A   1      38.378  33.710  37.388  1.00  0.00     0.022 A 
BRANCH  65  69
ATOM     69  S   UNL A   1      40.097  35.799  36.706  1.00  0.00     0.124 S 
ATOM     70  O   UNL A   1      39.620  36.552  35.547  1.00  0.00    -0.237 OA
ATOM     71  O   UNL A   1      39.568  36.214  37.999  1.00  0.00    -0.237 OA
ATOM     72  O   UNL A   1      41.522  35.477  36.686  1.00  0.00    -0.744 OA
ENDBRANCH  65  69
ENDBRANCH  48  62
BRANCH  49  73
ATOM     73  C   UNL A   1      42.546  26.479  27.600  1.00  0.00     0.023 A 
ATOM     74  C   UNL A   1      42.262  25.111  27.470  1.00  0.00     0.031 A 
ATOM     75  C   UNL A   1      43.365  27.078  26.627  1.00  0.00     0.131 A 
ATOM     76  C   UNL A   1      42.829  24.374  26.419  1.00  0.00     0.055 A 
ATOM     77  C   UNL A   1      43.888  26.352  25.554  1.00  0.00     0.041 A 
ATOM     78  F   UNL A   1      43.660  28.386  26.698  1.00  0.00    -0.206 F 
ATOM     79  C   UNL A   1      43.631  24.988  25.454  1.00  0.00     0.022 A 
BRANCH  76  80
ATOM     80  S   UNL A   1      42.567  22.580  26.375  1.00  0.00     0.124 S 
ATOM     81  O   UNL A   1      41.147  22.494  26.052  1.00  0.00    -0.237 OA
ATOM     82  O   UNL A   1      43.490  22.166  25.323  1.00  0.00    -0.237 OA
ATOM     83  O   UNL A   1      42.928  22.151  27.724  1.00  0.00    -0.744 OA
ENDBRANCH  76  80
ENDBRANCH  49  73
BRANCH  61  84
ATOM     84  C   UNL A   1      44.917  27.670  34.049  1.00  0.00     0.023 A 
ATOM     85  C   UNL A   1      44.848  26.488  34.806  1.00  0.00     0.031 A 
ATOM     86  C   UNL A   1      46.139  28.365  34.016  1.00  0.00     0.131 A 
ATOM     87  C   UNL A   1      45.963  26.066  35.544  1.00  0.00     0.055 A 
ATOM     88  C   UNL A   1      47.263  27.908  34.705  1.00  0.00     0.041 A 
ATOM     89  F   UNL A   1      46.261  29.500  33.309  1.00  0.00    -0.206 F 
ATOM     90  C   UNL A   1      47.175  26.759  35.486  1.00  0.00     0.022 A 
BRANCH  87  91
ATOM     91  S   UNL A   1      45.784  24.643  36.656  1.00  0.00     0.124 S 
ATOM     92  O   UNL A   1      45.919  25.266  37.970  1.00  0.00    -0.237 OA
ATOM     93  O   UNL A   1      44.454  24.149  36.319  1.00  0.00    -0.237 OA
ATOM     94  O   UNL A   1      46.888  23.766  36.271  1.00  0.00    -0.744 OA
ENDBRANCH  87  91
ENDBRANCH  61  84
ENDBRANCH  35  36
ENDBRANCH  27  30
ENDBRANCH  25  26
ENDBRANCH  24  25
ENDBRANCH  23  24
ENDBRANCH   1  23
TORSDOF 20
ENDMDL
