MODEL 1
REMARK VINA RESULT:     -11.8      0.000      0.000
REMARK SMILES O=C(NCCCCNC(=O)c1cc(SC[C@H]2CCOC2)ccn1)c1ccc(-c2c3nc(c(-c4cc(S(=O)(=O)[O-])ccc4F)c4ccc([nH]4)c(-c4cc(S(=O)(=O)[O-])ccc4F)c4nc(c(-c5cc(S(=O)(=O)[O-])ccc5F)c5ccc2[nH]5)C=C4)C=C3)cc1
REMARK SMILES IDX 5 1 4 2 3 3 1 4 2 5 24 7 25 8 86 9 26 10 85 11 27 12 28 13
REMARK SMILES IDX 29 14 79 15 30 16 84 17 78 18 80 19 31 20 83 21 77 22 76 23
REMARK SMILES IDX 32 25 64 26 44 27 63 28 45 29 48 30 62 31 81 32 46 33 47 34
REMARK SMILES IDX 61 36 82 37 49 38 33 39 34 40 42 41 35 42 41 43 43 44 40 45
REMARK SMILES IDX 36 46 37 47 38 48 39 49 65 50 66 51 74 52 67 53 73 54 75 55
REMARK SMILES IDX 72 56 68 57 69 58 70 59 71 60 50 61 51 62 59 63 52 64 58 65
REMARK SMILES IDX 60 66 57 67 53 68 54 69 55 70 56 71 6 72 7 73 8 74 9 75
REMARK SMILES IDX 10 77 11 78 12 79 23 80 13 81 22 82 21 83 14 84 15 85 16 86
REMARK SMILES IDX 17 87 20 88 18 89 19 90
REMARK H PARENT 3 6 80 24 48 35 8 76
REMARK Flexibility Score: inf
ROOT
ATOM      1  C   UNL A   1      35.153  22.520  26.162  1.00  0.00     0.023 C 
ENDROOT
BRANCH   1   2
ATOM      2  C   UNL A   1      36.380  22.646  25.270  1.00  0.00     0.116 C 
BRANCH   2   3
ATOM      3  N   UNL A   1      37.262  21.486  25.304  1.00  0.00    -0.352 N 
ATOM      4  O   UNL A   1      39.184  20.355  25.688  1.00  0.00    -0.269 OA
ATOM      5  C   UNL A   1      38.552  21.403  25.783  1.00  0.00     0.251 C 
ATOM      6  H   UNL A   1      36.888  20.653  24.936  1.00  0.00     0.163 HD
BRANCH   5   7
ATOM      7  C   UNL A   1      39.184  22.601  26.383  1.00  0.00     0.039 A 
ATOM      8  C   UNL A   1      38.757  23.880  26.025  1.00  0.00     0.014 A 
ATOM      9  C   UNL A   1      40.249  22.443  27.276  1.00  0.00     0.014 A 
ATOM     10  C   UNL A   1      39.500  24.987  26.415  1.00  0.00     0.010 A 
ATOM     11  C   UNL A   1      40.938  23.569  27.744  1.00  0.00     0.010 A 
ATOM     12  C   UNL A   1      40.597  24.849  27.284  1.00  0.00    -0.014 A 
BRANCH  12  13
ATOM     13  C   UNL A   1      41.330  26.073  27.708  1.00  0.00     0.031 A 
ATOM     14  C   UNL A   1      42.721  26.370  27.210  1.00  0.00     0.074 A 
ATOM     15  C   UNL A   1      40.691  26.959  28.498  1.00  0.00     0.049 A 
ATOM     16  N   UNL A   1      43.465  27.426  27.428  1.00  0.00    -0.248 NA
ATOM     17  C   UNL A   1      43.363  25.349  26.371  1.00  0.00     0.031 C 
ATOM     18  C   UNL A   1      39.349  26.769  29.056  1.00  0.00     0.029 A 
ATOM     19  N   UNL A   1      41.060  28.203  28.940  1.00  0.00    -0.354 N 
ATOM     20  C   UNL A   1      44.664  27.197  26.761  1.00  0.00     0.074 A 
ATOM     21  C   UNL A   1      44.560  25.882  26.162  1.00  0.00     0.031 C 
ATOM     22  C   UNL A   1      38.985  27.879  29.712  1.00  0.00     0.029 A 
ATOM     23  C   UNL A   1      40.085  28.834  29.679  1.00  0.00     0.049 A 
ATOM     24  H   UNL A   1      41.936  28.607  28.747  1.00  0.00     0.167 HD
ATOM     25  C   UNL A   1      45.745  28.012  26.650  1.00  0.00     0.034 A 
ATOM     26  C   UNL A   1      40.078  30.042  30.274  1.00  0.00     0.034 A 
ATOM     27  C   UNL A   1      45.833  29.321  27.253  1.00  0.00     0.049 A 
ATOM     28  C   UNL A   1      41.287  30.924  30.133  1.00  0.00     0.074 A 
ATOM     29  C   UNL A   1      46.881  30.227  27.205  1.00  0.00     0.029 A 
ATOM     30  N   UNL A   1      44.837  29.917  28.017  1.00  0.00    -0.354 N 
ATOM     31  N   UNL A   1      42.410  30.687  29.497  1.00  0.00    -0.248 NA
ATOM     32  C   UNL A   1      41.223  32.239  30.782  1.00  0.00     0.031 C 
ATOM     33  C   UNL A   1      46.539  31.343  27.979  1.00  0.00     0.029 A 
ATOM     34  C   UNL A   1      45.251  31.166  28.458  1.00  0.00     0.049 A 
ATOM     35  H   UNL A   1      43.961  29.512  28.216  1.00  0.00     0.167 HD
ATOM     36  C   UNL A   1      43.188  31.826  29.669  1.00  0.00     0.074 A 
ATOM     37  C   UNL A   1      42.388  32.763  30.433  1.00  0.00     0.031 C 
ATOM     38  C   UNL A   1      44.453  32.075  29.244  1.00  0.00     0.034 A 
BRANCH  25  39
ATOM     39  C   UNL A   1      46.933  27.491  25.875  1.00  0.00     0.023 A 
ATOM     40  C   UNL A   1      47.166  27.863  24.539  1.00  0.00     0.031 A 
ATOM     41  C   UNL A   1      47.843  26.604  26.478  1.00  0.00     0.131 A 
ATOM     42  C   UNL A   1      48.246  27.310  23.835  1.00  0.00     0.055 A 
ATOM     43  C   UNL A   1      48.956  26.110  25.793  1.00  0.00     0.041 A 
ATOM     44  F   UNL A   1      47.663  26.198  27.744  1.00  0.00    -0.206 F 
ATOM     45  C   UNL A   1      49.155  26.453  24.460  1.00  0.00     0.022 A 
BRANCH  42  46
ATOM     46  S   UNL A   1      48.381  27.632  22.054  1.00  0.00     0.124 S 
ATOM     47  O   UNL A   1      48.645  26.294  21.531  1.00  0.00    -0.237 OA
ATOM     48  O   UNL A   1      47.074  28.196  21.737  1.00  0.00    -0.237 OA
ATOM     49  O   UNL A   1      49.503  28.563  21.958  1.00  0.00    -0.744 OA
ENDBRANCH  42  46
ENDBRANCH  25  39
BRANCH  26  50
ATOM     50  C   UNL A   1      38.902  30.468  31.083  1.00  0.00     0.023 A 
ATOM     51  C   UNL A   1      37.906  31.297  30.543  1.00  0.00     0.031 A 
ATOM     52  C   UNL A   1      38.772  30.066  32.424  1.00  0.00     0.131 A 
ATOM     53  C   UNL A   1      36.843  31.727  31.354  1.00  0.00     0.055 A 
ATOM     54  C   UNL A   1      37.686  30.452  33.210  1.00  0.00     0.041 A 
ATOM     55  F   UNL A   1      39.694  29.267  32.985  1.00  0.00    -0.206 F 
ATOM     56  C   UNL A   1      36.720  31.300  32.678  1.00  0.00     0.022 A 
BRANCH  53  57
ATOM     57  S   UNL A   1      35.663  32.926  30.675  1.00  0.00     0.124 S 
ATOM     58  O   UNL A   1      36.132  34.175  31.263  1.00  0.00    -0.237 OA
ATOM     59  O   UNL A   1      35.873  32.774  29.239  1.00  0.00    -0.237 OA
ATOM     60  O   UNL A   1      34.373  32.448  31.169  1.00  0.00    -0.744 OA
ENDBRANCH  53  57
ENDBRANCH  26  50
BRANCH  38  61
ATOM     61  C   UNL A   1      45.025  33.425  29.597  1.00  0.00     0.023 A 
ATOM     62  C   UNL A   1      44.968  34.502  28.696  1.00  0.00     0.031 A 
ATOM     63  C   UNL A   1      45.679  33.621  30.826  1.00  0.00     0.131 A 
ATOM     64  C   UNL A   1      45.615  35.708  29.005  1.00  0.00     0.055 A 
ATOM     65  C   UNL A   1      46.271  34.843  31.153  1.00  0.00     0.041 A 
ATOM     66  F   UNL A   1      45.765  32.626  31.722  1.00  0.00    -0.206 F 
ATOM     67  C   UNL A   1      46.255  35.889  30.233  1.00  0.00     0.022 A 
BRANCH  64  68
ATOM     68  S   UNL A   1      45.701  36.998  27.734  1.00  0.00     0.124 S 
ATOM     69  O   UNL A   1      46.029  36.228  26.539  1.00  0.00    -0.237 OA
ATOM     70  O   UNL A   1      44.358  37.568  27.777  1.00  0.00    -0.237 OA
ATOM     71  O   UNL A   1      46.764  37.881  28.213  1.00  0.00    -0.744 OA
ENDBRANCH  64  68
ENDBRANCH  38  61
ENDBRANCH  12  13
ENDBRANCH   5   7
ENDBRANCH   2   3
ENDBRANCH   1   2
BRANCH   1  72
ATOM     72  C   UNL A   1      34.323  23.787  26.331  1.00  0.00     0.023 C 
BRANCH  72  73
ATOM     73  C   UNL A   1      33.041  23.844  25.512  1.00  0.00     0.116 C 
BRANCH  73  74
ATOM     74  N   UNL A   1      31.838  23.510  26.256  1.00  0.00    -0.351 N 
ATOM     75  C   UNL A   1      30.765  24.328  26.553  1.00  0.00     0.269 C 
ATOM     76  H   UNL A   1      31.781  22.585  26.590  1.00  0.00     0.163 HD
ATOM     77  O   UNL A   1      29.787  23.891  27.151  1.00  0.00    -0.268 OA
BRANCH  75  78
ATOM     78  C   UNL A   1      30.810  25.749  26.116  1.00  0.00     0.129 A 
ATOM     79  C   UNL A   1      30.327  26.085  24.854  1.00  0.00     0.049 A 
ATOM     80  N   UNL A   1      31.461  26.603  26.942  1.00  0.00    -0.251 NA
ATOM     81  C   UNL A   1      30.621  27.350  24.364  1.00  0.00     0.011 A 
ATOM     82  C   UNL A   1      31.653  27.848  26.476  1.00  0.00     0.113 A 
ATOM     83  C   UNL A   1      31.274  28.255  25.207  1.00  0.00     0.035 A 
BRANCH  81  84
ATOM     84  S   UNL A   1      30.276  27.913  22.705  1.00  0.00    -0.126 SA
BRANCH  84  85
ATOM     85  C   UNL A   1      28.721  28.878  22.816  1.00  0.00     0.081 C 
BRANCH  85  86
ATOM     86  C   UNL A   1      28.793  30.398  22.668  1.00  0.00     0.027 C 
ATOM     87  C   UNL A   1      28.370  30.900  21.296  1.00  0.00     0.035 C 
ATOM     88  C   UNL A   1      27.908  31.252  23.553  1.00  0.00     0.164 C 
ATOM     89  C   UNL A   1      28.191  32.387  21.538  1.00  0.00     0.160 C 
ATOM     90  O   UNL A   1      27.912  32.552  22.939  1.00  0.00    -0.381 OA
ENDBRANCH  85  86
ENDBRANCH  84  85
ENDBRANCH  81  84
ENDBRANCH  75  78
ENDBRANCH  73  74
ENDBRANCH  72  73
ENDBRANCH   1  72
TORSDOF 17
ENDMDL
MODEL 2
REMARK VINA RESULT:     -11.8      5.490      8.329
REMARK SMILES O=C(NCCCCNC(=O)c1cc(SC[C@H]2CCOC2)ccn1)c1ccc(-c2c3nc(c(-c4cc(S(=O)(=O)[O-])ccc4F)c4ccc([nH]4)c(-c4cc(S(=O)(=O)[O-])ccc4F)c4nc(c(-c5cc(S(=O)(=O)[O-])ccc5F)c5ccc2[nH]5)C=C4)C=C3)cc1
REMARK SMILES IDX 5 1 4 2 3 3 1 4 2 5 24 7 25 8 86 9 26 10 85 11 27 12 28 13
REMARK SMILES IDX 29 14 79 15 30 16 84 17 78 18 80 19 31 20 83 21 77 22 76 23
REMARK SMILES IDX 32 25 64 26 44 27 63 28 45 29 48 30 62 31 81 32 46 33 47 34
REMARK SMILES IDX 61 36 82 37 49 38 33 39 34 40 42 41 35 42 41 43 43 44 40 45
REMARK SMILES IDX 36 46 37 47 38 48 39 49 65 50 66 51 74 52 67 53 73 54 75 55
REMARK SMILES IDX 72 56 68 57 69 58 70 59 71 60 50 61 51 62 59 63 52 64 58 65
REMARK SMILES IDX 60 66 57 67 53 68 54 69 55 70 56 71 6 72 7 73 8 74 9 75
REMARK SMILES IDX 10 77 11 78 12 79 23 80 13 81 22 82 21 83 14 84 15 85 16 86
REMARK SMILES IDX 17 87 20 88 18 89 19 90
REMARK H PARENT 3 6 80 24 48 35 8 76
REMARK Flexibility Score: inf
ROOT
ATOM      1  C   UNL A   1      31.783  31.583  27.172  1.00  0.00     0.023 C 
ENDROOT
BRANCH   1   2
ATOM      2  C   UNL A   1      33.047  32.430  27.215  1.00  0.00     0.116 C 
BRANCH   2   3
ATOM      3  N   UNL A   1      32.813  33.835  27.519  1.00  0.00    -0.352 N 
ATOM      4  O   UNL A   1      33.064  35.781  28.647  1.00  0.00    -0.269 OA
ATOM      5  C   UNL A   1      33.415  34.616  28.482  1.00  0.00     0.251 C 
ATOM      6  H   UNL A   1      32.137  34.286  26.964  1.00  0.00     0.163 HD
BRANCH   5   7
ATOM      7  C   UNL A   1      34.468  34.028  29.343  1.00  0.00     0.039 A 
ATOM      8  C   UNL A   1      35.813  34.315  29.109  1.00  0.00     0.014 A 
ATOM      9  C   UNL A   1      34.107  33.142  30.363  1.00  0.00     0.014 A 
ATOM     10  C   UNL A   1      36.795  33.587  29.769  1.00  0.00     0.010 A 
ATOM     11  C   UNL A   1      35.102  32.479  31.094  1.00  0.00     0.010 A 
ATOM     12  C   UNL A   1      36.456  32.664  30.774  1.00  0.00    -0.014 A 
BRANCH  12  13
ATOM     13  C   UNL A   1      37.550  31.945  31.483  1.00  0.00     0.031 A 
ATOM     14  C   UNL A   1      38.368  30.884  30.796  1.00  0.00     0.074 A 
ATOM     15  C   UNL A   1      37.846  32.317  32.744  1.00  0.00     0.049 A 
ATOM     16  N   UNL A   1      39.401  30.218  31.251  1.00  0.00    -0.248 NA
ATOM     17  C   UNL A   1      37.975  30.514  29.429  1.00  0.00     0.031 C 
ATOM     18  C   UNL A   1      37.109  33.321  33.517  1.00  0.00     0.029 A 
ATOM     19  N   UNL A   1      38.857  31.929  33.585  1.00  0.00    -0.354 N 
ATOM     20  C   UNL A   1      39.777  29.347  30.233  1.00  0.00     0.074 A 
ATOM     21  C   UNL A   1      38.835  29.544  29.151  1.00  0.00     0.031 C 
ATOM     22  C   UNL A   1      37.727  33.513  34.690  1.00  0.00     0.029 A 
ATOM     23  C   UNL A   1      38.863  32.605  34.784  1.00  0.00     0.049 A 
ATOM     24  H   UNL A   1      39.515  31.235  33.354  1.00  0.00     0.167 HD
ATOM     25  C   UNL A   1      40.816  28.473  30.202  1.00  0.00     0.034 A 
ATOM     26  C   UNL A   1      39.683  32.501  35.847  1.00  0.00     0.034 A 
ATOM     27  C   UNL A   1      41.747  28.287  31.291  1.00  0.00     0.049 A 
ATOM     28  C   UNL A   1      40.827  31.527  35.785  1.00  0.00     0.074 A 
ATOM     29  C   UNL A   1      42.832  27.428  31.365  1.00  0.00     0.029 A 
ATOM     30  N   UNL A   1      41.707  28.970  32.500  1.00  0.00    -0.354 N 
ATOM     31  N   UNL A   1      41.163  30.713  34.811  1.00  0.00    -0.248 NA
ATOM     32  C   UNL A   1      41.704  31.465  36.958  1.00  0.00     0.031 C 
ATOM     33  C   UNL A   1      43.413  27.556  32.633  1.00  0.00     0.029 A 
ATOM     34  C   UNL A   1      42.734  28.541  33.329  1.00  0.00     0.049 A 
ATOM     35  H   UNL A   1      41.045  29.661  32.735  1.00  0.00     0.167 HD
ATOM     36  C   UNL A   1      42.296  30.041  35.257  1.00  0.00     0.074 A 
ATOM     37  C   UNL A   1      42.606  30.576  36.568  1.00  0.00     0.031 C 
ATOM     38  C   UNL A   1      43.011  29.063  34.646  1.00  0.00     0.034 A 
BRANCH  25  39
ATOM     39  C   UNL A   1      40.976  27.625  28.962  1.00  0.00     0.023 A 
ATOM     40  C   UNL A   1      41.967  27.897  28.002  1.00  0.00     0.031 A 
ATOM     41  C   UNL A   1      40.121  26.531  28.732  1.00  0.00     0.131 A 
ATOM     42  C   UNL A   1      42.043  27.123  26.834  1.00  0.00     0.055 A 
ATOM     43  C   UNL A   1      40.247  25.722  27.599  1.00  0.00     0.041 A 
ATOM     44  F   UNL A   1      39.144  26.233  29.603  1.00  0.00    -0.206 F 
ATOM     45  C   UNL A   1      41.204  26.024  26.637  1.00  0.00     0.022 A 
BRANCH  42  46
ATOM     46  S   UNL A   1      43.177  27.645  25.517  1.00  0.00     0.124 S 
ATOM     47  O   UNL A   1      42.264  28.299  24.583  1.00  0.00    -0.237 OA
ATOM     48  O   UNL A   1      44.102  28.521  26.227  1.00  0.00    -0.237 OA
ATOM     49  O   UNL A   1      43.750  26.389  25.039  1.00  0.00    -0.744 OA
ENDBRANCH  42  46
ENDBRANCH  25  39
BRANCH  26  50
ATOM     50  C   UNL A   1      39.430  33.316  37.068  1.00  0.00     0.023 A 
ATOM     51  C   UNL A   1      40.086  34.539  37.279  1.00  0.00     0.031 A 
ATOM     52  C   UNL A   1      38.537  32.865  38.056  1.00  0.00     0.131 A 
ATOM     53  C   UNL A   1      39.867  35.250  38.469  1.00  0.00     0.055 A 
ATOM     54  C   UNL A   1      38.282  33.601  39.213  1.00  0.00     0.041 A 
ATOM     55  F   UNL A   1      37.879  31.705  37.898  1.00  0.00    -0.206 F 
ATOM     56  C   UNL A   1      38.960  34.796  39.430  1.00  0.00     0.022 A 
BRANCH  53  57
ATOM     57  S   UNL A   1      40.850  36.742  38.783  1.00  0.00     0.124 S 
ATOM     58  O   UNL A   1      41.659  36.332  39.926  1.00  0.00    -0.237 OA
ATOM     59  O   UNL A   1      41.561  36.904  37.520  1.00  0.00    -0.237 OA
ATOM     60  O   UNL A   1      39.840  37.759  39.066  1.00  0.00    -0.744 OA
ENDBRANCH  53  57
ENDBRANCH  26  50
BRANCH  38  61
ATOM     61  C   UNL A   1      44.202  28.531  35.402  1.00  0.00     0.023 A 
ATOM     62  C   UNL A   1      44.069  27.496  36.344  1.00  0.00     0.031 A 
ATOM     63  C   UNL A   1      45.474  29.100  35.216  1.00  0.00     0.131 A 
ATOM     64  C   UNL A   1      45.173  27.108  37.117  1.00  0.00     0.055 A 
ATOM     65  C   UNL A   1      46.583  28.669  35.947  1.00  0.00     0.041 A 
ATOM     66  F   UNL A   1      45.657  30.092  34.331  1.00  0.00    -0.206 F 
ATOM     67  C   UNL A   1      46.432  27.679  36.915  1.00  0.00     0.022 A 
BRANCH  64  68
ATOM     68  S   UNL A   1      44.917  25.923  38.465  1.00  0.00     0.124 S 
ATOM     69  O   UNL A   1      46.220  25.921  39.121  1.00  0.00    -0.237 OA
ATOM     70  O   UNL A   1      43.826  26.535  39.216  1.00  0.00    -0.237 OA
ATOM     71  O   UNL A   1      44.572  24.683  37.770  1.00  0.00    -0.744 OA
ENDBRANCH  64  68
ENDBRANCH  38  61
ENDBRANCH  12  13
ENDBRANCH   5   7
ENDBRANCH   2   3
ENDBRANCH   1   2
BRANCH   1  72
ATOM     72  C   UNL A   1      31.652  30.645  25.979  1.00  0.00     0.023 C 
BRANCH  72  73
ATOM     73  C   UNL A   1      32.640  29.487  25.944  1.00  0.00     0.116 C 
BRANCH  73  74
ATOM     74  N   UNL A   1      33.486  29.456  24.762  1.00  0.00    -0.351 N 
ATOM     75  C   UNL A   1      33.254  28.804  23.566  1.00  0.00     0.269 C 
ATOM     76  H   UNL A   1      34.329  29.961  24.821  1.00  0.00     0.163 HD
ATOM     77  O   UNL A   1      34.040  28.909  22.629  1.00  0.00    -0.268 OA
BRANCH  75  78
ATOM     78  C   UNL A   1      32.020  27.986  23.427  1.00  0.00     0.129 A 
ATOM     79  C   UNL A   1      30.822  28.617  23.105  1.00  0.00     0.049 A 
ATOM     80  N   UNL A   1      32.132  26.681  23.771  1.00  0.00    -0.251 NA
ATOM     81  C   UNL A   1      29.648  27.888  23.244  1.00  0.00     0.011 A 
ATOM     82  C   UNL A   1      30.990  25.977  23.812  1.00  0.00     0.113 A 
ATOM     83  C   UNL A   1      29.742  26.533  23.579  1.00  0.00     0.035 A 
BRANCH  81  84
ATOM     84  S   UNL A   1      28.000  28.556  23.080  1.00  0.00    -0.126 SA
BRANCH  84  85
ATOM     85  C   UNL A   1      28.110  29.854  21.790  1.00  0.00     0.081 C 
BRANCH  85  86
ATOM     86  C   UNL A   1      27.912  31.313  22.203  1.00  0.00     0.027 C 
ATOM     87  C   UNL A   1      29.030  31.857  23.080  1.00  0.00     0.035 C 
ATOM     88  C   UNL A   1      27.879  32.371  21.120  1.00  0.00     0.164 C 
ATOM     89  C   UNL A   1      28.776  33.352  23.033  1.00  0.00     0.160 C 
ATOM     90  O   UNL A   1      28.064  33.617  21.812  1.00  0.00    -0.381 OA
ENDBRANCH  85  86
ENDBRANCH  84  85
ENDBRANCH  81  84
ENDBRANCH  75  78
ENDBRANCH  73  74
ENDBRANCH  72  73
ENDBRANCH   1  72
TORSDOF 17
ENDMDL
MODEL 3
REMARK VINA RESULT:     -11.8      5.269     10.753
REMARK SMILES O=C(NCCCCNC(=O)c1cc(SC[C@H]2CCOC2)ccn1)c1ccc(-c2c3nc(c(-c4cc(S(=O)(=O)[O-])ccc4F)c4ccc([nH]4)c(-c4cc(S(=O)(=O)[O-])ccc4F)c4nc(c(-c5cc(S(=O)(=O)[O-])ccc5F)c5ccc2[nH]5)C=C4)C=C3)cc1
REMARK SMILES IDX 5 1 4 2 3 3 1 4 2 5 24 7 25 8 86 9 26 10 85 11 27 12 28 13
REMARK SMILES IDX 29 14 79 15 30 16 84 17 78 18 80 19 31 20 83 21 77 22 76 23
REMARK SMILES IDX 32 25 64 26 44 27 63 28 45 29 48 30 62 31 81 32 46 33 47 34
REMARK SMILES IDX 61 36 82 37 49 38 33 39 34 40 42 41 35 42 41 43 43 44 40 45
REMARK SMILES IDX 36 46 37 47 38 48 39 49 65 50 66 51 74 52 67 53 73 54 75 55
REMARK SMILES IDX 72 56 68 57 69 58 70 59 71 60 50 61 51 62 59 63 52 64 58 65
REMARK SMILES IDX 60 66 57 67 53 68 54 69 55 70 56 71 6 72 7 73 8 74 9 75
REMARK SMILES IDX 10 77 11 78 12 79 23 80 13 81 22 82 21 83 14 84 15 85 16 86
REMARK SMILES IDX 17 87 20 88 18 89 19 90
REMARK H PARENT 3 6 80 24 48 35 8 76
REMARK Flexibility Score: inf
ROOT
ATOM      1  C   UNL A   1      31.688  29.000  25.649  1.00  0.00     0.023 C 
ENDROOT
BRANCH   1   2
ATOM      2  C   UNL A   1      32.859  29.935  25.912  1.00  0.00     0.116 C 
BRANCH   2   3
ATOM      3  N   UNL A   1      32.472  31.258  26.382  1.00  0.00    -0.352 N 
ATOM      4  O   UNL A   1      32.650  33.161  27.595  1.00  0.00    -0.269 OA
ATOM      5  C   UNL A   1      33.142  32.089  27.255  1.00  0.00     0.251 C 
ATOM      6  H   UNL A   1      31.620  31.605  26.031  1.00  0.00     0.163 HD
BRANCH   5   7
ATOM      7  C   UNL A   1      34.448  31.662  27.808  1.00  0.00     0.039 A 
ATOM      8  C   UNL A   1      34.656  30.334  28.183  1.00  0.00     0.014 A 
ATOM      9  C   UNL A   1      35.458  32.611  28.000  1.00  0.00     0.014 A 
ATOM     10  C   UNL A   1      35.793  29.995  28.906  1.00  0.00     0.010 A 
ATOM     11  C   UNL A   1      36.646  32.243  28.645  1.00  0.00     0.010 A 
ATOM     12  C   UNL A   1      36.806  30.941  29.142  1.00  0.00    -0.014 A 
BRANCH  12  13
ATOM     13  C   UNL A   1      38.026  30.513  29.881  1.00  0.00     0.031 A 
ATOM     14  C   UNL A   1      38.260  30.914  31.313  1.00  0.00     0.074 A 
ATOM     15  C   UNL A   1      38.892  29.687  29.260  1.00  0.00     0.049 A 
ATOM     16  N   UNL A   1      39.233  30.564  32.118  1.00  0.00    -0.248 NA
ATOM     17  C   UNL A   1      37.286  31.833  31.919  1.00  0.00     0.031 C 
ATOM     18  C   UNL A   1      38.777  29.246  27.866  1.00  0.00     0.029 A 
ATOM     19  N   UNL A   1      40.013  29.044  29.719  1.00  0.00    -0.354 N 
ATOM     20  C   UNL A   1      38.995  31.223  33.320  1.00  0.00     0.074 A 
ATOM     21  C   UNL A   1      37.805  32.024  33.125  1.00  0.00     0.031 C 
ATOM     22  C   UNL A   1      39.748  28.360  27.605  1.00  0.00     0.029 A 
ATOM     23  C   UNL A   1      40.593  28.217  28.784  1.00  0.00     0.049 A 
ATOM     24  H   UNL A   1      40.368  29.162  30.629  1.00  0.00     0.167 HD
ATOM     25  C   UNL A   1      39.699  31.157  34.480  1.00  0.00     0.034 A 
ATOM     26  C   UNL A   1      41.687  27.437  28.860  1.00  0.00     0.034 A 
ATOM     27  C   UNL A   1      40.886  30.353  34.659  1.00  0.00     0.049 A 
ATOM     28  C   UNL A   1      42.446  27.381  30.157  1.00  0.00     0.074 A 
ATOM     29  C   UNL A   1      41.675  30.215  35.790  1.00  0.00     0.029 A 
ATOM     30  N   UNL A   1      41.459  29.548  33.682  1.00  0.00    -0.354 N 
ATOM     31  N   UNL A   1      42.202  28.013  31.281  1.00  0.00    -0.248 NA
ATOM     32  C   UNL A   1      43.619  26.501  30.196  1.00  0.00     0.031 C 
ATOM     33  C   UNL A   1      42.749  29.370  35.481  1.00  0.00     0.029 A 
ATOM     34  C   UNL A   1      42.597  28.927  34.178  1.00  0.00     0.049 A 
ATOM     35  H   UNL A   1      41.108  29.433  32.769  1.00  0.00     0.167 HD
ATOM     36  C   UNL A   1      43.195  27.604  32.165  1.00  0.00     0.074 A 
ATOM     37  C   UNL A   1      44.013  26.642  31.453  1.00  0.00     0.031 C 
ATOM     38  C   UNL A   1      43.419  27.994  33.446  1.00  0.00     0.034 A 
BRANCH  25  39
ATOM     39  C   UNL A   1      39.221  32.007  35.634  1.00  0.00     0.023 A 
ATOM     40  C   UNL A   1      39.648  33.336  35.801  1.00  0.00     0.031 A 
ATOM     41  C   UNL A   1      38.329  31.478  36.585  1.00  0.00     0.131 A 
ATOM     42  C   UNL A   1      39.229  34.072  36.920  1.00  0.00     0.055 A 
ATOM     43  C   UNL A   1      37.862  32.239  37.660  1.00  0.00     0.041 A 
ATOM     44  F   UNL A   1      37.901  30.210  36.490  1.00  0.00    -0.206 F 
ATOM     45  C   UNL A   1      38.322  33.540  37.839  1.00  0.00     0.022 A 
BRANCH  42  46
ATOM     46  S   UNL A   1      39.980  35.695  37.224  1.00  0.00     0.124 S 
ATOM     47  O   UNL A   1      39.278  36.124  38.431  1.00  0.00    -0.237 OA
ATOM     48  O   UNL A   1      41.391  35.364  37.388  1.00  0.00    -0.237 OA
ATOM     49  O   UNL A   1      39.654  36.455  36.019  1.00  0.00    -0.744 OA
ENDBRANCH  42  46
ENDBRANCH  25  39
BRANCH  26  50
ATOM     50  C   UNL A   1      42.147  26.677  27.664  1.00  0.00     0.023 A 
ATOM     51  C   UNL A   1      41.868  25.309  27.516  1.00  0.00     0.031 A 
ATOM     52  C   UNL A   1      42.896  27.312  26.657  1.00  0.00     0.131 A 
ATOM     53  C   UNL A   1      42.369  24.613  26.405  1.00  0.00     0.055 A 
ATOM     54  C   UNL A   1      43.346  26.628  25.528  1.00  0.00     0.041 A 
ATOM     55  F   UNL A   1      43.182  28.621  26.748  1.00  0.00    -0.206 F 
ATOM     56  C   UNL A   1      43.093  25.265  25.405  1.00  0.00     0.022 A 
BRANCH  53  57
ATOM     57  S   UNL A   1      42.130  22.816  26.325  1.00  0.00     0.124 S 
ATOM     58  O   UNL A   1      42.653  22.503  25.000  1.00  0.00    -0.237 OA
ATOM     59  O   UNL A   1      42.929  22.357  27.456  1.00  0.00    -0.237 OA
ATOM     60  O   UNL A   1      40.685  22.660  26.479  1.00  0.00    -0.744 OA
ENDBRANCH  53  57
ENDBRANCH  26  50
BRANCH  38  61
ATOM     61  C   UNL A   1      44.594  27.357  34.144  1.00  0.00     0.023 A 
ATOM     62  C   UNL A   1      44.472  26.120  34.801  1.00  0.00     0.031 A 
ATOM     63  C   UNL A   1      45.833  28.018  34.198  1.00  0.00     0.131 A 
ATOM     64  C   UNL A   1      45.549  25.613  35.543  1.00  0.00     0.055 A 
ATOM     65  C   UNL A   1      46.920  27.480  34.890  1.00  0.00     0.041 A 
ATOM     66  F   UNL A   1      46.003  29.203  33.591  1.00  0.00    -0.206 F 
ATOM     67  C   UNL A   1      46.776  26.279  35.581  1.00  0.00     0.022 A 
BRANCH  64  68
ATOM     68  S   UNL A   1      45.288  24.125  36.546  1.00  0.00     0.124 S 
ATOM     69  O   UNL A   1      46.574  23.445  36.422  1.00  0.00    -0.237 OA
ATOM     70  O   UNL A   1      44.988  24.683  37.860  1.00  0.00    -0.237 OA
ATOM     71  O   UNL A   1      44.168  23.458  35.885  1.00  0.00    -0.744 OA
ENDBRANCH  64  68
ENDBRANCH  38  61
ENDBRANCH  12  13
ENDBRANCH   5   7
ENDBRANCH   2   3
ENDBRANCH   1   2
BRANCH   1  72
ATOM     72  C   UNL A   1      31.785  28.153  24.386  1.00  0.00     0.023 C 
BRANCH  72  73
ATOM     73  C   UNL A   1      33.165  27.588  24.081  1.00  0.00     0.116 C 
BRANCH  73  74
ATOM     74  N   UNL A   1      33.373  27.235  22.686  1.00  0.00    -0.351 N 
ATOM     75  C   UNL A   1      33.094  26.035  22.060  1.00  0.00     0.269 C 
ATOM     76  H   UNL A   1      33.763  27.938  22.116  1.00  0.00     0.163 HD
ATOM     77  O   UNL A   1      33.277  25.896  20.855  1.00  0.00    -0.268 OA
BRANCH  75  78
ATOM     78  C   UNL A   1      32.548  24.917  22.874  1.00  0.00     0.129 A 
ATOM     79  C   UNL A   1      33.425  23.978  23.410  1.00  0.00     0.049 A 
ATOM     80  N   UNL A   1      31.197  24.816  22.913  1.00  0.00    -0.251 NA
ATOM     81  C   UNL A   1      32.884  22.810  23.929  1.00  0.00     0.011 A 
ATOM     82  C   UNL A   1      30.700  23.717  23.502  1.00  0.00     0.113 A 
ATOM     83  C   UNL A   1      31.492  22.694  23.999  1.00  0.00     0.035 A 
BRANCH  81  84
ATOM     84  S   UNL A   1      33.829  21.397  24.479  1.00  0.00    -0.126 SA
BRANCH  84  85
ATOM     85  C   UNL A   1      32.678  19.971  24.425  1.00  0.00     0.081 C 
BRANCH  85  86
ATOM     86  C   UNL A   1      33.260  18.571  24.229  1.00  0.00     0.027 C 
ATOM     87  C   UNL A   1      32.784  17.562  25.262  1.00  0.00     0.035 C 
ATOM     88  C   UNL A   1      32.933  17.826  22.951  1.00  0.00     0.164 C 
ATOM     89  C   UNL A   1      33.203  16.242  24.639  1.00  0.00     0.160 C 
ATOM     90  O   UNL A   1      33.282  16.458  23.219  1.00  0.00    -0.381 OA
ENDBRANCH  85  86
ENDBRANCH  84  85
ENDBRANCH  81  84
ENDBRANCH  75  78
ENDBRANCH  73  74
ENDBRANCH  72  73
ENDBRANCH   1  72
TORSDOF 17
ENDMDL
