MODEL 1
REMARK VINA RESULT:     -11.5      0.000      0.000
REMARK SMILES COc1cc([C@@H]2[NH2+][C@H](C(=O)NCCCCNC(=O)c3ccc(-c4c5nc(c(-c6cc(S(=O)(=O)[O-])ccc6F)c6ccc([nH]6)c(-c6cc(S(=O)(=O)[O-])ccc6F)c6nc(c(-c7cc(S(=O)(=O)[O-])ccc7F)c7ccc4[nH]7)C=C6)C=C5)cc3)CS2)ccc1OCc1ccc(Cl)cc1
REMARK SMILES IDX 13 1 12 2 11 3 9 4 10 5 8 7 6 8 7 9 83 10 82 13 5 14 3 15
REMARK SMILES IDX 4 16 86 17 85 18 84 19 2 20 1 21 87 22 88 23 89 24 90 25
REMARK SMILES IDX 95 26 91 27 94 28 92 29 93 30 14 31 15 32 16 33 17 34 18 36
REMARK SMILES IDX 19 37 20 38 81 39 21 40 80 41 22 42 23 43 24 44 74 45 25 46
REMARK SMILES IDX 79 47 73 48 75 49 26 50 78 51 72 52 71 53 27 55 59 56 39 57
REMARK SMILES IDX 58 58 40 59 43 60 57 61 76 62 41 63 42 64 56 66 77 67 44 68
REMARK SMILES IDX 28 69 29 70 37 71 30 72 36 73 38 74 35 75 31 76 32 77 33 78
REMARK SMILES IDX 34 79 60 80 61 81 69 82 62 83 68 84 70 85 67 86 63 87 64 88
REMARK SMILES IDX 65 89 66 90 45 91 46 92 54 93 47 94 53 95 55 96 52 97 48 98
REMARK SMILES IDX 49 99 50 100 51 101
REMARK H PARENT 11 6 7 11 7 12 16 35 75 54 43 65
REMARK Flexibility Score: inf
ROOT
ATOM      1  C   UNL A   1      34.875  24.649  25.455  1.00  0.00     0.023 C 
ENDROOT
BRANCH   1   2
ATOM      2  C   UNL A   1      34.315  25.908  24.807  1.00  0.00     0.116 C 
BRANCH   2   3
ATOM      3  N   UNL A   1      34.010  25.757  23.397  1.00  0.00    -0.351 N 
ATOM      4  C   UNL A   1      33.421  26.541  22.468  1.00  0.00     0.279 C 
ATOM      5  O   UNL A   1      33.535  26.134  21.298  1.00  0.00    -0.268 OA
ATOM      6  H   UNL A   1      34.296  24.887  23.036  1.00  0.00     0.163 HD
BRANCH   4   7
ATOM      7  C   UNL A   1      32.590  27.830  22.695  1.00  0.00     0.283 C 
ATOM      8  C   UNL A   1      30.744  27.188  24.123  1.00  0.00     0.274 C 
ATOM      9  N   UNL A   1      31.142  27.489  22.745  1.00  0.00    -0.321 N 
ATOM     10  S   UNL A   1      31.722  28.323  25.163  1.00  0.00    -0.088 SA
ATOM     11  H   UNL A   1      30.597  28.279  22.401  1.00  0.00     0.348 HD
ATOM     12  H   UNL A   1      30.971  26.670  22.162  1.00  0.00     0.348 HD
ATOM     13  C   UNL A   1      32.827  28.817  23.817  1.00  0.00     0.151 C 
BRANCH   8  14
ATOM     14  C   UNL A   1      30.790  25.724  24.566  1.00  0.00     0.024 A 
ATOM     15  C   UNL A   1      31.068  23.340  23.933  1.00  0.00     0.161 A 
ATOM     16  C   UNL A   1      30.897  24.703  23.599  1.00  0.00     0.061 A 
ATOM     17  C   UNL A   1      31.083  22.966  25.283  1.00  0.00     0.161 A 
ATOM     18  C   UNL A   1      31.010  23.965  26.256  1.00  0.00     0.051 A 
ATOM     19  C   UNL A   1      30.877  25.315  25.902  1.00  0.00     0.015 A 
BRANCH  15  20
ATOM     20  O   UNL A   1      31.212  22.557  22.819  1.00  0.00    -0.493 OA
ATOM     21  C   UNL A   1      32.507  22.295  22.300  1.00  0.00     0.278 C 
ENDBRANCH  15  20
BRANCH  17  22
ATOM     22  O   UNL A   1      31.271  21.662  25.662  1.00  0.00    -0.485 OA
BRANCH  22  23
ATOM     23  C   UNL A   1      32.619  21.283  26.006  1.00  0.00     0.265 C 
BRANCH  23  24
ATOM     24  C   UNL A   1      33.051  20.135  25.124  1.00  0.00    -0.011 A 
ATOM     25  C   UNL A   1      34.398  19.751  25.121  1.00  0.00     0.009 A 
ATOM     26  C   UNL A   1      32.140  19.390  24.369  1.00  0.00     0.009 A 
ATOM     27  C   UNL A   1      34.821  18.593  24.475  1.00  0.00     0.021 A 
ATOM     28  C   UNL A   1      32.561  18.227  23.712  1.00  0.00     0.021 A 
ATOM     29  C   UNL A   1      33.890  17.813  23.805  1.00  0.00     0.041 A 
ATOM     30  Cl  UNL A   1      34.381  16.291  23.170  1.00  0.00    -0.084 Cl
ENDBRANCH  23  24
ENDBRANCH  22  23
ENDBRANCH  17  22
ENDBRANCH   8  14
ENDBRANCH   4   7
ENDBRANCH   2   3
ENDBRANCH   1   2
BRANCH   1  31
ATOM     31  C   UNL A   1      35.111  23.476  24.512  1.00  0.00     0.023 C 
BRANCH  31  32
ATOM     32  C   UNL A   1      36.564  23.179  24.169  1.00  0.00     0.116 C 
BRANCH  32  33
ATOM     33  N   UNL A   1      37.031  21.937  24.761  1.00  0.00    -0.352 N 
ATOM     34  C   UNL A   1      38.074  21.692  25.623  1.00  0.00     0.251 C 
ATOM     35  H   UNL A   1      36.515  21.139  24.501  1.00  0.00     0.163 HD
ATOM     36  O   UNL A   1      38.346  20.522  25.886  1.00  0.00    -0.269 OA
BRANCH  34  37
ATOM     37  C   UNL A   1      38.886  22.791  26.207  1.00  0.00     0.039 A 
ATOM     38  C   UNL A   1      40.013  22.453  26.967  1.00  0.00     0.014 A 
ATOM     39  C   UNL A   1      38.544  24.137  26.060  1.00  0.00     0.014 A 
ATOM     40  C   UNL A   1      40.811  23.454  27.531  1.00  0.00     0.010 A 
ATOM     41  C   UNL A   1      39.387  25.135  26.549  1.00  0.00     0.010 A 
ATOM     42  C   UNL A   1      40.522  24.807  27.304  1.00  0.00    -0.014 A 
BRANCH  42  43
ATOM     43  C   UNL A   1      41.366  25.895  27.869  1.00  0.00     0.031 A 
ATOM     44  C   UNL A   1      40.757  26.917  28.787  1.00  0.00     0.074 A 
ATOM     45  C   UNL A   1      42.656  26.009  27.503  1.00  0.00     0.049 A 
ATOM     46  N   UNL A   1      41.295  27.992  29.302  1.00  0.00    -0.248 NA
ATOM     47  C   UNL A   1      39.345  26.720  29.142  1.00  0.00     0.031 C 
ATOM     48  C   UNL A   1      43.342  25.104  26.587  1.00  0.00     0.029 A 
ATOM     49  N   UNL A   1      43.618  26.931  27.833  1.00  0.00    -0.354 N 
ATOM     50  C   UNL A   1      40.285  28.607  30.032  1.00  0.00     0.074 A 
ATOM     51  C   UNL A   1      39.085  27.822  29.826  1.00  0.00     0.031 C 
ATOM     52  C   UNL A   1      44.615  25.498  26.436  1.00  0.00     0.029 A 
ATOM     53  C   UNL A   1      44.825  26.715  27.208  1.00  0.00     0.049 A 
ATOM     54  H   UNL A   1      43.459  27.675  28.458  1.00  0.00     0.167 HD
ATOM     55  C   UNL A   1      40.360  29.705  30.825  1.00  0.00     0.034 A 
ATOM     56  C   UNL A   1      45.970  27.425  27.239  1.00  0.00     0.034 A 
ATOM     57  C   UNL A   1      41.570  30.466  31.023  1.00  0.00     0.049 A 
ATOM     58  C   UNL A   1      46.029  28.654  28.105  1.00  0.00     0.074 A 
ATOM     59  C   UNL A   1      41.779  31.561  31.844  1.00  0.00     0.029 A 
ATOM     60  N   UNL A   1      42.780  30.214  30.385  1.00  0.00    -0.354 N 
ATOM     61  N   UNL A   1      45.077  29.195  28.832  1.00  0.00    -0.248 NA
ATOM     62  C   UNL A   1      47.315  29.356  28.171  1.00  0.00     0.031 C 
ATOM     63  C   UNL A   1      43.093  32.005  31.658  1.00  0.00     0.029 A 
ATOM     64  C   UNL A   1      43.729  31.149  30.773  1.00  0.00     0.049 A 
ATOM     65  H   UNL A   1      42.940  29.479  29.751  1.00  0.00     0.167 HD
ATOM     66  C   UNL A   1      45.660  30.288  29.464  1.00  0.00     0.074 A 
ATOM     67  C   UNL A   1      47.047  30.320  29.040  1.00  0.00     0.031 C 
ATOM     68  C   UNL A   1      45.103  31.178  30.323  1.00  0.00     0.034 A 
BRANCH  55  69
ATOM     69  C   UNL A   1      39.085  30.145  31.506  1.00  0.00     0.023 A 
ATOM     70  C   UNL A   1      38.181  31.022  30.878  1.00  0.00     0.031 A 
ATOM     71  C   UNL A   1      38.800  29.744  32.822  1.00  0.00     0.131 A 
ATOM     72  C   UNL A   1      37.098  31.547  31.596  1.00  0.00     0.055 A 
ATOM     73  C   UNL A   1      37.668  30.199  33.502  1.00  0.00     0.041 A 
ATOM     74  F   UNL A   1      39.634  28.926  33.483  1.00  0.00    -0.206 F 
ATOM     75  C   UNL A   1      36.820  31.123  32.897  1.00  0.00     0.022 A 
BRANCH  72  76
ATOM     76  S   UNL A   1      36.168  32.926  30.872  1.00  0.00     0.124 S 
ATOM     77  O   UNL A   1      36.904  33.159  29.632  1.00  0.00    -0.237 OA
ATOM     78  O   UNL A   1      34.830  32.360  30.724  1.00  0.00    -0.237 OA
ATOM     79  O   UNL A   1      36.291  33.986  31.869  1.00  0.00    -0.744 OA
ENDBRANCH  72  76
ENDBRANCH  55  69
BRANCH  56  80
ATOM     80  C   UNL A   1      47.140  26.998  26.424  1.00  0.00     0.023 A 
ATOM     81  C   UNL A   1      47.303  27.438  25.101  1.00  0.00     0.031 A 
ATOM     82  C   UNL A   1      48.112  26.130  26.956  1.00  0.00     0.131 A 
ATOM     83  C   UNL A   1      48.393  26.982  24.342  1.00  0.00     0.055 A 
ATOM     84  C   UNL A   1      49.216  25.713  26.209  1.00  0.00     0.041 A 
ATOM     85  F   UNL A   1      48.012  25.692  28.221  1.00  0.00    -0.206 F 
ATOM     86  C   UNL A   1      49.355  26.131  24.890  1.00  0.00     0.022 A 
BRANCH  83  87
ATOM     87  S   UNL A   1      48.506  27.476  22.600  1.00  0.00     0.124 S 
ATOM     88  O   UNL A   1      48.597  26.183  21.930  1.00  0.00    -0.237 OA
ATOM     89  O   UNL A   1      47.261  28.211  22.411  1.00  0.00    -0.237 OA
ATOM     90  O   UNL A   1      49.720  28.289  22.556  1.00  0.00    -0.744 OA
ENDBRANCH  83  87
ENDBRANCH  56  80
BRANCH  68  91
ATOM     91  C   UNL A   1      46.016  32.238  30.886  1.00  0.00     0.023 A 
ATOM     92  C   UNL A   1      46.188  33.477  30.245  1.00  0.00     0.031 A 
ATOM     93  C   UNL A   1      46.741  31.993  32.064  1.00  0.00     0.131 A 
ATOM     94  C   UNL A   1      47.108  34.405  30.757  1.00  0.00     0.055 A 
ATOM     95  C   UNL A   1      47.611  32.942  32.601  1.00  0.00     0.041 A 
ATOM     96  F   UNL A   1      46.615  30.824  32.713  1.00  0.00    -0.206 F 
ATOM     97  C   UNL A   1      47.809  34.150  31.939  1.00  0.00     0.022 A 
BRANCH  94  98
ATOM     98  S   UNL A   1      47.444  35.912  29.807  1.00  0.00     0.124 S 
ATOM     99  O   UNL A   1      47.526  36.922  30.859  1.00  0.00    -0.237 OA
ATOM    100  O   UNL A   1      48.698  35.587  29.138  1.00  0.00    -0.237 OA
ATOM    101  O   UNL A   1      46.283  36.028  28.926  1.00  0.00    -0.744 OA
ENDBRANCH  94  98
ENDBRANCH  68  91
ENDBRANCH  42  43
ENDBRANCH  34  37
ENDBRANCH  32  33
ENDBRANCH  31  32
ENDBRANCH   1  31
TORSDOF 19
ENDMDL
MODEL 2
REMARK VINA RESULT:     -11.5      3.015      4.943
REMARK SMILES COc1cc([C@@H]2[NH2+][C@H](C(=O)NCCCCNC(=O)c3ccc(-c4c5nc(c(-c6cc(S(=O)(=O)[O-])ccc6F)c6ccc([nH]6)c(-c6cc(S(=O)(=O)[O-])ccc6F)c6nc(c(-c7cc(S(=O)(=O)[O-])ccc7F)c7ccc4[nH]7)C=C6)C=C5)cc3)CS2)ccc1OCc1ccc(Cl)cc1
REMARK SMILES IDX 13 1 12 2 11 3 9 4 10 5 8 7 6 8 7 9 83 10 82 13 5 14 3 15
REMARK SMILES IDX 4 16 86 17 85 18 84 19 2 20 1 21 87 22 88 23 89 24 90 25
REMARK SMILES IDX 95 26 91 27 94 28 92 29 93 30 14 31 15 32 16 33 17 34 18 36
REMARK SMILES IDX 19 37 20 38 81 39 21 40 80 41 22 42 23 43 24 44 74 45 25 46
REMARK SMILES IDX 79 47 73 48 75 49 26 50 78 51 72 52 71 53 27 55 59 56 39 57
REMARK SMILES IDX 58 58 40 59 43 60 57 61 76 62 41 63 42 64 56 66 77 67 44 68
REMARK SMILES IDX 28 69 29 70 37 71 30 72 36 73 38 74 35 75 31 76 32 77 33 78
REMARK SMILES IDX 34 79 60 80 61 81 69 82 62 83 68 84 70 85 67 86 63 87 64 88
REMARK SMILES IDX 65 89 66 90 45 91 46 92 54 93 47 94 53 95 55 96 52 97 48 98
REMARK SMILES IDX 49 99 50 100 51 101
REMARK H PARENT 11 6 7 11 7 12 16 35 75 54 43 65
REMARK Flexibility Score: inf
ROOT
ATOM      1  C   UNL A   1      36.768  19.977  25.007  1.00  0.00     0.023 C 
ENDROOT
BRANCH   1   2
ATOM      2  C   UNL A   1      36.196  21.379  24.846  1.00  0.00     0.116 C 
BRANCH   2   3
ATOM      3  N   UNL A   1      35.426  21.833  25.988  1.00  0.00    -0.351 N 
ATOM      4  C   UNL A   1      34.316  21.389  26.617  1.00  0.00     0.279 C 
ATOM      5  O   UNL A   1      34.081  21.940  27.707  1.00  0.00    -0.268 OA
ATOM      6  H   UNL A   1      35.795  22.650  26.396  1.00  0.00     0.163 HD
BRANCH   4   7
ATOM      7  C   UNL A   1      33.295  20.334  26.119  1.00  0.00     0.283 C 
ATOM      8  C   UNL A   1      31.906  21.469  24.494  1.00  0.00     0.274 C 
ATOM      9  N   UNL A   1      31.980  20.987  25.876  1.00  0.00    -0.321 N 
ATOM     10  S   UNL A   1      32.803  20.226  23.505  1.00  0.00    -0.088 SA
ATOM     11  H   UNL A   1      31.233  20.313  26.039  1.00  0.00     0.348 HD
ATOM     12  H   UNL A   1      31.877  21.779  26.511  1.00  0.00     0.348 HD
ATOM     13  C   UNL A   1      33.524  19.404  24.947  1.00  0.00     0.151 C 
BRANCH   8  14
ATOM     14  C   UNL A   1      32.329  22.916  24.228  1.00  0.00     0.024 A 
ATOM     15  C   UNL A   1      32.130  25.313  24.838  1.00  0.00     0.161 A 
ATOM     16  C   UNL A   1      31.712  23.966  24.938  1.00  0.00     0.061 A 
ATOM     17  C   UNL A   1      33.170  25.641  23.959  1.00  0.00     0.161 A 
ATOM     18  C   UNL A   1      33.814  24.611  23.271  1.00  0.00     0.051 A 
ATOM     19  C   UNL A   1      33.407  23.277  23.412  1.00  0.00     0.015 A 
BRANCH  15  20
ATOM     20  O   UNL A   1      31.418  26.131  25.675  1.00  0.00    -0.493 OA
ATOM     21  C   UNL A   1      30.011  26.250  25.523  1.00  0.00     0.278 C 
ENDBRANCH  15  20
BRANCH  17  22
ATOM     22  O   UNL A   1      33.631  26.926  23.843  1.00  0.00    -0.485 OA
BRANCH  22  23
ATOM     23  C   UNL A   1      33.174  27.670  22.696  1.00  0.00     0.265 C 
BRANCH  23  24
ATOM     24  C   UNL A   1      31.865  28.346  23.032  1.00  0.00    -0.011 A 
ATOM     25  C   UNL A   1      31.824  29.255  24.097  1.00  0.00     0.009 A 
ATOM     26  C   UNL A   1      30.710  28.156  22.269  1.00  0.00     0.009 A 
ATOM     27  C   UNL A   1      30.701  30.041  24.337  1.00  0.00     0.021 A 
ATOM     28  C   UNL A   1      29.574  28.939  22.509  1.00  0.00     0.021 A 
ATOM     29  C   UNL A   1      29.592  29.907  23.514  1.00  0.00     0.041 A 
ATOM     30  Cl  UNL A   1      28.282  31.007  23.696  1.00  0.00    -0.084 Cl
ENDBRANCH  23  24
ENDBRANCH  22  23
ENDBRANCH  17  22
ENDBRANCH   8  14
ENDBRANCH   4   7
ENDBRANCH   2   3
ENDBRANCH   1   2
BRANCH   1  31
ATOM     31  C   UNL A   1      38.260  19.842  24.727  1.00  0.00     0.023 C 
BRANCH  31  32
ATOM     32  C   UNL A   1      39.187  20.159  25.892  1.00  0.00     0.116 C 
BRANCH  32  33
ATOM     33  N   UNL A   1      40.345  19.281  25.934  1.00  0.00    -0.352 N 
ATOM     34  C   UNL A   1      41.679  19.567  26.093  1.00  0.00     0.251 C 
ATOM     35  H   UNL A   1      40.137  18.324  25.832  1.00  0.00     0.163 HD
ATOM     36  O   UNL A   1      42.488  18.648  25.968  1.00  0.00    -0.269 OA
BRANCH  34  37
ATOM     37  C   UNL A   1      42.161  20.945  26.373  1.00  0.00     0.039 A 
ATOM     38  C   UNL A   1      42.445  21.293  27.700  1.00  0.00     0.014 A 
ATOM     39  C   UNL A   1      42.299  21.909  25.373  1.00  0.00     0.014 A 
ATOM     40  C   UNL A   1      42.907  22.576  28.010  1.00  0.00     0.010 A 
ATOM     41  C   UNL A   1      42.840  23.160  25.670  1.00  0.00     0.010 A 
ATOM     42  C   UNL A   1      43.136  23.515  26.994  1.00  0.00    -0.014 A 
BRANCH  42  43
ATOM     43  C   UNL A   1      43.650  24.880  27.289  1.00  0.00     0.031 A 
ATOM     44  C   UNL A   1      42.718  25.936  27.814  1.00  0.00     0.074 A 
ATOM     45  C   UNL A   1      44.931  25.193  27.019  1.00  0.00     0.049 A 
ATOM     46  N   UNL A   1      42.947  27.204  28.038  1.00  0.00    -0.248 NA
ATOM     47  C   UNL A   1      41.338  25.515  28.086  1.00  0.00     0.031 C 
ATOM     48  C   UNL A   1      45.914  24.265  26.470  1.00  0.00     0.029 A 
ATOM     49  N   UNL A   1      45.628  26.368  27.149  1.00  0.00    -0.354 N 
ATOM     50  C   UNL A   1      41.736  27.735  28.467  1.00  0.00     0.074 A 
ATOM     51  C   UNL A   1      40.762  26.665  28.394  1.00  0.00     0.031 C 
ATOM     52  C   UNL A   1      47.090  24.892  26.321  1.00  0.00     0.029 A 
ATOM     53  C   UNL A   1      46.934  26.284  26.721  1.00  0.00     0.049 A 
ATOM     54  H   UNL A   1      45.232  27.192  27.513  1.00  0.00     0.167 HD
ATOM     55  C   UNL A   1      41.470  28.990  28.909  1.00  0.00     0.034 A 
ATOM     56  C   UNL A   1      47.895  27.225  26.643  1.00  0.00     0.034 A 
ATOM     57  C   UNL A   1      42.459  30.038  28.982  1.00  0.00     0.049 A 
ATOM     58  C   UNL A   1      47.576  28.617  27.116  1.00  0.00     0.074 A 
ATOM     59  C   UNL A   1      42.320  31.328  29.463  1.00  0.00     0.029 A 
ATOM     60  N   UNL A   1      43.777  29.918  28.552  1.00  0.00    -0.354 N 
ATOM     61  N   UNL A   1      46.438  29.092  27.568  1.00  0.00    -0.248 NA
ATOM     62  C   UNL A   1      48.671  29.593  27.086  1.00  0.00     0.031 C 
ATOM     63  C   UNL A   1      43.530  32.003  29.270  1.00  0.00     0.029 A 
ATOM     64  C   UNL A   1      44.450  31.117  28.732  1.00  0.00     0.049 A 
ATOM     65  H   UNL A   1      44.174  29.099  28.175  1.00  0.00     0.167 HD
ATOM     66  C   UNL A   1      46.688  30.418  27.903  1.00  0.00     0.074 A 
ATOM     67  C   UNL A   1      48.088  30.661  27.610  1.00  0.00     0.031 C 
ATOM     68  C   UNL A   1      45.842  31.348  28.414  1.00  0.00     0.034 A 
BRANCH  55  69
ATOM     69  C   UNL A   1      40.045  29.282  29.318  1.00  0.00     0.023 A 
ATOM     70  C   UNL A   1      39.671  29.359  30.672  1.00  0.00     0.031 A 
ATOM     71  C   UNL A   1      39.035  29.416  28.351  1.00  0.00     0.131 A 
ATOM     72  C   UNL A   1      38.317  29.459  31.022  1.00  0.00     0.055 A 
ATOM     73  C   UNL A   1      37.697  29.609  28.706  1.00  0.00     0.041 A 
ATOM     74  F   UNL A   1      39.324  29.332  27.043  1.00  0.00    -0.206 F 
ATOM     75  C   UNL A   1      37.329  29.609  30.048  1.00  0.00     0.022 A 
BRANCH  72  76
ATOM     76  S   UNL A   1      37.852  29.206  32.757  1.00  0.00     0.124 S 
ATOM     77  O   UNL A   1      37.731  27.752  32.821  1.00  0.00    -0.237 OA
ATOM     78  O   UNL A   1      38.985  29.785  33.474  1.00  0.00    -0.237 OA
ATOM     79  O   UNL A   1      36.593  29.935  32.886  1.00  0.00    -0.744 OA
ENDBRANCH  72  76
ENDBRANCH  55  69
BRANCH  56  80
ATOM     80  C   UNL A   1      49.236  26.884  26.093  1.00  0.00     0.023 A 
ATOM     81  C   UNL A   1      49.619  27.296  24.806  1.00  0.00     0.031 A 
ATOM     82  C   UNL A   1      50.154  26.129  26.845  1.00  0.00     0.131 A 
ATOM     83  C   UNL A   1      50.872  26.921  24.296  1.00  0.00     0.055 A 
ATOM     84  C   UNL A   1      51.416  25.794  26.349  1.00  0.00     0.041 A 
ATOM     85  F   UNL A   1      49.845  25.724  28.087  1.00  0.00    -0.206 F 
ATOM     86  C   UNL A   1      51.777  26.182  25.063  1.00  0.00     0.022 A 
BRANCH  83  87
ATOM     87  S   UNL A   1      51.285  27.368  22.587  1.00  0.00     0.124 S 
ATOM     88  O   UNL A   1      50.179  26.770  21.848  1.00  0.00    -0.237 OA
ATOM     89  O   UNL A   1      51.302  28.825  22.651  1.00  0.00    -0.237 OA
ATOM     90  O   UNL A   1      52.588  26.741  22.377  1.00  0.00    -0.744 OA
ENDBRANCH  83  87
ENDBRANCH  56  80
BRANCH  68  91
ATOM     91  C   UNL A   1      46.429  32.702  28.721  1.00  0.00     0.023 A 
ATOM     92  C   UNL A   1      46.517  33.706  27.740  1.00  0.00     0.031 A 
ATOM     93  C   UNL A   1      46.930  32.981  30.004  1.00  0.00     0.131 A 
ATOM     94  C   UNL A   1      47.144  34.924  28.045  1.00  0.00     0.055 A 
ATOM     95  C   UNL A   1      47.499  34.215  30.317  1.00  0.00     0.041 A 
ATOM     96  F   UNL A   1      46.873  32.055  30.975  1.00  0.00    -0.206 F 
ATOM     97  C   UNL A   1      47.622  35.190  29.331  1.00  0.00     0.022 A 
BRANCH  94  98
ATOM     98  S   UNL A   1      47.408  36.123  26.710  1.00  0.00     0.124 S 
ATOM     99  O   UNL A   1      48.078  37.214  27.412  1.00  0.00    -0.237 OA
ATOM    100  O   UNL A   1      48.231  35.369  25.771  1.00  0.00    -0.237 OA
ATOM    101  O   UNL A   1      46.054  36.423  26.247  1.00  0.00    -0.744 OA
ENDBRANCH  94  98
ENDBRANCH  68  91
ENDBRANCH  42  43
ENDBRANCH  34  37
ENDBRANCH  32  33
ENDBRANCH  31  32
ENDBRANCH   1  31
TORSDOF 19
ENDMDL
MODEL 3
REMARK VINA RESULT:     -11.4      4.617      6.990
REMARK SMILES COc1cc([C@@H]2[NH2+][C@H](C(=O)NCCCCNC(=O)c3ccc(-c4c5nc(c(-c6cc(S(=O)(=O)[O-])ccc6F)c6ccc([nH]6)c(-c6cc(S(=O)(=O)[O-])ccc6F)c6nc(c(-c7cc(S(=O)(=O)[O-])ccc7F)c7ccc4[nH]7)C=C6)C=C5)cc3)CS2)ccc1OCc1ccc(Cl)cc1
REMARK SMILES IDX 13 1 12 2 11 3 9 4 10 5 8 7 6 8 7 9 83 10 82 13 5 14 3 15
REMARK SMILES IDX 4 16 86 17 85 18 84 19 2 20 1 21 87 22 88 23 89 24 90 25
REMARK SMILES IDX 95 26 91 27 94 28 92 29 93 30 14 31 15 32 16 33 17 34 18 36
REMARK SMILES IDX 19 37 20 38 81 39 21 40 80 41 22 42 23 43 24 44 74 45 25 46
REMARK SMILES IDX 79 47 73 48 75 49 26 50 78 51 72 52 71 53 27 55 59 56 39 57
REMARK SMILES IDX 58 58 40 59 43 60 57 61 76 62 41 63 42 64 56 66 77 67 44 68
REMARK SMILES IDX 28 69 29 70 37 71 30 72 36 73 38 74 35 75 31 76 32 77 33 78
REMARK SMILES IDX 34 79 60 80 61 81 69 82 62 83 68 84 70 85 67 86 63 87 64 88
REMARK SMILES IDX 65 89 66 90 45 91 46 92 54 93 47 94 53 95 55 96 52 97 48 98
REMARK SMILES IDX 49 99 50 100 51 101
REMARK H PARENT 11 6 7 11 7 12 16 35 75 54 43 65
REMARK Flexibility Score: inf
ROOT
ATOM      1  C   UNL A   1      33.323  28.934  27.048  1.00  0.00     0.023 C 
ENDROOT
BRANCH   1   2
ATOM      2  C   UNL A   1      33.455  27.496  26.565  1.00  0.00     0.116 C 
BRANCH   2   3
ATOM      3  N   UNL A   1      32.206  26.911  26.117  1.00  0.00    -0.351 N 
ATOM      4  C   UNL A   1      31.595  26.791  24.918  1.00  0.00     0.279 C 
ATOM      5  O   UNL A   1      30.614  26.025  24.909  1.00  0.00    -0.268 OA
ATOM      6  H   UNL A   1      31.686  26.513  26.852  1.00  0.00     0.163 HD
BRANCH   4   7
ATOM      7  C   UNL A   1      31.934  27.526  23.596  1.00  0.00     0.283 C 
ATOM      8  C   UNL A   1      33.416  26.052  22.377  1.00  0.00     0.274 C 
ATOM      9  N   UNL A   1      33.347  27.250  23.218  1.00  0.00    -0.321 N 
ATOM     10  S   UNL A   1      31.911  26.101  21.348  1.00  0.00    -0.088 SA
ATOM     11  H   UNL A   1      33.721  28.046  22.704  1.00  0.00     0.348 HD
ATOM     12  H   UNL A   1      33.895  27.095  24.065  1.00  0.00     0.348 HD
ATOM     13  C   UNL A   1      31.129  27.412  22.320  1.00  0.00     0.151 C 
BRANCH   8  14
ATOM     14  C   UNL A   1      33.662  24.712  23.076  1.00  0.00     0.024 A 
ATOM     15  C   UNL A   1      34.718  23.480  24.954  1.00  0.00     0.161 A 
ATOM     16  C   UNL A   1      34.534  24.651  24.183  1.00  0.00     0.061 A 
ATOM     17  C   UNL A   1      34.049  22.307  24.583  1.00  0.00     0.161 A 
ATOM     18  C   UNL A   1      33.157  22.356  23.510  1.00  0.00     0.051 A 
ATOM     19  C   UNL A   1      32.962  23.536  22.781  1.00  0.00     0.015 A 
BRANCH  15  20
ATOM     20  O   UNL A   1      35.562  23.695  26.011  1.00  0.00    -0.493 OA
ATOM     21  C   UNL A   1      36.949  23.894  25.783  1.00  0.00     0.278 C 
ENDBRANCH  15  20
BRANCH  17  22
ATOM     22  O   UNL A   1      34.171  21.153  25.311  1.00  0.00    -0.485 OA
BRANCH  22  23
ATOM     23  C   UNL A   1      35.049  20.145  24.772  1.00  0.00     0.265 C 
BRANCH  23  24
ATOM     24  C   UNL A   1      34.321  18.822  24.733  1.00  0.00    -0.011 A 
ATOM     25  C   UNL A   1      35.048  17.653  24.475  1.00  0.00     0.009 A 
ATOM     26  C   UNL A   1      32.958  18.712  25.024  1.00  0.00     0.009 A 
ATOM     27  C   UNL A   1      34.471  16.394  24.607  1.00  0.00     0.021 A 
ATOM     28  C   UNL A   1      32.368  17.448  25.152  1.00  0.00     0.021 A 
ATOM     29  C   UNL A   1      33.139  16.297  24.986  1.00  0.00     0.041 A 
ATOM     30  Cl  UNL A   1      32.482  14.744  25.329  1.00  0.00    -0.084 Cl
ENDBRANCH  23  24
ENDBRANCH  22  23
ENDBRANCH  17  22
ENDBRANCH   8  14
ENDBRANCH   4   7
ENDBRANCH   2   3
ENDBRANCH   1   2
BRANCH   1  31
ATOM     31  C   UNL A   1      34.583  29.540  27.654  1.00  0.00     0.023 C 
BRANCH  31  32
ATOM     32  C   UNL A   1      34.738  31.046  27.499  1.00  0.00     0.116 C 
BRANCH  32  33
ATOM     33  N   UNL A   1      34.398  31.768  28.713  1.00  0.00    -0.352 N 
ATOM     34  C   UNL A   1      35.040  31.829  29.927  1.00  0.00     0.251 C 
ATOM     35  H   UNL A   1      33.572  32.300  28.656  1.00  0.00     0.163 HD
ATOM     36  O   UNL A   1      34.479  32.418  30.851  1.00  0.00    -0.269 OA
BRANCH  34  37
ATOM     37  C   UNL A   1      36.357  31.180  30.155  1.00  0.00     0.039 A 
ATOM     38  C   UNL A   1      37.488  31.738  29.544  1.00  0.00     0.014 A 
ATOM     39  C   UNL A   1      36.500  30.018  30.915  1.00  0.00     0.014 A 
ATOM     40  C   UNL A   1      38.749  31.165  29.735  1.00  0.00     0.010 A 
ATOM     41  C   UNL A   1      37.768  29.497  31.175  1.00  0.00     0.010 A 
ATOM     42  C   UNL A   1      38.906  30.054  30.576  1.00  0.00    -0.014 A 
BRANCH  42  43
ATOM     43  C   UNL A   1      40.239  29.437  30.819  1.00  0.00     0.031 A 
ATOM     44  C   UNL A   1      41.147  30.004  31.873  1.00  0.00     0.074 A 
ATOM     45  C   UNL A   1      40.663  28.418  30.048  1.00  0.00     0.049 A 
ATOM     46  N   UNL A   1      42.378  29.674  32.169  1.00  0.00    -0.248 NA
ATOM     47  C   UNL A   1      40.610  31.112  32.674  1.00  0.00     0.031 C 
ATOM     48  C   UNL A   1      39.887  27.816  28.969  1.00  0.00     0.029 A 
ATOM     49  N   UNL A   1      41.843  27.718  30.032  1.00  0.00    -0.354 N 
ATOM     50  C   UNL A   1      42.767  30.542  33.183  1.00  0.00     0.074 A 
ATOM     51  C   UNL A   1      41.666  31.459  33.392  1.00  0.00     0.031 C 
ATOM     52  C   UNL A   1      40.597  26.828  28.403  1.00  0.00     0.029 A 
ATOM     53  C   UNL A   1      41.901  26.758  29.048  1.00  0.00     0.049 A 
ATOM     54  H   UNL A   1      42.578  27.887  30.665  1.00  0.00     0.167 HD
ATOM     55  C   UNL A   1      43.923  30.552  33.893  1.00  0.00     0.034 A 
ATOM     56  C   UNL A   1      42.897  25.923  28.693  1.00  0.00     0.034 A 
ATOM     57  C   UNL A   1      45.003  29.621  33.674  1.00  0.00     0.049 A 
ATOM     58  C   UNL A   1      44.180  25.962  29.476  1.00  0.00     0.074 A 
ATOM     59  C   UNL A   1      46.195  29.499  34.367  1.00  0.00     0.029 A 
ATOM     60  N   UNL A   1      45.026  28.651  32.677  1.00  0.00    -0.354 N 
ATOM     61  N   UNL A   1      44.514  26.756  30.468  1.00  0.00    -0.248 NA
ATOM     62  C   UNL A   1      45.211  24.986  29.107  1.00  0.00     0.031 C 
ATOM     63  C   UNL A   1      46.961  28.501  33.754  1.00  0.00     0.029 A 
ATOM     64  C   UNL A   1      46.222  27.948  32.720  1.00  0.00     0.049 A 
ATOM     65  H   UNL A   1      44.298  28.486  32.034  1.00  0.00     0.167 HD
ATOM     66  C   UNL A   1      45.787  26.355  30.861  1.00  0.00     0.074 A 
ATOM     67  C   UNL A   1      46.152  25.243  30.004  1.00  0.00     0.031 C 
ATOM     68  C   UNL A   1      46.578  26.855  31.844  1.00  0.00     0.034 A 
BRANCH  55  69
ATOM     69  C   UNL A   1      44.067  31.623  34.950  1.00  0.00     0.023 A 
ATOM     70  C   UNL A   1      43.752  31.372  36.297  1.00  0.00     0.031 A 
ATOM     71  C   UNL A   1      44.453  32.928  34.599  1.00  0.00     0.131 A 
ATOM     72  C   UNL A   1      43.730  32.427  37.222  1.00  0.00     0.055 A 
ATOM     73  C   UNL A   1      44.518  33.955  35.544  1.00  0.00     0.041 A 
ATOM     74  F   UNL A   1      44.745  33.236  33.326  1.00  0.00    -0.206 F 
ATOM     75  C   UNL A   1      44.135  33.712  36.859  1.00  0.00     0.022 A 
BRANCH  72  76
ATOM     76  S   UNL A   1      42.991  32.131  38.852  1.00  0.00     0.124 S 
ATOM     77  O   UNL A   1      41.618  31.782  38.494  1.00  0.00    -0.237 OA
ATOM     78  O   UNL A   1      43.811  31.043  39.377  1.00  0.00    -0.237 OA
ATOM     79  O   UNL A   1      43.141  33.413  39.535  1.00  0.00    -0.744 OA
ENDBRANCH  72  76
ENDBRANCH  55  69
BRANCH  56  80
ATOM     80  C   UNL A   1      42.721  24.992  27.543  1.00  0.00     0.023 A 
ATOM     81  C   UNL A   1      41.944  23.829  27.663  1.00  0.00     0.031 A 
ATOM     82  C   UNL A   1      43.341  25.248  26.306  1.00  0.00     0.131 A 
ATOM     83  C   UNL A   1      41.834  22.947  26.576  1.00  0.00     0.055 A 
ATOM     84  C   UNL A   1      43.194  24.388  25.216  1.00  0.00     0.041 A 
ATOM     85  F   UNL A   1      44.082  26.354  26.134  1.00  0.00    -0.206 F 
ATOM     86  C   UNL A   1      42.445  23.224  25.351  1.00  0.00     0.022 A 
BRANCH  83  87
ATOM     87  S   UNL A   1      40.920  21.396  26.804  1.00  0.00     0.124 S 
ATOM     88  O   UNL A   1      39.669  21.685  26.113  1.00  0.00    -0.237 OA
ATOM     89  O   UNL A   1      41.801  20.428  26.160  1.00  0.00    -0.237 OA
ATOM     90  O   UNL A   1      40.818  21.272  28.256  1.00  0.00    -0.744 OA
ENDBRANCH  83  87
ENDBRANCH  56  80
BRANCH  68  91
ATOM     91  C   UNL A   1      47.902  26.167  32.062  1.00  0.00     0.023 A 
ATOM     92  C   UNL A   1      48.068  25.188  33.057  1.00  0.00     0.031 A 
ATOM     93  C   UNL A   1      49.016  26.515  31.280  1.00  0.00     0.131 A 
ATOM     94  C   UNL A   1      49.336  24.630  33.281  1.00  0.00     0.055 A 
ATOM     95  C   UNL A   1      50.261  25.915  31.469  1.00  0.00     0.041 A 
ATOM     96  F   UNL A   1      48.912  27.447  30.319  1.00  0.00    -0.206 F 
ATOM     97  C   UNL A   1      50.430  24.977  32.483  1.00  0.00     0.022 A 
BRANCH  94  98
ATOM     98  S   UNL A   1      49.557  23.512  34.690  1.00  0.00     0.124 S 
ATOM     99  O   UNL A   1      49.303  22.207  34.085  1.00  0.00    -0.237 OA
ATOM    100  O   UNL A   1      50.937  23.773  35.084  1.00  0.00    -0.237 OA
ATOM    101  O   UNL A   1      48.544  23.959  35.645  1.00  0.00    -0.744 OA
ENDBRANCH  94  98
ENDBRANCH  68  91
ENDBRANCH  42  43
ENDBRANCH  34  37
ENDBRANCH  32  33
ENDBRANCH  31  32
ENDBRANCH   1  31
TORSDOF 19
ENDMDL
