MODEL 1
REMARK VINA RESULT:     -11.0      0.000      0.000
REMARK SMILES CC1(C)CCSC[C@H]1[NH+]1CCC(OCCC(=O)NCCCCNC(=O)c2ccc(-c3c4nc(c(-c5cc(S(=O)(=O)[O-])ccc5F)c5ccc([nH]5)c(-c5cc(S(=O)(=O)[O-])ccc5F)c5nc(c(-c6cc(S(=O)(=O)[O-])ccc6F)c6ccc3[nH]6)C=C5)C=C4)cc2)CC1
REMARK SMILES IDX 20 1 19 2 18 3 16 4 17 5 15 7 14 8 13 9 12 10 9 11 10 12
REMARK SMILES IDX 90 13 11 15 89 16 8 17 1 18 2 19 3 20 4 21 5 22 7 23 6 24
REMARK SMILES IDX 21 25 22 26 23 27 24 28 25 30 26 31 27 32 88 33 28 34 87 35
REMARK SMILES IDX 29 36 30 37 31 38 81 39 32 40 86 41 80 42 82 43 33 44 85 45
REMARK SMILES IDX 79 46 78 47 34 49 66 50 46 51 65 52 47 53 50 54 64 55 83 56
REMARK SMILES IDX 48 57 49 58 63 60 84 61 51 62 35 63 36 64 44 65 37 66 43 67
REMARK SMILES IDX 45 68 42 69 38 70 39 71 40 72 41 73 67 74 68 75 76 76 69 77
REMARK SMILES IDX 75 78 77 79 74 80 70 81 71 82 72 83 73 84 52 85 53 86 61 87
REMARK SMILES IDX 54 88 60 89 62 90 59 91 55 92 56 93 57 94 58 95
REMARK H PARENT 18 6 9 14 23 29 82 48 50 59
REMARK Flexibility Score: inf
ROOT
ATOM      1  C   UNL A   1      34.443  30.701  28.011  1.00  0.00     0.023 C 
ENDROOT
BRANCH   1   2
ATOM      2  C   UNL A   1      34.752  29.410  27.261  1.00  0.00     0.116 C 
BRANCH   2   3
ATOM      3  N   UNL A   1      34.327  29.274  25.884  1.00  0.00    -0.356 N 
ATOM      4  C   UNL A   1      33.551  28.281  25.369  1.00  0.00     0.222 C 
ATOM      5  O   UNL A   1      32.575  28.633  24.695  1.00  0.00    -0.275 OA
ATOM      6  H   UNL A   1      34.629  29.970  25.255  1.00  0.00     0.163 HD
BRANCH   4   7
ATOM      7  C   UNL A   1      33.827  26.802  25.614  1.00  0.00     0.128 C 
BRANCH   7   8
ATOM      8  C   UNL A   1      33.005  25.645  24.950  1.00  0.00     0.170 C 
BRANCH   8   9
ATOM      9  O   UNL A   1      33.607  24.383  24.660  1.00  0.00    -0.377 OA
BRANCH   9  10
ATOM     10  C   UNL A   1      34.174  23.368  25.541  1.00  0.00     0.129 C 
ATOM     11  N   UNL A   1      34.479  20.478  25.669  1.00  0.00    -0.331 N 
ATOM     12  C   UNL A   1      35.692  21.265  25.693  1.00  0.00     0.265 C 
ATOM     13  C   UNL A   1      33.518  21.033  26.611  1.00  0.00     0.265 C 
ATOM     14  H   UNL A   1      34.745  19.547  25.991  1.00  0.00     0.348 HD
ATOM     15  C   UNL A   1      35.493  22.658  25.126  1.00  0.00     0.093 C 
ATOM     16  C   UNL A   1      33.264  22.561  26.504  1.00  0.00     0.093 C 
BRANCH  11  17
ATOM     17  C   UNL A   1      34.036  19.721  24.465  1.00  0.00     0.199 C 
ATOM     18  C   UNL A   1      32.929  17.685  25.448  1.00  0.00     0.017 C 
ATOM     19  C   UNL A   1      34.022  18.149  24.516  1.00  0.00     0.018 C 
ATOM     20  C   UNL A   1      35.400  17.566  24.892  1.00  0.00     0.017 C 
ATOM     21  C   UNL A   1      33.658  17.461  23.186  1.00  0.00     0.023 C 
ATOM     22  C   UNL A   1      32.254  17.769  22.696  1.00  0.00     0.070 C 
ATOM     23  C   UNL A   1      32.675  20.265  23.918  1.00  0.00     0.135 C 
ATOM     24  S   UNL A   1      32.105  19.536  22.330  1.00  0.00    -0.156 SA
ENDBRANCH  11  17
ENDBRANCH   9  10
ENDBRANCH   8   9
ENDBRANCH   7   8
ENDBRANCH   4   7
ENDBRANCH   2   3
ENDBRANCH   1   2
BRANCH   1  25
ATOM     25  C   UNL A   1      33.975  31.982  27.297  1.00  0.00     0.023 C 
BRANCH  25  26
ATOM     26  C   UNL A   1      32.612  32.583  27.634  1.00  0.00     0.116 C 
BRANCH  26  27
ATOM     27  N   UNL A   1      32.772  34.017  27.774  1.00  0.00    -0.352 N 
ATOM     28  C   UNL A   1      33.287  34.663  28.877  1.00  0.00     0.251 C 
ATOM     29  H   UNL A   1      32.489  34.578  27.017  1.00  0.00     0.163 HD
ATOM     30  O   UNL A   1      32.768  35.710  29.250  1.00  0.00    -0.269 OA
BRANCH  28  31
ATOM     31  C   UNL A   1      34.482  34.119  29.575  1.00  0.00     0.039 A 
ATOM     32  C   UNL A   1      35.755  34.388  29.061  1.00  0.00     0.014 A 
ATOM     33  C   UNL A   1      34.346  33.255  30.666  1.00  0.00     0.014 A 
ATOM     34  C   UNL A   1      36.886  33.802  29.640  1.00  0.00     0.010 A 
ATOM     35  C   UNL A   1      35.478  32.710  31.275  1.00  0.00     0.010 A 
ATOM     36  C   UNL A   1      36.759  32.968  30.763  1.00  0.00    -0.014 A 
BRANCH  36  37
ATOM     37  C   UNL A   1      37.951  32.360  31.415  1.00  0.00     0.031 A 
ATOM     38  C   UNL A   1      38.667  31.204  30.768  1.00  0.00     0.074 A 
ATOM     39  C   UNL A   1      38.346  32.813  32.622  1.00  0.00     0.049 A 
ATOM     40  N   UNL A   1      39.660  30.484  31.224  1.00  0.00    -0.248 NA
ATOM     41  C   UNL A   1      38.183  30.787  29.444  1.00  0.00     0.031 C 
ATOM     42  C   UNL A   1      37.713  33.911  33.355  1.00  0.00     0.029 A 
ATOM     43  N   UNL A   1      39.359  32.403  33.453  1.00  0.00    -0.354 N 
ATOM     44  C   UNL A   1      39.913  29.521  30.251  1.00  0.00     0.074 A 
ATOM     45  C   UNL A   1      38.929  29.718  29.207  1.00  0.00     0.031 C 
ATOM     46  C   UNL A   1      38.362  34.098  34.515  1.00  0.00     0.029 A 
ATOM     47  C   UNL A   1      39.420  33.101  34.637  1.00  0.00     0.049 A 
ATOM     48  H   UNL A   1      39.983  31.676  33.223  1.00  0.00     0.167 HD
ATOM     49  C   UNL A   1      40.886  28.575  30.225  1.00  0.00     0.034 A 
ATOM     50  C   UNL A   1      40.220  32.941  35.711  1.00  0.00     0.034 A 
ATOM     51  C   UNL A   1      41.858  28.402  31.277  1.00  0.00     0.049 A 
ATOM     52  C   UNL A   1      41.255  31.845  35.683  1.00  0.00     0.074 A 
ATOM     53  C   UNL A   1      42.926  27.523  31.329  1.00  0.00     0.029 A 
ATOM     54  N   UNL A   1      41.873  29.112  32.472  1.00  0.00    -0.354 N 
ATOM     55  N   UNL A   1      41.520  30.985  34.727  1.00  0.00    -0.248 NA
ATOM     56  C   UNL A   1      42.099  31.700  36.876  1.00  0.00     0.031 C 
ATOM     57  C   UNL A   1      43.531  27.642  32.584  1.00  0.00     0.029 A 
ATOM     58  C   UNL A   1      42.897  28.654  33.286  1.00  0.00     0.049 A 
ATOM     59  H   UNL A   1      41.247  29.835  32.705  1.00  0.00     0.167 HD
ATOM     60  C   UNL A   1      42.572  30.207  35.199  1.00  0.00     0.074 A 
ATOM     61  C   UNL A   1      42.910  30.717  36.512  1.00  0.00     0.031 C 
ATOM     62  C   UNL A   1      43.204  29.162  34.603  1.00  0.00     0.034 A 
BRANCH  49  63
ATOM     63  C   UNL A   1      40.924  27.640  29.038  1.00  0.00     0.023 A 
ATOM     64  C   UNL A   1      41.866  27.793  28.005  1.00  0.00     0.031 A 
ATOM     65  C   UNL A   1      39.998  26.587  28.929  1.00  0.00     0.131 A 
ATOM     66  C   UNL A   1      41.812  26.959  26.877  1.00  0.00     0.055 A 
ATOM     67  C   UNL A   1      40.004  25.707  27.843  1.00  0.00     0.041 A 
ATOM     68  F   UNL A   1      39.061  26.399  29.872  1.00  0.00    -0.206 F 
ATOM     69  C   UNL A   1      40.905  25.901  26.800  1.00  0.00     0.022 A 
BRANCH  66  70
ATOM     70  S   UNL A   1      42.848  27.376  25.448  1.00  0.00     0.124 S 
ATOM     71  O   UNL A   1      42.876  26.109  24.723  1.00  0.00    -0.237 OA
ATOM     72  O   UNL A   1      42.103  28.458  24.820  1.00  0.00    -0.237 OA
ATOM     73  O   UNL A   1      44.126  27.764  26.054  1.00  0.00    -0.744 OA
ENDBRANCH  66  70
ENDBRANCH  49  63
BRANCH  50  74
ATOM     74  C   UNL A   1      40.059  33.814  36.911  1.00  0.00     0.023 A 
ATOM     75  C   UNL A   1      40.952  34.866  37.166  1.00  0.00     0.031 A 
ATOM     76  C   UNL A   1      39.030  33.586  37.844  1.00  0.00     0.131 A 
ATOM     77  C   UNL A   1      40.827  35.622  38.342  1.00  0.00     0.055 A 
ATOM     78  C   UNL A   1      38.874  34.378  38.982  1.00  0.00     0.041 A 
ATOM     79  F   UNL A   1      38.147  32.592  37.652  1.00  0.00    -0.206 F 
ATOM     80  C   UNL A   1      39.785  35.396  39.244  1.00  0.00     0.022 A 
BRANCH  77  81
ATOM     81  S   UNL A   1      42.107  36.850  38.724  1.00  0.00     0.124 S 
ATOM     82  O   UNL A   1      43.009  36.083  39.576  1.00  0.00    -0.237 OA
ATOM     83  O   UNL A   1      42.609  37.187  37.396  1.00  0.00    -0.237 OA
ATOM     84  O   UNL A   1      41.366  37.915  39.398  1.00  0.00    -0.744 OA
ENDBRANCH  77  81
ENDBRANCH  50  74
BRANCH  62  85
ATOM     85  C   UNL A   1      44.332  28.517  35.368  1.00  0.00     0.023 A 
ATOM     86  C   UNL A   1      44.092  27.516  36.325  1.00  0.00     0.031 A 
ATOM     87  C   UNL A   1      45.665  28.900  35.130  1.00  0.00     0.131 A 
ATOM     88  C   UNL A   1      45.163  26.965  37.043  1.00  0.00     0.055 A 
ATOM     89  C   UNL A   1      46.731  28.301  35.802  1.00  0.00     0.041 A 
ATOM     90  F   UNL A   1      45.952  29.853  34.230  1.00  0.00    -0.206 F 
ATOM     91  C   UNL A   1      46.482  27.334  36.773  1.00  0.00     0.022 A 
BRANCH  88  92
ATOM     92  S   UNL A   1      44.801  25.810  38.394  1.00  0.00     0.124 S 
ATOM     93  O   UNL A   1      43.830  26.562  39.182  1.00  0.00    -0.237 OA
ATOM     94  O   UNL A   1      44.281  24.647  37.682  1.00  0.00    -0.237 OA
ATOM     95  O   UNL A   1      46.101  25.613  39.034  1.00  0.00    -0.744 OA
ENDBRANCH  88  92
ENDBRANCH  62  85
ENDBRANCH  36  37
ENDBRANCH  28  31
ENDBRANCH  26  27
ENDBRANCH  25  26
ENDBRANCH   1  25
TORSDOF 18
ENDMDL
MODEL 2
REMARK VINA RESULT:     -11.0      6.361     11.364
REMARK SMILES CC1(C)CCSC[C@H]1[NH+]1CCC(OCCC(=O)NCCCCNC(=O)c2ccc(-c3c4nc(c(-c5cc(S(=O)(=O)[O-])ccc5F)c5ccc([nH]5)c(-c5cc(S(=O)(=O)[O-])ccc5F)c5nc(c(-c6cc(S(=O)(=O)[O-])ccc6F)c6ccc3[nH]6)C=C5)C=C4)cc2)CC1
REMARK SMILES IDX 20 1 19 2 18 3 16 4 17 5 15 7 14 8 13 9 12 10 9 11 10 12
REMARK SMILES IDX 90 13 11 15 89 16 8 17 1 18 2 19 3 20 4 21 5 22 7 23 6 24
REMARK SMILES IDX 21 25 22 26 23 27 24 28 25 30 26 31 27 32 88 33 28 34 87 35
REMARK SMILES IDX 29 36 30 37 31 38 81 39 32 40 86 41 80 42 82 43 33 44 85 45
REMARK SMILES IDX 79 46 78 47 34 49 66 50 46 51 65 52 47 53 50 54 64 55 83 56
REMARK SMILES IDX 48 57 49 58 63 60 84 61 51 62 35 63 36 64 44 65 37 66 43 67
REMARK SMILES IDX 45 68 42 69 38 70 39 71 40 72 41 73 67 74 68 75 76 76 69 77
REMARK SMILES IDX 75 78 77 79 74 80 70 81 71 82 72 83 73 84 52 85 53 86 61 87
REMARK SMILES IDX 54 88 60 89 62 90 59 91 55 92 56 93 57 94 58 95
REMARK H PARENT 18 6 9 14 23 29 82 48 50 59
REMARK Flexibility Score: inf
ROOT
ATOM      1  C   UNL A   1      38.667  22.668  25.784  1.00  0.00     0.023 C 
ENDROOT
BRANCH   1   2
ATOM      2  C   UNL A   1      37.612  23.677  26.223  1.00  0.00     0.116 C 
BRANCH   2   3
ATOM      3  N   UNL A   1      36.605  24.105  25.274  1.00  0.00    -0.356 N 
ATOM      4  C   UNL A   1      35.269  24.217  25.506  1.00  0.00     0.222 C 
ATOM      5  O   UNL A   1      34.738  25.288  25.185  1.00  0.00    -0.275 OA
ATOM      6  H   UNL A   1      36.919  24.338  24.370  1.00  0.00     0.163 HD
BRANCH   4   7
ATOM      7  C   UNL A   1      34.443  23.110  26.150  1.00  0.00     0.128 C 
BRANCH   7   8
ATOM      8  C   UNL A   1      33.152  22.502  25.502  1.00  0.00     0.170 C 
BRANCH   8   9
ATOM      9  O   UNL A   1      32.948  22.536  24.089  1.00  0.00    -0.377 OA
BRANCH   9  10
ATOM     10  C   UNL A   1      32.155  23.435  23.257  1.00  0.00     0.129 C 
ATOM     11  N   UNL A   1      31.280  26.209  23.219  1.00  0.00    -0.331 N 
ATOM     12  C   UNL A   1      32.061  25.754  22.090  1.00  0.00     0.265 C 
ATOM     13  C   UNL A   1      30.232  25.242  23.509  1.00  0.00     0.265 C 
ATOM     14  H   UNL A   1      30.842  27.080  22.921  1.00  0.00     0.348 HD
ATOM     15  C   UNL A   1      32.880  24.517  22.409  1.00  0.00     0.093 C 
ATOM     16  C   UNL A   1      30.684  23.761  23.629  1.00  0.00     0.093 C 
BRANCH  11  17
ATOM     17  C   UNL A   1      31.843  27.085  24.285  1.00  0.00     0.199 C 
ATOM     18  C   UNL A   1      30.676  29.281  23.893  1.00  0.00     0.017 C 
ATOM     19  C   UNL A   1      32.030  28.619  23.990  1.00  0.00     0.018 C 
ATOM     20  C   UNL A   1      32.897  28.871  22.740  1.00  0.00     0.017 C 
ATOM     21  C   UNL A   1      32.723  29.415  25.113  1.00  0.00     0.023 C 
ATOM     22  C   UNL A   1      31.950  29.440  26.420  1.00  0.00     0.070 C 
ATOM     23  C   UNL A   1      31.105  26.873  25.648  1.00  0.00     0.135 C 
ATOM     24  S   UNL A   1      31.819  27.762  27.089  1.00  0.00    -0.156 SA
ENDBRANCH  11  17
ENDBRANCH   9  10
ENDBRANCH   8   9
ENDBRANCH   7   8
ENDBRANCH   4   7
ENDBRANCH   2   3
ENDBRANCH   1   2
BRANCH   1  25
ATOM     25  C   UNL A   1      38.596  21.178  26.163  1.00  0.00     0.023 C 
BRANCH  25  26
ATOM     26  C   UNL A   1      39.085  20.121  25.176  1.00  0.00     0.116 C 
BRANCH  26  27
ATOM     27  N   UNL A   1      39.986  19.228  25.879  1.00  0.00    -0.352 N 
ATOM     28  C   UNL A   1      41.338  19.426  26.052  1.00  0.00     0.251 C 
ATOM     29  H   UNL A   1      39.598  18.410  26.266  1.00  0.00     0.163 HD
ATOM     30  O   UNL A   1      42.098  18.467  25.955  1.00  0.00    -0.269 OA
BRANCH  28  31
ATOM     31  C   UNL A   1      41.862  20.774  26.396  1.00  0.00     0.039 A 
ATOM     32  C   UNL A   1      41.935  21.156  27.741  1.00  0.00     0.014 A 
ATOM     33  C   UNL A   1      42.174  21.701  25.396  1.00  0.00     0.014 A 
ATOM     34  C   UNL A   1      42.325  22.456  28.081  1.00  0.00     0.010 A 
ATOM     35  C   UNL A   1      42.612  22.982  25.739  1.00  0.00     0.010 A 
ATOM     36  C   UNL A   1      42.682  23.378  27.084  1.00  0.00    -0.014 A 
BRANCH  36  37
ATOM     37  C   UNL A   1      43.132  24.755  27.426  1.00  0.00     0.031 A 
ATOM     38  C   UNL A   1      42.180  25.730  28.068  1.00  0.00     0.074 A 
ATOM     39  C   UNL A   1      44.380  25.142  27.097  1.00  0.00     0.049 A 
ATOM     40  N   UNL A   1      42.356  26.994  28.353  1.00  0.00    -0.248 NA
ATOM     41  C   UNL A   1      40.845  25.218  28.411  1.00  0.00     0.031 C 
ATOM     42  C   UNL A   1      45.380  24.291  26.450  1.00  0.00     0.029 A 
ATOM     43  N   UNL A   1      45.020  26.348  27.245  1.00  0.00    -0.354 N 
ATOM     44  C   UNL A   1      41.153  27.435  28.896  1.00  0.00     0.074 A 
ATOM     45  C   UNL A   1      40.239  26.313  28.847  1.00  0.00     0.031 C 
ATOM     46  C   UNL A   1      46.510  24.994  26.274  1.00  0.00     0.029 A 
ATOM     47  C   UNL A   1      46.301  26.360  26.742  1.00  0.00     0.049 A 
ATOM     48  H   UNL A   1      44.601  27.131  27.671  1.00  0.00     0.167 HD
ATOM     49  C   UNL A   1      40.847  28.657  29.404  1.00  0.00     0.034 A 
ATOM     50  C   UNL A   1      47.197  27.363  26.645  1.00  0.00     0.034 A 
ATOM     51  C   UNL A   1      41.778  29.759  29.446  1.00  0.00     0.049 A 
ATOM     52  C   UNL A   1      46.813  28.726  27.162  1.00  0.00     0.074 A 
ATOM     53  C   UNL A   1      41.601  31.017  29.993  1.00  0.00     0.029 A 
ATOM     54  N   UNL A   1      43.058  29.740  28.904  1.00  0.00    -0.354 N 
ATOM     55  N   UNL A   1      45.692  29.108  27.730  1.00  0.00    -0.248 NA
ATOM     56  C   UNL A   1      47.815  29.792  27.029  1.00  0.00     0.031 C 
ATOM     57  C   UNL A   1      42.736  31.783  29.710  1.00  0.00     0.029 A 
ATOM     58  C   UNL A   1      43.659  30.980  29.059  1.00  0.00     0.049 A 
ATOM     59  H   UNL A   1      43.476  28.960  28.473  1.00  0.00     0.167 HD
ATOM     60  C   UNL A   1      45.861  30.455  28.035  1.00  0.00     0.074 A 
ATOM     61  C   UNL A   1      47.201  30.811  27.613  1.00  0.00     0.031 C 
ATOM     62  C   UNL A   1      44.988  31.322  28.611  1.00  0.00     0.034 A 
BRANCH  49  63
ATOM     63  C   UNL A   1      39.444  28.869  29.924  1.00  0.00     0.023 A 
ATOM     64  C   UNL A   1      38.417  29.367  29.103  1.00  0.00     0.031 A 
ATOM     65  C   UNL A   1      39.128  28.581  31.264  1.00  0.00     0.131 A 
ATOM     66  C   UNL A   1      37.151  29.634  29.646  1.00  0.00     0.055 A 
ATOM     67  C   UNL A   1      37.843  28.769  31.778  1.00  0.00     0.041 A 
ATOM     68  F   UNL A   1      40.068  28.121  32.105  1.00  0.00    -0.206 F 
ATOM     69  C   UNL A   1      36.848  29.314  30.971  1.00  0.00     0.022 A 
BRANCH  66  70
ATOM     70  S   UNL A   1      35.953  30.544  28.633  1.00  0.00     0.124 S 
ATOM     71  O   UNL A   1      35.296  31.382  29.632  1.00  0.00    -0.237 OA
ATOM     72  O   UNL A   1      36.806  31.236  27.677  1.00  0.00    -0.237 OA
ATOM     73  O   UNL A   1      35.109  29.486  28.068  1.00  0.00    -0.744 OA
ENDBRANCH  66  70
ENDBRANCH  49  63
BRANCH  50  74
ATOM     74  C   UNL A   1      48.527  27.130  26.009  1.00  0.00     0.023 A 
ATOM     75  C   UNL A   1      48.735  27.398  24.647  1.00  0.00     0.031 A 
ATOM     76  C   UNL A   1      49.603  26.601  26.746  1.00  0.00     0.131 A 
ATOM     77  C   UNL A   1      49.972  27.096  24.054  1.00  0.00     0.055 A 
ATOM     78  C   UNL A   1      50.849  26.359  26.166  1.00  0.00     0.041 A 
ATOM     79  F   UNL A   1      49.461  26.325  28.053  1.00  0.00    -0.206 F 
ATOM     80  C   UNL A   1      51.035  26.594  24.808  1.00  0.00     0.022 A 
BRANCH  77  81
ATOM     81  S   UNL A   1      50.141  27.284  22.259  1.00  0.00     0.124 S 
ATOM     82  O   UNL A   1      49.975  28.723  22.093  1.00  0.00    -0.237 OA
ATOM     83  O   UNL A   1      51.482  26.760  22.025  1.00  0.00    -0.237 OA
ATOM     84  O   UNL A   1      49.053  26.465  21.727  1.00  0.00    -0.744 OA
ENDBRANCH  77  81
ENDBRANCH  50  74
BRANCH  62  85
ATOM     85  C   UNL A   1      45.469  32.735  28.827  1.00  0.00     0.023 A 
ATOM     86  C   UNL A   1      45.334  33.716  27.830  1.00  0.00     0.031 A 
ATOM     87  C   UNL A   1      46.060  33.108  30.048  1.00  0.00     0.131 A 
ATOM     88  C   UNL A   1      45.826  35.011  28.053  1.00  0.00     0.055 A 
ATOM     89  C   UNL A   1      46.489  34.414  30.287  1.00  0.00     0.041 A 
ATOM     90  F   UNL A   1      46.217  32.210  31.033  1.00  0.00    -0.206 F 
ATOM     91  C   UNL A   1      46.382  35.372  29.281  1.00  0.00     0.022 A 
BRANCH  88  92
ATOM     92  S   UNL A   1      45.800  36.199  26.682  1.00  0.00     0.124 S 
ATOM     93  O   UNL A   1      46.979  37.010  26.963  1.00  0.00    -0.237 OA
ATOM     94  O   UNL A   1      45.887  35.331  25.512  1.00  0.00    -0.237 OA
ATOM     95  O   UNL A   1      44.520  36.886  26.849  1.00  0.00    -0.744 OA
ENDBRANCH  88  92
ENDBRANCH  62  85
ENDBRANCH  36  37
ENDBRANCH  28  31
ENDBRANCH  26  27
ENDBRANCH  25  26
ENDBRANCH   1  25
TORSDOF 18
ENDMDL
MODEL 3
REMARK VINA RESULT:     -11.0      6.020      9.904
REMARK SMILES CC1(C)CCSC[C@H]1[NH+]1CCC(OCCC(=O)NCCCCNC(=O)c2ccc(-c3c4nc(c(-c5cc(S(=O)(=O)[O-])ccc5F)c5ccc([nH]5)c(-c5cc(S(=O)(=O)[O-])ccc5F)c5nc(c(-c6cc(S(=O)(=O)[O-])ccc6F)c6ccc3[nH]6)C=C5)C=C4)cc2)CC1
REMARK SMILES IDX 20 1 19 2 18 3 16 4 17 5 15 7 14 8 13 9 12 10 9 11 10 12
REMARK SMILES IDX 90 13 11 15 89 16 8 17 1 18 2 19 3 20 4 21 5 22 7 23 6 24
REMARK SMILES IDX 21 25 22 26 23 27 24 28 25 30 26 31 27 32 88 33 28 34 87 35
REMARK SMILES IDX 29 36 30 37 31 38 81 39 32 40 86 41 80 42 82 43 33 44 85 45
REMARK SMILES IDX 79 46 78 47 34 49 66 50 46 51 65 52 47 53 50 54 64 55 83 56
REMARK SMILES IDX 48 57 49 58 63 60 84 61 51 62 35 63 36 64 44 65 37 66 43 67
REMARK SMILES IDX 45 68 42 69 38 70 39 71 40 72 41 73 67 74 68 75 76 76 69 77
REMARK SMILES IDX 75 78 77 79 74 80 70 81 71 82 72 83 73 84 52 85 53 86 61 87
REMARK SMILES IDX 54 88 60 89 62 90 59 91 55 92 56 93 57 94 58 95
REMARK H PARENT 18 6 9 14 23 29 82 48 50 59
REMARK Flexibility Score: inf
ROOT
ATOM      1  C   UNL A   1      36.390  21.113  25.302  1.00  0.00     0.023 C 
ENDROOT
BRANCH   1   2
ATOM      2  C   UNL A   1      35.449  19.954  24.987  1.00  0.00     0.116 C 
BRANCH   2   3
ATOM      3  N   UNL A   1      34.176  19.872  25.672  1.00  0.00    -0.356 N 
ATOM      4  C   UNL A   1      33.059  19.231  25.231  1.00  0.00     0.222 C 
ATOM      5  O   UNL A   1      32.518  18.451  26.025  1.00  0.00    -0.275 OA
ATOM      6  H   UNL A   1      34.112  20.325  26.545  1.00  0.00     0.163 HD
BRANCH   4   7
ATOM      7  C   UNL A   1      32.491  19.423  23.830  1.00  0.00     0.128 C 
BRANCH   7   8
ATOM      8  C   UNL A   1      32.168  20.824  23.209  1.00  0.00     0.170 C 
BRANCH   8   9
ATOM      9  O   UNL A   1      32.339  22.024  23.963  1.00  0.00    -0.377 OA
BRANCH   9  10
ATOM     10  C   UNL A   1      33.427  22.997  23.981  1.00  0.00     0.129 C 
ATOM     11  N   UNL A   1      33.808  25.878  24.117  1.00  0.00    -0.331 N 
ATOM     12  C   UNL A   1      34.417  25.088  25.164  1.00  0.00     0.265 C 
ATOM     13  C   UNL A   1      34.104  25.283  22.821  1.00  0.00     0.265 C 
ATOM     14  H   UNL A   1      34.258  26.792  24.162  1.00  0.00     0.348 HD
ATOM     15  C   UNL A   1      33.772  23.722  25.312  1.00  0.00     0.093 C 
ATOM     16  C   UNL A   1      33.821  23.762  22.689  1.00  0.00     0.093 C 
BRANCH  11  17
ATOM     17  C   UNL A   1      32.578  26.689  24.333  1.00  0.00     0.199 C 
ATOM     18  C   UNL A   1      33.220  28.951  23.434  1.00  0.00     0.017 C 
ATOM     19  C   UNL A   1      32.723  28.222  24.659  1.00  0.00     0.018 C 
ATOM     20  C   UNL A   1      33.614  28.474  25.893  1.00  0.00     0.017 C 
ATOM     21  C   UNL A   1      31.400  28.945  24.978  1.00  0.00     0.023 C 
ATOM     22  C   UNL A   1      30.413  28.963  23.825  1.00  0.00     0.070 C 
ATOM     23  C   UNL A   1      31.537  26.468  23.187  1.00  0.00     0.135 C 
ATOM     24  S   UNL A   1      29.902  27.273  23.426  1.00  0.00    -0.156 SA
ENDBRANCH  11  17
ENDBRANCH   9  10
ENDBRANCH   8   9
ENDBRANCH   7   8
ENDBRANCH   4   7
ENDBRANCH   2   3
ENDBRANCH   1   2
BRANCH   1  25
ATOM     25  C   UNL A   1      37.844  20.898  25.758  1.00  0.00     0.023 C 
BRANCH  25  26
ATOM     26  C   UNL A   1      38.752  19.951  24.977  1.00  0.00     0.116 C 
BRANCH  26  27
ATOM     27  N   UNL A   1      39.626  19.282  25.920  1.00  0.00    -0.352 N 
ATOM     28  C   UNL A   1      40.910  19.668  26.238  1.00  0.00     0.251 C 
ATOM     29  H   UNL A   1      39.272  18.482  26.372  1.00  0.00     0.163 HD
ATOM     30  O   UNL A   1      41.771  18.807  26.389  1.00  0.00    -0.269 OA
BRANCH  28  31
ATOM     31  C   UNL A   1      41.233  21.105  26.438  1.00  0.00     0.039 A 
ATOM     32  C   UNL A   1      41.992  21.776  25.472  1.00  0.00     0.014 A 
ATOM     33  C   UNL A   1      40.889  21.761  27.624  1.00  0.00     0.014 A 
ATOM     34  C   UNL A   1      42.395  23.098  25.689  1.00  0.00     0.010 A 
ATOM     35  C   UNL A   1      41.249  23.097  27.818  1.00  0.00     0.010 A 
ATOM     36  C   UNL A   1      42.016  23.776  26.858  1.00  0.00    -0.014 A 
BRANCH  36  37
ATOM     37  C   UNL A   1      42.406  25.193  27.094  1.00  0.00     0.031 A 
ATOM     38  C   UNL A   1      43.778  25.679  26.708  1.00  0.00     0.074 A 
ATOM     39  C   UNL A   1      41.543  26.021  27.716  1.00  0.00     0.049 A 
ATOM     40  N   UNL A   1      44.334  26.845  26.917  1.00  0.00    -0.248 NA
ATOM     41  C   UNL A   1      44.649  24.716  26.017  1.00  0.00     0.031 C 
ATOM     42  C   UNL A   1      40.197  25.653  28.157  1.00  0.00     0.029 A 
ATOM     43  N   UNL A   1      41.668  27.334  28.098  1.00  0.00    -0.354 N 
ATOM     44  C   UNL A   1      45.622  26.754  26.398  1.00  0.00     0.074 A 
ATOM     45  C   UNL A   1      45.780  25.398  25.914  1.00  0.00     0.031 C 
ATOM     46  C   UNL A   1      39.615  26.717  28.732  1.00  0.00     0.029 A 
ATOM     47  C   UNL A   1      40.562  27.827  28.752  1.00  0.00     0.049 A 
ATOM     48  H   UNL A   1      42.473  27.872  27.920  1.00  0.00     0.167 HD
ATOM     49  C   UNL A   1      46.575  27.717  26.316  1.00  0.00     0.034 A 
ATOM     50  C   UNL A   1      40.344  29.027  29.326  1.00  0.00     0.034 A 
ATOM     51  C   UNL A   1      46.392  29.064  26.801  1.00  0.00     0.049 A 
ATOM     52  C   UNL A   1      41.440  30.062  29.274  1.00  0.00     0.074 A 
ATOM     53  C   UNL A   1      47.260  30.138  26.715  1.00  0.00     0.029 A 
ATOM     54  N   UNL A   1      45.267  29.519  27.481  1.00  0.00    -0.354 N 
ATOM     55  N   UNL A   1      42.628  29.978  28.722  1.00  0.00    -0.248 NA
ATOM     56  C   UNL A   1      41.165  31.353  29.920  1.00  0.00     0.031 C 
ATOM     57  C   UNL A   1      46.699  31.212  27.412  1.00  0.00     0.029 A 
ATOM     58  C   UNL A   1      45.443  30.839  27.863  1.00  0.00     0.049 A 
ATOM     59  H   UNL A   1      44.464  28.980  27.664  1.00  0.00     0.167 HD
ATOM     60  C   UNL A   1      43.236  31.210  28.942  1.00  0.00     0.074 A 
ATOM     61  C   UNL A   1      42.273  32.028  29.651  1.00  0.00     0.031 C 
ATOM     62  C   UNL A   1      44.479  31.631  28.590  1.00  0.00     0.034 A 
BRANCH  49  63
ATOM     63  C   UNL A   1      47.906  27.338  25.708  1.00  0.00     0.023 A 
ATOM     64  C   UNL A   1      48.182  27.544  24.345  1.00  0.00     0.031 A 
ATOM     65  C   UNL A   1      48.911  26.751  26.499  1.00  0.00     0.131 A 
ATOM     66  C   UNL A   1      49.396  27.096  23.800  1.00  0.00     0.055 A 
ATOM     67  C   UNL A   1      50.150  26.385  25.967  1.00  0.00     0.041 A 
ATOM     68  F   UNL A   1      48.702  26.510  27.803  1.00  0.00    -0.206 F 
ATOM     69  C   UNL A   1      50.393  26.543  24.605  1.00  0.00     0.022 A 
BRANCH  66  70
ATOM     70  S   UNL A   1      49.589  27.115  21.996  1.00  0.00     0.124 S 
ATOM     71  O   UNL A   1      51.001  26.775  21.846  1.00  0.00    -0.237 OA
ATOM     72  O   UNL A   1      48.636  26.103  21.565  1.00  0.00    -0.237 OA
ATOM     73  O   UNL A   1      49.248  28.494  21.630  1.00  0.00    -0.744 OA
ENDBRANCH  66  70
ENDBRANCH  49  63
BRANCH  50  74
ATOM     74  C   UNL A   1      39.055  29.310  30.024  1.00  0.00     0.023 A 
ATOM     75  C   UNL A   1      38.073  30.118  29.431  1.00  0.00     0.031 A 
ATOM     76  C   UNL A   1      38.800  28.806  31.313  1.00  0.00     0.131 A 
ATOM     77  C   UNL A   1      36.903  30.434  30.139  1.00  0.00     0.055 A 
ATOM     78  C   UNL A   1      37.609  29.074  31.990  1.00  0.00     0.041 A 
ATOM     79  F   UNL A   1      39.704  28.027  31.930  1.00  0.00    -0.206 F 
ATOM     80  C   UNL A   1      36.657  29.904  31.408  1.00  0.00     0.022 A 
BRANCH  77  81
ATOM     81  S   UNL A   1      35.745  31.627  29.414  1.00  0.00     0.124 S 
ATOM     82  O   UNL A   1      36.650  32.666  28.935  1.00  0.00    -0.237 OA
ATOM     83  O   UNL A   1      35.087  30.825  28.388  1.00  0.00    -0.237 OA
ATOM     84  O   UNL A   1      34.899  32.009  30.543  1.00  0.00    -0.744 OA
ENDBRANCH  77  81
ENDBRANCH  50  74
BRANCH  62  85
ATOM     85  C   UNL A   1      44.854  33.044  28.960  1.00  0.00     0.023 A 
ATOM     86  C   UNL A   1      44.449  34.140  28.178  1.00  0.00     0.031 A 
ATOM     87  C   UNL A   1      45.616  33.300  30.114  1.00  0.00     0.131 A 
ATOM     88  C   UNL A   1      44.848  35.436  28.533  1.00  0.00     0.055 A 
ATOM     89  C   UNL A   1      45.955  34.598  30.497  1.00  0.00     0.041 A 
ATOM     90  F   UNL A   1      46.033  32.290  30.895  1.00  0.00    -0.206 F 
ATOM     91  C   UNL A   1      45.578  35.675  29.699  1.00  0.00     0.022 A 
BRANCH  88  92
ATOM     92  S   UNL A   1      44.462  36.804  27.406  1.00  0.00     0.124 S 
ATOM     93  O   UNL A   1      45.688  36.902  26.620  1.00  0.00    -0.237 OA
ATOM     94  O   UNL A   1      43.288  36.305  26.697  1.00  0.00    -0.237 OA
ATOM     95  O   UNL A   1      44.210  37.929  28.306  1.00  0.00    -0.744 OA
ENDBRANCH  88  92
ENDBRANCH  62  85
ENDBRANCH  36  37
ENDBRANCH  28  31
ENDBRANCH  26  27
ENDBRANCH  25  26
ENDBRANCH   1  25
TORSDOF 18
ENDMDL
