MODEL 1
REMARK VINA RESULT:     -11.6      0.000      0.000
REMARK SMILES C[C@@H](c1ccccn1)S(=O)(=O)N1CC[NH2+]C[C@@H]1C(=O)NCCCCNC(=O)c1ccc(-c2c3nc(c(-c4cc(S(=O)(=O)[O-])ccc4F)c4ccc([nH]4)c(-c4cc(S(=O)(=O)[O-])ccc4F)c4nc(c(-c5cc(S(=O)(=O)[O-])ccc5F)c5ccc2[nH]5)C=C4)C=C3)cc1
REMARK SMILES IDX 22 1 21 2 20 3 18 4 19 5 17 7 12 8 13 9 14 10 16 11 15 12
REMARK SMILES IDX 9 15 10 16 11 17 2 18 1 19 3 20 4 21 8 22 5 23 7 24 6 25
REMARK SMILES IDX 23 26 24 27 25 28 26 29 27 31 28 32 29 33 90 34 30 35 89 36
REMARK SMILES IDX 31 37 32 38 33 39 83 40 34 41 88 42 82 43 84 44 35 45 87 46
REMARK SMILES IDX 81 47 80 48 36 50 68 51 48 52 67 53 49 54 52 55 66 56 85 57
REMARK SMILES IDX 50 58 51 59 65 61 86 62 53 63 37 64 38 65 46 66 39 67 45 68
REMARK SMILES IDX 47 69 44 70 40 71 41 72 42 73 43 74 69 75 70 76 78 77 71 78
REMARK SMILES IDX 77 79 79 80 76 81 72 82 73 83 74 84 75 85 54 86 55 87 63 88
REMARK SMILES IDX 56 89 62 90 64 91 61 92 57 93 58 94 59 95 60 96
REMARK H PARENT 20 6 15 13 15 14 25 30 84 49 52 60
REMARK Flexibility Score: inf
ROOT
ATOM      1  C   UNL A   1      35.812  23.732  23.413  1.00  0.00     0.023 C 
ENDROOT
BRANCH   1   2
ATOM      2  C   UNL A   1      34.403  24.006  22.886  1.00  0.00     0.116 C 
BRANCH   2   3
ATOM      3  N   UNL A   1      34.013  25.382  23.119  1.00  0.00    -0.355 N 
ATOM      4  C   UNL A   1      33.311  25.952  24.143  1.00  0.00     0.244 C 
ATOM      5  O   UNL A   1      33.040  27.145  23.996  1.00  0.00    -0.273 OA
ATOM      6  H   UNL A   1      34.303  26.013  22.420  1.00  0.00     0.163 HD
BRANCH   4   7
ATOM      7  C   UNL A   1      32.932  25.130  25.403  1.00  0.00     0.216 C 
ATOM      8  N   UNL A   1      32.007  23.971  25.113  1.00  0.00    -0.177 NA
ATOM      9  C   UNL A   1      30.652  24.525  24.670  1.00  0.00     0.164 C 
ATOM     10  C   UNL A   1      30.094  25.591  25.649  1.00  0.00     0.277 C 
ATOM     11  C   UNL A   1      32.317  26.073  26.459  1.00  0.00     0.291 C 
ATOM     12  N   UNL A   1      31.032  26.662  26.038  1.00  0.00    -0.343 N 
ATOM     13  H   UNL A   1      30.634  27.196  26.812  1.00  0.00     0.346 HD
ATOM     14  H   UNL A   1      31.188  27.280  25.242  1.00  0.00     0.346 HD
BRANCH   8  15
ATOM     15  S   UNL A   1      31.781  22.715  26.245  1.00  0.00     0.223 S 
ATOM     16  O   UNL A   1      30.620  21.988  25.753  1.00  0.00    -0.211 OA
ATOM     17  O   UNL A   1      31.677  23.323  27.554  1.00  0.00    -0.211 OA
BRANCH  15  18
ATOM     18  C   UNL A   1      33.157  21.521  26.233  1.00  0.00     0.170 C 
ATOM     19  C   UNL A   1      33.660  21.184  27.631  1.00  0.00     0.033 C 
BRANCH  18  20
ATOM     20  C   UNL A   1      32.868  20.370  25.301  1.00  0.00     0.060 A 
ATOM     21  C   UNL A   1      32.682  20.528  23.927  1.00  0.00     0.025 A 
ATOM     22  N   UNL A   1      32.743  19.150  25.876  1.00  0.00    -0.260 NA
ATOM     23  C   UNL A   1      32.489  19.400  23.128  1.00  0.00     0.004 A 
ATOM     24  C   UNL A   1      32.543  18.072  25.088  1.00  0.00     0.111 A 
ATOM     25  C   UNL A   1      32.434  18.145  23.715  1.00  0.00     0.020 A 
ENDBRANCH  18  20
ENDBRANCH  15  18
ENDBRANCH   8  15
ENDBRANCH   4   7
ENDBRANCH   2   3
ENDBRANCH   1   2
BRANCH   1  26
ATOM     26  C   UNL A   1      35.908  22.617  24.462  1.00  0.00     0.023 C 
BRANCH  26  27
ATOM     27  C   UNL A   1      36.583  23.006  25.775  1.00  0.00     0.116 C 
BRANCH  27  28
ATOM     28  N   UNL A   1      37.725  22.163  26.088  1.00  0.00    -0.352 N 
ATOM     29  C   UNL A   1      38.990  22.518  26.503  1.00  0.00     0.251 C 
ATOM     30  H   UNL A   1      37.572  21.195  25.991  1.00  0.00     0.163 HD
ATOM     31  O   UNL A   1      39.864  21.664  26.557  1.00  0.00    -0.269 OA
BRANCH  29  32
ATOM     32  C   UNL A   1      39.293  23.930  26.843  1.00  0.00     0.039 A 
ATOM     33  C   UNL A   1      38.984  24.398  28.122  1.00  0.00     0.014 A 
ATOM     34  C   UNL A   1      39.880  24.788  25.909  1.00  0.00     0.014 A 
ATOM     35  C   UNL A   1      39.332  25.701  28.488  1.00  0.00     0.010 A 
ATOM     36  C   UNL A   1      40.295  26.059  26.300  1.00  0.00     0.010 A 
ATOM     37  C   UNL A   1      40.029  26.531  27.595  1.00  0.00    -0.014 A 
BRANCH  37  38
ATOM     38  C   UNL A   1      40.489  27.889  27.995  1.00  0.00     0.031 A 
ATOM     39  C   UNL A   1      41.951  28.242  27.937  1.00  0.00     0.074 A 
ATOM     40  C   UNL A   1      39.602  28.781  28.480  1.00  0.00     0.049 A 
ATOM     41  N   UNL A   1      42.557  29.335  28.325  1.00  0.00    -0.248 NA
ATOM     42  C   UNL A   1      42.852  27.213  27.399  1.00  0.00     0.031 C 
ATOM     43  C   UNL A   1      38.164  28.547  28.624  1.00  0.00     0.029 A 
ATOM     44  N   UNL A   1      39.777  30.058  28.952  1.00  0.00    -0.354 N 
ATOM     45  C   UNL A   1      43.912  29.121  28.093  1.00  0.00     0.074 A 
ATOM     46  C   UNL A   1      44.039  27.767  27.594  1.00  0.00     0.031 C 
ATOM     47  C   UNL A   1      37.588  29.650  29.128  1.00  0.00     0.029 A 
ATOM     48  C   UNL A   1      38.616  30.650  29.392  1.00  0.00     0.049 A 
ATOM     49  H   UNL A   1      40.654  30.508  28.974  1.00  0.00     0.167 HD
ATOM     50  C   UNL A   1      44.949  29.980  28.257  1.00  0.00     0.034 A 
ATOM     51  C   UNL A   1      38.403  31.854  29.961  1.00  0.00     0.034 A 
ATOM     52  C   UNL A   1      44.803  31.327  28.753  1.00  0.00     0.049 A 
ATOM     53  C   UNL A   1      39.573  32.781  30.169  1.00  0.00     0.074 A 
ATOM     54  C   UNL A   1      45.777  32.300  28.907  1.00  0.00     0.029 A 
ATOM     55  N   UNL A   1      43.611  31.892  29.194  1.00  0.00    -0.354 N 
ATOM     56  N   UNL A   1      40.842  32.584  29.895  1.00  0.00    -0.248 NA
ATOM     57  C   UNL A   1      39.279  34.096  30.754  1.00  0.00     0.031 C 
ATOM     58  C   UNL A   1      45.192  33.418  29.512  1.00  0.00     0.029 A 
ATOM     59  C   UNL A   1      43.833  33.181  29.653  1.00  0.00     0.049 A 
ATOM     60  H   UNL A   1      42.737  31.441  29.181  1.00  0.00     0.167 HD
ATOM     61  C   UNL A   1      41.494  33.765  30.248  1.00  0.00     0.074 A 
ATOM     62  C   UNL A   1      40.476  34.668  30.741  1.00  0.00     0.031 C 
ATOM     63  C   UNL A   1      42.814  34.073  30.161  1.00  0.00     0.034 A 
BRANCH  50  64
ATOM     64  C   UNL A   1      46.333  29.465  27.925  1.00  0.00     0.023 A 
ATOM     65  C   UNL A   1      46.699  29.124  26.611  1.00  0.00     0.031 A 
ATOM     66  C   UNL A   1      47.284  29.266  28.942  1.00  0.00     0.131 A 
ATOM     67  C   UNL A   1      47.938  28.511  26.363  1.00  0.00     0.055 A 
ATOM     68  C   UNL A   1      48.554  28.746  28.673  1.00  0.00     0.041 A 
ATOM     69  F   UNL A   1      46.991  29.552  30.220  1.00  0.00    -0.206 F 
ATOM     70  C   UNL A   1      48.878  28.345  27.381  1.00  0.00     0.022 A 
BRANCH  67  71
ATOM     71  S   UNL A   1      48.220  27.769  24.733  1.00  0.00     0.124 S 
ATOM     72  O   UNL A   1      47.163  28.390  23.938  1.00  0.00    -0.237 OA
ATOM     73  O   UNL A   1      49.582  28.190  24.425  1.00  0.00    -0.237 OA
ATOM     74  O   UNL A   1      48.047  26.337  24.973  1.00  0.00    -0.744 OA
ENDBRANCH  67  71
ENDBRANCH  50  64
BRANCH  51  75
ATOM     75  C   UNL A   1      37.029  32.248  30.386  1.00  0.00     0.023 A 
ATOM     76  C   UNL A   1      36.156  32.904  29.505  1.00  0.00     0.031 A 
ATOM     77  C   UNL A   1      36.575  31.985  31.692  1.00  0.00     0.131 A 
ATOM     78  C   UNL A   1      34.886  33.308  29.950  1.00  0.00     0.055 A 
ATOM     79  C   UNL A   1      35.294  32.343  32.114  1.00  0.00     0.041 A 
ATOM     80  F   UNL A   1      37.368  31.355  32.573  1.00  0.00    -0.206 F 
ATOM     81  C   UNL A   1      34.444  33.018  31.242  1.00  0.00     0.022 A 
BRANCH  78  82
ATOM     82  S   UNL A   1      33.840  34.279  28.831  1.00  0.00     0.124 S 
ATOM     83  O   UNL A   1      32.805  34.764  29.737  1.00  0.00    -0.237 OA
ATOM     84  O   UNL A   1      34.777  35.280  28.333  1.00  0.00    -0.237 OA
ATOM     85  O   UNL A   1      33.397  33.298  27.843  1.00  0.00    -0.744 OA
ENDBRANCH  78  82
ENDBRANCH  51  75
BRANCH  63  86
ATOM     86  C   UNL A   1      43.225  35.469  30.568  1.00  0.00     0.023 A 
ATOM     87  C   UNL A   1      43.418  35.826  31.914  1.00  0.00     0.031 A 
ATOM     88  C   UNL A   1      43.422  36.459  29.588  1.00  0.00     0.131 A 
ATOM     89  C   UNL A   1      43.745  37.151  32.246  1.00  0.00     0.055 A 
ATOM     90  C   UNL A   1      43.810  37.758  29.921  1.00  0.00     0.041 A 
ATOM     91  F   UNL A   1      43.245  36.179  28.287  1.00  0.00    -0.206 F 
ATOM     92  C   UNL A   1      43.961  38.113  31.257  1.00  0.00     0.022 A 
BRANCH  89  93
ATOM     93  S   UNL A   1      43.789  37.626  33.997  1.00  0.00     0.124 S 
ATOM     94  O   UNL A   1      45.223  37.672  34.261  1.00  0.00    -0.237 OA
ATOM     95  O   UNL A   1      43.099  38.912  33.990  1.00  0.00    -0.237 OA
ATOM     96  O   UNL A   1      43.070  36.542  34.664  1.00  0.00    -0.744 OA
ENDBRANCH  89  93
ENDBRANCH  63  86
ENDBRANCH  37  38
ENDBRANCH  29  32
ENDBRANCH  27  28
ENDBRANCH  26  27
ENDBRANCH   1  26
TORSDOF 17
ENDMDL
MODEL 2
REMARK VINA RESULT:     -11.5      3.576      9.169
REMARK SMILES C[C@@H](c1ccccn1)S(=O)(=O)N1CC[NH2+]C[C@@H]1C(=O)NCCCCNC(=O)c1ccc(-c2c3nc(c(-c4cc(S(=O)(=O)[O-])ccc4F)c4ccc([nH]4)c(-c4cc(S(=O)(=O)[O-])ccc4F)c4nc(c(-c5cc(S(=O)(=O)[O-])ccc5F)c5ccc2[nH]5)C=C4)C=C3)cc1
REMARK SMILES IDX 22 1 21 2 20 3 18 4 19 5 17 7 12 8 13 9 14 10 16 11 15 12
REMARK SMILES IDX 9 15 10 16 11 17 2 18 1 19 3 20 4 21 8 22 5 23 7 24 6 25
REMARK SMILES IDX 23 26 24 27 25 28 26 29 27 31 28 32 29 33 90 34 30 35 89 36
REMARK SMILES IDX 31 37 32 38 33 39 83 40 34 41 88 42 82 43 84 44 35 45 87 46
REMARK SMILES IDX 81 47 80 48 36 50 68 51 48 52 67 53 49 54 52 55 66 56 85 57
REMARK SMILES IDX 50 58 51 59 65 61 86 62 53 63 37 64 38 65 46 66 39 67 45 68
REMARK SMILES IDX 47 69 44 70 40 71 41 72 42 73 43 74 69 75 70 76 78 77 71 78
REMARK SMILES IDX 77 79 79 80 76 81 72 82 73 83 74 84 75 85 54 86 55 87 63 88
REMARK SMILES IDX 56 89 62 90 64 91 61 92 57 93 58 94 59 95 60 96
REMARK H PARENT 20 6 15 13 15 14 25 30 84 49 52 60
REMARK Flexibility Score: inf
ROOT
ATOM      1  C   UNL A   1      36.647  21.066  24.910  1.00  0.00     0.023 C 
ENDROOT
BRANCH   1   2
ATOM      2  C   UNL A   1      36.626  22.324  25.777  1.00  0.00     0.116 C 
BRANCH   2   3
ATOM      3  N   UNL A   1      35.618  22.232  26.814  1.00  0.00    -0.355 N 
ATOM      4  C   UNL A   1      34.298  22.584  26.812  1.00  0.00     0.244 C 
ATOM      5  O   UNL A   1      33.724  22.485  27.899  1.00  0.00    -0.273 OA
ATOM      6  H   UNL A   1      35.938  21.850  27.664  1.00  0.00     0.163 HD
BRANCH   4   7
ATOM      7  C   UNL A   1      33.597  23.039  25.506  1.00  0.00     0.216 C 
ATOM      8  N   UNL A   1      32.847  24.342  25.643  1.00  0.00    -0.177 NA
ATOM      9  C   UNL A   1      31.662  24.129  26.586  1.00  0.00     0.164 C 
ATOM     10  C   UNL A   1      30.796  22.905  26.189  1.00  0.00     0.277 C 
ATOM     11  C   UNL A   1      32.659  21.915  25.014  1.00  0.00     0.291 C 
ATOM     12  N   UNL A   1      31.533  21.651  25.930  1.00  0.00    -0.343 N 
ATOM     13  H   UNL A   1      30.903  20.970  25.504  1.00  0.00     0.346 HD
ATOM     14  H   UNL A   1      31.893  21.282  26.810  1.00  0.00     0.346 HD
BRANCH   8  15
ATOM     15  S   UNL A   1      32.347  25.225  24.271  1.00  0.00     0.223 S 
ATOM     16  O   UNL A   1      31.075  25.814  24.662  1.00  0.00    -0.211 OA
ATOM     17  O   UNL A   1      32.339  24.314  23.147  1.00  0.00    -0.211 OA
BRANCH  15  18
ATOM     18  C   UNL A   1      33.456  26.627  23.913  1.00  0.00     0.170 C 
ATOM     19  C   UNL A   1      33.419  27.051  22.451  1.00  0.00     0.033 C 
BRANCH  18  20
ATOM     20  C   UNL A   1      33.315  27.708  24.956  1.00  0.00     0.060 A 
ATOM     21  C   UNL A   1      33.936  27.651  26.205  1.00  0.00     0.025 A 
ATOM     22  N   UNL A   1      32.499  28.742  24.642  1.00  0.00    -0.260 NA
ATOM     23  C   UNL A   1      33.810  28.729  27.083  1.00  0.00     0.004 A 
ATOM     24  C   UNL A   1      32.378  29.770  25.509  1.00  0.00     0.111 A 
ATOM     25  C   UNL A   1      33.029  29.817  26.724  1.00  0.00     0.020 A 
ENDBRANCH  18  20
ENDBRANCH  15  18
ENDBRANCH   8  15
ENDBRANCH   4   7
ENDBRANCH   2   3
ENDBRANCH   1   2
BRANCH   1  26
ATOM     26  C   UNL A   1      38.029  20.429  24.723  1.00  0.00     0.023 C 
BRANCH  26  27
ATOM     27  C   UNL A   1      38.990  20.585  25.899  1.00  0.00     0.116 C 
BRANCH  27  28
ATOM     28  N   UNL A   1      39.952  19.498  25.984  1.00  0.00    -0.352 N 
ATOM     29  C   UNL A   1      41.319  19.548  26.150  1.00  0.00     0.251 C 
ATOM     30  H   UNL A   1      39.570  18.593  25.914  1.00  0.00     0.163 HD
ATOM     31  O   UNL A   1      41.974  18.521  26.032  1.00  0.00    -0.269 OA
BRANCH  29  32
ATOM     32  C   UNL A   1      41.988  20.841  26.430  1.00  0.00     0.039 A 
ATOM     33  C   UNL A   1      42.258  21.706  25.367  1.00  0.00     0.014 A 
ATOM     34  C   UNL A   1      42.348  21.202  27.731  1.00  0.00     0.014 A 
ATOM     35  C   UNL A   1      42.816  22.963  25.618  1.00  0.00     0.010 A 
ATOM     36  C   UNL A   1      42.833  22.483  27.987  1.00  0.00     0.010 A 
ATOM     37  C   UNL A   1      43.070  23.381  26.935  1.00  0.00    -0.014 A 
BRANCH  37  38
ATOM     38  C   UNL A   1      43.580  24.748  27.231  1.00  0.00     0.031 A 
ATOM     39  C   UNL A   1      42.650  25.805  27.763  1.00  0.00     0.074 A 
ATOM     40  C   UNL A   1      44.861  25.060  26.953  1.00  0.00     0.049 A 
ATOM     41  N   UNL A   1      42.880  27.071  27.997  1.00  0.00    -0.248 NA
ATOM     42  C   UNL A   1      41.269  25.384  28.036  1.00  0.00     0.031 C 
ATOM     43  C   UNL A   1      45.853  24.136  26.397  1.00  0.00     0.029 A 
ATOM     44  N   UNL A   1      45.549  26.240  27.087  1.00  0.00    -0.354 N 
ATOM     45  C   UNL A   1      41.670  27.604  28.431  1.00  0.00     0.074 A 
ATOM     46  C   UNL A   1      40.697  26.533  28.360  1.00  0.00     0.031 C 
ATOM     47  C   UNL A   1      47.023  24.779  26.259  1.00  0.00     0.029 A 
ATOM     48  C   UNL A   1      46.856  26.171  26.664  1.00  0.00     0.049 A 
ATOM     49  H   UNL A   1      45.143  27.061  27.450  1.00  0.00     0.167 HD
ATOM     50  C   UNL A   1      41.402  28.859  28.871  1.00  0.00     0.034 A 
ATOM     51  C   UNL A   1      47.810  27.122  26.593  1.00  0.00     0.034 A 
ATOM     52  C   UNL A   1      42.386  29.913  28.937  1.00  0.00     0.049 A 
ATOM     53  C   UNL A   1      47.484  28.520  27.051  1.00  0.00     0.074 A 
ATOM     54  C   UNL A   1      42.237  31.203  29.416  1.00  0.00     0.029 A 
ATOM     55  N   UNL A   1      43.701  29.806  28.496  1.00  0.00    -0.354 N 
ATOM     56  N   UNL A   1      46.348  28.995  27.509  1.00  0.00    -0.248 NA
ATOM     57  C   UNL A   1      48.569  29.506  26.992  1.00  0.00     0.031 C 
ATOM     58  C   UNL A   1      43.432  31.897  29.192  1.00  0.00     0.029 A 
ATOM     59  C   UNL A   1      44.359  31.017  28.657  1.00  0.00     0.049 A 
ATOM     60  H   UNL A   1      44.105  28.990  28.124  1.00  0.00     0.167 HD
ATOM     61  C   UNL A   1      46.594  30.331  27.821  1.00  0.00     0.074 A 
ATOM     62  C   UNL A   1      47.986  30.579  27.510  1.00  0.00     0.031 C 
ATOM     63  C   UNL A   1      45.745  31.262  28.327  1.00  0.00     0.034 A 
BRANCH  50  64
ATOM     64  C   UNL A   1      39.976  29.159  29.279  1.00  0.00     0.023 A 
ATOM     65  C   UNL A   1      39.603  29.272  30.630  1.00  0.00     0.031 A 
ATOM     66  C   UNL A   1      38.966  29.287  28.309  1.00  0.00     0.131 A 
ATOM     67  C   UNL A   1      38.249  29.403  30.977  1.00  0.00     0.055 A 
ATOM     68  C   UNL A   1      37.632  29.516  28.658  1.00  0.00     0.041 A 
ATOM     69  F   UNL A   1      39.252  29.169  27.003  1.00  0.00    -0.206 F 
ATOM     70  C   UNL A   1      37.264  29.553  29.999  1.00  0.00     0.022 A 
BRANCH  67  71
ATOM     71  S   UNL A   1      37.780  29.185  32.715  1.00  0.00     0.124 S 
ATOM     72  O   UNL A   1      36.489  29.866  32.761  1.00  0.00    -0.237 OA
ATOM     73  O   UNL A   1      37.741  27.734  32.853  1.00  0.00    -0.237 OA
ATOM     74  O   UNL A   1      38.854  29.855  33.447  1.00  0.00    -0.744 OA
ENDBRANCH  67  71
ENDBRANCH  50  64
BRANCH  51  75
ATOM     75  C   UNL A   1      49.161  26.788  26.055  1.00  0.00     0.023 A 
ATOM     76  C   UNL A   1      49.596  27.294  24.821  1.00  0.00     0.031 A 
ATOM     77  C   UNL A   1      50.031  25.942  26.766  1.00  0.00     0.131 A 
ATOM     78  C   UNL A   1      50.853  26.922  24.317  1.00  0.00     0.055 A 
ATOM     79  C   UNL A   1      51.300  25.615  26.285  1.00  0.00     0.041 A 
ATOM     80  F   UNL A   1      49.666  25.435  27.954  1.00  0.00    -0.206 F 
ATOM     81  C   UNL A   1      51.713  26.099  25.047  1.00  0.00     0.022 A 
BRANCH  78  82
ATOM     82  S   UNL A   1      51.324  27.478  22.656  1.00  0.00     0.124 S 
ATOM     83  O   UNL A   1      52.779  27.394  22.715  1.00  0.00    -0.237 OA
ATOM     84  O   UNL A   1      50.658  26.496  21.807  1.00  0.00    -0.237 OA
ATOM     85  O   UNL A   1      50.778  28.832  22.583  1.00  0.00    -0.744 OA
ENDBRANCH  78  82
ENDBRANCH  51  75
BRANCH  63  86
ATOM     86  C   UNL A   1      46.317  32.630  28.621  1.00  0.00     0.023 A 
ATOM     87  C   UNL A   1      46.415  33.625  27.632  1.00  0.00     0.031 A 
ATOM     88  C   UNL A   1      46.776  32.939  29.915  1.00  0.00     0.131 A 
ATOM     89  C   UNL A   1      47.006  34.861  27.940  1.00  0.00     0.055 A 
ATOM     90  C   UNL A   1      47.302  34.192  30.231  1.00  0.00     0.041 A 
ATOM     91  F   UNL A   1      46.713  32.027  30.899  1.00  0.00    -0.206 F 
ATOM     92  C   UNL A   1      47.431  35.157  29.238  1.00  0.00     0.022 A 
BRANCH  89  93
ATOM     93  S   UNL A   1      47.301  36.045  26.598  1.00  0.00     0.124 S 
ATOM     94  O   UNL A   1      48.566  36.651  27.002  1.00  0.00    -0.237 OA
ATOM     95  O   UNL A   1      47.355  35.180  25.424  1.00  0.00    -0.237 OA
ATOM     96  O   UNL A   1      46.141  36.930  26.661  1.00  0.00    -0.744 OA
ENDBRANCH  89  93
ENDBRANCH  63  86
ENDBRANCH  37  38
ENDBRANCH  29  32
ENDBRANCH  27  28
ENDBRANCH  26  27
ENDBRANCH   1  26
TORSDOF 17
ENDMDL
MODEL 3
REMARK VINA RESULT:     -11.5      4.832      6.941
REMARK SMILES C[C@@H](c1ccccn1)S(=O)(=O)N1CC[NH2+]C[C@@H]1C(=O)NCCCCNC(=O)c1ccc(-c2c3nc(c(-c4cc(S(=O)(=O)[O-])ccc4F)c4ccc([nH]4)c(-c4cc(S(=O)(=O)[O-])ccc4F)c4nc(c(-c5cc(S(=O)(=O)[O-])ccc5F)c5ccc2[nH]5)C=C4)C=C3)cc1
REMARK SMILES IDX 22 1 21 2 20 3 18 4 19 5 17 7 12 8 13 9 14 10 16 11 15 12
REMARK SMILES IDX 9 15 10 16 11 17 2 18 1 19 3 20 4 21 8 22 5 23 7 24 6 25
REMARK SMILES IDX 23 26 24 27 25 28 26 29 27 31 28 32 29 33 90 34 30 35 89 36
REMARK SMILES IDX 31 37 32 38 33 39 83 40 34 41 88 42 82 43 84 44 35 45 87 46
REMARK SMILES IDX 81 47 80 48 36 50 68 51 48 52 67 53 49 54 52 55 66 56 85 57
REMARK SMILES IDX 50 58 51 59 65 61 86 62 53 63 37 64 38 65 46 66 39 67 45 68
REMARK SMILES IDX 47 69 44 70 40 71 41 72 42 73 43 74 69 75 70 76 78 77 71 78
REMARK SMILES IDX 77 79 79 80 76 81 72 82 73 83 74 84 75 85 54 86 55 87 63 88
REMARK SMILES IDX 56 89 62 90 64 91 61 92 57 93 58 94 59 95 60 96
REMARK H PARENT 20 6 15 13 15 14 25 30 84 49 52 60
REMARK Flexibility Score: inf
ROOT
ATOM      1  C   UNL A   1      33.841  28.236  23.162  1.00  0.00     0.023 C 
ENDROOT
BRANCH   1   2
ATOM      2  C   UNL A   1      33.417  26.890  22.573  1.00  0.00     0.116 C 
BRANCH   2   3
ATOM      3  N   UNL A   1      32.030  26.599  22.871  1.00  0.00    -0.355 N 
ATOM      4  C   UNL A   1      31.469  25.808  23.835  1.00  0.00     0.244 C 
ATOM      5  O   UNL A   1      30.246  25.673  23.759  1.00  0.00    -0.273 OA
ATOM      6  H   UNL A   1      31.381  27.046  22.280  1.00  0.00     0.163 HD
BRANCH   4   7
ATOM      7  C   UNL A   1      32.339  25.172  24.949  1.00  0.00     0.216 C 
ATOM      8  N   UNL A   1      32.405  23.665  24.879  1.00  0.00    -0.177 NA
ATOM      9  C   UNL A   1      31.020  23.098  25.190  1.00  0.00     0.164 C 
ATOM     10  C   UNL A   1      30.419  23.675  26.499  1.00  0.00     0.277 C 
ATOM     11  C   UNL A   1      31.820  25.635  26.327  1.00  0.00     0.291 C 
ATOM     12  N   UNL A   1      30.462  25.145  26.635  1.00  0.00    -0.343 N 
ATOM     13  H   UNL A   1      30.217  25.404  27.591  1.00  0.00     0.346 HD
ATOM     14  H   UNL A   1      29.797  25.564  25.985  1.00  0.00     0.346 HD
BRANCH   8  15
ATOM     15  S   UNL A   1      33.597  22.790  25.731  1.00  0.00     0.223 S 
ATOM     16  O   UNL A   1      32.842  21.869  26.567  1.00  0.00    -0.211 OA
ATOM     17  O   UNL A   1      34.445  23.751  26.402  1.00  0.00    -0.211 OA
BRANCH  15  18
ATOM     18  C   UNL A   1      34.607  21.748  24.629  1.00  0.00     0.170 C 
ATOM     19  C   UNL A   1      36.053  21.627  25.091  1.00  0.00     0.033 C 
BRANCH  18  20
ATOM     20  C   UNL A   1      33.881  20.475  24.272  1.00  0.00     0.060 A 
ATOM     21  C   UNL A   1      32.722  20.447  23.495  1.00  0.00     0.025 A 
ATOM     22  N   UNL A   1      34.386  19.331  24.792  1.00  0.00    -0.260 NA
ATOM     23  C   UNL A   1      32.154  19.219  23.153  1.00  0.00     0.004 A 
ATOM     24  C   UNL A   1      33.816  18.152  24.462  1.00  0.00     0.111 A 
ATOM     25  C   UNL A   1      32.720  18.046  23.632  1.00  0.00     0.020 A 
ENDBRANCH  18  20
ENDBRANCH  15  18
ENDBRANCH   8  15
ENDBRANCH   4   7
ENDBRANCH   2   3
ENDBRANCH   1   2
BRANCH   1  26
ATOM     26  C   UNL A   1      32.730  29.008  23.884  1.00  0.00     0.023 C 
BRANCH  26  27
ATOM     27  C   UNL A   1      32.918  29.177  25.390  1.00  0.00     0.116 C 
BRANCH  27  28
ATOM     28  N   UNL A   1      32.427  30.457  25.874  1.00  0.00    -0.352 N 
ATOM     29  C   UNL A   1      32.912  31.256  26.886  1.00  0.00     0.251 C 
ATOM     30  H   UNL A   1      31.632  30.806  25.409  1.00  0.00     0.163 HD
ATOM     31  O   UNL A   1      32.259  32.223  27.251  1.00  0.00    -0.269 OA
BRANCH  29  32
ATOM     32  C   UNL A   1      34.196  30.920  27.549  1.00  0.00     0.039 A 
ATOM     33  C   UNL A   1      35.087  31.951  27.856  1.00  0.00     0.014 A 
ATOM     34  C   UNL A   1      34.520  29.599  27.869  1.00  0.00     0.014 A 
ATOM     35  C   UNL A   1      36.267  31.666  28.551  1.00  0.00     0.010 A 
ATOM     36  C   UNL A   1      35.657  29.328  28.628  1.00  0.00     0.010 A 
ATOM     37  C   UNL A   1      36.543  30.358  28.981  1.00  0.00    -0.014 A 
BRANCH  37  38
ATOM     38  C   UNL A   1      37.747  30.048  29.800  1.00  0.00     0.031 A 
ATOM     39  C   UNL A   1      38.808  29.124  29.268  1.00  0.00     0.074 A 
ATOM     40  C   UNL A   1      37.851  30.540  31.050  1.00  0.00     0.049 A 
ATOM     41  N   UNL A   1      39.880  28.663  29.860  1.00  0.00    -0.248 NA
ATOM     42  C   UNL A   1      38.618  28.629  27.897  1.00  0.00     0.031 C 
ATOM     43  C   UNL A   1      36.870  31.416  31.697  1.00  0.00     0.029 A 
ATOM     44  N   UNL A   1      38.820  30.368  32.007  1.00  0.00    -0.354 N 
ATOM     45  C   UNL A   1      40.486  27.812  28.941  1.00  0.00     0.074 A 
ATOM     46  C   UNL A   1      39.620  27.772  27.780  1.00  0.00     0.031 C 
ATOM     47  C   UNL A   1      37.299  31.718  32.932  1.00  0.00     0.029 A 
ATOM     48  C   UNL A   1      38.555  31.021  33.189  1.00  0.00     0.049 A 
ATOM     49  H   UNL A   1      39.630  29.825  31.861  1.00  0.00     0.167 HD
ATOM     50  C   UNL A   1      41.663  27.146  29.045  1.00  0.00     0.034 A 
ATOM     51  C   UNL A   1      39.235  31.044  34.353  1.00  0.00     0.034 A 
ATOM     52  C   UNL A   1      42.514  27.200  30.210  1.00  0.00     0.049 A 
ATOM     53  C   UNL A   1      40.522  30.269  34.464  1.00  0.00     0.074 A 
ATOM     54  C   UNL A   1      43.753  26.610  30.401  1.00  0.00     0.029 A 
ATOM     55  N   UNL A   1      42.211  27.869  31.391  1.00  0.00    -0.354 N 
ATOM     56  N   UNL A   1      41.109  29.510  33.566  1.00  0.00    -0.248 NA
ATOM     57  C   UNL A   1      41.243  30.361  35.740  1.00  0.00     0.031 C 
ATOM     58  C   UNL A   1      44.158  26.855  31.718  1.00  0.00     0.029 A 
ATOM     59  C   UNL A   1      43.218  27.675  32.324  1.00  0.00     0.049 A 
ATOM     60  H   UNL A   1      41.398  28.404  31.541  1.00  0.00     0.167 HD
ATOM     61  C   UNL A   1      42.286  29.059  34.162  1.00  0.00     0.074 A 
ATOM     62  C   UNL A   1      42.328  29.641  35.488  1.00  0.00     0.031 C 
ATOM     63  C   UNL A   1      43.246  28.245  33.652  1.00  0.00     0.034 A 
BRANCH  50  64
ATOM     64  C   UNL A   1      42.073  26.278  27.875  1.00  0.00     0.023 A 
ATOM     65  C   UNL A   1      41.589  24.966  27.724  1.00  0.00     0.031 A 
ATOM     66  C   UNL A   1      42.997  26.748  26.925  1.00  0.00     0.131 A 
ATOM     67  C   UNL A   1      42.103  24.140  26.713  1.00  0.00     0.055 A 
ATOM     68  C   UNL A   1      43.431  25.952  25.862  1.00  0.00     0.041 A 
ATOM     69  F   UNL A   1      43.513  27.983  27.024  1.00  0.00    -0.206 F 
ATOM     70  C   UNL A   1      43.001  24.633  25.764  1.00  0.00     0.022 A 
BRANCH  67  71
ATOM     71  S   UNL A   1      41.724  22.367  26.773  1.00  0.00     0.124 S 
ATOM     72  O   UNL A   1      42.278  21.903  25.504  1.00  0.00    -0.237 OA
ATOM     73  O   UNL A   1      42.429  21.934  27.974  1.00  0.00    -0.237 OA
ATOM     74  O   UNL A   1      40.265  22.332  26.856  1.00  0.00    -0.744 OA
ENDBRANCH  67  71
ENDBRANCH  50  64
BRANCH  51  75
ATOM     75  C   UNL A   1      38.704  31.817  35.514  1.00  0.00     0.023 A 
ATOM     76  C   UNL A   1      38.156  31.167  36.630  1.00  0.00     0.031 A 
ATOM     77  C   UNL A   1      38.726  33.223  35.514  1.00  0.00     0.131 A 
ATOM     78  C   UNL A   1      37.619  31.922  37.685  1.00  0.00     0.055 A 
ATOM     79  C   UNL A   1      38.238  33.970  36.587  1.00  0.00     0.041 A 
ATOM     80  F   UNL A   1      39.246  33.895  34.473  1.00  0.00    -0.206 F 
ATOM     81  C   UNL A   1      37.670  33.317  37.678  1.00  0.00     0.022 A 
BRANCH  78  82
ATOM     82  S   UNL A   1      36.789  31.053  39.043  1.00  0.00     0.124 S 
ATOM     83  O   UNL A   1      35.556  31.820  39.178  1.00  0.00    -0.237 OA
ATOM     84  O   UNL A   1      36.651  29.706  38.502  1.00  0.00    -0.237 OA
ATOM     85  O   UNL A   1      37.730  31.181  40.154  1.00  0.00    -0.744 OA
ENDBRANCH  78  82
ENDBRANCH  51  75
BRANCH  63  86
ATOM     86  C   UNL A   1      44.453  27.974  34.521  1.00  0.00     0.023 A 
ATOM     87  C   UNL A   1      44.514  26.868  35.387  1.00  0.00     0.031 A 
ATOM     88  C   UNL A   1      45.559  28.842  34.481  1.00  0.00     0.131 A 
ATOM     89  C   UNL A   1      45.633  26.690  36.216  1.00  0.00     0.055 A 
ATOM     90  C   UNL A   1      46.696  28.623  35.259  1.00  0.00     0.041 A 
ATOM     91  F   UNL A   1      45.555  29.918  33.677  1.00  0.00    -0.206 F 
ATOM     92  C   UNL A   1      46.733  27.549  36.142  1.00  0.00     0.022 A 
BRANCH  89  93
ATOM     93  S   UNL A   1      45.595  25.373  37.463  1.00  0.00     0.124 S 
ATOM     94  O   UNL A   1      46.753  25.703  38.288  1.00  0.00    -0.237 OA
ATOM     95  O   UNL A   1      44.291  25.571  38.087  1.00  0.00    -0.237 OA
ATOM     96  O   UNL A   1      45.723  24.150  36.674  1.00  0.00    -0.744 OA
ENDBRANCH  89  93
ENDBRANCH  63  86
ENDBRANCH  37  38
ENDBRANCH  29  32
ENDBRANCH  27  28
ENDBRANCH  26  27
ENDBRANCH   1  26
TORSDOF 17
ENDMDL
