MODEL 1
REMARK VINA RESULT:     -11.6      0.000      0.000
REMARK SMILES CC[NH2+][C@@]1(C(=O)NCCCCNC(=O)c2ccc(-c3c4nc(c(-c5cc(S(=O)(=O)[O-])ccc5F)c5ccc([nH]5)c(-c5cc(S(=O)(=O)[O-])ccc5F)c5nc(c(-c6cc(S(=O)(=O)[O-])ccc6F)c6ccc3[nH]6)C=C5)C=C4)cc2)CCC[C@@H]([N@@H+](C)C2CCCC2)C1
REMARK SMILES IDX 10 1 9 2 8 3 7 4 5 5 6 6 4 8 78 9 89 10 79 11 81 12 80 13
REMARK SMILES IDX 3 14 2 17 1 18 82 19 83 20 84 22 85 23 88 24 86 25 87 26
REMARK SMILES IDX 11 27 12 28 13 29 14 31 15 32 16 33 77 34 17 35 76 36 18 37
REMARK SMILES IDX 19 38 20 39 70 40 21 41 75 42 69 43 71 44 22 45 74 46 68 47
REMARK SMILES IDX 67 48 23 50 55 51 35 52 54 53 36 54 39 55 53 56 72 57 37 58
REMARK SMILES IDX 38 59 52 61 73 62 40 63 24 64 25 65 33 66 26 67 32 68 34 69
REMARK SMILES IDX 31 70 27 71 28 72 29 73 30 74 56 75 57 76 65 77 58 78 64 79
REMARK SMILES IDX 66 80 63 81 59 82 60 83 61 84 62 85 41 86 42 87 50 88 43 89
REMARK SMILES IDX 49 90 51 91 48 92 44 93 45 94 46 95 47 96
REMARK H PARENT 7 7 3 15 3 16 82 21 12 30 71 49 39 60
REMARK Flexibility Score: inf
ROOT
ATOM      1  C   UNL A   1      36.627  21.914  24.258  1.00  0.00     0.023 C 
ENDROOT
BRANCH   1   2
ATOM      2  C   UNL A   1      35.845  23.219  24.239  1.00  0.00     0.023 C 
BRANCH   2   3
ATOM      3  C   UNL A   1      34.787  23.302  23.142  1.00  0.00     0.116 C 
BRANCH   3   4
ATOM      4  N   UNL A   1      33.759  24.290  23.427  1.00  0.00    -0.351 N 
ATOM      5  C   UNL A   1      33.304  24.508  24.698  1.00  0.00     0.281 C 
ATOM      6  O   UNL A   1      33.773  25.481  25.302  1.00  0.00    -0.268 OA
ATOM      7  H   UNL A   1      33.381  24.814  22.686  1.00  0.00     0.163 HD
BRANCH   5   8
ATOM      8  C   UNL A   1      32.166  23.618  25.341  1.00  0.00     0.181 C 
ATOM      9  C   UNL A   1      32.460  23.402  26.837  1.00  0.00     0.079 C 
ATOM     10  C   UNL A   1      31.808  22.249  24.727  1.00  0.00     0.144 C 
ATOM     11  C   UNL A   1      33.560  22.396  27.135  1.00  0.00     0.013 C 
ATOM     12  C   UNL A   1      32.848  21.138  24.928  1.00  0.00     0.190 C 
ATOM     13  C   UNL A   1      33.548  21.108  26.307  1.00  0.00     0.065 C 
BRANCH   8  14
ATOM     14  N   UNL A   1      30.894  24.445  25.319  1.00  0.00    -0.334 N 
ATOM     15  H   UNL A   1      30.177  23.936  25.838  1.00  0.00     0.347 HD
ATOM     16  H   UNL A   1      31.133  25.345  25.734  1.00  0.00     0.347 HD
BRANCH  14  17
ATOM     17  C   UNL A   1      30.363  24.739  23.981  1.00  0.00     0.257 C 
ATOM     18  C   UNL A   1      30.162  26.241  23.839  1.00  0.00     0.071 C 
ENDBRANCH  14  17
ENDBRANCH   8  14
BRANCH  12  19
ATOM     19  N   UNL A   1      32.436  19.819  24.370  1.00  0.00    -0.332 N 
ATOM     20  C   UNL A   1      32.167  19.914  22.929  1.00  0.00     0.333 C 
ATOM     21  H   UNL A   1      31.593  19.656  24.921  1.00  0.00     0.348 HD
BRANCH  19  22
ATOM     22  C   UNL A   1      33.193  18.595  24.677  1.00  0.00     0.184 C 
ATOM     23  C   UNL A   1      32.675  17.582  25.702  1.00  0.00     0.065 C 
ATOM     24  C   UNL A   1      33.604  17.732  23.466  1.00  0.00     0.065 C 
ATOM     25  C   UNL A   1      33.601  16.396  25.499  1.00  0.00     0.006 C 
ATOM     26  C   UNL A   1      33.648  16.286  23.981  1.00  0.00     0.006 C 
ENDBRANCH  19  22
ENDBRANCH  12  19
ENDBRANCH   5   8
ENDBRANCH   3   4
ENDBRANCH   2   3
ENDBRANCH   1   2
BRANCH   1  27
ATOM     27  C   UNL A   1      37.181  21.511  25.617  1.00  0.00     0.116 C 
BRANCH  27  28
ATOM     28  N   UNL A   1      38.235  20.506  25.573  1.00  0.00    -0.352 N 
ATOM     29  C   UNL A   1      39.512  20.633  26.083  1.00  0.00     0.251 C 
ATOM     30  H   UNL A   1      38.015  19.651  25.138  1.00  0.00     0.163 HD
ATOM     31  O   UNL A   1      40.339  19.739  25.959  1.00  0.00    -0.269 OA
BRANCH  29  32
ATOM     32  C   UNL A   1      39.857  21.916  26.730  1.00  0.00     0.039 A 
ATOM     33  C   UNL A   1      40.852  21.933  27.707  1.00  0.00     0.014 A 
ATOM     34  C   UNL A   1      39.337  23.104  26.210  1.00  0.00     0.014 A 
ATOM     35  C   UNL A   1      41.400  23.155  28.099  1.00  0.00     0.010 A 
ATOM     36  C   UNL A   1      39.945  24.310  26.539  1.00  0.00     0.010 A 
ATOM     37  C   UNL A   1      40.991  24.347  27.476  1.00  0.00    -0.014 A 
BRANCH  37  38
ATOM     38  C   UNL A   1      41.642  25.647  27.785  1.00  0.00     0.031 A 
ATOM     39  C   UNL A   1      40.878  26.696  28.545  1.00  0.00     0.074 A 
ATOM     40  C   UNL A   1      42.877  25.915  27.314  1.00  0.00     0.049 A 
ATOM     41  N   UNL A   1      41.211  27.929  28.821  1.00  0.00    -0.248 NA
ATOM     42  C   UNL A   1      39.538  26.312  29.018  1.00  0.00     0.031 C 
ATOM     43  C   UNL A   1      43.698  25.001  26.515  1.00  0.00     0.029 A 
ATOM     44  N   UNL A   1      43.657  27.039  27.429  1.00  0.00    -0.354 N 
ATOM     45  C   UNL A   1      40.114  28.476  29.478  1.00  0.00     0.074 A 
ATOM     46  C   UNL A   1      39.083  27.461  29.492  1.00  0.00     0.031 C 
ATOM     47  C   UNL A   1      44.874  25.589  26.239  1.00  0.00     0.029 A 
ATOM     48  C   UNL A   1      44.879  26.935  26.804  1.00  0.00     0.049 A 
ATOM     49  H   UNL A   1      43.369  27.845  27.915  1.00  0.00     0.167 HD
ATOM     50  C   UNL A   1      39.988  29.701  30.048  1.00  0.00     0.034 A 
ATOM     51  C   UNL A   1      45.885  27.826  26.697  1.00  0.00     0.034 A 
ATOM     52  C   UNL A   1      41.036  30.690  30.052  1.00  0.00     0.049 A 
ATOM     53  C   UNL A   1      45.728  29.179  27.344  1.00  0.00     0.074 A 
ATOM     54  C   UNL A   1      41.042  31.941  30.642  1.00  0.00     0.029 A 
ATOM     55  N   UNL A   1      42.272  30.537  29.435  1.00  0.00    -0.354 N 
ATOM     56  N   UNL A   1      44.702  29.665  28.004  1.00  0.00    -0.248 NA
ATOM     57  C   UNL A   1      46.869  30.099  27.244  1.00  0.00     0.031 C 
ATOM     58  C   UNL A   1      42.259  32.563  30.341  1.00  0.00     0.029 A 
ATOM     59  C   UNL A   1      43.040  31.676  29.617  1.00  0.00     0.049 A 
ATOM     60  H   UNL A   1      42.560  29.736  28.940  1.00  0.00     0.167 HD
ATOM     61  C   UNL A   1      45.088  30.934  28.424  1.00  0.00     0.074 A 
ATOM     62  C   UNL A   1      46.443  31.134  27.953  1.00  0.00     0.031 C 
ATOM     63  C   UNL A   1      44.389  31.854  29.137  1.00  0.00     0.034 A 
BRANCH  50  64
ATOM     64  C   UNL A   1      38.664  30.025  30.695  1.00  0.00     0.023 A 
ATOM     65  C   UNL A   1      37.658  30.720  30.000  1.00  0.00     0.031 A 
ATOM     66  C   UNL A   1      38.421  29.686  32.037  1.00  0.00     0.131 A 
ATOM     67  C   UNL A   1      36.502  31.137  30.672  1.00  0.00     0.055 A 
ATOM     68  C   UNL A   1      37.226  30.026  32.676  1.00  0.00     0.041 A 
ATOM     69  F   UNL A   1      39.349  29.039  32.758  1.00  0.00    -0.206 F 
ATOM     70  C   UNL A   1      36.265  30.773  31.999  1.00  0.00     0.022 A 
BRANCH  67  71
ATOM     71  S   UNL A   1      35.386  32.296  29.833  1.00  0.00     0.124 S 
ATOM     72  O   UNL A   1      36.300  33.384  29.490  1.00  0.00    -0.237 OA
ATOM     73  O   UNL A   1      34.889  31.504  28.715  1.00  0.00    -0.237 OA
ATOM     74  O   UNL A   1      34.398  32.623  30.858  1.00  0.00    -0.744 OA
ENDBRANCH  67  71
ENDBRANCH  50  64
BRANCH  51  75
ATOM     75  C   UNL A   1      47.132  27.482  25.955  1.00  0.00     0.023 A 
ATOM     76  C   UNL A   1      47.264  27.781  24.590  1.00  0.00     0.031 A 
ATOM     77  C   UNL A   1      48.190  26.805  26.587  1.00  0.00     0.131 A 
ATOM     78  C   UNL A   1      48.403  27.362  23.887  1.00  0.00     0.055 A 
ATOM     79  C   UNL A   1      49.344  26.430  25.894  1.00  0.00     0.041 A 
ATOM     80  F   UNL A   1      48.119  26.501  27.893  1.00  0.00    -0.206 F 
ATOM     81  C   UNL A   1      49.449  26.697  24.531  1.00  0.00     0.022 A 
BRANCH  78  82
ATOM     82  S   UNL A   1      48.463  27.624  22.093  1.00  0.00     0.124 S 
ATOM     83  O   UNL A   1      49.605  28.523  21.962  1.00  0.00    -0.237 OA
ATOM     84  O   UNL A   1      48.655  26.267  21.595  1.00  0.00    -0.237 OA
ATOM     85  O   UNL A   1      47.163  28.219  21.792  1.00  0.00    -0.744 OA
ENDBRANCH  78  82
ENDBRANCH  51  75
BRANCH  63  86
ATOM     86  C   UNL A   1      45.105  33.132  29.492  1.00  0.00     0.023 A 
ATOM     87  C   UNL A   1      45.025  34.274  28.678  1.00  0.00     0.031 A 
ATOM     88  C   UNL A   1      45.885  33.201  30.660  1.00  0.00     0.131 A 
ATOM     89  C   UNL A   1      45.753  35.424  29.016  1.00  0.00     0.055 A 
ATOM     90  C   UNL A   1      46.564  34.364  31.019  1.00  0.00     0.041 A 
ATOM     91  F   UNL A   1      45.994  32.137  31.472  1.00  0.00    -0.206 F 
ATOM     92  C   UNL A   1      46.510  35.481  30.190  1.00  0.00     0.022 A 
BRANCH  89  93
ATOM     93  S   UNL A   1      45.762  36.821  27.861  1.00  0.00     0.124 S 
ATOM     94  O   UNL A   1      45.200  36.222  26.655  1.00  0.00    -0.237 OA
ATOM     95  O   UNL A   1      44.915  37.796  28.543  1.00  0.00    -0.237 OA
ATOM     96  O   UNL A   1      47.175  37.185  27.772  1.00  0.00    -0.744 OA
ENDBRANCH  89  93
ENDBRANCH  63  86
ENDBRANCH  37  38
ENDBRANCH  29  32
ENDBRANCH  27  28
ENDBRANCH   1  27
TORSDOF 18
ENDMDL
MODEL 2
REMARK VINA RESULT:     -11.5      5.182      8.377
REMARK SMILES CC[NH2+][C@@]1(C(=O)NCCCCNC(=O)c2ccc(-c3c4nc(c(-c5cc(S(=O)(=O)[O-])ccc5F)c5ccc([nH]5)c(-c5cc(S(=O)(=O)[O-])ccc5F)c5nc(c(-c6cc(S(=O)(=O)[O-])ccc6F)c6ccc3[nH]6)C=C5)C=C4)cc2)CCC[C@@H]([N@@H+](C)C2CCCC2)C1
REMARK SMILES IDX 10 1 9 2 8 3 7 4 5 5 6 6 4 8 78 9 89 10 79 11 81 12 80 13
REMARK SMILES IDX 3 14 2 17 1 18 82 19 83 20 84 22 85 23 88 24 86 25 87 26
REMARK SMILES IDX 11 27 12 28 13 29 14 31 15 32 16 33 77 34 17 35 76 36 18 37
REMARK SMILES IDX 19 38 20 39 70 40 21 41 75 42 69 43 71 44 22 45 74 46 68 47
REMARK SMILES IDX 67 48 23 50 55 51 35 52 54 53 36 54 39 55 53 56 72 57 37 58
REMARK SMILES IDX 38 59 52 61 73 62 40 63 24 64 25 65 33 66 26 67 32 68 34 69
REMARK SMILES IDX 31 70 27 71 28 72 29 73 30 74 56 75 57 76 65 77 58 78 64 79
REMARK SMILES IDX 66 80 63 81 59 82 60 83 61 84 62 85 41 86 42 87 50 88 43 89
REMARK SMILES IDX 49 90 51 91 48 92 44 93 45 94 46 95 47 96
REMARK H PARENT 7 7 3 15 3 16 82 21 12 30 71 49 39 60
REMARK Flexibility Score: inf
ROOT
ATOM      1  C   UNL A   1      31.740  29.156  26.350  1.00  0.00     0.023 C 
ENDROOT
BRANCH   1   2
ATOM      2  C   UNL A   1      31.931  27.884  27.162  1.00  0.00     0.023 C 
BRANCH   2   3
ATOM      3  C   UNL A   1      31.267  26.649  26.561  1.00  0.00     0.116 C 
BRANCH   3   4
ATOM      4  N   UNL A   1      32.225  25.719  25.988  1.00  0.00    -0.351 N 
ATOM      5  C   UNL A   1      33.092  26.097  24.999  1.00  0.00     0.281 C 
ATOM      6  O   UNL A   1      34.247  26.376  25.344  1.00  0.00    -0.268 OA
ATOM      7  H   UNL A   1      32.251  24.793  26.320  1.00  0.00     0.163 HD
BRANCH   5   8
ATOM      8  C   UNL A   1      32.671  26.092  23.475  1.00  0.00     0.181 C 
ATOM      9  C   UNL A   1      33.735  26.830  22.642  1.00  0.00     0.079 C 
ATOM     10  C   UNL A   1      31.286  26.620  23.048  1.00  0.00     0.144 C 
ATOM     11  C   UNL A   1      33.700  28.346  22.756  1.00  0.00     0.013 C 
ATOM     12  C   UNL A   1      31.098  28.142  23.139  1.00  0.00     0.190 C 
ATOM     13  C   UNL A   1      32.316  29.000  22.724  1.00  0.00     0.065 C 
BRANCH   8  14
ATOM     14  N   UNL A   1      32.747  24.654  23.000  1.00  0.00    -0.334 N 
ATOM     15  H   UNL A   1      32.975  24.661  22.006  1.00  0.00     0.347 HD
ATOM     16  H   UNL A   1      33.456  24.202  23.576  1.00  0.00     0.347 HD
BRANCH  14  17
ATOM     17  C   UNL A   1      31.516  23.871  23.178  1.00  0.00     0.257 C 
ATOM     18  C   UNL A   1      31.872  22.397  23.309  1.00  0.00     0.071 C 
ENDBRANCH  14  17
ENDBRANCH   8  14
BRANCH  12  19
ATOM     19  N   UNL A   1      29.767  28.614  22.663  1.00  0.00    -0.332 N 
ATOM     20  C   UNL A   1      28.681  27.823  23.257  1.00  0.00     0.333 C 
ATOM     21  H   UNL A   1      29.876  28.449  21.662  1.00  0.00     0.348 HD
BRANCH  19  22
ATOM     22  C   UNL A   1      29.426  30.045  22.659  1.00  0.00     0.184 C 
ATOM     23  C   UNL A   1      29.134  30.784  21.350  1.00  0.00     0.065 C 
ATOM     24  C   UNL A   1      28.277  30.469  23.598  1.00  0.00     0.065 C 
ATOM     25  C   UNL A   1      28.582  32.115  21.833  1.00  0.00     0.006 C 
ATOM     26  C   UNL A   1      27.615  31.679  22.925  1.00  0.00     0.006 C 
ENDBRANCH  19  22
ENDBRANCH  12  19
ENDBRANCH   5   8
ENDBRANCH   3   4
ENDBRANCH   2   3
ENDBRANCH   1   2
BRANCH   1  27
ATOM     27  C   UNL A   1      32.945  30.085  26.308  1.00  0.00     0.116 C 
BRANCH  27  28
ATOM     28  N   UNL A   1      32.728  31.395  26.908  1.00  0.00    -0.352 N 
ATOM     29  C   UNL A   1      33.629  32.106  27.675  1.00  0.00     0.251 C 
ATOM     30  H   UNL A   1      31.852  31.815  26.750  1.00  0.00     0.163 HD
ATOM     31  O   UNL A   1      33.333  33.187  28.168  1.00  0.00    -0.269 OA
BRANCH  29  32
ATOM     32  C   UNL A   1      34.944  31.480  27.927  1.00  0.00     0.039 A 
ATOM     33  C   UNL A   1      36.074  32.294  28.011  1.00  0.00     0.014 A 
ATOM     34  C   UNL A   1      35.000  30.129  28.280  1.00  0.00     0.014 A 
ATOM     35  C   UNL A   1      37.250  31.770  28.547  1.00  0.00     0.010 A 
ATOM     36  C   UNL A   1      36.147  29.638  28.892  1.00  0.00     0.010 A 
ATOM     37  C   UNL A   1      37.279  30.456  29.045  1.00  0.00    -0.014 A 
BRANCH  37  38
ATOM     38  C   UNL A   1      38.481  29.911  29.731  1.00  0.00     0.031 A 
ATOM     39  C   UNL A   1      38.839  30.410  31.103  1.00  0.00     0.074 A 
ATOM     40  C   UNL A   1      39.289  29.041  29.092  1.00  0.00     0.049 A 
ATOM     41  N   UNL A   1      39.895  30.156  31.830  1.00  0.00    -0.248 NA
ATOM     42  C   UNL A   1      37.897  31.359  31.720  1.00  0.00     0.031 C 
ATOM     43  C   UNL A   1      39.080  28.526  27.736  1.00  0.00     0.029 A 
ATOM     44  N   UNL A   1      40.456  28.441  29.493  1.00  0.00    -0.354 N 
ATOM     45  C   UNL A   1      39.758  30.930  32.977  1.00  0.00     0.074 A 
ATOM     46  C   UNL A   1      38.553  31.714  32.812  1.00  0.00     0.031 C 
ATOM     47  C   UNL A   1      40.068  27.668  27.432  1.00  0.00     0.029 A 
ATOM     48  C   UNL A   1      41.003  27.599  28.551  1.00  0.00     0.049 A 
ATOM     49  H   UNL A   1      40.866  28.598  30.375  1.00  0.00     0.167 HD
ATOM     50  C   UNL A   1      40.545  30.961  34.081  1.00  0.00     0.034 A 
ATOM     51  C   UNL A   1      42.130  26.861  28.586  1.00  0.00     0.034 A 
ATOM     52  C   UNL A   1      41.726  30.150  34.241  1.00  0.00     0.049 A 
ATOM     53  C   UNL A   1      42.986  26.903  29.826  1.00  0.00     0.074 A 
ATOM     54  C   UNL A   1      42.569  30.058  35.334  1.00  0.00     0.029 A 
ATOM     55  N   UNL A   1      42.230  29.286  33.277  1.00  0.00    -0.354 N 
ATOM     56  N   UNL A   1      42.817  27.605  30.923  1.00  0.00    -0.248 NA
ATOM     57  C   UNL A   1      44.178  26.044  29.839  1.00  0.00     0.031 C 
ATOM     58  C   UNL A   1      43.608  29.178  35.013  1.00  0.00     0.029 A 
ATOM     59  C   UNL A   1      43.381  28.670  33.744  1.00  0.00     0.049 A 
ATOM     60  H   UNL A   1      41.829  29.133  32.391  1.00  0.00     0.167 HD
ATOM     61  C   UNL A   1      43.865  27.246  31.767  1.00  0.00     0.074 A 
ATOM     62  C   UNL A   1      44.652  26.260  31.057  1.00  0.00     0.031 C 
ATOM     63  C   UNL A   1      44.151  27.689  33.018  1.00  0.00     0.034 A 
BRANCH  50  64
ATOM     64  C   UNL A   1      40.148  31.914  35.181  1.00  0.00     0.023 A 
ATOM     65  C   UNL A   1      39.341  31.499  36.255  1.00  0.00     0.031 A 
ATOM     66  C   UNL A   1      40.532  33.265  35.132  1.00  0.00     0.131 A 
ATOM     67  C   UNL A   1      38.865  32.439  37.179  1.00  0.00     0.055 A 
ATOM     68  C   UNL A   1      40.129  34.180  36.107  1.00  0.00     0.041 A 
ATOM     69  F   UNL A   1      41.287  33.725  34.122  1.00  0.00    -0.206 F 
ATOM     70  C   UNL A   1      39.275  33.773  37.129  1.00  0.00     0.022 A 
BRANCH  67  71
ATOM     71  S   UNL A   1      37.580  31.925  38.351  1.00  0.00     0.124 S 
ATOM     72  O   UNL A   1      36.545  32.929  38.110  1.00  0.00    -0.237 OA
ATOM     73  O   UNL A   1      37.270  30.571  37.907  1.00  0.00    -0.237 OA
ATOM     74  O   UNL A   1      38.241  32.021  39.650  1.00  0.00    -0.744 OA
ENDBRANCH  67  71
ENDBRANCH  50  64
BRANCH  51  75
ATOM     75  C   UNL A   1      42.523  26.015  27.423  1.00  0.00     0.023 A 
ATOM     76  C   UNL A   1      42.109  24.677  27.333  1.00  0.00     0.031 A 
ATOM     77  C   UNL A   1      43.360  26.515  26.409  1.00  0.00     0.131 A 
ATOM     78  C   UNL A   1      42.570  23.868  26.282  1.00  0.00     0.055 A 
ATOM     79  C   UNL A   1      43.779  25.720  25.340  1.00  0.00     0.041 A 
ATOM     80  F   UNL A   1      43.780  27.790  26.443  1.00  0.00    -0.206 F 
ATOM     81  C   UNL A   1      43.394  24.383  25.280  1.00  0.00     0.022 A 
BRANCH  78  82
ATOM     82  S   UNL A   1      42.143  22.106  26.290  1.00  0.00     0.124 S 
ATOM     83  O   UNL A   1      42.970  21.594  25.203  1.00  0.00    -0.237 OA
ATOM     84  O   UNL A   1      42.536  21.706  27.637  1.00  0.00    -0.237 OA
ATOM     85  O   UNL A   1      40.704  22.103  26.035  1.00  0.00    -0.744 OA
ENDBRANCH  78  82
ENDBRANCH  51  75
BRANCH  63  86
ATOM     86  C   UNL A   1      45.335  27.065  33.710  1.00  0.00     0.023 A 
ATOM     87  C   UNL A   1      45.215  25.880  34.455  1.00  0.00     0.031 A 
ATOM     88  C   UNL A   1      46.601  27.673  33.627  1.00  0.00     0.131 A 
ATOM     89  C   UNL A   1      46.331  25.364  35.130  1.00  0.00     0.055 A 
ATOM     90  C   UNL A   1      47.718  27.126  34.257  1.00  0.00     0.041 A 
ATOM     91  F   UNL A   1      46.768  28.806  32.927  1.00  0.00    -0.206 F 
ATOM     92  C   UNL A   1      47.585  25.972  35.023  1.00  0.00     0.022 A 
BRANCH  89  93
ATOM     93  S   UNL A   1      46.106  23.930  36.216  1.00  0.00     0.124 S 
ATOM     94  O   UNL A   1      44.662  23.724  36.153  1.00  0.00    -0.237 OA
ATOM     95  O   UNL A   1      46.925  22.912  35.564  1.00  0.00    -0.237 OA
ATOM     96  O   UNL A   1      46.610  24.394  37.508  1.00  0.00    -0.744 OA
ENDBRANCH  89  93
ENDBRANCH  63  86
ENDBRANCH  37  38
ENDBRANCH  29  32
ENDBRANCH  27  28
ENDBRANCH   1  27
TORSDOF 18
ENDMDL
MODEL 3
REMARK VINA RESULT:     -11.5      5.135      8.328
REMARK SMILES CC[NH2+][C@@]1(C(=O)NCCCCNC(=O)c2ccc(-c3c4nc(c(-c5cc(S(=O)(=O)[O-])ccc5F)c5ccc([nH]5)c(-c5cc(S(=O)(=O)[O-])ccc5F)c5nc(c(-c6cc(S(=O)(=O)[O-])ccc6F)c6ccc3[nH]6)C=C5)C=C4)cc2)CCC[C@@H]([N@@H+](C)C2CCCC2)C1
REMARK SMILES IDX 10 1 9 2 8 3 7 4 5 5 6 6 4 8 78 9 89 10 79 11 81 12 80 13
REMARK SMILES IDX 3 14 2 17 1 18 82 19 83 20 84 22 85 23 88 24 86 25 87 26
REMARK SMILES IDX 11 27 12 28 13 29 14 31 15 32 16 33 77 34 17 35 76 36 18 37
REMARK SMILES IDX 19 38 20 39 70 40 21 41 75 42 69 43 71 44 22 45 74 46 68 47
REMARK SMILES IDX 67 48 23 50 55 51 35 52 54 53 36 54 39 55 53 56 72 57 37 58
REMARK SMILES IDX 38 59 52 61 73 62 40 63 24 64 25 65 33 66 26 67 32 68 34 69
REMARK SMILES IDX 31 70 27 71 28 72 29 73 30 74 56 75 57 76 65 77 58 78 64 79
REMARK SMILES IDX 66 80 63 81 59 82 60 83 61 84 62 85 41 86 42 87 50 88 43 89
REMARK SMILES IDX 49 90 51 91 48 92 44 93 45 94 46 95 47 96
REMARK H PARENT 7 7 3 15 3 16 82 21 12 30 71 49 39 60
REMARK Flexibility Score: inf
ROOT
ATOM      1  C   UNL A   1      31.548  29.513  26.368  1.00  0.00     0.023 C 
ENDROOT
BRANCH   1   2
ATOM      2  C   UNL A   1      31.734  28.225  27.158  1.00  0.00     0.023 C 
BRANCH   2   3
ATOM      3  C   UNL A   1      31.038  27.010  26.553  1.00  0.00     0.116 C 
BRANCH   3   4
ATOM      4  N   UNL A   1      31.974  25.994  26.101  1.00  0.00    -0.351 N 
ATOM      5  C   UNL A   1      32.919  26.258  25.148  1.00  0.00     0.281 C 
ATOM      6  O   UNL A   1      34.065  26.498  25.547  1.00  0.00    -0.268 OA
ATOM      7  H   UNL A   1      31.927  25.092  26.492  1.00  0.00     0.163 HD
BRANCH   5   8
ATOM      8  C   UNL A   1      32.590  26.175  23.603  1.00  0.00     0.181 C 
ATOM      9  C   UNL A   1      33.689  26.898  22.801  1.00  0.00     0.079 C 
ATOM     10  C   UNL A   1      31.224  26.653  23.071  1.00  0.00     0.144 C 
ATOM     11  C   UNL A   1      33.617  28.416  22.841  1.00  0.00     0.013 C 
ATOM     12  C   UNL A   1      31.002  28.172  23.079  1.00  0.00     0.190 C 
ATOM     13  C   UNL A   1      32.226  29.037  22.698  1.00  0.00     0.065 C 
BRANCH   8  14
ATOM     14  N   UNL A   1      32.723  24.719  23.202  1.00  0.00    -0.334 N 
ATOM     15  H   UNL A   1      33.171  24.683  22.286  1.00  0.00     0.347 HD
ATOM     16  H   UNL A   1      33.267  24.269  23.938  1.00  0.00     0.347 HD
BRANCH  14  17
ATOM     17  C   UNL A   1      31.457  23.976  23.117  1.00  0.00     0.257 C 
ATOM     18  C   UNL A   1      31.414  22.930  24.222  1.00  0.00     0.071 C 
ENDBRANCH  14  17
ENDBRANCH   8  14
BRANCH  12  19
ATOM     19  N   UNL A   1      29.693  28.592  22.503  1.00  0.00    -0.332 N 
ATOM     20  C   UNL A   1      28.576  27.916  23.177  1.00  0.00     0.333 C 
ATOM     21  H   UNL A   1      29.822  28.281  21.541  1.00  0.00     0.348 HD
BRANCH  19  22
ATOM     22  C   UNL A   1      29.383  30.014  22.282  1.00  0.00     0.184 C 
ATOM     23  C   UNL A   1      28.335  30.442  21.251  1.00  0.00     0.065 C 
ATOM     24  C   UNL A   1      29.033  30.834  23.541  1.00  0.00     0.065 C 
ATOM     25  C   UNL A   1      28.155  31.921  21.550  1.00  0.00     0.006 C 
ATOM     26  C   UNL A   1      28.065  31.928  23.069  1.00  0.00     0.006 C 
ENDBRANCH  19  22
ENDBRANCH  12  19
ENDBRANCH   5   8
ENDBRANCH   3   4
ENDBRANCH   2   3
ENDBRANCH   1   2
BRANCH   1  27
ATOM     27  C   UNL A   1      32.775  30.410  26.292  1.00  0.00     0.116 C 
BRANCH  27  28
ATOM     28  N   UNL A   1      32.578  31.759  26.804  1.00  0.00    -0.352 N 
ATOM     29  C   UNL A   1      33.469  32.486  27.570  1.00  0.00     0.251 C 
ATOM     30  H   UNL A   1      31.725  32.198  26.581  1.00  0.00     0.163 HD
ATOM     31  O   UNL A   1      33.188  33.603  27.984  1.00  0.00    -0.269 OA
BRANCH  29  32
ATOM     32  C   UNL A   1      34.748  31.834  27.918  1.00  0.00     0.039 A 
ATOM     33  C   UNL A   1      35.890  32.622  28.062  1.00  0.00     0.014 A 
ATOM     34  C   UNL A   1      34.747  30.489  28.298  1.00  0.00     0.014 A 
ATOM     35  C   UNL A   1      37.015  32.081  28.684  1.00  0.00     0.010 A 
ATOM     36  C   UNL A   1      35.839  29.982  28.993  1.00  0.00     0.010 A 
ATOM     37  C   UNL A   1      36.979  30.776  29.205  1.00  0.00    -0.014 A 
BRANCH  37  38
ATOM     38  C   UNL A   1      38.119  30.216  29.978  1.00  0.00     0.031 A 
ATOM     39  C   UNL A   1      38.363  30.690  31.384  1.00  0.00     0.074 A 
ATOM     40  C   UNL A   1      38.977  29.356  29.392  1.00  0.00     0.049 A 
ATOM     41  N   UNL A   1      39.356  30.420  32.191  1.00  0.00    -0.248 NA
ATOM     42  C   UNL A   1      37.374  31.629  31.938  1.00  0.00     0.031 C 
ATOM     43  C   UNL A   1      38.880  28.866  28.015  1.00  0.00     0.029 A 
ATOM     44  N   UNL A   1      40.106  28.746  29.878  1.00  0.00    -0.354 N 
ATOM     45  C   UNL A   1      39.124  31.174  33.336  1.00  0.00     0.074 A 
ATOM     46  C   UNL A   1      37.938  31.964  33.087  1.00  0.00     0.031 C 
ATOM     47  C   UNL A   1      39.889  28.011  27.778  1.00  0.00     0.029 A 
ATOM     48  C   UNL A   1      40.728  27.920  28.969  1.00  0.00     0.049 A 
ATOM     49  H   UNL A   1      40.442  28.886  30.793  1.00  0.00     0.167 HD
ATOM     50  C   UNL A   1      39.818  31.183  34.502  1.00  0.00     0.034 A 
ATOM     51  C   UNL A   1      41.847  27.179  29.084  1.00  0.00     0.034 A 
ATOM     52  C   UNL A   1      40.980  30.367  34.745  1.00  0.00     0.049 A 
ATOM     53  C   UNL A   1      42.599  27.196  30.391  1.00  0.00     0.074 A 
ATOM     54  C   UNL A   1      41.730  30.253  35.901  1.00  0.00     0.029 A 
ATOM     55  N   UNL A   1      41.562  29.519  33.810  1.00  0.00    -0.354 N 
ATOM     56  N   UNL A   1      42.340  27.879  31.483  1.00  0.00    -0.248 NA
ATOM     57  C   UNL A   1      43.785  26.334  30.486  1.00  0.00     0.031 C 
ATOM     58  C   UNL A   1      42.792  29.376  35.652  1.00  0.00     0.029 A 
ATOM     59  C   UNL A   1      42.670  28.892  34.360  1.00  0.00     0.049 A 
ATOM     60  H   UNL A   1      41.236  29.383  32.891  1.00  0.00     0.167 HD
ATOM     61  C   UNL A   1      43.314  27.502  32.404  1.00  0.00     0.074 A 
ATOM     62  C   UNL A   1      44.156  26.527  31.743  1.00  0.00     0.031 C 
ATOM     63  C   UNL A   1      43.497  27.922  33.682  1.00  0.00     0.034 A 
BRANCH  50  64
ATOM     64  C   UNL A   1      39.332  32.117  35.583  1.00  0.00     0.023 A 
ATOM     65  C   UNL A   1      39.764  33.453  35.646  1.00  0.00     0.031 A 
ATOM     66  C   UNL A   1      38.472  31.656  36.594  1.00  0.00     0.131 A 
ATOM     67  C   UNL A   1      39.415  34.252  36.744  1.00  0.00     0.055 A 
ATOM     68  C   UNL A   1      38.054  32.484  37.638  1.00  0.00     0.041 A 
ATOM     69  F   UNL A   1      38.040  30.385  36.599  1.00  0.00    -0.206 F 
ATOM     70  C   UNL A   1      38.541  33.786  37.729  1.00  0.00     0.022 A 
BRANCH  67  71
ATOM     71  S   UNL A   1      40.246  35.851  36.948  1.00  0.00     0.124 S 
ATOM     72  O   UNL A   1      41.649  35.475  36.781  1.00  0.00    -0.237 OA
ATOM     73  O   UNL A   1      39.667  36.647  35.872  1.00  0.00    -0.237 OA
ATOM     74  O   UNL A   1      39.874  36.261  38.299  1.00  0.00    -0.744 OA
ENDBRANCH  67  71
ENDBRANCH  50  64
BRANCH  51  75
ATOM     75  C   UNL A   1      42.335  26.352  27.942  1.00  0.00     0.023 A 
ATOM     76  C   UNL A   1      41.871  25.041  27.752  1.00  0.00     0.031 A 
ATOM     77  C   UNL A   1      43.309  26.842  27.053  1.00  0.00     0.131 A 
ATOM     78  C   UNL A   1      42.414  24.246  26.731  1.00  0.00     0.055 A 
ATOM     79  C   UNL A   1      43.813  26.063  26.009  1.00  0.00     0.041 A 
ATOM     80  F   UNL A   1      43.781  28.092  27.185  1.00  0.00    -0.206 F 
ATOM     81  C   UNL A   1      43.374  24.750  25.852  1.00  0.00     0.022 A 
BRANCH  78  82
ATOM     82  S   UNL A   1      41.905  22.508  26.620  1.00  0.00     0.124 S 
ATOM     83  O   UNL A   1      42.655  21.908  27.719  1.00  0.00    -0.237 OA
ATOM     84  O   UNL A   1      40.462  22.603  26.807  1.00  0.00    -0.237 OA
ATOM     85  O   UNL A   1      42.335  22.113  25.281  1.00  0.00    -0.744 OA
ENDBRANCH  78  82
ENDBRANCH  51  75
BRANCH  63  86
ATOM     86  C   UNL A   1      44.619  27.283  34.457  1.00  0.00     0.023 A 
ATOM     87  C   UNL A   1      45.917  27.821  34.458  1.00  0.00     0.031 A 
ATOM     88  C   UNL A   1      44.384  26.112  35.200  1.00  0.00     0.131 A 
ATOM     89  C   UNL A   1      46.945  27.161  35.148  1.00  0.00     0.055 A 
ATOM     90  C   UNL A   1      45.398  25.489  35.927  1.00  0.00     0.041 A 
ATOM     91  F   UNL A   1      43.162  25.558  35.231  1.00  0.00    -0.206 F 
ATOM     92  C   UNL A   1      46.690  26.007  35.895  1.00  0.00     0.022 A 
BRANCH  89  93
ATOM     93  S   UNL A   1      48.639  27.787  34.993  1.00  0.00     0.124 S 
ATOM     94  O   UNL A   1      48.493  29.171  35.435  1.00  0.00    -0.237 OA
ATOM     95  O   UNL A   1      49.381  26.907  35.891  1.00  0.00    -0.237 OA
ATOM     96  O   UNL A   1      48.940  27.618  33.573  1.00  0.00    -0.744 OA
ENDBRANCH  89  93
ENDBRANCH  63  86
ENDBRANCH  37  38
ENDBRANCH  29  32
ENDBRANCH  27  28
ENDBRANCH   1  27
TORSDOF 18
ENDMDL
