MODEL 1
REMARK VINA RESULT:      -8.9      0.000      0.000
REMARK SMILES C[C@H](C[NH3+])CS/C=C/C(=O)NCCCCNC(=O)c1ccc(-c2c3nc(c(-c4cc(S(=O)(=O)[O-])ccc4F)c4ccc([nH]4)c(-c4cc(S(=O)(=O)[O-])ccc4F)c4nc(c(-c5cc(S(=O)(=O)[O-])ccc5F)c5ccc2[nH]5)C=C4)C=C3)cc1
REMARK SMILES IDX 12 1 11 2 9 3 10 4 8 6 7 7 6 8 5 9 2 10 1 11 3 12 4 13 13 17
REMARK SMILES IDX 14 18 15 19 16 20 17 21 18 23 19 24 20 25 81 26 21 27 80 28
REMARK SMILES IDX 22 29 23 30 24 31 74 32 25 33 79 34 73 35 75 36 26 37 78 38
REMARK SMILES IDX 72 39 71 40 27 42 59 43 39 44 58 45 40 46 43 47 57 48 76 49
REMARK SMILES IDX 41 50 42 51 56 53 77 54 44 55 28 56 29 57 37 58 30 59 36 60
REMARK SMILES IDX 38 61 35 62 31 63 32 64 33 65 34 66 60 67 61 68 69 69 62 70
REMARK SMILES IDX 68 71 70 72 67 73 63 74 64 75 65 76 66 77 45 78 46 79 54 80
REMARK SMILES IDX 47 81 53 82 55 83 52 84 48 85 49 86 50 87 51 88
REMARK H PARENT 11 5 4 14 4 15 4 16 16 22 75 41 43 52
REMARK Flexibility Score: inf
ROOT
ATOM      1  C   UNL A   1      33.602  29.312  26.976  1.00  0.00     0.116 C 
ENDROOT
BRANCH   1   2
ATOM      2  N   UNL A   1      34.299  28.968  25.750  1.00  0.00    -0.353 N 
ATOM      3  C   UNL A   1      33.792  28.767  24.506  1.00  0.00     0.244 C 
ATOM      4  O   UNL A   1      34.495  28.321  23.604  1.00  0.00    -0.270 OA
ATOM      5  H   UNL A   1      35.274  28.866  25.833  1.00  0.00     0.163 HD
BRANCH   3   6
ATOM      6  C   UNL A   1      32.379  29.081  24.221  1.00  0.00     0.078 C 
ATOM      7  C   UNL A   1      31.800  28.583  23.123  1.00  0.00     0.046 C 
BRANCH   7   8
ATOM      8  S   UNL A   1      30.097  28.604  22.864  1.00  0.00    -0.133 SA
BRANCH   8   9
ATOM      9  C   UNL A   1      29.644  30.188  23.661  1.00  0.00     0.083 C 
BRANCH   9  10
ATOM     10  C   UNL A   1      28.228  30.723  23.352  1.00  0.00     0.051 C 
ATOM     11  C   UNL A   1      27.354  29.558  22.861  1.00  0.00     0.014 C 
BRANCH  10  12
ATOM     12  C   UNL A   1      28.150  31.880  22.332  1.00  0.00     0.262 C 
BRANCH  12  13
ATOM     13  N   UNL A   1      28.822  31.609  21.065  1.00  0.00    -0.357 N 
ATOM     14  H   UNL A   1      29.652  31.041  21.235  1.00  0.00     0.344 HD
ATOM     15  H   UNL A   1      29.097  32.490  20.630  1.00  0.00     0.344 HD
ATOM     16  H   UNL A   1      28.187  31.106  20.445  1.00  0.00     0.344 HD
ENDBRANCH  12  13
ENDBRANCH  10  12
ENDBRANCH   9  10
ENDBRANCH   8   9
ENDBRANCH   7   8
ENDBRANCH   3   6
ENDBRANCH   1   2
BRANCH   1  17
ATOM     17  C   UNL A   1      34.123  30.614  27.575  1.00  0.00     0.023 C 
BRANCH  17  18
ATOM     18  C   UNL A   1      33.079  31.730  27.652  1.00  0.00     0.023 C 
BRANCH  18  19
ATOM     19  C   UNL A   1      33.622  33.140  27.444  1.00  0.00     0.116 C 
BRANCH  19  20
ATOM     20  N   UNL A   1      33.070  34.112  28.375  1.00  0.00    -0.352 N 
ATOM     21  C   UNL A   1      33.467  34.394  29.658  1.00  0.00     0.251 C 
ATOM     22  H   UNL A   1      32.307  34.637  28.040  1.00  0.00     0.163 HD
ATOM     23  O   UNL A   1      32.806  35.171  30.342  1.00  0.00    -0.269 OA
BRANCH  21  24
ATOM     24  C   UNL A   1      34.664  33.732  30.213  1.00  0.00     0.039 A 
ATOM     25  C   UNL A   1      34.495  32.686  31.122  1.00  0.00     0.014 A 
ATOM     26  C   UNL A   1      35.947  34.133  29.830  1.00  0.00     0.014 A 
ATOM     27  C   UNL A   1      35.613  32.009  31.611  1.00  0.00     0.010 A 
ATOM     28  C   UNL A   1      37.054  33.408  30.258  1.00  0.00     0.010 A 
ATOM     29  C   UNL A   1      36.900  32.350  31.166  1.00  0.00    -0.014 A 
BRANCH  29  30
ATOM     30  C   UNL A   1      38.103  31.648  31.682  1.00  0.00     0.031 A 
ATOM     31  C   UNL A   1      38.695  32.064  33.002  1.00  0.00     0.074 A 
ATOM     32  C   UNL A   1      38.684  30.679  30.948  1.00  0.00     0.049 A 
ATOM     33  N   UNL A   1      39.776  31.633  33.598  1.00  0.00    -0.248 NA
ATOM     34  C   UNL A   1      37.996  33.135  33.727  1.00  0.00     0.031 C 
ATOM     35  C   UNL A   1      38.223  30.219  29.636  1.00  0.00     0.029 A 
ATOM     36  N   UNL A   1      39.791  29.909  31.197  1.00  0.00    -0.354 N 
ATOM     37  C   UNL A   1      39.896  32.391  34.759  1.00  0.00     0.074 A 
ATOM     38  C   UNL A   1      38.817  33.356  34.741  1.00  0.00     0.031 C 
ATOM     39  C   UNL A   1      39.026  29.230  29.210  1.00  0.00     0.029 A 
ATOM     40  C   UNL A   1      40.079  29.011  30.196  1.00  0.00     0.049 A 
ATOM     41  H   UNL A   1      40.331  29.991  32.018  1.00  0.00     0.167 HD
ATOM     42  C   UNL A   1      40.802  32.274  35.761  1.00  0.00     0.034 A 
ATOM     43  C   UNL A   1      41.082  28.116  30.086  1.00  0.00     0.034 A 
ATOM     44  C   UNL A   1      41.856  31.291  35.770  1.00  0.00     0.049 A 
ATOM     45  C   UNL A   1      42.081  28.004  31.211  1.00  0.00     0.074 A 
ATOM     46  C   UNL A   1      42.804  31.050  36.749  1.00  0.00     0.029 A 
ATOM     47  N   UNL A   1      42.105  30.383  34.748  1.00  0.00    -0.354 N 
ATOM     48  N   UNL A   1      42.154  28.698  32.324  1.00  0.00    -0.248 NA
ATOM     49  C   UNL A   1      43.119  26.976  31.073  1.00  0.00     0.031 C 
ATOM     50  C   UNL A   1      43.659  30.041  36.293  1.00  0.00     0.029 A 
ATOM     51  C   UNL A   1      43.201  29.597  35.063  1.00  0.00     0.049 A 
ATOM     52  H   UNL A   1      41.578  30.310  33.919  1.00  0.00     0.167 HD
ATOM     53  C   UNL A   1      43.222  28.161  33.036  1.00  0.00     0.074 A 
ATOM     54  C   UNL A   1      43.755  27.081  32.230  1.00  0.00     0.031 C 
ATOM     55  C   UNL A   1      43.718  28.523  34.248  1.00  0.00     0.034 A 
BRANCH  42  56
ATOM     56  C   UNL A   1      40.695  33.251  36.910  1.00  0.00     0.023 A 
ATOM     57  C   UNL A   1      41.616  34.302  37.074  1.00  0.00     0.031 A 
ATOM     58  C   UNL A   1      39.687  33.106  37.878  1.00  0.00     0.131 A 
ATOM     59  C   UNL A   1      41.565  35.106  38.222  1.00  0.00     0.055 A 
ATOM     60  C   UNL A   1      39.587  33.969  38.972  1.00  0.00     0.041 A 
ATOM     61  F   UNL A   1      38.791  32.111  37.790  1.00  0.00    -0.206 F 
ATOM     62  C   UNL A   1      40.541  34.965  39.159  1.00  0.00     0.022 A 
BRANCH  59  63
ATOM     63  S   UNL A   1      42.950  36.232  38.551  1.00  0.00     0.124 S 
ATOM     64  O   UNL A   1      43.903  35.834  37.516  1.00  0.00    -0.237 OA
ATOM     65  O   UNL A   1      42.337  37.544  38.386  1.00  0.00    -0.237 OA
ATOM     66  O   UNL A   1      43.349  35.895  39.915  1.00  0.00    -0.744 OA
ENDBRANCH  59  63
ENDBRANCH  42  56
BRANCH  43  67
ATOM     67  C   UNL A   1      41.196  27.252  28.875  1.00  0.00     0.023 A 
ATOM     68  C   UNL A   1      42.167  27.509  27.893  1.00  0.00     0.031 A 
ATOM     69  C   UNL A   1      40.308  26.183  28.659  1.00  0.00     0.131 A 
ATOM     70  C   UNL A   1      42.193  26.743  26.718  1.00  0.00     0.055 A 
ATOM     71  C   UNL A   1      40.373  25.390  27.514  1.00  0.00     0.041 A 
ATOM     72  F   UNL A   1      39.366  25.890  29.570  1.00  0.00    -0.206 F 
ATOM     73  C   UNL A   1      41.311  25.677  26.527  1.00  0.00     0.022 A 
BRANCH  70  74
ATOM     74  S   UNL A   1      43.344  27.216  25.398  1.00  0.00     0.124 S 
ATOM     75  O   UNL A   1      42.460  27.909  24.468  1.00  0.00    -0.237 OA
ATOM     76  O   UNL A   1      44.301  28.051  26.117  1.00  0.00    -0.237 OA
ATOM     77  O   UNL A   1      43.868  25.936  24.927  1.00  0.00    -0.744 OA
ENDBRANCH  70  74
ENDBRANCH  43  67
BRANCH  55  78
ATOM     78  C   UNL A   1      44.854  27.696  34.799  1.00  0.00     0.023 A 
ATOM     79  C   UNL A   1      44.632  26.598  35.649  1.00  0.00     0.031 A 
ATOM     80  C   UNL A   1      46.183  28.025  34.476  1.00  0.00     0.131 A 
ATOM     81  C   UNL A   1      45.724  25.905  36.193  1.00  0.00     0.055 A 
ATOM     82  C   UNL A   1      47.262  27.293  34.970  1.00  0.00     0.041 A 
ATOM     83  F   UNL A   1      46.453  29.065  33.671  1.00  0.00    -0.206 F 
ATOM     84  C   UNL A   1      47.037  26.235  35.846  1.00  0.00     0.022 A 
BRANCH  81  85
ATOM     85  S   UNL A   1      45.409  24.629  37.442  1.00  0.00     0.124 S 
ATOM     86  O   UNL A   1      45.467  23.405  36.649  1.00  0.00    -0.237 OA
ATOM     87  O   UNL A   1      46.508  24.833  38.380  1.00  0.00    -0.237 OA
ATOM     88  O   UNL A   1      44.085  24.972  37.957  1.00  0.00    -0.744 OA
ENDBRANCH  81  85
ENDBRANCH  55  78
ENDBRANCH  29  30
ENDBRANCH  21  24
ENDBRANCH  19  20
ENDBRANCH  18  19
ENDBRANCH  17  18
ENDBRANCH   1  17
TORSDOF 19
ENDMDL
MODEL 2
REMARK VINA RESULT:      -8.8      2.005      2.291
REMARK SMILES C[C@H](C[NH3+])CS/C=C/C(=O)NCCCCNC(=O)c1ccc(-c2c3nc(c(-c4cc(S(=O)(=O)[O-])ccc4F)c4ccc([nH]4)c(-c4cc(S(=O)(=O)[O-])ccc4F)c4nc(c(-c5cc(S(=O)(=O)[O-])ccc5F)c5ccc2[nH]5)C=C4)C=C3)cc1
REMARK SMILES IDX 12 1 11 2 9 3 10 4 8 6 7 7 6 8 5 9 2 10 1 11 3 12 4 13 13 17
REMARK SMILES IDX 14 18 15 19 16 20 17 21 18 23 19 24 20 25 81 26 21 27 80 28
REMARK SMILES IDX 22 29 23 30 24 31 74 32 25 33 79 34 73 35 75 36 26 37 78 38
REMARK SMILES IDX 72 39 71 40 27 42 59 43 39 44 58 45 40 46 43 47 57 48 76 49
REMARK SMILES IDX 41 50 42 51 56 53 77 54 44 55 28 56 29 57 37 58 30 59 36 60
REMARK SMILES IDX 38 61 35 62 31 63 32 64 33 65 34 66 60 67 61 68 69 69 62 70
REMARK SMILES IDX 68 71 70 72 67 73 63 74 64 75 65 76 66 77 45 78 46 79 54 80
REMARK SMILES IDX 47 81 53 82 55 83 52 84 48 85 49 86 50 87 51 88
REMARK H PARENT 11 5 4 14 4 15 4 16 16 22 75 41 43 52
REMARK Flexibility Score: inf
ROOT
ATOM      1  C   UNL A   1      33.979  29.800  27.467  1.00  0.00     0.116 C 
ENDROOT
BRANCH   1   2
ATOM      2  N   UNL A   1      34.476  29.302  26.197  1.00  0.00    -0.353 N 
ATOM      3  C   UNL A   1      33.777  28.887  25.109  1.00  0.00     0.244 C 
ATOM      4  O   UNL A   1      34.343  28.339  24.168  1.00  0.00    -0.270 OA
ATOM      5  H   UNL A   1      35.456  29.260  26.114  1.00  0.00     0.163 HD
BRANCH   3   6
ATOM      6  C   UNL A   1      32.317  29.086  25.045  1.00  0.00     0.078 C 
ATOM      7  C   UNL A   1      31.680  28.946  23.877  1.00  0.00     0.046 C 
BRANCH   7   8
ATOM      8  S   UNL A   1      29.967  28.826  23.745  1.00  0.00    -0.133 SA
BRANCH   8   9
ATOM      9  C   UNL A   1      29.517  30.580  23.476  1.00  0.00     0.083 C 
BRANCH   9  10
ATOM     10  C   UNL A   1      28.016  30.868  23.248  1.00  0.00     0.051 C 
ATOM     11  C   UNL A   1      27.313  29.559  22.858  1.00  0.00     0.014 C 
BRANCH  10  12
ATOM     12  C   UNL A   1      27.688  31.953  22.198  1.00  0.00     0.262 C 
BRANCH  12  13
ATOM     13  N   UNL A   1      28.030  31.584  20.828  1.00  0.00    -0.357 N 
ATOM     14  H   UNL A   1      27.237  31.776  20.216  1.00  0.00     0.344 HD
ATOM     15  H   UNL A   1      28.255  30.590  20.790  1.00  0.00     0.344 HD
ATOM     16  H   UNL A   1      28.837  32.127  20.521  1.00  0.00     0.344 HD
ENDBRANCH  12  13
ENDBRANCH  10  12
ENDBRANCH   9  10
ENDBRANCH   8   9
ENDBRANCH   7   8
ENDBRANCH   3   6
ENDBRANCH   1   2
BRANCH   1  17
ATOM     17  C   UNL A   1      34.416  31.239  27.719  1.00  0.00     0.023 C 
BRANCH  17  18
ATOM     18  C   UNL A   1      33.275  32.258  27.673  1.00  0.00     0.023 C 
BRANCH  18  19
ATOM     19  C   UNL A   1      33.710  33.718  27.620  1.00  0.00     0.116 C 
BRANCH  19  20
ATOM     20  N   UNL A   1      33.167  34.520  28.706  1.00  0.00    -0.352 N 
ATOM     21  C   UNL A   1      33.576  34.584  30.015  1.00  0.00     0.251 C 
ATOM     22  H   UNL A   1      32.402  35.093  28.470  1.00  0.00     0.163 HD
ATOM     23  O   UNL A   1      32.922  35.235  30.825  1.00  0.00    -0.269 OA
BRANCH  21  24
ATOM     24  C   UNL A   1      34.778  33.840  30.440  1.00  0.00     0.039 A 
ATOM     25  C   UNL A   1      34.619  32.700  31.232  1.00  0.00     0.014 A 
ATOM     26  C   UNL A   1      36.054  34.257  30.052  1.00  0.00     0.014 A 
ATOM     27  C   UNL A   1      35.739  31.951  31.593  1.00  0.00     0.010 A 
ATOM     28  C   UNL A   1      37.159  33.466  30.348  1.00  0.00     0.010 A 
ATOM     29  C   UNL A   1      37.015  32.315  31.136  1.00  0.00    -0.014 A 
BRANCH  29  30
ATOM     30  C   UNL A   1      38.221  31.535  31.518  1.00  0.00     0.031 A 
ATOM     31  C   UNL A   1      38.901  31.818  32.831  1.00  0.00     0.074 A 
ATOM     32  C   UNL A   1      38.725  30.616  30.673  1.00  0.00     0.049 A 
ATOM     33  N   UNL A   1      39.998  31.305  33.324  1.00  0.00    -0.248 NA
ATOM     34  C   UNL A   1      38.282  32.843  33.685  1.00  0.00     0.031 C 
ATOM     35  C   UNL A   1      38.174  30.286  29.356  1.00  0.00     0.029 A 
ATOM     36  N   UNL A   1      39.817  29.795  30.789  1.00  0.00    -0.354 N 
ATOM     37  C   UNL A   1      40.210  31.956  34.535  1.00  0.00     0.074 A 
ATOM     38  C   UNL A   1      39.166  32.951  34.662  1.00  0.00     0.031 C 
ATOM     39  C   UNL A   1      38.917  29.314  28.801  1.00  0.00     0.029 A 
ATOM     40  C   UNL A   1      40.016  28.978  29.700  1.00  0.00     0.049 A 
ATOM     41  H   UNL A   1      40.405  29.789  31.580  1.00  0.00     0.167 HD
ATOM     42  C   UNL A   1      41.167  31.727  35.468  1.00  0.00     0.034 A 
ATOM     43  C   UNL A   1      40.979  28.067  29.455  1.00  0.00     0.034 A 
ATOM     44  C   UNL A   1      42.185  30.715  35.331  1.00  0.00     0.049 A 
ATOM     45  C   UNL A   1      42.035  27.829  30.506  1.00  0.00     0.074 A 
ATOM     46  C   UNL A   1      43.178  30.362  36.228  1.00  0.00     0.029 A 
ATOM     47  N   UNL A   1      42.343  29.892  34.223  1.00  0.00    -0.354 N 
ATOM     48  N   UNL A   1      42.196  28.422  31.667  1.00  0.00    -0.248 NA
ATOM     49  C   UNL A   1      43.028  26.786  30.220  1.00  0.00     0.031 C 
ATOM     50  C   UNL A   1      43.970  29.371  35.639  1.00  0.00     0.029 A 
ATOM     51  C   UNL A   1      43.428  29.049  34.405  1.00  0.00     0.049 A 
ATOM     52  H   UNL A   1      41.768  29.906  33.423  1.00  0.00     0.167 HD
ATOM     53  C   UNL A   1      43.284  27.793  32.266  1.00  0.00     0.074 A 
ATOM     54  C   UNL A   1      43.732  26.770  31.342  1.00  0.00     0.031 C 
ATOM     55  C   UNL A   1      43.859  28.034  33.472  1.00  0.00     0.034 A 
BRANCH  42  56
ATOM     56  C   UNL A   1      41.160  32.603  36.699  1.00  0.00     0.023 A 
ATOM     57  C   UNL A   1      40.277  32.366  37.769  1.00  0.00     0.031 A 
ATOM     58  C   UNL A   1      42.012  33.716  36.788  1.00  0.00     0.131 A 
ATOM     59  C   UNL A   1      40.206  33.275  38.834  1.00  0.00     0.055 A 
ATOM     60  C   UNL A   1      42.000  34.568  37.896  1.00  0.00     0.041 A 
ATOM     61  F   UNL A   1      42.862  34.010  35.791  1.00  0.00    -0.206 F 
ATOM     62  C   UNL A   1      41.080  34.360  38.919  1.00  0.00     0.022 A 
BRANCH  59  63
ATOM     63  S   UNL A   1      38.845  33.108  40.024  1.00  0.00     0.124 S 
ATOM     64  O   UNL A   1      39.571  33.045  41.291  1.00  0.00    -0.237 OA
ATOM     65  O   UNL A   1      38.071  34.321  39.791  1.00  0.00    -0.237 OA
ATOM     66  O   UNL A   1      38.193  31.863  39.626  1.00  0.00    -0.744 OA
ENDBRANCH  59  63
ENDBRANCH  42  56
BRANCH  43  67
ATOM     67  C   UNL A   1      40.994  27.307  28.171  1.00  0.00     0.023 A 
ATOM     68  C   UNL A   1      40.587  25.964  28.122  1.00  0.00     0.031 A 
ATOM     69  C   UNL A   1      41.460  27.898  26.984  1.00  0.00     0.131 A 
ATOM     70  C   UNL A   1      40.702  25.241  26.925  1.00  0.00     0.055 A 
ATOM     71  C   UNL A   1      41.520  27.190  25.782  1.00  0.00     0.041 A 
ATOM     72  F   UNL A   1      41.854  29.182  26.974  1.00  0.00    -0.206 F 
ATOM     73  C   UNL A   1      41.154  25.849  25.751  1.00  0.00     0.022 A 
BRANCH  70  74
ATOM     74  S   UNL A   1      40.333  23.465  26.944  1.00  0.00     0.124 S 
ATOM     75  O   UNL A   1      40.483  23.146  28.359  1.00  0.00    -0.237 OA
ATOM     76  O   UNL A   1      38.972  23.434  26.420  1.00  0.00    -0.237 OA
ATOM     77  O   UNL A   1      41.351  22.897  26.063  1.00  0.00    -0.744 OA
ENDBRANCH  70  74
ENDBRANCH  43  67
BRANCH  55  78
ATOM     78  C   UNL A   1      44.996  27.129  33.884  1.00  0.00     0.023 A 
ATOM     79  C   UNL A   1      44.775  25.916  34.559  1.00  0.00     0.031 A 
ATOM     80  C   UNL A   1      46.324  27.498  33.603  1.00  0.00     0.131 A 
ATOM     81  C   UNL A   1      45.867  25.144  34.984  1.00  0.00     0.055 A 
ATOM     82  C   UNL A   1      47.403  26.695  33.973  1.00  0.00     0.041 A 
ATOM     83  F   UNL A   1      46.593  28.646  32.962  1.00  0.00    -0.206 F 
ATOM     84  C   UNL A   1      47.179  25.518  34.680  1.00  0.00     0.022 A 
BRANCH  81  85
ATOM     85  S   UNL A   1      45.555  23.695  36.028  1.00  0.00     0.124 S 
ATOM     86  O   UNL A   1      46.837  23.000  35.977  1.00  0.00    -0.237 OA
ATOM     87  O   UNL A   1      45.209  24.303  37.308  1.00  0.00    -0.237 OA
ATOM     88  O   UNL A   1      44.453  23.014  35.350  1.00  0.00    -0.744 OA
ENDBRANCH  81  85
ENDBRANCH  55  78
ENDBRANCH  29  30
ENDBRANCH  21  24
ENDBRANCH  19  20
ENDBRANCH  18  19
ENDBRANCH  17  18
ENDBRANCH   1  17
TORSDOF 19
ENDMDL
MODEL 3
REMARK VINA RESULT:      -8.8      2.664      8.320
REMARK SMILES C[C@H](C[NH3+])CS/C=C/C(=O)NCCCCNC(=O)c1ccc(-c2c3nc(c(-c4cc(S(=O)(=O)[O-])ccc4F)c4ccc([nH]4)c(-c4cc(S(=O)(=O)[O-])ccc4F)c4nc(c(-c5cc(S(=O)(=O)[O-])ccc5F)c5ccc2[nH]5)C=C4)C=C3)cc1
REMARK SMILES IDX 12 1 11 2 9 3 10 4 8 6 7 7 6 8 5 9 2 10 1 11 3 12 4 13 13 17
REMARK SMILES IDX 14 18 15 19 16 20 17 21 18 23 19 24 20 25 81 26 21 27 80 28
REMARK SMILES IDX 22 29 23 30 24 31 74 32 25 33 79 34 73 35 75 36 26 37 78 38
REMARK SMILES IDX 72 39 71 40 27 42 59 43 39 44 58 45 40 46 43 47 57 48 76 49
REMARK SMILES IDX 41 50 42 51 56 53 77 54 44 55 28 56 29 57 37 58 30 59 36 60
REMARK SMILES IDX 38 61 35 62 31 63 32 64 33 65 34 66 60 67 61 68 69 69 62 70
REMARK SMILES IDX 68 71 70 72 67 73 63 74 64 75 65 76 66 77 45 78 46 79 54 80
REMARK SMILES IDX 47 81 53 82 55 83 52 84 48 85 49 86 50 87 51 88
REMARK H PARENT 11 5 4 14 4 15 4 16 16 22 75 41 43 52
REMARK Flexibility Score: inf
ROOT
ATOM      1  C   UNL A   1      33.388  29.253  27.009  1.00  0.00     0.116 C 
ENDROOT
BRANCH   1   2
ATOM      2  N   UNL A   1      34.135  29.023  25.786  1.00  0.00    -0.353 N 
ATOM      3  C   UNL A   1      33.672  28.771  24.535  1.00  0.00     0.244 C 
ATOM      4  O   UNL A   1      34.436  28.436  23.634  1.00  0.00    -0.270 OA
ATOM      5  H   UNL A   1      35.115  29.055  25.877  1.00  0.00     0.163 HD
BRANCH   3   6
ATOM      6  C   UNL A   1      32.231  28.892  24.239  1.00  0.00     0.078 C 
ATOM      7  C   UNL A   1      31.727  28.297  23.152  1.00  0.00     0.046 C 
BRANCH   7   8
ATOM      8  S   UNL A   1      30.037  28.091  22.889  1.00  0.00    -0.133 SA
BRANCH   8   9
ATOM      9  C   UNL A   1      29.397  29.704  23.469  1.00  0.00     0.083 C 
BRANCH   9  10
ATOM     10  C   UNL A   1      28.019  30.128  22.911  1.00  0.00     0.051 C 
ATOM     11  C   UNL A   1      27.038  28.956  23.067  1.00  0.00     0.014 C 
BRANCH  10  12
ATOM     12  C   UNL A   1      28.004  30.610  21.443  1.00  0.00     0.262 C 
BRANCH  12  13
ATOM     13  N   UNL A   1      29.184  31.375  21.052  1.00  0.00    -0.357 N 
ATOM     14  H   UNL A   1      28.960  32.370  21.054  1.00  0.00     0.344 HD
ATOM     15  H   UNL A   1      29.476  31.094  20.116  1.00  0.00     0.344 HD
ATOM     16  H   UNL A   1      29.940  31.195  21.712  1.00  0.00     0.344 HD
ENDBRANCH  12  13
ENDBRANCH  10  12
ENDBRANCH   9  10
ENDBRANCH   8   9
ENDBRANCH   7   8
ENDBRANCH   3   6
ENDBRANCH   1   2
BRANCH   1  17
ATOM     17  C   UNL A   1      33.689  30.624  27.604  1.00  0.00     0.023 C 
BRANCH  17  18
ATOM     18  C   UNL A   1      32.590  31.663  27.373  1.00  0.00     0.023 C 
BRANCH  18  19
ATOM     19  C   UNL A   1      33.066  32.997  26.807  1.00  0.00     0.116 C 
BRANCH  19  20
ATOM     20  N   UNL A   1      32.667  34.139  27.613  1.00  0.00    -0.352 N 
ATOM     21  C   UNL A   1      33.181  34.567  28.812  1.00  0.00     0.251 C 
ATOM     22  H   UNL A   1      31.927  34.679  27.251  1.00  0.00     0.163 HD
ATOM     23  O   UNL A   1      32.640  35.492  29.411  1.00  0.00    -0.269 OA
BRANCH  21  24
ATOM     24  C   UNL A   1      34.359  33.885  29.385  1.00  0.00     0.039 A 
ATOM     25  C   UNL A   1      35.633  34.274  28.965  1.00  0.00     0.014 A 
ATOM     26  C   UNL A   1      34.209  32.876  30.340  1.00  0.00     0.014 A 
ATOM     27  C   UNL A   1      36.759  33.683  29.539  1.00  0.00     0.010 A 
ATOM     28  C   UNL A   1      35.332  32.344  30.966  1.00  0.00     0.010 A 
ATOM     29  C   UNL A   1      36.618  32.729  30.559  1.00  0.00    -0.014 A 
BRANCH  29  30
ATOM     30  C   UNL A   1      37.804  32.081  31.176  1.00  0.00     0.031 A 
ATOM     31  C   UNL A   1      38.588  31.067  30.387  1.00  0.00     0.074 A 
ATOM     32  C   UNL A   1      38.142  32.367  32.448  1.00  0.00     0.049 A 
ATOM     33  N   UNL A   1      39.609  30.337  30.757  1.00  0.00    -0.248 NA
ATOM     34  C   UNL A   1      38.139  30.816  29.009  1.00  0.00     0.031 C 
ATOM     35  C   UNL A   1      37.432  33.302  33.323  1.00  0.00     0.029 A 
ATOM     36  N   UNL A   1      39.166  31.896  33.230  1.00  0.00    -0.354 N 
ATOM     37  C   UNL A   1      39.912  29.529  29.665  1.00  0.00     0.074 A 
ATOM     38  C   UNL A   1      38.920  29.810  28.650  1.00  0.00     0.031 C 
ATOM     39  C   UNL A   1      38.058  33.355  34.510  1.00  0.00     0.029 A 
ATOM     40  C   UNL A   1      39.188  32.431  34.497  1.00  0.00     0.049 A 
ATOM     41  H   UNL A   1      39.825  31.235  32.914  1.00  0.00     0.167 HD
ATOM     42  C   UNL A   1      40.939  28.656  29.514  1.00  0.00     0.034 A 
ATOM     43  C   UNL A   1      40.023  32.199  35.529  1.00  0.00     0.034 A 
ATOM     44  C   UNL A   1      41.929  28.408  30.531  1.00  0.00     0.049 A 
ATOM     45  C   UNL A   1      41.157  31.223  35.339  1.00  0.00     0.074 A 
ATOM     46  C   UNL A   1      43.037  27.581  30.474  1.00  0.00     0.029 A 
ATOM     47  N   UNL A   1      41.932  28.985  31.795  1.00  0.00    -0.354 N 
ATOM     48  N   UNL A   1      41.458  30.499  34.285  1.00  0.00    -0.248 NA
ATOM     49  C   UNL A   1      42.074  31.047  36.472  1.00  0.00     0.031 C 
ATOM     50  C   UNL A   1      43.673  27.612  31.720  1.00  0.00     0.029 A 
ATOM     51  C   UNL A   1      43.008  28.516  32.532  1.00  0.00     0.049 A 
ATOM     52  H   UNL A   1      41.264  29.632  32.121  1.00  0.00     0.167 HD
ATOM     53  C   UNL A   1      42.624  29.814  34.615  1.00  0.00     0.074 A 
ATOM     54  C   UNL A   1      42.974  30.219  35.962  1.00  0.00     0.031 C 
ATOM     55  C   UNL A   1      43.343  28.933  33.874  1.00  0.00     0.034 A 
BRANCH  42  56
ATOM     56  C   UNL A   1      41.017  27.900  28.208  1.00  0.00     0.023 A 
ATOM     57  C   UNL A   1      40.499  26.599  28.075  1.00  0.00     0.031 A 
ATOM     58  C   UNL A   1      41.656  28.467  27.092  1.00  0.00     0.131 A 
ATOM     59  C   UNL A   1      40.708  25.878  26.890  1.00  0.00     0.055 A 
ATOM     60  C   UNL A   1      41.780  27.777  25.883  1.00  0.00     0.041 A 
ATOM     61  F   UNL A   1      42.190  29.697  27.160  1.00  0.00    -0.206 F 
ATOM     62  C   UNL A   1      41.320  26.467  25.783  1.00  0.00     0.022 A 
BRANCH  59  63
ATOM     63  S   UNL A   1      40.310  24.107  26.874  1.00  0.00     0.124 S 
ATOM     64  O   UNL A   1      41.420  23.565  26.092  1.00  0.00    -0.237 OA
ATOM     65  O   UNL A   1      40.303  23.772  28.292  1.00  0.00    -0.237 OA
ATOM     66  O   UNL A   1      39.008  24.054  26.212  1.00  0.00    -0.744 OA
ENDBRANCH  59  63
ENDBRANCH  42  56
BRANCH  43  67
ATOM     67  C   UNL A   1      39.829  32.899  36.833  1.00  0.00     0.023 A 
ATOM     68  C   UNL A   1      38.916  32.415  37.784  1.00  0.00     0.031 A 
ATOM     69  C   UNL A   1      40.520  34.087  37.128  1.00  0.00     0.131 A 
ATOM     70  C   UNL A   1      38.679  33.143  38.960  1.00  0.00     0.055 A 
ATOM     71  C   UNL A   1      40.322  34.778  38.324  1.00  0.00     0.041 A 
ATOM     72  F   UNL A   1      41.411  34.589  36.257  1.00  0.00    -0.206 F 
ATOM     73  C   UNL A   1      39.385  34.315  39.243  1.00  0.00     0.022 A 
BRANCH  70  74
ATOM     74  S   UNL A   1      37.367  32.581  40.080  1.00  0.00     0.124 S 
ATOM     75  O   UNL A   1      37.274  33.698  41.012  1.00  0.00    -0.237 OA
ATOM     76  O   UNL A   1      36.242  32.412  39.166  1.00  0.00    -0.237 OA
ATOM     77  O   UNL A   1      37.904  31.342  40.639  1.00  0.00    -0.744 OA
ENDBRANCH  70  74
ENDBRANCH  43  67
BRANCH  55  78
ATOM     78  C   UNL A   1      44.617  28.401  34.485  1.00  0.00     0.023 A 
ATOM     79  C   UNL A   1      45.850  29.058  34.325  1.00  0.00     0.031 A 
ATOM     80  C   UNL A   1      44.594  27.207  35.229  1.00  0.00     0.131 A 
ATOM     81  C   UNL A   1      47.018  28.486  34.851  1.00  0.00     0.055 A 
ATOM     82  C   UNL A   1      45.749  26.677  35.803  1.00  0.00     0.041 A 
ATOM     83  F   UNL A   1      43.445  26.538  35.411  1.00  0.00    -0.206 F 
ATOM     84  C   UNL A   1      46.973  27.309  35.603  1.00  0.00     0.022 A 
BRANCH  81  85
ATOM     85  S   UNL A   1      48.614  29.249  34.454  1.00  0.00     0.124 S 
ATOM     86  O   UNL A   1      48.408  30.629  34.879  1.00  0.00    -0.237 OA
ATOM     87  O   UNL A   1      49.543  28.466  35.263  1.00  0.00    -0.237 OA
ATOM     88  O   UNL A   1      48.738  29.056  33.011  1.00  0.00    -0.744 OA
ENDBRANCH  81  85
ENDBRANCH  55  78
ENDBRANCH  29  30
ENDBRANCH  21  24
ENDBRANCH  19  20
ENDBRANCH  18  19
ENDBRANCH  17  18
ENDBRANCH   1  17
TORSDOF 19
ENDMDL
