MODEL 1
REMARK VINA RESULT:     -12.3      0.000      0.000
REMARK SMILES O=C(NCCCCNC(=O)[C@@H]1C=C[C@@H](NC(=O)c2c[nH]c(=O)[nH]2)C1)c1ccc(-c2c3nc(c(-c4cc(S(=O)(=O)[O-])ccc4F)c4ccc([nH]4)c(-c4cc(S(=O)(=O)[O-])ccc4F)c4nc(c(-c5cc(S(=O)(=O)[O-])ccc5F)c5ccc2[nH]5)C=C4)C=C3)cc1
REMARK SMILES IDX 5 1 4 2 3 3 1 4 2 5 25 7 26 8 87 9 27 10 86 11 28 12 29 13
REMARK SMILES IDX 30 14 80 15 31 16 85 17 79 18 81 19 32 20 84 21 78 22 77 23
REMARK SMILES IDX 33 25 65 26 45 27 64 28 46 29 49 30 63 31 82 32 47 33 48 34
REMARK SMILES IDX 62 36 83 37 50 38 34 39 35 40 43 41 36 42 42 43 44 44 41 45
REMARK SMILES IDX 37 46 38 47 39 48 40 49 66 50 67 51 75 52 68 53 74 54 76 55
REMARK SMILES IDX 73 56 69 57 70 58 71 59 72 60 51 61 52 62 60 63 53 64 59 65
REMARK SMILES IDX 61 66 58 67 54 68 55 69 56 70 57 71 6 72 7 73 8 74 9 75
REMARK SMILES IDX 10 77 11 78 12 79 24 80 13 81 14 82 15 83 16 84 17 86 18 87
REMARK SMILES IDX 19 88 23 89 20 90 21 91 22 94
REMARK H PARENT 3 6 81 24 49 35 8 76 15 85 23 92 20 93
REMARK Flexibility Score: inf
ROOT
ATOM      1  C   UNL A   1      38.189  20.155  25.259  1.00  0.00     0.023 C 
ENDROOT
BRANCH   1   2
ATOM      2  C   UNL A   1      39.455  20.454  26.050  1.00  0.00     0.116 C 
BRANCH   2   3
ATOM      3  N   UNL A   1      40.408  19.350  26.053  1.00  0.00    -0.352 N 
ATOM      4  O   UNL A   1      42.456  18.393  25.994  1.00  0.00    -0.269 OA
ATOM      5  C   UNL A   1      41.782  19.407  26.128  1.00  0.00     0.251 C 
ATOM      6  H   UNL A   1      40.019  18.447  25.994  1.00  0.00     0.163 HD
BRANCH   5   7
ATOM      7  C   UNL A   1      42.420  20.720  26.349  1.00  0.00     0.039 A 
ATOM      8  C   UNL A   1      42.642  21.167  27.653  1.00  0.00     0.014 A 
ATOM      9  C   UNL A   1      42.723  21.533  25.255  1.00  0.00     0.014 A 
ATOM     10  C   UNL A   1      43.003  22.489  27.867  1.00  0.00     0.010 A 
ATOM     11  C   UNL A   1      43.191  22.831  25.475  1.00  0.00     0.010 A 
ATOM     12  C   UNL A   1      43.301  23.331  26.783  1.00  0.00    -0.014 A 
BRANCH  12  13
ATOM     13  C   UNL A   1      43.783  24.708  27.055  1.00  0.00     0.031 A 
ATOM     14  C   UNL A   1      42.870  25.761  27.621  1.00  0.00     0.074 A 
ATOM     15  C   UNL A   1      45.078  24.989  26.817  1.00  0.00     0.049 A 
ATOM     16  N   UNL A   1      43.133  27.008  27.916  1.00  0.00    -0.248 NA
ATOM     17  C   UNL A   1      41.478  25.364  27.878  1.00  0.00     0.031 C 
ATOM     18  C   UNL A   1      46.054  24.040  26.273  1.00  0.00     0.029 A 
ATOM     19  N   UNL A   1      45.805  26.132  27.017  1.00  0.00    -0.354 N 
ATOM     20  C   UNL A   1      41.939  27.555  28.375  1.00  0.00     0.074 A 
ATOM     21  C   UNL A   1      40.942  26.507  28.283  1.00  0.00     0.031 C 
ATOM     22  C   UNL A   1      47.260  24.621  26.237  1.00  0.00     0.029 A 
ATOM     23  C   UNL A   1      47.129  26.007  26.668  1.00  0.00     0.049 A 
ATOM     24  H   UNL A   1      45.418  26.963  27.376  1.00  0.00     0.167 HD
ATOM     25  C   UNL A   1      41.704  28.811  28.834  1.00  0.00     0.034 A 
ATOM     26  C   UNL A   1      48.125  26.912  26.662  1.00  0.00     0.034 A 
ATOM     27  C   UNL A   1      42.717  29.839  28.911  1.00  0.00     0.049 A 
ATOM     28  C   UNL A   1      47.824  28.312  27.116  1.00  0.00     0.074 A 
ATOM     29  C   UNL A   1      42.600  31.134  29.386  1.00  0.00     0.029 A 
ATOM     30  N   UNL A   1      44.036  29.696  28.489  1.00  0.00    -0.354 N 
ATOM     31  N   UNL A   1      46.692  28.812  27.558  1.00  0.00    -0.248 NA
ATOM     32  C   UNL A   1      48.934  29.270  27.073  1.00  0.00     0.031 C 
ATOM     33  C   UNL A   1      43.817  31.794  29.178  1.00  0.00     0.029 A 
ATOM     34  C   UNL A   1      44.726  30.888  28.654  1.00  0.00     0.049 A 
ATOM     35  H   UNL A   1      44.422  28.867  28.124  1.00  0.00     0.167 HD
ATOM     36  C   UNL A   1      46.960  30.142  27.862  1.00  0.00     0.074 A 
ATOM     37  C   UNL A   1      48.365  30.356  27.574  1.00  0.00     0.031 C 
ATOM     38  C   UNL A   1      46.122  31.097  28.339  1.00  0.00     0.034 A 
BRANCH  25  39
ATOM     39  C   UNL A   1      40.286  29.152  29.235  1.00  0.00     0.023 A 
ATOM     40  C   UNL A   1      39.871  29.152  30.578  1.00  0.00     0.031 A 
ATOM     41  C   UNL A   1      39.322  29.451  28.254  1.00  0.00     0.131 A 
ATOM     42  C   UNL A   1      38.519  29.358  30.896  1.00  0.00     0.055 A 
ATOM     43  C   UNL A   1      37.996  29.742  28.584  1.00  0.00     0.041 A 
ATOM     44  F   UNL A   1      39.648  29.449  26.952  1.00  0.00    -0.206 F 
ATOM     45  C   UNL A   1      37.583  29.678  29.911  1.00  0.00     0.022 A 
BRANCH  42  46
ATOM     46  S   UNL A   1      37.972  29.034  32.596  1.00  0.00     0.124 S 
ATOM     47  O   UNL A   1      36.592  29.513  32.559  1.00  0.00    -0.237 OA
ATOM     48  O   UNL A   1      38.142  27.590  32.711  1.00  0.00    -0.237 OA
ATOM     49  O   UNL A   1      38.881  29.838  33.409  1.00  0.00    -0.744 OA
ENDBRANCH  42  46
ENDBRANCH  25  39
BRANCH  26  50
ATOM     50  C   UNL A   1      49.478  26.525  26.177  1.00  0.00     0.023 A 
ATOM     51  C   UNL A   1      49.961  26.978  24.941  1.00  0.00     0.031 A 
ATOM     52  C   UNL A   1      50.310  25.691  26.947  1.00  0.00     0.131 A 
ATOM     53  C   UNL A   1      51.228  26.572  24.497  1.00  0.00     0.055 A 
ATOM     54  C   UNL A   1      51.591  25.336  26.527  1.00  0.00     0.041 A 
ATOM     55  F   UNL A   1      49.897  25.236  28.141  1.00  0.00    -0.206 F 
ATOM     56  C   UNL A   1      52.052  25.768  25.288  1.00  0.00     0.022 A 
BRANCH  53  57
ATOM     57  S   UNL A   1      51.759  27.057  22.833  1.00  0.00     0.124 S 
ATOM     58  O   UNL A   1      50.518  26.932  22.077  1.00  0.00    -0.237 OA
ATOM     59  O   UNL A   1      52.243  28.416  23.053  1.00  0.00    -0.237 OA
ATOM     60  O   UNL A   1      52.791  26.076  22.507  1.00  0.00    -0.744 OA
ENDBRANCH  53  57
ENDBRANCH  26  50
BRANCH  38  61
ATOM     61  C   UNL A   1      46.726  32.454  28.610  1.00  0.00     0.023 A 
ATOM     62  C   UNL A   1      46.695  33.482  27.652  1.00  0.00     0.031 A 
ATOM     63  C   UNL A   1      47.369  32.709  29.834  1.00  0.00     0.131 A 
ATOM     64  C   UNL A   1      47.349  34.697  27.910  1.00  0.00     0.055 A 
ATOM     65  C   UNL A   1      47.960  33.942  30.110  1.00  0.00     0.041 A 
ATOM     66  F   UNL A   1      47.436  31.760  30.783  1.00  0.00    -0.206 F 
ATOM     67  C   UNL A   1      47.965  34.940  29.140  1.00  0.00     0.022 A 
BRANCH  64  68
ATOM     68  S   UNL A   1      47.475  35.918  26.574  1.00  0.00     0.124 S 
ATOM     69  O   UNL A   1      47.852  35.084  25.437  1.00  0.00    -0.237 OA
ATOM     70  O   UNL A   1      46.128  36.478  26.535  1.00  0.00    -0.237 OA
ATOM     71  O   UNL A   1      48.513  36.833  27.043  1.00  0.00    -0.744 OA
ENDBRANCH  64  68
ENDBRANCH  38  61
ENDBRANCH  12  13
ENDBRANCH   5   7
ENDBRANCH   2   3
ENDBRANCH   1   2
BRANCH   1  72
ATOM     72  C   UNL A   1      37.483  21.384  24.697  1.00  0.00     0.023 C 
BRANCH  72  73
ATOM     73  C   UNL A   1      37.519  22.601  25.615  1.00  0.00     0.116 C 
BRANCH  73  74
ATOM     74  N   UNL A   1      36.347  22.686  26.461  1.00  0.00    -0.356 N 
ATOM     75  C   UNL A   1      35.022  22.514  26.210  1.00  0.00     0.227 C 
ATOM     76  H   UNL A   1      36.548  22.913  27.397  1.00  0.00     0.163 HD
ATOM     77  O   UNL A   1      34.268  22.536  27.190  1.00  0.00    -0.274 OA
BRANCH  75  78
ATOM     78  C   UNL A   1      34.412  22.394  24.804  1.00  0.00     0.103 C 
ATOM     79  C   UNL A   1      33.018  22.896  24.577  1.00  0.00    -0.016 C 
ATOM     80  C   UNL A   1      34.332  20.938  24.320  1.00  0.00     0.047 C 
ATOM     81  C   UNL A   1      32.170  21.891  24.317  1.00  0.00    -0.006 C 
ATOM     82  C   UNL A   1      32.852  20.564  24.424  1.00  0.00     0.106 C 
BRANCH  82  83
ATOM     83  N   UNL A   1      32.380  19.714  23.365  1.00  0.00    -0.344 N 
ATOM     84  C   UNL A   1      32.483  18.367  23.210  1.00  0.00     0.269 C 
ATOM     85  H   UNL A   1      31.909  20.181  22.637  1.00  0.00     0.164 HD
ATOM     86  O   UNL A   1      32.136  17.862  22.141  1.00  0.00    -0.268 OA
BRANCH  84  87
ATOM     87  C   UNL A   1      33.067  17.504  24.270  1.00  0.00     0.124 A 
ATOM     88  C   UNL A   1      32.657  17.205  25.514  1.00  0.00     0.119 A 
ATOM     89  N   UNL A   1      34.190  16.750  24.004  1.00  0.00    -0.302 N 
ATOM     90  N   UNL A   1      33.537  16.306  26.066  1.00  0.00    -0.312 N 
ATOM     91  C   UNL A   1      34.522  15.985  25.122  1.00  0.00     0.323 A 
ATOM     92  H   UNL A   1      34.684  16.752  23.152  1.00  0.00     0.172 HD
ATOM     93  H   UNL A   1      33.484  15.944  26.980  1.00  0.00     0.171 HD
ATOM     94  O   UNL A   1      35.445  15.206  25.243  1.00  0.00    -0.248 OA
ENDBRANCH  84  87
ENDBRANCH  82  83
ENDBRANCH  75  78
ENDBRANCH  73  74
ENDBRANCH  72  73
ENDBRANCH   1  72
TORSDOF 16
ENDMDL
MODEL 2
REMARK VINA RESULT:     -12.1      5.729      8.944
REMARK SMILES O=C(NCCCCNC(=O)[C@@H]1C=C[C@@H](NC(=O)c2c[nH]c(=O)[nH]2)C1)c1ccc(-c2c3nc(c(-c4cc(S(=O)(=O)[O-])ccc4F)c4ccc([nH]4)c(-c4cc(S(=O)(=O)[O-])ccc4F)c4nc(c(-c5cc(S(=O)(=O)[O-])ccc5F)c5ccc2[nH]5)C=C4)C=C3)cc1
REMARK SMILES IDX 5 1 4 2 3 3 1 4 2 5 25 7 26 8 87 9 27 10 86 11 28 12 29 13
REMARK SMILES IDX 30 14 80 15 31 16 85 17 79 18 81 19 32 20 84 21 78 22 77 23
REMARK SMILES IDX 33 25 65 26 45 27 64 28 46 29 49 30 63 31 82 32 47 33 48 34
REMARK SMILES IDX 62 36 83 37 50 38 34 39 35 40 43 41 36 42 42 43 44 44 41 45
REMARK SMILES IDX 37 46 38 47 39 48 40 49 66 50 67 51 75 52 68 53 74 54 76 55
REMARK SMILES IDX 73 56 69 57 70 58 71 59 72 60 51 61 52 62 60 63 53 64 59 65
REMARK SMILES IDX 61 66 58 67 54 68 55 69 56 70 57 71 6 72 7 73 8 74 9 75
REMARK SMILES IDX 10 77 11 78 12 79 24 80 13 81 14 82 15 83 16 84 17 86 18 87
REMARK SMILES IDX 19 88 23 89 20 90 21 91 22 94
REMARK H PARENT 3 6 81 24 49 35 8 76 15 85 23 92 20 93
REMARK Flexibility Score: inf
ROOT
ATOM      1  C   UNL A   1      31.840  28.555  25.682  1.00  0.00     0.023 C 
ENDROOT
BRANCH   1   2
ATOM      2  C   UNL A   1      33.024  29.469  25.966  1.00  0.00     0.116 C 
BRANCH   2   3
ATOM      3  N   UNL A   1      32.634  30.836  26.290  1.00  0.00    -0.352 N 
ATOM      4  O   UNL A   1      32.732  32.799  27.408  1.00  0.00    -0.269 OA
ATOM      5  C   UNL A   1      33.253  31.722  27.143  1.00  0.00     0.251 C 
ATOM      6  H   UNL A   1      31.823  31.169  25.841  1.00  0.00     0.163 HD
BRANCH   5   7
ATOM      7  C   UNL A   1      34.542  31.332  27.748  1.00  0.00     0.039 A 
ATOM      8  C   UNL A   1      34.707  30.037  28.243  1.00  0.00     0.014 A 
ATOM      9  C   UNL A   1      35.554  32.283  27.888  1.00  0.00     0.014 A 
ATOM     10  C   UNL A   1      35.811  29.744  29.029  1.00  0.00     0.010 A 
ATOM     11  C   UNL A   1      36.715  31.949  28.590  1.00  0.00     0.010 A 
ATOM     12  C   UNL A   1      36.837  30.689  29.197  1.00  0.00    -0.014 A 
BRANCH  12  13
ATOM     13  C   UNL A   1      38.049  30.303  29.961  1.00  0.00     0.031 A 
ATOM     14  C   UNL A   1      38.290  30.808  31.357  1.00  0.00     0.074 A 
ATOM     15  C   UNL A   1      38.921  29.452  29.386  1.00  0.00     0.049 A 
ATOM     16  N   UNL A   1      39.296  30.565  32.159  1.00  0.00    -0.248 NA
ATOM     17  C   UNL A   1      37.276  31.709  31.921  1.00  0.00     0.031 C 
ATOM     18  C   UNL A   1      38.782  28.896  28.037  1.00  0.00     0.029 A 
ATOM     19  N   UNL A   1      40.077  28.889  29.857  1.00  0.00    -0.354 N 
ATOM     20  C   UNL A   1      39.051  31.298  33.315  1.00  0.00     0.074 A 
ATOM     21  C   UNL A   1      37.814  32.022  33.091  1.00  0.00     0.031 C 
ATOM     22  C   UNL A   1      39.779  28.030  27.812  1.00  0.00     0.029 A 
ATOM     23  C   UNL A   1      40.675  28.035  28.961  1.00  0.00     0.049 A 
ATOM     24  H   UNL A   1      40.443  29.076  30.752  1.00  0.00     0.167 HD
ATOM     25  C   UNL A   1      39.786  31.354  34.455  1.00  0.00     0.034 A 
ATOM     26  C   UNL A   1      41.834  27.355  29.036  1.00  0.00     0.034 A 
ATOM     27  C   UNL A   1      41.018  30.624  34.650  1.00  0.00     0.049 A 
ATOM     28  C   UNL A   1      42.661  27.482  30.284  1.00  0.00     0.074 A 
ATOM     29  C   UNL A   1      41.830  30.581  35.771  1.00  0.00     0.029 A 
ATOM     30  N   UNL A   1      41.629  29.817  33.695  1.00  0.00    -0.354 N 
ATOM     31  N   UNL A   1      42.410  28.171  31.374  1.00  0.00    -0.248 NA
ATOM     32  C   UNL A   1      43.925  26.739  30.312  1.00  0.00     0.031 C 
ATOM     33  C   UNL A   1      42.964  29.818  35.468  1.00  0.00     0.029 A 
ATOM     34  C   UNL A   1      42.824  29.309  34.187  1.00  0.00     0.049 A 
ATOM     35  H   UNL A   1      41.267  29.635  32.798  1.00  0.00     0.167 HD
ATOM     36  C   UNL A   1      43.481  27.930  32.227  1.00  0.00     0.074 A 
ATOM     37  C   UNL A   1      44.365  27.015  31.531  1.00  0.00     0.031 C 
ATOM     38  C   UNL A   1      43.710  28.417  33.473  1.00  0.00     0.034 A 
BRANCH  25  39
ATOM     39  C   UNL A   1      39.302  32.275  35.553  1.00  0.00     0.023 A 
ATOM     40  C   UNL A   1      39.696  33.623  35.621  1.00  0.00     0.031 A 
ATOM     41  C   UNL A   1      38.457  31.791  36.568  1.00  0.00     0.131 A 
ATOM     42  C   UNL A   1      39.319  34.411  36.720  1.00  0.00     0.055 A 
ATOM     43  C   UNL A   1      38.013  32.605  37.613  1.00  0.00     0.041 A 
ATOM     44  F   UNL A   1      38.060  30.508  36.573  1.00  0.00    -0.206 F 
ATOM     45  C   UNL A   1      38.460  33.919  37.703  1.00  0.00     0.022 A 
BRANCH  42  46
ATOM     46  S   UNL A   1      40.106  36.033  36.931  1.00  0.00     0.124 S 
ATOM     47  O   UNL A   1      39.790  36.683  35.661  1.00  0.00    -0.237 OA
ATOM     48  O   UNL A   1      39.422  36.563  38.105  1.00  0.00    -0.237 OA
ATOM     49  O   UNL A   1      41.517  35.708  37.122  1.00  0.00    -0.744 OA
ENDBRANCH  42  46
ENDBRANCH  25  39
BRANCH  26  50
ATOM     50  C   UNL A   1      42.287  26.530  27.883  1.00  0.00     0.023 A 
ATOM     51  C   UNL A   1      42.104  25.140  27.871  1.00  0.00     0.031 A 
ATOM     52  C   UNL A   1      42.914  27.125  26.772  1.00  0.00     0.131 A 
ATOM     53  C   UNL A   1      42.569  24.386  26.784  1.00  0.00     0.055 A 
ATOM     54  C   UNL A   1      43.323  26.378  25.668  1.00  0.00     0.041 A 
ATOM     55  F   UNL A   1      43.106  28.453  26.732  1.00  0.00    -0.206 F 
ATOM     56  C   UNL A   1      43.162  24.997  25.676  1.00  0.00     0.022 A 
BRANCH  53  57
ATOM     57  S   UNL A   1      42.447  22.578  26.868  1.00  0.00     0.124 S 
ATOM     58  O   UNL A   1      42.115  22.369  28.272  1.00  0.00    -0.237 OA
ATOM     59  O   UNL A   1      41.382  22.302  25.908  1.00  0.00    -0.237 OA
ATOM     60  O   UNL A   1      43.777  22.130  26.465  1.00  0.00    -0.744 OA
ENDBRANCH  53  57
ENDBRANCH  26  50
BRANCH  38  61
ATOM     61  C   UNL A   1      44.958  27.933  34.171  1.00  0.00     0.023 A 
ATOM     62  C   UNL A   1      44.955  26.781  34.978  1.00  0.00     0.031 A 
ATOM     63  C   UNL A   1      46.160  28.653  34.050  1.00  0.00     0.131 A 
ATOM     64  C   UNL A   1      46.113  26.419  35.682  1.00  0.00     0.055 A 
ATOM     65  C   UNL A   1      47.326  28.250  34.701  1.00  0.00     0.041 A 
ATOM     66  F   UNL A   1      46.219  29.764  33.299  1.00  0.00    -0.206 F 
ATOM     67  C   UNL A   1      47.304  27.135  35.534  1.00  0.00     0.022 A 
BRANCH  64  68
ATOM     68  S   UNL A   1      46.015  25.059  36.879  1.00  0.00     0.124 S 
ATOM     69  O   UNL A   1      44.580  24.988  37.138  1.00  0.00    -0.237 OA
ATOM     70  O   UNL A   1      46.583  23.943  36.131  1.00  0.00    -0.237 OA
ATOM     71  O   UNL A   1      46.824  25.530  38.000  1.00  0.00    -0.744 OA
ENDBRANCH  64  68
ENDBRANCH  38  61
ENDBRANCH  12  13
ENDBRANCH   5   7
ENDBRANCH   2   3
ENDBRANCH   1   2
BRANCH   1  72
ATOM     72  C   UNL A   1      31.714  27.362  26.622  1.00  0.00     0.023 C 
BRANCH  72  73
ATOM     73  C   UNL A   1      30.890  26.207  26.061  1.00  0.00     0.116 C 
BRANCH  73  74
ATOM     74  N   UNL A   1      30.975  25.020  26.885  1.00  0.00    -0.356 N 
ATOM     75  C   UNL A   1      31.392  23.753  26.623  1.00  0.00     0.227 C 
ATOM     76  H   UNL A   1      30.674  25.155  27.811  1.00  0.00     0.163 HD
ATOM     77  O   UNL A   1      31.459  22.984  27.589  1.00  0.00    -0.274 OA
BRANCH  75  78
ATOM     78  C   UNL A   1      31.683  23.206  25.216  1.00  0.00     0.103 C 
ATOM     79  C   UNL A   1      31.951  21.740  25.052  1.00  0.00    -0.016 C 
ATOM     80  C   UNL A   1      32.924  23.851  24.580  1.00  0.00     0.047 C 
ATOM     81  C   UNL A   1      33.221  21.509  24.691  1.00  0.00    -0.006 C 
ATOM     82  C   UNL A   1      34.013  22.778  24.652  1.00  0.00     0.106 C 
BRANCH  82  83
ATOM     83  N   UNL A   1      34.887  22.743  23.511  1.00  0.00    -0.344 N 
ATOM     84  C   UNL A   1      36.244  22.784  23.446  1.00  0.00     0.269 C 
ATOM     85  H   UNL A   1      34.431  22.681  22.641  1.00  0.00     0.164 HD
ATOM     86  O   UNL A   1      36.784  22.895  22.343  1.00  0.00    -0.268 OA
BRANCH  84  87
ATOM     87  C   UNL A   1      37.084  22.768  24.671  1.00  0.00     0.124 A 
ATOM     88  C   UNL A   1      37.682  21.767  25.339  1.00  0.00     0.119 A 
ATOM     89  N   UNL A   1      37.458  23.953  25.267  1.00  0.00    -0.302 N 
ATOM     90  N   UNL A   1      38.394  22.297  26.388  1.00  0.00    -0.312 N 
ATOM     91  C   UNL A   1      38.282  23.694  26.362  1.00  0.00     0.323 A 
ATOM     92  H   UNL A   1      37.185  24.849  24.963  1.00  0.00     0.172 HD
ATOM     93  H   UNL A   1      38.903  21.779  27.052  1.00  0.00     0.171 HD
ATOM     94  O   UNL A   1      38.797  24.496  27.113  1.00  0.00    -0.248 OA
ENDBRANCH  84  87
ENDBRANCH  82  83
ENDBRANCH  75  78
ENDBRANCH  73  74
ENDBRANCH  72  73
ENDBRANCH   1  72
TORSDOF 16
ENDMDL
MODEL 3
REMARK VINA RESULT:     -12.0      7.394     12.518
REMARK SMILES O=C(NCCCCNC(=O)[C@@H]1C=C[C@@H](NC(=O)c2c[nH]c(=O)[nH]2)C1)c1ccc(-c2c3nc(c(-c4cc(S(=O)(=O)[O-])ccc4F)c4ccc([nH]4)c(-c4cc(S(=O)(=O)[O-])ccc4F)c4nc(c(-c5cc(S(=O)(=O)[O-])ccc5F)c5ccc2[nH]5)C=C4)C=C3)cc1
REMARK SMILES IDX 5 1 4 2 3 3 1 4 2 5 25 7 26 8 87 9 27 10 86 11 28 12 29 13
REMARK SMILES IDX 30 14 80 15 31 16 85 17 79 18 81 19 32 20 84 21 78 22 77 23
REMARK SMILES IDX 33 25 65 26 45 27 64 28 46 29 49 30 63 31 82 32 47 33 48 34
REMARK SMILES IDX 62 36 83 37 50 38 34 39 35 40 43 41 36 42 42 43 44 44 41 45
REMARK SMILES IDX 37 46 38 47 39 48 40 49 66 50 67 51 75 52 68 53 74 54 76 55
REMARK SMILES IDX 73 56 69 57 70 58 71 59 72 60 51 61 52 62 60 63 53 64 59 65
REMARK SMILES IDX 61 66 58 67 54 68 55 69 56 70 57 71 6 72 7 73 8 74 9 75
REMARK SMILES IDX 10 77 11 78 12 79 24 80 13 81 14 82 15 83 16 84 17 86 18 87
REMARK SMILES IDX 19 88 23 89 20 90 21 91 22 94
REMARK H PARENT 3 6 81 24 49 35 8 76 15 85 23 92 20 93
REMARK Flexibility Score: inf
ROOT
ATOM      1  C   UNL A   1      31.594  31.977  27.004  1.00  0.00     0.023 C 
ENDROOT
BRANCH   1   2
ATOM      2  C   UNL A   1      32.845  32.816  27.228  1.00  0.00     0.116 C 
BRANCH   2   3
ATOM      3  N   UNL A   1      32.557  34.192  27.613  1.00  0.00    -0.352 N 
ATOM      4  O   UNL A   1      32.681  36.040  28.910  1.00  0.00    -0.269 OA
ATOM      5  C   UNL A   1      33.119  34.930  28.630  1.00  0.00     0.251 C 
ATOM      6  H   UNL A   1      31.872  34.654  27.076  1.00  0.00     0.163 HD
BRANCH   5   7
ATOM      7  C   UNL A   1      34.241  34.343  29.389  1.00  0.00     0.039 A 
ATOM      8  C   UNL A   1      35.553  34.627  29.007  1.00  0.00     0.014 A 
ATOM      9  C   UNL A   1      33.978  33.450  30.429  1.00  0.00     0.014 A 
ATOM     10  C   UNL A   1      36.595  33.888  29.548  1.00  0.00     0.010 A 
ATOM     11  C   UNL A   1      35.041  32.786  31.047  1.00  0.00     0.010 A 
ATOM     12  C   UNL A   1      36.355  32.973  30.586  1.00  0.00    -0.014 A 
BRANCH  12  13
ATOM     13  C   UNL A   1      37.508  32.276  31.209  1.00  0.00     0.031 A 
ATOM     14  C   UNL A   1      38.329  31.278  30.441  1.00  0.00     0.074 A 
ATOM     15  C   UNL A   1      37.830  32.587  32.480  1.00  0.00     0.049 A 
ATOM     16  N   UNL A   1      39.365  30.584  30.837  1.00  0.00    -0.248 NA
ATOM     17  C   UNL A   1      37.927  31.016  29.052  1.00  0.00     0.031 C 
ATOM     18  C   UNL A   1      37.104  33.547  33.316  1.00  0.00     0.029 A 
ATOM     19  N   UNL A   1      38.852  32.156  33.283  1.00  0.00    -0.354 N 
ATOM     20  C   UNL A   1      39.731  29.788  29.757  1.00  0.00     0.074 A 
ATOM     21  C   UNL A   1      38.777  30.062  28.700  1.00  0.00     0.031 C 
ATOM     22  C   UNL A   1      37.735  33.673  34.491  1.00  0.00     0.029 A 
ATOM     23  C   UNL A   1      38.854  32.742  34.527  1.00  0.00     0.049 A 
ATOM     24  H   UNL A   1      39.520  31.491  32.998  1.00  0.00     0.167 HD
ATOM     25  C   UNL A   1      40.768  28.917  29.659  1.00  0.00     0.034 A 
ATOM     26  C   UNL A   1      39.648  32.532  35.593  1.00  0.00     0.034 A 
ATOM     27  C   UNL A   1      41.702  28.659  30.731  1.00  0.00     0.049 A 
ATOM     28  C   UNL A   1      40.750  31.518  35.480  1.00  0.00     0.074 A 
ATOM     29  C   UNL A   1      42.805  27.821  30.734  1.00  0.00     0.029 A 
ATOM     30  N   UNL A   1      41.637  29.224  32.001  1.00  0.00    -0.354 N 
ATOM     31  N   UNL A   1      41.090  30.780  34.448  1.00  0.00    -0.248 NA
ATOM     32  C   UNL A   1      41.576  31.308  36.674  1.00  0.00     0.031 C 
ATOM     33  C   UNL A   1      43.355  27.820  32.021  1.00  0.00     0.029 A 
ATOM     34  C   UNL A   1      42.653  28.722  32.803  1.00  0.00     0.049 A 
ATOM     35  H   UNL A   1      40.965  29.884  32.289  1.00  0.00     0.167 HD
ATOM     36  C   UNL A   1      42.184  30.030  34.864  1.00  0.00     0.074 A 
ATOM     37  C   UNL A   1      42.457  30.423  36.233  1.00  0.00     0.031 C 
ATOM     38  C   UNL A   1      42.899  29.103  34.176  1.00  0.00     0.034 A 
BRANCH  25  39
ATOM     39  C   UNL A   1      40.908  28.143  28.366  1.00  0.00     0.023 A 
ATOM     40  C   UNL A   1      40.399  26.841  28.218  1.00  0.00     0.031 A 
ATOM     41  C   UNL A   1      41.591  28.705  27.271  1.00  0.00     0.131 A 
ATOM     42  C   UNL A   1      40.654  26.116  27.044  1.00  0.00     0.055 A 
ATOM     43  C   UNL A   1      41.765  28.010  26.072  1.00  0.00     0.041 A 
ATOM     44  F   UNL A   1      42.119  29.937  27.353  1.00  0.00    -0.206 F 
ATOM     45  C   UNL A   1      41.312  26.699  25.960  1.00  0.00     0.022 A 
BRANCH  42  46
ATOM     46  S   UNL A   1      40.263  24.344  27.020  1.00  0.00     0.124 S 
ATOM     47  O   UNL A   1      38.852  24.357  26.638  1.00  0.00    -0.237 OA
ATOM     48  O   UNL A   1      41.190  23.830  26.018  1.00  0.00    -0.237 OA
ATOM     49  O   UNL A   1      40.524  23.915  28.392  1.00  0.00    -0.744 OA
ENDBRANCH  42  46
ENDBRANCH  25  39
BRANCH  26  50
ATOM     50  C   UNL A   1      39.399  33.272  36.861  1.00  0.00     0.023 A 
ATOM     51  C   UNL A   1      40.038  34.494  37.123  1.00  0.00     0.031 A 
ATOM     52  C   UNL A   1      38.516  32.765  37.832  1.00  0.00     0.131 A 
ATOM     53  C   UNL A   1      39.806  35.152  38.339  1.00  0.00     0.055 A 
ATOM     54  C   UNL A   1      38.247  33.452  39.015  1.00  0.00     0.041 A 
ATOM     55  F   UNL A   1      37.875  31.604  37.625  1.00  0.00    -0.206 F 
ATOM     56  C   UNL A   1      38.903  34.649  39.279  1.00  0.00     0.022 A 
BRANCH  53  57
ATOM     57  S   UNL A   1      40.758  36.652  38.707  1.00  0.00     0.124 S 
ATOM     58  O   UNL A   1      39.698  37.620  38.964  1.00  0.00    -0.237 OA
ATOM     59  O   UNL A   1      41.543  36.236  39.865  1.00  0.00    -0.237 OA
ATOM     60  O   UNL A   1      41.526  36.873  37.485  1.00  0.00    -0.744 OA
ENDBRANCH  53  57
ENDBRANCH  26  50
BRANCH  38  61
ATOM     61  C   UNL A   1      44.071  28.480  34.897  1.00  0.00     0.023 A 
ATOM     62  C   UNL A   1      43.903  27.418  35.802  1.00  0.00     0.031 A 
ATOM     63  C   UNL A   1      45.370  28.980  34.696  1.00  0.00     0.131 A 
ATOM     64  C   UNL A   1      45.006  26.931  36.519  1.00  0.00     0.055 A 
ATOM     65  C   UNL A   1      46.472  28.447  35.363  1.00  0.00     0.041 A 
ATOM     66  F   UNL A   1      45.587  29.999  33.849  1.00  0.00    -0.206 F 
ATOM     67  C   UNL A   1      46.293  27.425  36.292  1.00  0.00     0.022 A 
BRANCH  64  68
ATOM     68  S   UNL A   1      44.721  25.711  37.832  1.00  0.00     0.124 S 
ATOM     69  O   UNL A   1      44.075  24.625  37.101  1.00  0.00    -0.237 OA
ATOM     70  O   UNL A   1      46.073  25.443  38.309  1.00  0.00    -0.237 OA
ATOM     71  O   UNL A   1      43.860  26.420  38.776  1.00  0.00    -0.744 OA
ENDBRANCH  64  68
ENDBRANCH  38  61
ENDBRANCH  12  13
ENDBRANCH   5   7
ENDBRANCH   2   3
ENDBRANCH   1   2
BRANCH   1  72
ATOM     72  C   UNL A   1      31.789  30.768  26.096  1.00  0.00     0.023 C 
BRANCH  72  73
ATOM     73  C   UNL A   1      33.080  29.997  26.351  1.00  0.00     0.116 C 
BRANCH  73  74
ATOM     74  N   UNL A   1      33.728  29.589  25.122  1.00  0.00    -0.356 N 
ATOM     75  C   UNL A   1      33.360  28.730  24.135  1.00  0.00     0.227 C 
ATOM     76  H   UNL A   1      34.603  30.013  24.973  1.00  0.00     0.163 HD
ATOM     77  O   UNL A   1      34.091  28.690  23.138  1.00  0.00    -0.274 OA
BRANCH  75  78
ATOM     78  C   UNL A   1      32.171  27.760  24.225  1.00  0.00     0.103 C 
ATOM     79  C   UNL A   1      31.898  26.843  23.072  1.00  0.00    -0.016 C 
ATOM     80  C   UNL A   1      30.830  28.489  24.403  1.00  0.00     0.047 C 
ATOM     81  C   UNL A   1      30.751  27.156  22.453  1.00  0.00    -0.006 C 
ATOM     82  C   UNL A   1      30.136  28.386  23.044  1.00  0.00     0.106 C 
BRANCH  82  83
ATOM     83  N   UNL A   1      28.712  28.201  23.118  1.00  0.00    -0.344 N 
ATOM     84  C   UNL A   1      27.700  29.072  22.859  1.00  0.00     0.269 C 
ATOM     85  H   UNL A   1      28.424  27.303  23.401  1.00  0.00     0.164 HD
ATOM     86  O   UNL A   1      26.546  28.743  23.136  1.00  0.00    -0.268 OA
BRANCH  84  87
ATOM     87  C   UNL A   1      27.962  30.430  22.317  1.00  0.00     0.124 A 
ATOM     88  C   UNL A   1      28.032  30.899  21.060  1.00  0.00     0.119 A 
ATOM     89  N   UNL A   1      28.080  31.504  23.174  1.00  0.00    -0.302 N 
ATOM     90  N   UNL A   1      28.246  32.256  21.105  1.00  0.00    -0.312 N 
ATOM     91  C   UNL A   1      28.269  32.676  22.441  1.00  0.00     0.323 A 
ATOM     92  H   UNL A   1      28.036  31.451  24.156  1.00  0.00     0.172 HD
ATOM     93  H   UNL A   1      28.364  32.841  20.322  1.00  0.00     0.171 HD
ATOM     94  O   UNL A   1      28.405  33.804  22.866  1.00  0.00    -0.248 OA
ENDBRANCH  84  87
ENDBRANCH  82  83
ENDBRANCH  75  78
ENDBRANCH  73  74
ENDBRANCH  72  73
ENDBRANCH   1  72
TORSDOF 16
ENDMDL
