MODEL 1
REMARK VINA RESULT:     -13.1      0.000      0.000
REMARK SMILES Cc1c(Cl)cccc1NC(=O)C[C@H](C(=O)NCCCCNC(=O)c1ccc(-c2c3nc(c(-c4cc(S(=O)(=O)[O-])ccc4F)c4ccc([nH]4)c(-c4cc(S(=O)(=O)[O-])ccc4F)c4nc(c(-c5cc(S(=O)(=O)[O-])ccc5F)c5ccc2[nH]5)C=C4)C=C3)cc1)[C@H](C)c1ccccc1
REMARK SMILES IDX 18 1 17 2 16 3 14 4 15 5 13 7 12 8 10 9 9 10 11 12 8 13 1 14
REMARK SMILES IDX 2 15 3 16 4 17 5 18 7 19 6 20 87 21 88 22 89 23 90 24 94 25
REMARK SMILES IDX 91 26 93 27 92 28 19 29 20 30 21 31 22 32 23 34 24 35 25 36
REMARK SMILES IDX 86 37 26 38 85 39 27 40 28 41 29 42 79 43 30 44 84 45 78 46
REMARK SMILES IDX 80 47 31 48 83 49 77 50 76 51 32 53 64 54 44 55 63 56 45 57
REMARK SMILES IDX 48 58 62 59 81 60 46 61 47 62 61 64 82 65 49 66 33 67 34 68
REMARK SMILES IDX 42 69 35 70 41 71 43 72 40 73 36 74 37 75 38 76 39 77 65 78
REMARK SMILES IDX 66 79 74 80 67 81 73 82 75 83 72 84 68 85 69 86 70 87 71 88
REMARK SMILES IDX 50 89 51 90 59 91 52 92 58 93 60 94 57 95 53 96 54 97 55 98
REMARK SMILES IDX 56 99
REMARK H PARENT 16 6 9 11 21 33 80 52 48 63
REMARK Flexibility Score: inf
ROOT
ATOM      1  C   UNL A   1      31.394  30.712  26.255  1.00  0.00     0.023 C 
ENDROOT
BRANCH   1   2
ATOM      2  C   UNL A   1      32.158  28.926  27.253  1.00  0.00     0.116 C 
BRANCH   2   3
ATOM      3  N   UNL A   1      31.585  27.422  27.355  1.00  0.00    -0.356 N 
ATOM      4  C   UNL A   1      31.216  26.498  26.429  1.00  0.00     0.224 C 
ATOM      5  O   UNL A   1      30.724  25.443  26.837  1.00  0.00    -0.275 OA
ATOM      6  H   UNL A   1      31.480  27.107  28.281  1.00  0.00     0.163 HD
BRANCH   4   7
ATOM      7  C   UNL A   1      31.361  26.769  24.937  1.00  0.00     0.095 C 
BRANCH   7   8
ATOM      8  C   UNL A   1      32.805  26.357  24.550  1.00  0.00     0.114 C 
BRANCH   8   9
ATOM      9  C   UNL A   1      33.241  26.064  23.131  1.00  0.00     0.225 C 
ATOM     10  N   UNL A   1      34.132  25.075  22.825  1.00  0.00    -0.326 N 
ATOM     11  H   UNL A   1      34.581  25.132  21.951  1.00  0.00     0.169 HD
ATOM     12  O   UNL A   1      32.771  26.718  22.194  1.00  0.00    -0.275 OA
BRANCH  10  13
ATOM     13  C   UNL A   1      34.465  23.991  23.637  1.00  0.00     0.045 A 
ATOM     14  C   UNL A   1      32.547  22.341  22.269  1.00  0.00     0.048 C 
ATOM     15  C   UNL A   1      33.424  22.525  23.473  1.00  0.00    -0.009 A 
ATOM     16  C   UNL A   1      33.517  21.214  24.699  1.00  0.00     0.046 A 
ATOM     17  Cl  UNL A   1      32.483  19.847  24.583  1.00  0.00    -0.084 Cl
ATOM     18  C   UNL A   1      34.686  21.329  26.064  1.00  0.00     0.021 A 
ATOM     19  C   UNL A   1      35.677  24.098  24.969  1.00  0.00     0.026 A 
ATOM     20  C   UNL A   1      35.789  22.758  26.196  1.00  0.00     0.004 A 
ENDBRANCH  10  13
ENDBRANCH   8   9
ENDBRANCH   7   8
BRANCH   7  21
ATOM     21  C   UNL A   1      30.037  26.367  24.211  1.00  0.00     0.029 C 
ATOM     22  C   UNL A   1      30.023  25.072  23.400  1.00  0.00     0.013 C 
BRANCH  21  23
ATOM     23  C   UNL A   1      29.331  27.507  23.466  1.00  0.00    -0.044 A 
ATOM     24  C   UNL A   1      30.097  28.580  22.971  1.00  0.00     0.004 A 
ATOM     25  C   UNL A   1      27.934  27.623  23.442  1.00  0.00     0.004 A 
ATOM     26  C   UNL A   1      29.485  29.768  22.572  1.00  0.00     0.000 A 
ATOM     27  C   UNL A   1      27.326  28.817  23.059  1.00  0.00     0.000 A 
ATOM     28  C   UNL A   1      28.101  29.896  22.645  1.00  0.00     0.000 A 
ENDBRANCH  21  23
ENDBRANCH   7  21
ENDBRANCH   4   7
ENDBRANCH   2   3
ENDBRANCH   1   2
BRANCH   1  29
ATOM     29  C   UNL A   1      31.429  32.411  26.522  1.00  0.00     0.023 C 
BRANCH  29  30
ATOM     30  C   UNL A   1      32.725  33.126  26.895  1.00  0.00     0.116 C 
BRANCH  30  31
ATOM     31  N   UNL A   1      32.537  34.244  27.809  1.00  0.00    -0.352 N 
ATOM     32  C   UNL A   1      33.363  34.624  28.834  1.00  0.00     0.251 C 
ATOM     33  H   UNL A   1      31.726  34.788  27.676  1.00  0.00     0.163 HD
ATOM     34  O   UNL A   1      33.129  35.603  29.529  1.00  0.00    -0.269 OA
BRANCH  32  35
ATOM     35  C   UNL A   1      34.490  33.732  29.118  1.00  0.00     0.039 A 
ATOM     36  C   UNL A   1      35.763  34.205  28.806  1.00  0.00     0.014 A 
ATOM     37  C   UNL A   1      34.293  32.579  29.880  1.00  0.00     0.014 A 
ATOM     38  C   UNL A   1      36.865  33.531  29.307  1.00  0.00     0.010 A 
ATOM     39  C   UNL A   1      35.396  31.958  30.449  1.00  0.00     0.010 A 
ATOM     40  C   UNL A   1      36.687  32.429  30.161  1.00  0.00    -0.014 A 
BRANCH  40  41
ATOM     41  C   UNL A   1      37.871  31.748  30.725  1.00  0.00     0.031 A 
ATOM     42  C   UNL A   1      38.291  32.066  32.128  1.00  0.00     0.074 A 
ATOM     43  C   UNL A   1      38.530  30.841  29.979  1.00  0.00     0.049 A 
ATOM     44  N   UNL A   1      39.274  31.565  32.825  1.00  0.00    -0.248 NA
ATOM     45  C   UNL A   1      37.516  33.099  32.836  1.00  0.00     0.031 C 
ATOM     46  C   UNL A   1      38.198  30.483  28.596  1.00  0.00     0.029 A 
ATOM     47  N   UNL A   1      39.600  30.040  30.277  1.00  0.00    -0.354 N 
ATOM     48  C   UNL A   1      39.236  32.220  34.050  1.00  0.00     0.074 A 
ATOM     49  C   UNL A   1      38.181  33.203  33.975  1.00  0.00     0.031 C 
ATOM     50  C   UNL A   1      39.015  29.500  28.187  1.00  0.00     0.029 A 
ATOM     51  C   UNL A   1      39.965  29.198  29.251  1.00  0.00     0.049 A 
ATOM     52  H   UNL A   1      40.065  30.064  31.145  1.00  0.00     0.167 HD
ATOM     53  C   UNL A   1      40.001  31.996  35.144  1.00  0.00     0.034 A 
ATOM     54  C   UNL A   1      40.961  28.292  29.183  1.00  0.00     0.034 A 
ATOM     55  C   UNL A   1      41.043  31.004  35.185  1.00  0.00     0.049 A 
ATOM     56  C   UNL A   1      41.835  28.106  30.400  1.00  0.00     0.074 A 
ATOM     57  C   UNL A   1      41.863  30.663  36.245  1.00  0.00     0.029 A 
ATOM     58  N   UNL A   1      41.417  30.199  34.116  1.00  0.00    -0.354 N 
ATOM     59  N   UNL A   1      41.759  28.704  31.568  1.00  0.00    -0.248 NA
ATOM     60  C   UNL A   1      42.918  27.123  30.296  1.00  0.00     0.031 C 
ATOM     61  C   UNL A   1      42.791  29.724  35.790  1.00  0.00     0.029 A 
ATOM     62  C   UNL A   1      42.484  29.396  34.478  1.00  0.00     0.049 A 
ATOM     63  H   UNL A   1      40.986  30.201  33.230  1.00  0.00     0.167 HD
ATOM     64  C   UNL A   1      42.763  28.137  32.349  1.00  0.00     0.074 A 
ATOM     65  C   UNL A   1      43.412  27.140  31.524  1.00  0.00     0.031 C 
ATOM     66  C   UNL A   1      43.116  28.411  33.632  1.00  0.00     0.034 A 
BRANCH  53  67
ATOM     67  C   UNL A   1      39.762  32.863  36.354  1.00  0.00     0.023 A 
ATOM     68  C   UNL A   1      38.976  32.432  37.436  1.00  0.00     0.031 A 
ATOM     69  C   UNL A   1      40.321  34.152  36.417  1.00  0.00     0.131 A 
ATOM     70  C   UNL A   1      38.721  33.302  38.506  1.00  0.00     0.055 A 
ATOM     71  C   UNL A   1      40.134  34.980  37.525  1.00  0.00     0.041 A 
ATOM     72  F   UNL A   1      41.051  34.632  35.399  1.00  0.00    -0.206 F 
ATOM     73  C   UNL A   1      39.320  34.561  38.572  1.00  0.00     0.022 A 
BRANCH  70  74
ATOM     74  S   UNL A   1      37.481  32.820  39.739  1.00  0.00     0.124 S 
ATOM     75  O   UNL A   1      37.548  33.939  40.676  1.00  0.00    -0.237 OA
ATOM     76  O   UNL A   1      36.263  32.724  38.943  1.00  0.00    -0.237 OA
ATOM     77  O   UNL A   1      37.991  31.552  40.258  1.00  0.00    -0.744 OA
ENDBRANCH  70  74
ENDBRANCH  53  67
BRANCH  54  78
ATOM     78  C   UNL A   1      41.209  27.513  27.933  1.00  0.00     0.023 A 
ATOM     79  C   UNL A   1      40.889  26.149  27.851  1.00  0.00     0.031 A 
ATOM     80  C   UNL A   1      41.841  28.104  26.823  1.00  0.00     0.131 A 
ATOM     81  C   UNL A   1      41.266  25.407  26.720  1.00  0.00     0.055 A 
ATOM     82  C   UNL A   1      42.146  27.379  25.670  1.00  0.00     0.041 A 
ATOM     83  F   UNL A   1      42.175  29.405  26.844  1.00  0.00    -0.206 F 
ATOM     84  C   UNL A   1      41.876  26.015  25.622  1.00  0.00     0.022 A 
BRANCH  81  85
ATOM     85  S   UNL A   1      41.072  23.603  26.764  1.00  0.00     0.124 S 
ATOM     86  O   UNL A   1      41.498  23.295  28.124  1.00  0.00    -0.237 OA
ATOM     87  O   UNL A   1      39.650  23.445  26.483  1.00  0.00    -0.237 OA
ATOM     88  O   UNL A   1      41.971  23.140  25.708  1.00  0.00    -0.744 OA
ENDBRANCH  81  85
ENDBRANCH  54  78
BRANCH  66  89
ATOM     89  C   UNL A   1      44.222  27.577  34.232  1.00  0.00     0.023 A 
ATOM     90  C   UNL A   1      45.566  27.985  34.191  1.00  0.00     0.031 A 
ATOM     91  C   UNL A   1      43.920  26.353  34.855  1.00  0.00     0.131 A 
ATOM     92  C   UNL A   1      46.564  27.146  34.702  1.00  0.00     0.055 A 
ATOM     93  C   UNL A   1      44.909  25.561  35.436  1.00  0.00     0.041 A 
ATOM     94  F   UNL A   1      42.654  25.910  34.919  1.00  0.00    -0.206 F 
ATOM     95  C   UNL A   1      46.243  25.948  35.347  1.00  0.00     0.022 A 
BRANCH  92  96
ATOM     96  S   UNL A   1      48.298  27.582  34.406  1.00  0.00     0.124 S 
ATOM     97  O   UNL A   1      48.219  29.030  34.238  1.00  0.00    -0.237 OA
ATOM     98  O   UNL A   1      48.950  27.118  35.626  1.00  0.00    -0.237 OA
ATOM     99  O   UNL A   1      48.637  26.835  33.196  1.00  0.00    -0.744 OA
ENDBRANCH  92  96
ENDBRANCH  66  89
ENDBRANCH  40  41
ENDBRANCH  32  35
ENDBRANCH  30  31
ENDBRANCH  29  30
ENDBRANCH   1  29
TORSDOF 19
ENDMDL
MODEL 2
REMARK VINA RESULT:     -12.9      2.046      2.590
REMARK SMILES Cc1c(Cl)cccc1NC(=O)C[C@H](C(=O)NCCCCNC(=O)c1ccc(-c2c3nc(c(-c4cc(S(=O)(=O)[O-])ccc4F)c4ccc([nH]4)c(-c4cc(S(=O)(=O)[O-])ccc4F)c4nc(c(-c5cc(S(=O)(=O)[O-])ccc5F)c5ccc2[nH]5)C=C4)C=C3)cc1)[C@H](C)c1ccccc1
REMARK SMILES IDX 18 1 17 2 16 3 14 4 15 5 13 7 12 8 10 9 9 10 11 12 8 13 1 14
REMARK SMILES IDX 2 15 3 16 4 17 5 18 7 19 6 20 87 21 88 22 89 23 90 24 94 25
REMARK SMILES IDX 91 26 93 27 92 28 19 29 20 30 21 31 22 32 23 34 24 35 25 36
REMARK SMILES IDX 86 37 26 38 85 39 27 40 28 41 29 42 79 43 30 44 84 45 78 46
REMARK SMILES IDX 80 47 31 48 83 49 77 50 76 51 32 53 64 54 44 55 63 56 45 57
REMARK SMILES IDX 48 58 62 59 81 60 46 61 47 62 61 64 82 65 49 66 33 67 34 68
REMARK SMILES IDX 42 69 35 70 41 71 43 72 40 73 36 74 37 75 38 76 39 77 65 78
REMARK SMILES IDX 66 79 74 80 67 81 73 82 75 83 72 84 68 85 69 86 70 87 71 88
REMARK SMILES IDX 50 89 51 90 59 91 52 92 58 93 60 94 57 95 53 96 54 97 55 98
REMARK SMILES IDX 56 99
REMARK H PARENT 16 6 9 11 21 33 80 52 48 63
REMARK Flexibility Score: inf
ROOT
ATOM      1  C   UNL A   1      33.250  29.295  26.956  1.00  0.00     0.023 C 
ENDROOT
BRANCH   1   2
ATOM      2  C   UNL A   1      32.417  27.306  26.610  1.00  0.00     0.116 C 
BRANCH   2   3
ATOM      3  N   UNL A   1      31.072  26.818  25.866  1.00  0.00    -0.356 N 
ATOM      4  C   UNL A   1      30.753  26.591  24.565  1.00  0.00     0.224 C 
ATOM      5  O   UNL A   1      29.584  26.298  24.304  1.00  0.00    -0.275 OA
ATOM      6  H   UNL A   1      30.325  26.649  26.485  1.00  0.00     0.163 HD
BRANCH   4   7
ATOM      7  C   UNL A   1      31.790  26.736  23.458  1.00  0.00     0.095 C 
BRANCH   7   8
ATOM      8  C   UNL A   1      31.653  25.482  22.555  1.00  0.00     0.114 C 
BRANCH   8   9
ATOM      9  C   UNL A   1      32.777  24.937  21.703  1.00  0.00     0.225 C 
ATOM     10  N   UNL A   1      33.526  23.857  22.078  1.00  0.00    -0.326 N 
ATOM     11  H   UNL A   1      34.399  23.744  21.637  1.00  0.00     0.169 HD
ATOM     12  O   UNL A   1      33.035  25.459  20.613  1.00  0.00    -0.275 OA
BRANCH  10  13
ATOM     13  C   UNL A   1      33.168  22.900  23.027  1.00  0.00     0.045 A 
ATOM     14  C   UNL A   1      34.286  24.520  25.124  1.00  0.00     0.048 C 
ATOM     15  C   UNL A   1      33.788  23.169  24.701  1.00  0.00    -0.009 A 
ATOM     16  C   UNL A   1      33.708  21.844  25.913  1.00  0.00     0.046 A 
ATOM     17  Cl  UNL A   1      34.354  22.073  27.488  1.00  0.00    -0.084 Cl
ATOM     18  C   UNL A   1      32.958  20.264  25.483  1.00  0.00     0.021 A 
ATOM     19  C   UNL A   1      32.367  21.342  22.595  1.00  0.00     0.026 A 
ATOM     20  C   UNL A   1      32.262  20.009  23.832  1.00  0.00     0.004 A 
ENDBRANCH  10  13
ENDBRANCH   8   9
ENDBRANCH   7   8
BRANCH   7  21
ATOM     21  C   UNL A   1      31.847  28.228  23.000  1.00  0.00     0.029 C 
ATOM     22  C   UNL A   1      33.073  29.055  23.383  1.00  0.00     0.013 C 
BRANCH  21  23
ATOM     23  C   UNL A   1      30.548  29.021  23.198  1.00  0.00    -0.044 A 
ATOM     24  C   UNL A   1      29.516  28.893  22.249  1.00  0.00     0.004 A 
ATOM     25  C   UNL A   1      30.433  30.022  24.173  1.00  0.00     0.004 A 
ATOM     26  C   UNL A   1      28.464  29.808  22.213  1.00  0.00     0.000 A 
ATOM     27  C   UNL A   1      29.390  30.946  24.124  1.00  0.00     0.000 A 
ATOM     28  C   UNL A   1      28.419  30.852  23.132  1.00  0.00     0.000 A 
ENDBRANCH  21  23
ENDBRANCH   7  21
ENDBRANCH   4   7
ENDBRANCH   2   3
ENDBRANCH   1   2
BRANCH   1  29
ATOM     29  C   UNL A   1      32.643  30.890  27.172  1.00  0.00     0.023 C 
BRANCH  29  30
ATOM     30  C   UNL A   1      33.583  32.085  27.293  1.00  0.00     0.116 C 
BRANCH  30  31
ATOM     31  N   UNL A   1      32.929  33.303  27.752  1.00  0.00    -0.352 N 
ATOM     32  C   UNL A   1      33.371  34.164  28.723  1.00  0.00     0.251 C 
ATOM     33  H   UNL A   1      32.076  33.533  27.318  1.00  0.00     0.163 HD
ATOM     34  O   UNL A   1      32.759  35.182  29.015  1.00  0.00    -0.269 OA
BRANCH  32  35
ATOM     35  C   UNL A   1      34.563  33.746  29.462  1.00  0.00     0.039 A 
ATOM     36  C   UNL A   1      34.402  32.721  30.392  1.00  0.00     0.014 A 
ATOM     37  C   UNL A   1      35.824  34.196  29.066  1.00  0.00     0.014 A 
ATOM     38  C   UNL A   1      35.532  32.103  30.905  1.00  0.00     0.010 A 
ATOM     39  C   UNL A   1      36.948  33.518  29.517  1.00  0.00     0.010 A 
ATOM     40  C   UNL A   1      36.806  32.471  30.442  1.00  0.00    -0.014 A 
BRANCH  40  41
ATOM     41  C   UNL A   1      37.999  31.772  30.963  1.00  0.00     0.031 A 
ATOM     42  C   UNL A   1      38.472  32.079  32.351  1.00  0.00     0.074 A 
ATOM     43  C   UNL A   1      38.620  30.858  30.191  1.00  0.00     0.049 A 
ATOM     44  N   UNL A   1      39.472  31.562  33.012  1.00  0.00    -0.248 NA
ATOM     45  C   UNL A   1      37.737  33.120  33.089  1.00  0.00     0.031 C 
ATOM     46  C   UNL A   1      38.234  30.510  28.820  1.00  0.00     0.029 A 
ATOM     47  N   UNL A   1      39.688  30.041  30.450  1.00  0.00    -0.354 N 
ATOM     48  C   UNL A   1      39.485  32.213  34.239  1.00  0.00     0.074 A 
ATOM     49  C   UNL A   1      38.442  33.212  34.205  1.00  0.00     0.031 C 
ATOM     50  C   UNL A   1      39.023  29.517  28.380  1.00  0.00     0.029 A 
ATOM     51  C   UNL A   1      40.004  29.197  29.410  1.00  0.00     0.049 A 
ATOM     52  H   UNL A   1      40.183  30.055  31.301  1.00  0.00     0.167 HD
ATOM     53  C   UNL A   1      40.284  31.975  35.306  1.00  0.00     0.034 A 
ATOM     54  C   UNL A   1      40.985  28.278  29.304  1.00  0.00     0.034 A 
ATOM     55  C   UNL A   1      41.313  30.968  35.308  1.00  0.00     0.049 A 
ATOM     56  C   UNL A   1      41.898  28.076  30.490  1.00  0.00     0.074 A 
ATOM     57  C   UNL A   1      42.165  30.612  36.338  1.00  0.00     0.029 A 
ATOM     58  N   UNL A   1      41.638  30.161  34.224  1.00  0.00    -0.354 N 
ATOM     59  N   UNL A   1      41.871  28.670  31.662  1.00  0.00    -0.248 NA
ATOM     60  C   UNL A   1      42.963  27.078  30.345  1.00  0.00     0.031 C 
ATOM     61  C   UNL A   1      43.063  29.662  35.848  1.00  0.00     0.029 A 
ATOM     62  C   UNL A   1      42.706  29.343  34.547  1.00  0.00     0.049 A 
ATOM     63  H   UNL A   1      41.177  30.172  33.354  1.00  0.00     0.167 HD
ATOM     64  C   UNL A   1      42.893  28.087  32.406  1.00  0.00     0.074 A 
ATOM     65  C   UNL A   1      43.499  27.084  31.555  1.00  0.00     0.031 C 
ATOM     66  C   UNL A   1      43.294  28.352  33.676  1.00  0.00     0.034 A 
BRANCH  53  67
ATOM     67  C   UNL A   1      40.100  32.842  36.525  1.00  0.00     0.023 A 
ATOM     68  C   UNL A   1      40.958  33.918  36.810  1.00  0.00     0.031 A 
ATOM     69  C   UNL A   1      39.055  32.575  37.427  1.00  0.00     0.131 A 
ATOM     70  C   UNL A   1      40.792  34.649  37.996  1.00  0.00     0.055 A 
ATOM     71  C   UNL A   1      38.843  33.361  38.560  1.00  0.00     0.041 A 
ATOM     72  F   UNL A   1      38.226  31.539  37.226  1.00  0.00    -0.206 F 
ATOM     73  C   UNL A   1      39.722  34.398  38.857  1.00  0.00     0.022 A 
BRANCH  70  74
ATOM     74  S   UNL A   1      42.078  35.839  38.468  1.00  0.00     0.124 S 
ATOM     75  O   UNL A   1      41.405  37.112  38.218  1.00  0.00    -0.237 OA
ATOM     76  O   UNL A   1      42.318  35.506  39.867  1.00  0.00    -0.237 OA
ATOM     77  O   UNL A   1      43.177  35.534  37.554  1.00  0.00    -0.744 OA
ENDBRANCH  70  74
ENDBRANCH  53  67
BRANCH  54  78
ATOM     78  C   UNL A   1      41.178  27.500  28.044  1.00  0.00     0.023 A 
ATOM     79  C   UNL A   1      40.862  26.134  27.977  1.00  0.00     0.031 A 
ATOM     80  C   UNL A   1      41.756  28.094  26.906  1.00  0.00     0.131 A 
ATOM     81  C   UNL A   1      41.189  25.393  26.830  1.00  0.00     0.055 A 
ATOM     82  C   UNL A   1      42.010  27.370  25.741  1.00  0.00     0.041 A 
ATOM     83  F   UNL A   1      42.084  29.396  26.911  1.00  0.00    -0.206 F 
ATOM     84  C   UNL A   1      41.745  26.005  25.705  1.00  0.00     0.022 A 
BRANCH  81  85
ATOM     85  S   UNL A   1      41.007  23.589  26.883  1.00  0.00     0.124 S 
ATOM     86  O   UNL A   1      41.417  23.292  28.251  1.00  0.00    -0.237 OA
ATOM     87  O   UNL A   1      39.589  23.419  26.585  1.00  0.00    -0.237 OA
ATOM     88  O   UNL A   1      41.922  23.125  25.841  1.00  0.00    -0.744 OA
ENDBRANCH  81  85
ENDBRANCH  54  78
BRANCH  66  89
ATOM     89  C   UNL A   1      44.408  27.501  34.235  1.00  0.00     0.023 A 
ATOM     90  C   UNL A   1      44.157  26.281  34.884  1.00  0.00     0.031 A 
ATOM     91  C   UNL A   1      45.745  27.923  34.112  1.00  0.00     0.131 A 
ATOM     92  C   UNL A   1      45.219  25.559  35.445  1.00  0.00     0.055 A 
ATOM     93  C   UNL A   1      46.804  27.159  34.599  1.00  0.00     0.041 A 
ATOM     94  F   UNL A   1      46.043  29.083  33.506  1.00  0.00    -0.206 F 
ATOM     95  C   UNL A   1      46.543  25.976  35.285  1.00  0.00     0.022 A 
BRANCH  92  96
ATOM     96  S   UNL A   1      44.837  24.128  36.491  1.00  0.00     0.124 S 
ATOM     97  O   UNL A   1      43.852  23.417  35.681  1.00  0.00    -0.237 OA
ATOM     98  O   UNL A   1      46.138  23.482  36.624  1.00  0.00    -0.237 OA
ATOM     99  O   UNL A   1      44.314  24.730  37.716  1.00  0.00    -0.744 OA
ENDBRANCH  92  96
ENDBRANCH  66  89
ENDBRANCH  40  41
ENDBRANCH  32  35
ENDBRANCH  30  31
ENDBRANCH  29  30
ENDBRANCH   1  29
TORSDOF 19
ENDMDL
MODEL 3
REMARK VINA RESULT:     -12.5      2.165      3.330
REMARK SMILES Cc1c(Cl)cccc1NC(=O)C[C@H](C(=O)NCCCCNC(=O)c1ccc(-c2c3nc(c(-c4cc(S(=O)(=O)[O-])ccc4F)c4ccc([nH]4)c(-c4cc(S(=O)(=O)[O-])ccc4F)c4nc(c(-c5cc(S(=O)(=O)[O-])ccc5F)c5ccc2[nH]5)C=C4)C=C3)cc1)[C@H](C)c1ccccc1
REMARK SMILES IDX 18 1 17 2 16 3 14 4 15 5 13 7 12 8 10 9 9 10 11 12 8 13 1 14
REMARK SMILES IDX 2 15 3 16 4 17 5 18 7 19 6 20 87 21 88 22 89 23 90 24 94 25
REMARK SMILES IDX 91 26 93 27 92 28 19 29 20 30 21 31 22 32 23 34 24 35 25 36
REMARK SMILES IDX 86 37 26 38 85 39 27 40 28 41 29 42 79 43 30 44 84 45 78 46
REMARK SMILES IDX 80 47 31 48 83 49 77 50 76 51 32 53 64 54 44 55 63 56 45 57
REMARK SMILES IDX 48 58 62 59 81 60 46 61 47 62 61 64 82 65 49 66 33 67 34 68
REMARK SMILES IDX 42 69 35 70 41 71 43 72 40 73 36 74 37 75 38 76 39 77 65 78
REMARK SMILES IDX 66 79 74 80 67 81 73 82 75 83 72 84 68 85 69 86 70 87 71 88
REMARK SMILES IDX 50 89 51 90 59 91 52 92 58 93 60 94 57 95 53 96 54 97 55 98
REMARK SMILES IDX 56 99
REMARK H PARENT 16 6 9 11 21 33 80 52 48 63
REMARK Flexibility Score: inf
ROOT
ATOM      1  C   UNL A   1      32.256  29.852  26.294  1.00  0.00     0.023 C 
ENDROOT
BRANCH   1   2
ATOM      2  C   UNL A   1      31.922  28.749  24.439  1.00  0.00     0.116 C 
BRANCH   2   3
ATOM      3  N   UNL A   1      30.877  27.584  24.053  1.00  0.00    -0.356 N 
ATOM      4  C   UNL A   1      31.007  26.253  23.814  1.00  0.00     0.224 C 
ATOM      5  O   UNL A   1      30.004  25.634  23.449  1.00  0.00    -0.275 OA
ATOM      6  H   UNL A   1      29.949  27.904  23.975  1.00  0.00     0.163 HD
BRANCH   4   7
ATOM      7  C   UNL A   1      32.353  25.552  23.947  1.00  0.00     0.095 C 
BRANCH   7   8
ATOM      8  C   UNL A   1      33.159  25.891  22.665  1.00  0.00     0.114 C 
BRANCH   8   9
ATOM      9  C   UNL A   1      33.143  25.038  21.416  1.00  0.00     0.225 C 
ATOM     10  N   UNL A   1      33.441  23.704  21.434  1.00  0.00    -0.326 N 
ATOM     11  H   UNL A   1      33.694  23.291  20.576  1.00  0.00     0.169 HD
ATOM     12  O   UNL A   1      32.833  25.539  20.331  1.00  0.00    -0.275 OA
BRANCH  10  13
ATOM     13  C   UNL A   1      33.421  22.873  22.554  1.00  0.00     0.045 A 
ATOM     14  C   UNL A   1      36.200  23.425  23.048  1.00  0.00     0.048 C 
ATOM     15  C   UNL A   1      35.018  22.544  23.328  1.00  0.00    -0.009 A 
ATOM     16  C   UNL A   1      35.176  21.221  24.535  1.00  0.00     0.046 A 
ATOM     17  Cl  UNL A   1      36.706  20.861  25.227  1.00  0.00    -0.084 Cl
ATOM     18  C   UNL A   1      33.734  20.256  25.019  1.00  0.00     0.021 A 
ATOM     19  C   UNL A   1      31.957  21.951  23.065  1.00  0.00     0.026 A 
ATOM     20  C   UNL A   1      32.113  20.628  24.306  1.00  0.00     0.004 A 
ENDBRANCH  10  13
ENDBRANCH   8   9
ENDBRANCH   7   8
BRANCH   7  21
ATOM     21  C   UNL A   1      32.844  25.658  25.426  1.00  0.00     0.029 C 
ATOM     22  C   UNL A   1      34.020  26.582  25.733  1.00  0.00     0.013 C 
BRANCH  21  23
ATOM     23  C   UNL A   1      32.969  24.320  26.168  1.00  0.00    -0.044 A 
ATOM     24  C   UNL A   1      31.800  23.662  26.596  1.00  0.00     0.004 A 
ATOM     25  C   UNL A   1      34.206  23.835  26.617  1.00  0.00     0.004 A 
ATOM     26  C   UNL A   1      31.867  22.627  27.528  1.00  0.00     0.000 A 
ATOM     27  C   UNL A   1      34.268  22.812  27.561  1.00  0.00     0.000 A 
ATOM     28  C   UNL A   1      33.099  22.223  28.033  1.00  0.00     0.000 A 
ENDBRANCH  21  23
ENDBRANCH   7  21
ENDBRANCH   4   7
ENDBRANCH   2   3
ENDBRANCH   1   2
BRANCH   1  29
ATOM     29  C   UNL A   1      33.542  30.060  27.416  1.00  0.00     0.023 C 
BRANCH  29  30
ATOM     30  C   UNL A   1      34.422  31.306  27.390  1.00  0.00     0.116 C 
BRANCH  30  31
ATOM     31  N   UNL A   1      33.781  32.490  27.945  1.00  0.00    -0.352 N 
ATOM     32  C   UNL A   1      34.282  33.328  28.908  1.00  0.00     0.251 C 
ATOM     33  H   UNL A   1      32.890  32.713  27.591  1.00  0.00     0.163 HD
ATOM     34  O   UNL A   1      33.673  34.319  29.286  1.00  0.00    -0.269 OA
BRANCH  32  35
ATOM     35  C   UNL A   1      35.541  32.914  29.531  1.00  0.00     0.039 A 
ATOM     36  C   UNL A   1      35.474  31.882  30.464  1.00  0.00     0.014 A 
ATOM     37  C   UNL A   1      36.756  33.378  29.024  1.00  0.00     0.014 A 
ATOM     38  C   UNL A   1      36.651  31.270  30.866  1.00  0.00     0.010 A 
ATOM     39  C   UNL A   1      37.922  32.707  29.365  1.00  0.00     0.010 A 
ATOM     40  C   UNL A   1      37.874  31.653  30.291  1.00  0.00    -0.014 A 
BRANCH  40  41
ATOM     41  C   UNL A   1      39.115  30.960  30.695  1.00  0.00     0.031 A 
ATOM     42  C   UNL A   1      39.777  31.348  31.982  1.00  0.00     0.074 A 
ATOM     43  C   UNL A   1      39.611  29.981  29.912  1.00  0.00     0.049 A 
ATOM     44  N   UNL A   1      40.849  30.851  32.536  1.00  0.00    -0.248 NA
ATOM     45  C   UNL A   1      39.166  32.455  32.736  1.00  0.00     0.031 C 
ATOM     46  C   UNL A   1      39.037  29.551  28.633  1.00  0.00     0.029 A 
ATOM     47  N   UNL A   1      40.691  29.156  30.082  1.00  0.00    -0.354 N 
ATOM     48  C   UNL A   1      41.040  31.584  33.702  1.00  0.00     0.074 A 
ATOM     49  C   UNL A   1      40.017  32.604  33.738  1.00  0.00     0.031 C 
ATOM     50  C   UNL A   1      39.743  28.511  28.162  1.00  0.00     0.029 A 
ATOM     51  C   UNL A   1      40.850  28.237  29.070  1.00  0.00     0.049 A 
ATOM     52  H   UNL A   1      41.297  29.216  30.856  1.00  0.00     0.167 HD
ATOM     53  C   UNL A   1      41.972  31.398  34.666  1.00  0.00     0.034 A 
ATOM     54  C   UNL A   1      41.792  27.288  28.899  1.00  0.00     0.034 A 
ATOM     55  C   UNL A   1      42.976  30.367  34.600  1.00  0.00     0.049 A 
ATOM     56  C   UNL A   1      42.854  27.143  29.962  1.00  0.00     0.074 A 
ATOM     57  C   UNL A   1      43.953  30.061  35.529  1.00  0.00     0.029 A 
ATOM     58  N   UNL A   1      43.137  29.482  33.541  1.00  0.00    -0.354 N 
ATOM     59  N   UNL A   1      42.997  27.816  31.083  1.00  0.00    -0.248 NA
ATOM     60  C   UNL A   1      43.874  26.111  29.746  1.00  0.00     0.031 C 
ATOM     61  C   UNL A   1      44.762  29.057  34.990  1.00  0.00     0.029 A 
ATOM     62  C   UNL A   1      44.226  28.660  33.775  1.00  0.00     0.049 A 
ATOM     63  H   UNL A   1      42.563  29.446  32.743  1.00  0.00     0.167 HD
ATOM     64  C   UNL A   1      44.100  27.259  31.722  1.00  0.00     0.074 A 
ATOM     65  C   UNL A   1      44.570  26.185  30.870  1.00  0.00     0.031 C 
ATOM     66  C   UNL A   1      44.675  27.598  32.905  1.00  0.00     0.034 A 
BRANCH  53  67
ATOM     67  C   UNL A   1      41.969  32.349  35.835  1.00  0.00     0.023 A 
ATOM     68  C   UNL A   1      41.102  32.181  36.929  1.00  0.00     0.031 A 
ATOM     69  C   UNL A   1      42.841  33.452  35.848  1.00  0.00     0.131 A 
ATOM     70  C   UNL A   1      41.083  33.133  37.958  1.00  0.00     0.055 A 
ATOM     71  C   UNL A   1      42.877  34.348  36.917  1.00  0.00     0.041 A 
ATOM     72  F   UNL A   1      43.666  33.683  34.816  1.00  0.00    -0.206 F 
ATOM     73  C   UNL A   1      41.986  34.198  37.976  1.00  0.00     0.022 A 
BRANCH  70  74
ATOM     74  S   UNL A   1      39.766  33.040  39.202  1.00  0.00     0.124 S 
ATOM     75  O   UNL A   1      39.446  34.452  39.398  1.00  0.00    -0.237 OA
ATOM     76  O   UNL A   1      38.750  32.241  38.527  1.00  0.00    -0.237 OA
ATOM     77  O   UNL A   1      40.416  32.393  40.340  1.00  0.00    -0.744 OA
ENDBRANCH  70  74
ENDBRANCH  53  67
BRANCH  54  78
ATOM     78  C   UNL A   1      41.800  26.422  27.682  1.00  0.00     0.023 A 
ATOM     79  C   UNL A   1      41.222  25.144  27.696  1.00  0.00     0.031 A 
ATOM     80  C   UNL A   1      42.455  26.831  26.505  1.00  0.00     0.131 A 
ATOM     81  C   UNL A   1      41.371  24.294  26.588  1.00  0.00     0.055 A 
ATOM     82  C   UNL A   1      42.536  26.011  25.379  1.00  0.00     0.041 A 
ATOM     83  F   UNL A   1      43.031  28.042  26.433  1.00  0.00    -0.206 F 
ATOM     84  C   UNL A   1      42.009  24.724  25.424  1.00  0.00     0.022 A 
BRANCH  81  85
ATOM     85  S   UNL A   1      40.842  22.565  26.744  1.00  0.00     0.124 S 
ATOM     86  O   UNL A   1      41.250  22.256  28.110  1.00  0.00    -0.237 OA
ATOM     87  O   UNL A   1      39.406  22.666  26.509  1.00  0.00    -0.237 OA
ATOM     88  O   UNL A   1      41.599  21.882  25.696  1.00  0.00    -0.744 OA
ENDBRANCH  81  85
ENDBRANCH  54  78
BRANCH  66  89
ATOM     89  C   UNL A   1      45.840  26.759  33.367  1.00  0.00     0.023 A 
ATOM     90  C   UNL A   1      45.657  25.540  34.041  1.00  0.00     0.031 A 
ATOM     91  C   UNL A   1      47.158  27.191  33.126  1.00  0.00     0.131 A 
ATOM     92  C   UNL A   1      46.771  24.829  34.510  1.00  0.00     0.055 A 
ATOM     93  C   UNL A   1      48.262  26.437  33.521  1.00  0.00     0.041 A 
ATOM     94  F   UNL A   1      47.392  28.350  32.491  1.00  0.00    -0.206 F 
ATOM     95  C   UNL A   1      48.072  25.256  34.233  1.00  0.00     0.022 A 
BRANCH  92  96
ATOM     96  S   UNL A   1      46.494  23.401  35.591  1.00  0.00     0.124 S 
ATOM     97  O   UNL A   1      46.635  22.286  34.659  1.00  0.00    -0.237 OA
ATOM     98  O   UNL A   1      47.559  23.545  36.577  1.00  0.00    -0.237 OA
ATOM     99  O   UNL A   1      45.141  23.616  36.102  1.00  0.00    -0.744 OA
ENDBRANCH  92  96
ENDBRANCH  66  89
ENDBRANCH  40  41
ENDBRANCH  32  35
ENDBRANCH  30  31
ENDBRANCH  29  30
ENDBRANCH   1  29
TORSDOF 19
ENDMDL
