MODEL 1
REMARK VINA RESULT:     -11.3      0.000      0.000
REMARK SMILES [NH3+][C@]1(C(=O)NCCCCNC(=O)c2ccc(-c3c4nc(c(-c5cc(S(=O)(=O)[O-])ccc5F)c5ccc([nH]5)c(-c5cc(S(=O)(=O)[O-])ccc5F)c5nc(c(-c6cc(S(=O)(=O)[O-])ccc6F)c6ccc3[nH]6)C=C5)C=C4)cc2)CCC[C@@H]1CCn1cc(I)cn1
REMARK SMILES IDX 7 1 6 2 5 3 3 4 4 5 2 7 76 8 79 9 77 10 78 11 1 12 80 16
REMARK SMILES IDX 81 17 82 18 83 19 87 20 84 21 86 22 85 23 8 24 9 25 10 26
REMARK SMILES IDX 11 27 12 29 13 30 14 31 75 32 15 33 74 34 16 35 17 36 18 37
REMARK SMILES IDX 68 38 19 39 73 40 67 41 69 42 20 43 72 44 66 45 65 46 21 48
REMARK SMILES IDX 53 49 33 50 52 51 34 52 37 53 51 54 70 55 35 56 36 57 50 59
REMARK SMILES IDX 71 60 38 61 22 62 23 63 31 64 24 65 30 66 32 67 29 68 25 69
REMARK SMILES IDX 26 70 27 71 28 72 54 73 55 74 63 75 56 76 62 77 64 78 61 79
REMARK SMILES IDX 57 80 58 81 59 82 60 83 39 84 40 85 48 86 41 87 47 88 49 89
REMARK SMILES IDX 46 90 42 91 43 92 44 93 45 94
REMARK H PARENT 5 6 1 13 1 14 1 15 10 28 69 47 37 58
REMARK Flexibility Score: inf
ROOT
ATOM      1  C   UNL A   1      31.512  30.558  25.884  1.00  0.00     0.023 C 
ENDROOT
BRANCH   1   2
ATOM      2  C   UNL A   1      32.955  30.054  25.800  1.00  0.00     0.116 C 
BRANCH   2   3
ATOM      3  N   UNL A   1      33.288  29.673  24.454  1.00  0.00    -0.351 N 
ATOM      4  C   UNL A   1      33.463  28.458  23.890  1.00  0.00     0.281 C 
ATOM      5  O   UNL A   1      33.901  28.478  22.730  1.00  0.00    -0.268 OA
ATOM      6  H   UNL A   1      33.409  30.429  23.835  1.00  0.00     0.163 HD
BRANCH   4   7
ATOM      7  C   UNL A   1      33.063  27.078  24.520  1.00  0.00     0.176 C 
ATOM      8  C   UNL A   1      33.694  26.551  25.822  1.00  0.00     0.079 C 
ATOM      9  C   UNL A   1      31.523  27.142  24.838  1.00  0.00     0.062 C 
ATOM     10  C   UNL A   1      32.610  25.703  26.463  1.00  0.00     0.008 C 
ATOM     11  C   UNL A   1      31.389  26.580  26.273  1.00  0.00     0.011 C 
BRANCH   7  12
ATOM     12  N   UNL A   1      33.468  26.056  23.535  1.00  0.00    -0.345 N 
ATOM     13  H   UNL A   1      34.460  26.165  23.321  1.00  0.00     0.345 HD
ATOM     14  H   UNL A   1      32.923  26.170  22.681  1.00  0.00     0.345 HD
ATOM     15  H   UNL A   1      33.304  25.127  23.922  1.00  0.00     0.345 HD
ENDBRANCH   7  12
BRANCH   9  16
ATOM     16  C   UNL A   1      30.512  26.414  23.918  1.00  0.00     0.034 C 
BRANCH  16  17
ATOM     17  C   UNL A   1      29.242  27.176  23.507  1.00  0.00     0.145 C 
BRANCH  17  18
ATOM     18  N   UNL A   1      29.426  28.528  23.010  1.00  0.00    -0.272 N 
ATOM     19  C   UNL A   1      28.838  29.684  23.454  1.00  0.00     0.123 A 
ATOM     20  N   UNL A   1      30.260  28.737  21.972  1.00  0.00    -0.180 NA
ATOM     21  C   UNL A   1      29.140  30.627  22.504  1.00  0.00     0.051 A 
ATOM     22  C   UNL A   1      30.027  30.005  21.621  1.00  0.00     0.149 A 
ATOM     23  I   UNL A   1      28.394  32.488  22.403  1.00  0.00    -0.041 I 
ENDBRANCH  17  18
ENDBRANCH  16  17
ENDBRANCH   9  16
ENDBRANCH   4   7
ENDBRANCH   2   3
ENDBRANCH   1   2
BRANCH   1  24
ATOM     24  C   UNL A   1      31.343  31.863  26.660  1.00  0.00     0.023 C 
BRANCH  24  25
ATOM     25  C   UNL A   1      32.647  32.532  27.063  1.00  0.00     0.116 C 
BRANCH  25  26
ATOM     26  N   UNL A   1      32.459  33.862  27.627  1.00  0.00    -0.352 N 
ATOM     27  C   UNL A   1      33.222  34.484  28.583  1.00  0.00     0.251 C 
ATOM     28  H   UNL A   1      31.693  34.376  27.282  1.00  0.00     0.163 HD
ATOM     29  O   UNL A   1      32.901  35.582  29.025  1.00  0.00    -0.269 OA
BRANCH  27  30
ATOM     30  C   UNL A   1      34.402  33.768  29.093  1.00  0.00     0.039 A 
ATOM     31  C   UNL A   1      35.670  34.284  28.822  1.00  0.00     0.014 A 
ATOM     32  C   UNL A   1      34.236  32.666  29.936  1.00  0.00     0.014 A 
ATOM     33  C   UNL A   1      36.779  33.729  29.457  1.00  0.00     0.010 A 
ATOM     34  C   UNL A   1      35.332  32.165  30.622  1.00  0.00     0.010 A 
ATOM     35  C   UNL A   1      36.613  32.693  30.390  1.00  0.00    -0.014 A 
BRANCH  35  36
ATOM     36  C   UNL A   1      37.766  32.122  31.125  1.00  0.00     0.031 A 
ATOM     37  C   UNL A   1      38.541  30.994  30.508  1.00  0.00     0.074 A 
ATOM     38  C   UNL A   1      38.052  32.558  32.366  1.00  0.00     0.049 A 
ATOM     39  N   UNL A   1      39.494  30.264  31.024  1.00  0.00    -0.248 NA
ATOM     40  C   UNL A   1      38.163  30.612  29.138  1.00  0.00     0.031 C 
ATOM     41  C   UNL A   1      37.335  33.621  33.076  1.00  0.00     0.029 A 
ATOM     42  N   UNL A   1      39.009  32.152  33.260  1.00  0.00    -0.354 N 
ATOM     43  C   UNL A   1      39.814  29.323  30.051  1.00  0.00     0.074 A 
ATOM     44  C   UNL A   1      38.909  29.537  28.943  1.00  0.00     0.031 C 
ATOM     45  C   UNL A   1      37.890  33.792  34.288  1.00  0.00     0.029 A 
ATOM     46  C   UNL A   1      38.968  32.823  34.459  1.00  0.00     0.049 A 
ATOM     47  H   UNL A   1      39.665  31.445  33.061  1.00  0.00     0.167 HD
ATOM     48  C   UNL A   1      40.789  28.381  30.075  1.00  0.00     0.034 A 
ATOM     49  C   UNL A   1      39.705  32.661  35.575  1.00  0.00     0.034 A 
ATOM     50  C   UNL A   1      41.692  28.204  31.184  1.00  0.00     0.049 A 
ATOM     51  C   UNL A   1      40.778  31.601  35.584  1.00  0.00     0.074 A 
ATOM     52  C   UNL A   1      42.756  27.326  31.298  1.00  0.00     0.029 A 
ATOM     53  N   UNL A   1      41.635  28.916  32.376  1.00  0.00    -0.354 N 
ATOM     54  N   UNL A   1      41.101  30.746  34.640  1.00  0.00    -0.248 NA
ATOM     55  C   UNL A   1      41.589  31.487  36.803  1.00  0.00     0.031 C 
ATOM     56  C   UNL A   1      43.304  27.467  32.577  1.00  0.00     0.029 A 
ATOM     57  C   UNL A   1      42.628  28.481  33.239  1.00  0.00     0.049 A 
ATOM     58  H   UNL A   1      40.984  29.627  32.577  1.00  0.00     0.167 HD
ATOM     59  C   UNL A   1      42.175  30.017  35.141  1.00  0.00     0.074 A 
ATOM     60  C   UNL A   1      42.447  30.535  36.466  1.00  0.00     0.031 C 
ATOM     61  C   UNL A   1      42.878  29.014  34.557  1.00  0.00     0.034 A 
BRANCH  48  62
ATOM     62  C   UNL A   1      40.900  27.470  28.879  1.00  0.00     0.023 A 
ATOM     63  C   UNL A   1      41.886  27.662  27.894  1.00  0.00     0.031 A 
ATOM     64  C   UNL A   1      39.983  26.421  28.694  1.00  0.00     0.131 A 
ATOM     65  C   UNL A   1      41.878  26.876  26.732  1.00  0.00     0.055 A 
ATOM     66  C   UNL A   1      40.034  25.587  27.575  1.00  0.00     0.041 A 
ATOM     67  F   UNL A   1      39.006  26.202  29.588  1.00  0.00    -0.206 F 
ATOM     68  C   UNL A   1      40.975  25.824  26.577  1.00  0.00     0.022 A 
BRANCH  65  69
ATOM     69  S   UNL A   1      42.967  27.352  25.361  1.00  0.00     0.124 S 
ATOM     70  O   UNL A   1      43.115  26.084  24.650  1.00  0.00    -0.237 OA
ATOM     71  O   UNL A   1      42.186  28.378  24.679  1.00  0.00    -0.237 OA
ATOM     72  O   UNL A   1      44.175  27.827  26.032  1.00  0.00    -0.744 OA
ENDBRANCH  65  69
ENDBRANCH  48  62
BRANCH  49  73
ATOM     73  C   UNL A   1      39.456  33.506  36.777  1.00  0.00     0.023 A 
ATOM     74  C   UNL A   1      40.243  34.639  37.039  1.00  0.00     0.031 A 
ATOM     75  C   UNL A   1      38.446  33.176  37.699  1.00  0.00     0.131 A 
ATOM     76  C   UNL A   1      40.039  35.376  38.217  1.00  0.00     0.055 A 
ATOM     77  C   UNL A   1      38.215  33.941  38.844  1.00  0.00     0.041 A 
ATOM     78  F   UNL A   1      37.660  32.109  37.492  1.00  0.00    -0.206 F 
ATOM     79  C   UNL A   1      39.023  35.042  39.115  1.00  0.00     0.022 A 
BRANCH  76  80
ATOM     80  S   UNL A   1      41.175  36.738  38.596  1.00  0.00     0.124 S 
ATOM     81  O   UNL A   1      41.917  36.199  39.731  1.00  0.00    -0.237 OA
ATOM     82  O   UNL A   1      41.918  36.868  37.347  1.00  0.00    -0.237 OA
ATOM     83  O   UNL A   1      40.281  37.850  38.906  1.00  0.00    -0.744 OA
ENDBRANCH  76  80
ENDBRANCH  49  73
BRANCH  61  84
ATOM     84  C   UNL A   1      44.044  28.455  35.330  1.00  0.00     0.023 A 
ATOM     85  C   UNL A   1      43.886  27.412  36.258  1.00  0.00     0.031 A 
ATOM     86  C   UNL A   1      45.336  28.967  35.118  1.00  0.00     0.131 A 
ATOM     87  C   UNL A   1      44.997  26.940  36.971  1.00  0.00     0.055 A 
ATOM     88  C   UNL A   1      46.446  28.458  35.792  1.00  0.00     0.041 A 
ATOM     89  F   UNL A   1      45.540  29.963  34.240  1.00  0.00    -0.206 F 
ATOM     90  C   UNL A   1      46.279  27.445  36.732  1.00  0.00     0.022 A 
BRANCH  87  91
ATOM     91  S   UNL A   1      44.741  25.694  38.264  1.00  0.00     0.124 S 
ATOM     92  O   UNL A   1      44.069  26.469  39.302  1.00  0.00    -0.237 OA
ATOM     93  O   UNL A   1      43.922  24.699  37.581  1.00  0.00    -0.237 OA
ATOM     94  O   UNL A   1      46.096  25.259  38.595  1.00  0.00    -0.744 OA
ENDBRANCH  87  91
ENDBRANCH  61  84
ENDBRANCH  35  36
ENDBRANCH  27  30
ENDBRANCH  25  26
ENDBRANCH  24  25
ENDBRANCH   1  24
TORSDOF 18
ENDMDL
MODEL 2
REMARK VINA RESULT:     -10.9      6.451     11.823
REMARK SMILES [NH3+][C@]1(C(=O)NCCCCNC(=O)c2ccc(-c3c4nc(c(-c5cc(S(=O)(=O)[O-])ccc5F)c5ccc([nH]5)c(-c5cc(S(=O)(=O)[O-])ccc5F)c5nc(c(-c6cc(S(=O)(=O)[O-])ccc6F)c6ccc3[nH]6)C=C5)C=C4)cc2)CCC[C@@H]1CCn1cc(I)cn1
REMARK SMILES IDX 7 1 6 2 5 3 3 4 4 5 2 7 76 8 79 9 77 10 78 11 1 12 80 16
REMARK SMILES IDX 81 17 82 18 83 19 87 20 84 21 86 22 85 23 8 24 9 25 10 26
REMARK SMILES IDX 11 27 12 29 13 30 14 31 75 32 15 33 74 34 16 35 17 36 18 37
REMARK SMILES IDX 68 38 19 39 73 40 67 41 69 42 20 43 72 44 66 45 65 46 21 48
REMARK SMILES IDX 53 49 33 50 52 51 34 52 37 53 51 54 70 55 35 56 36 57 50 59
REMARK SMILES IDX 71 60 38 61 22 62 23 63 31 64 24 65 30 66 32 67 29 68 25 69
REMARK SMILES IDX 26 70 27 71 28 72 54 73 55 74 63 75 56 76 62 77 64 78 61 79
REMARK SMILES IDX 57 80 58 81 59 82 60 83 39 84 40 85 48 86 41 87 47 88 49 89
REMARK SMILES IDX 46 90 42 91 43 92 44 93 45 94
REMARK H PARENT 5 6 1 13 1 14 1 15 10 28 69 47 37 58
REMARK Flexibility Score: inf
ROOT
ATOM      1  C   UNL A   1      37.424  22.610  24.829  1.00  0.00     0.023 C 
ENDROOT
BRANCH   1   2
ATOM      2  C   UNL A   1      37.054  23.549  25.980  1.00  0.00     0.116 C 
BRANCH   2   3
ATOM      3  N   UNL A   1      35.987  22.997  26.770  1.00  0.00    -0.351 N 
ATOM      4  C   UNL A   1      34.651  23.190  26.721  1.00  0.00     0.281 C 
ATOM      5  O   UNL A   1      34.014  22.677  27.653  1.00  0.00    -0.268 OA
ATOM      6  H   UNL A   1      36.281  22.368  27.468  1.00  0.00     0.163 HD
BRANCH   4   7
ATOM      7  C   UNL A   1      33.857  23.888  25.561  1.00  0.00     0.176 C 
ATOM      8  C   UNL A   1      34.264  25.261  24.993  1.00  0.00     0.079 C 
ATOM      9  C   UNL A   1      33.912  22.926  24.317  1.00  0.00     0.062 C 
ATOM     10  C   UNL A   1      33.825  25.224  23.540  1.00  0.00     0.008 C 
ATOM     11  C   UNL A   1      34.276  23.839  23.123  1.00  0.00     0.011 C 
BRANCH   7  12
ATOM     12  N   UNL A   1      32.510  24.156  26.102  1.00  0.00    -0.345 N 
ATOM     13  H   UNL A   1      31.808  23.759  25.477  1.00  0.00     0.345 HD
ATOM     14  H   UNL A   1      32.368  25.163  26.177  1.00  0.00     0.345 HD
ATOM     15  H   UNL A   1      32.424  23.730  27.025  1.00  0.00     0.345 HD
ENDBRANCH   7  12
BRANCH   9  16
ATOM     16  C   UNL A   1      32.671  22.079  23.940  1.00  0.00     0.034 C 
BRANCH  16  17
ATOM     17  C   UNL A   1      32.176  21.043  24.962  1.00  0.00     0.145 C 
BRANCH  17  18
ATOM     18  N   UNL A   1      32.339  19.645  24.604  1.00  0.00    -0.272 N 
ATOM     19  C   UNL A   1      32.454  18.562  25.437  1.00  0.00     0.123 A 
ATOM     20  N   UNL A   1      32.404  19.305  23.302  1.00  0.00    -0.180 NA
ATOM     21  C   UNL A   1      32.840  17.526  24.625  1.00  0.00     0.051 A 
ATOM     22  C   UNL A   1      32.782  18.024  23.320  1.00  0.00     0.149 A 
ATOM     23  I   UNL A   1      33.419  15.700  25.229  1.00  0.00    -0.041 I 
ENDBRANCH  17  18
ENDBRANCH  16  17
ENDBRANCH   9  16
ENDBRANCH   4   7
ENDBRANCH   2   3
ENDBRANCH   1   2
BRANCH   1  24
ATOM     24  C   UNL A   1      37.962  21.251  25.271  1.00  0.00     0.023 C 
BRANCH  24  25
ATOM     25  C   UNL A   1      39.236  21.314  26.097  1.00  0.00     0.116 C 
BRANCH  25  26
ATOM     26  N   UNL A   1      40.032  20.096  26.019  1.00  0.00    -0.352 N 
ATOM     27  C   UNL A   1      41.394  19.974  26.132  1.00  0.00     0.251 C 
ATOM     28  H   UNL A   1      39.533  19.261  25.868  1.00  0.00     0.163 HD
ATOM     29  O   UNL A   1      41.941  18.889  25.968  1.00  0.00    -0.269 OA
BRANCH  27  30
ATOM     30  C   UNL A   1      42.173  21.192  26.404  1.00  0.00     0.039 A 
ATOM     31  C   UNL A   1      42.454  22.059  25.347  1.00  0.00     0.014 A 
ATOM     32  C   UNL A   1      42.510  21.523  27.719  1.00  0.00     0.014 A 
ATOM     33  C   UNL A   1      43.019  23.303  25.621  1.00  0.00     0.010 A 
ATOM     34  C   UNL A   1      43.003  22.789  27.995  1.00  0.00     0.010 A 
ATOM     35  C   UNL A   1      43.261  23.691  26.949  1.00  0.00    -0.014 A 
BRANCH  35  36
ATOM     36  C   UNL A   1      43.806  25.029  27.276  1.00  0.00     0.031 A 
ATOM     37  C   UNL A   1      42.895  26.066  27.866  1.00  0.00     0.074 A 
ATOM     38  C   UNL A   1      45.081  25.328  26.963  1.00  0.00     0.049 A 
ATOM     39  N   UNL A   1      43.124  27.330  28.106  1.00  0.00    -0.248 NA
ATOM     40  C   UNL A   1      41.529  25.628  28.193  1.00  0.00     0.031 C 
ATOM     41  C   UNL A   1      46.041  24.407  26.349  1.00  0.00     0.029 A 
ATOM     42  N   UNL A   1      45.787  26.495  27.102  1.00  0.00    -0.354 N 
ATOM     43  C   UNL A   1      41.925  27.843  28.589  1.00  0.00     0.074 A 
ATOM     44  C   UNL A   1      40.959  26.768  28.548  1.00  0.00     0.031 C 
ATOM     45  C   UNL A   1      47.213  25.041  26.180  1.00  0.00     0.029 A 
ATOM     46  C   UNL A   1      47.076  26.422  26.629  1.00  0.00     0.049 A 
ATOM     47  H   UNL A   1      45.406  27.310  27.503  1.00  0.00     0.167 HD
ATOM     48  C   UNL A   1      41.664  29.092  29.047  1.00  0.00     0.034 A 
ATOM     49  C   UNL A   1      48.031  27.369  26.551  1.00  0.00     0.034 A 
ATOM     50  C   UNL A   1      42.652  30.140  29.098  1.00  0.00     0.049 A 
ATOM     51  C   UNL A   1      47.717  28.756  27.056  1.00  0.00     0.074 A 
ATOM     52  C   UNL A   1      42.522  31.425  29.595  1.00  0.00     0.029 A 
ATOM     53  N   UNL A   1      43.955  30.025  28.629  1.00  0.00    -0.354 N 
ATOM     54  N   UNL A   1      46.592  29.216  27.554  1.00  0.00    -0.248 NA
ATOM     55  C   UNL A   1      48.799  29.746  26.995  1.00  0.00     0.031 C 
ATOM     56  C   UNL A   1      43.726  32.102  29.376  1.00  0.00     0.029 A 
ATOM     57  C   UNL A   1      44.632  31.222  28.803  1.00  0.00     0.049 A 
ATOM     58  H   UNL A   1      44.342  29.211  28.232  1.00  0.00     0.167 HD
ATOM     59  C   UNL A   1      46.844  30.541  27.896  1.00  0.00     0.074 A 
ATOM     60  C   UNL A   1      48.227  30.802  27.553  1.00  0.00     0.031 C 
ATOM     61  C   UNL A   1      46.011  31.457  28.451  1.00  0.00     0.034 A 
BRANCH  48  62
ATOM     62  C   UNL A   1      40.254  29.384  29.498  1.00  0.00     0.023 A 
ATOM     63  C   UNL A   1      39.922  29.481  30.861  1.00  0.00     0.031 A 
ATOM     64  C   UNL A   1      39.219  29.522  28.558  1.00  0.00     0.131 A 
ATOM     65  C   UNL A   1      38.581  29.623  31.247  1.00  0.00     0.055 A 
ATOM     66  C   UNL A   1      37.898  29.750  28.947  1.00  0.00     0.041 A 
ATOM     67  F   UNL A   1      39.471  29.418  27.244  1.00  0.00    -0.206 F 
ATOM     68  C   UNL A   1      37.569  29.784  30.299  1.00  0.00     0.022 A 
BRANCH  65  69
ATOM     69  S   UNL A   1      38.163  29.440  33.003  1.00  0.00     0.124 S 
ATOM     70  O   UNL A   1      37.387  28.201  32.993  1.00  0.00    -0.237 OA
ATOM     71  O   UNL A   1      39.476  29.366  33.633  1.00  0.00    -0.237 OA
ATOM     72  O   UNL A   1      37.393  30.646  33.299  1.00  0.00    -0.744 OA
ENDBRANCH  65  69
ENDBRANCH  48  62
BRANCH  49  73
ATOM     73  C   UNL A   1      49.366  27.052  25.968  1.00  0.00     0.023 A 
ATOM     74  C   UNL A   1      49.724  27.510  24.690  1.00  0.00     0.031 A 
ATOM     75  C   UNL A   1      50.292  26.259  26.669  1.00  0.00     0.131 A 
ATOM     76  C   UNL A   1      50.956  27.134  24.132  1.00  0.00     0.055 A 
ATOM     77  C   UNL A   1      51.538  25.930  26.129  1.00  0.00     0.041 A 
ATOM     78  F   UNL A   1      50.004  25.804  27.897  1.00  0.00    -0.206 F 
ATOM     79  C   UNL A   1      51.870  26.358  24.847  1.00  0.00     0.022 A 
BRANCH  76  80
ATOM     80  S   UNL A   1      51.316  27.616  22.420  1.00  0.00     0.124 S 
ATOM     81  O   UNL A   1      50.964  29.031  22.429  1.00  0.00    -0.237 OA
ATOM     82  O   UNL A   1      52.739  27.308  22.313  1.00  0.00    -0.237 OA
ATOM     83  O   UNL A   1      50.435  26.758  21.633  1.00  0.00    -0.744 OA
ENDBRANCH  76  80
ENDBRANCH  49  73
BRANCH  61  84
ATOM     84  C   UNL A   1      46.596  32.809  28.771  1.00  0.00     0.023 A 
ATOM     85  C   UNL A   1      46.525  33.880  27.865  1.00  0.00     0.031 A 
ATOM     86  C   UNL A   1      47.219  33.028  30.012  1.00  0.00     0.131 A 
ATOM     87  C   UNL A   1      47.104  35.113  28.197  1.00  0.00     0.055 A 
ATOM     88  C   UNL A   1      47.747  34.271  30.359  1.00  0.00     0.041 A 
ATOM     89  F   UNL A   1      47.311  32.036  30.914  1.00  0.00    -0.206 F 
ATOM     90  C   UNL A   1      47.700  35.320  29.445  1.00  0.00     0.022 A 
BRANCH  87  91
ATOM     91  S   UNL A   1      47.123  36.433  26.953  1.00  0.00     0.124 S 
ATOM     92  O   UNL A   1      47.780  37.519  27.674  1.00  0.00    -0.237 OA
ATOM     93  O   UNL A   1      47.892  35.831  25.870  1.00  0.00    -0.237 OA
ATOM     94  O   UNL A   1      45.707  36.650  26.662  1.00  0.00    -0.744 OA
ENDBRANCH  87  91
ENDBRANCH  61  84
ENDBRANCH  35  36
ENDBRANCH  27  30
ENDBRANCH  25  26
ENDBRANCH  24  25
ENDBRANCH   1  24
TORSDOF 18
ENDMDL
MODEL 3
REMARK VINA RESULT:     -10.9      3.351      4.304
REMARK SMILES [NH3+][C@]1(C(=O)NCCCCNC(=O)c2ccc(-c3c4nc(c(-c5cc(S(=O)(=O)[O-])ccc5F)c5ccc([nH]5)c(-c5cc(S(=O)(=O)[O-])ccc5F)c5nc(c(-c6cc(S(=O)(=O)[O-])ccc6F)c6ccc3[nH]6)C=C5)C=C4)cc2)CCC[C@@H]1CCn1cc(I)cn1
REMARK SMILES IDX 7 1 6 2 5 3 3 4 4 5 2 7 76 8 79 9 77 10 78 11 1 12 80 16
REMARK SMILES IDX 81 17 82 18 83 19 87 20 84 21 86 22 85 23 8 24 9 25 10 26
REMARK SMILES IDX 11 27 12 29 13 30 14 31 75 32 15 33 74 34 16 35 17 36 18 37
REMARK SMILES IDX 68 38 19 39 73 40 67 41 69 42 20 43 72 44 66 45 65 46 21 48
REMARK SMILES IDX 53 49 33 50 52 51 34 52 37 53 51 54 70 55 35 56 36 57 50 59
REMARK SMILES IDX 71 60 38 61 22 62 23 63 31 64 24 65 30 66 32 67 29 68 25 69
REMARK SMILES IDX 26 70 27 71 28 72 54 73 55 74 63 75 56 76 62 77 64 78 61 79
REMARK SMILES IDX 57 80 58 81 59 82 60 83 39 84 40 85 48 86 41 87 47 88 49 89
REMARK SMILES IDX 46 90 42 91 43 92 44 93 45 94
REMARK H PARENT 5 6 1 13 1 14 1 15 10 28 69 47 37 58
REMARK Flexibility Score: inf
ROOT
ATOM      1  C   UNL A   1      32.369  29.134  24.667  1.00  0.00     0.023 C 
ENDROOT
BRANCH   1   2
ATOM      2  C   UNL A   1      31.548  27.939  24.176  1.00  0.00     0.116 C 
BRANCH   2   3
ATOM      3  N   UNL A   1      30.995  27.207  25.284  1.00  0.00    -0.351 N 
ATOM      4  C   UNL A   1      30.812  25.882  25.473  1.00  0.00     0.281 C 
ATOM      5  O   UNL A   1      30.160  25.584  26.485  1.00  0.00    -0.268 OA
ATOM      6  H   UNL A   1      30.698  27.769  26.036  1.00  0.00     0.163 HD
BRANCH   4   7
ATOM      7  C   UNL A   1      31.433  24.728  24.610  1.00  0.00     0.176 C 
ATOM      8  C   UNL A   1      31.437  24.760  23.070  1.00  0.00     0.079 C 
ATOM      9  C   UNL A   1      32.955  24.627  24.996  1.00  0.00     0.062 C 
ATOM     10  C   UNL A   1      32.683  23.990  22.670  1.00  0.00     0.008 C 
ATOM     11  C   UNL A   1      33.704  24.538  23.646  1.00  0.00     0.011 C 
BRANCH   7  12
ATOM     12  N   UNL A   1      30.620  23.530  24.900  1.00  0.00    -0.345 N 
ATOM     13  H   UNL A   1      29.799  23.522  24.295  1.00  0.00     0.345 HD
ATOM     14  H   UNL A   1      30.323  23.548  25.875  1.00  0.00     0.345 HD
ATOM     15  H   UNL A   1      31.177  22.693  24.729  1.00  0.00     0.345 HD
ENDBRANCH   7  12
BRANCH   9  16
ATOM     16  C   UNL A   1      33.445  23.482  25.917  1.00  0.00     0.034 C 
BRANCH  16  17
ATOM     17  C   UNL A   1      34.402  22.441  25.316  1.00  0.00     0.145 C 
BRANCH  17  18
ATOM     18  N   UNL A   1      33.866  21.108  25.103  1.00  0.00    -0.272 N 
ATOM     19  C   UNL A   1      34.552  19.941  24.892  1.00  0.00     0.123 A 
ATOM     20  N   UNL A   1      32.530  20.934  25.087  1.00  0.00    -0.180 NA
ATOM     21  C   UNL A   1      33.601  19.034  24.498  1.00  0.00     0.051 A 
ATOM     22  C   UNL A   1      32.372  19.683  24.647  1.00  0.00     0.149 A 
ATOM     23  I   UNL A   1      33.946  17.183  23.799  1.00  0.00    -0.041 I 
ENDBRANCH  17  18
ENDBRANCH  16  17
ENDBRANCH   9  16
ENDBRANCH   4   7
ENDBRANCH   2   3
ENDBRANCH   1   2
BRANCH   1  24
ATOM     24  C   UNL A   1      31.579  30.145  25.495  1.00  0.00     0.023 C 
BRANCH  24  25
ATOM     25  C   UNL A   1      32.319  30.685  26.708  1.00  0.00     0.116 C 
BRANCH  25  26
ATOM     26  N   UNL A   1      32.099  32.108  26.930  1.00  0.00    -0.352 N 
ATOM     27  C   UNL A   1      32.930  32.997  27.563  1.00  0.00     0.251 C 
ATOM     28  H   UNL A   1      31.253  32.475  26.584  1.00  0.00     0.163 HD
ATOM     29  O   UNL A   1      32.580  34.158  27.748  1.00  0.00    -0.269 OA
BRANCH  27  30
ATOM     30  C   UNL A   1      34.224  32.499  28.054  1.00  0.00     0.039 A 
ATOM     31  C   UNL A   1      35.248  33.415  28.297  1.00  0.00     0.014 A 
ATOM     32  C   UNL A   1      34.369  31.149  28.385  1.00  0.00     0.014 A 
ATOM     33  C   UNL A   1      36.407  32.985  28.940  1.00  0.00     0.010 A 
ATOM     34  C   UNL A   1      35.490  30.741  29.091  1.00  0.00     0.010 A 
ATOM     35  C   UNL A   1      36.518  31.654  29.377  1.00  0.00    -0.014 A 
BRANCH  35  36
ATOM     36  C   UNL A   1      37.712  31.181  30.116  1.00  0.00     0.031 A 
ATOM     37  C   UNL A   1      38.632  30.191  29.463  1.00  0.00     0.074 A 
ATOM     38  C   UNL A   1      37.911  31.574  31.389  1.00  0.00     0.049 A 
ATOM     39  N   UNL A   1      39.652  29.550  29.968  1.00  0.00    -0.248 NA
ATOM     40  C   UNL A   1      38.338  29.849  28.062  1.00  0.00     0.031 C 
ATOM     41  C   UNL A   1      37.054  32.501  32.133  1.00  0.00     0.029 A 
ATOM     42  N   UNL A   1      38.886  31.231  32.289  1.00  0.00    -0.354 N 
ATOM     43  C   UNL A   1      40.107  28.711  28.956  1.00  0.00     0.074 A 
ATOM     44  C   UNL A   1      39.212  28.883  27.833  1.00  0.00     0.031 C 
ATOM     45  C   UNL A   1      37.553  32.664  33.369  1.00  0.00     0.029 A 
ATOM     46  C   UNL A   1      38.734  31.820  33.522  1.00  0.00     0.049 A 
ATOM     47  H   UNL A   1      39.627  30.619  32.073  1.00  0.00     0.167 HD
ATOM     48  C   UNL A   1      41.187  27.892  28.959  1.00  0.00     0.034 A 
ATOM     49  C   UNL A   1      39.456  31.680  34.651  1.00  0.00     0.034 A 
ATOM     50  C   UNL A   1      42.076  27.757  30.085  1.00  0.00     0.049 A 
ATOM     51  C   UNL A   1      40.647  30.755  34.636  1.00  0.00     0.074 A 
ATOM     52  C   UNL A   1      43.233  27.005  30.185  1.00  0.00     0.029 A 
ATOM     53  N   UNL A   1      41.902  28.385  31.313  1.00  0.00    -0.354 N 
ATOM     54  N   UNL A   1      41.095  30.002  33.657  1.00  0.00    -0.248 NA
ATOM     55  C   UNL A   1      41.434  30.666  35.872  1.00  0.00     0.031 C 
ATOM     56  C   UNL A   1      43.727  27.134  31.488  1.00  0.00     0.029 A 
ATOM     57  C   UNL A   1      42.918  28.020  32.182  1.00  0.00     0.049 A 
ATOM     58  H   UNL A   1      41.167  29.001  31.532  1.00  0.00     0.167 HD
ATOM     59  C   UNL A   1      42.235  29.376  34.151  1.00  0.00     0.074 A 
ATOM     60  C   UNL A   1      42.408  29.844  35.511  1.00  0.00     0.031 C 
ATOM     61  C   UNL A   1      43.068  28.500  33.535  1.00  0.00     0.034 A 
BRANCH  48  62
ATOM     62  C   UNL A   1      41.437  27.072  27.718  1.00  0.00     0.023 A 
ATOM     63  C   UNL A   1      41.144  25.698  27.670  1.00  0.00     0.031 A 
ATOM     64  C   UNL A   1      42.018  27.660  26.581  1.00  0.00     0.131 A 
ATOM     65  C   UNL A   1      41.510  24.941  26.547  1.00  0.00     0.055 A 
ATOM     66  C   UNL A   1      42.301  26.918  25.432  1.00  0.00     0.041 A 
ATOM     67  F   UNL A   1      42.341  28.963  26.574  1.00  0.00    -0.206 F 
ATOM     68  C   UNL A   1      42.063  25.546  25.417  1.00  0.00     0.022 A 
BRANCH  65  69
ATOM     69  S   UNL A   1      41.392  23.134  26.647  1.00  0.00     0.124 S 
ATOM     70  O   UNL A   1      41.974  22.873  27.961  1.00  0.00    -0.237 OA
ATOM     71  O   UNL A   1      39.957  22.904  26.527  1.00  0.00    -0.237 OA
ATOM     72  O   UNL A   1      42.195  22.676  25.515  1.00  0.00    -0.744 OA
ENDBRANCH  65  69
ENDBRANCH  48  62
BRANCH  49  73
ATOM     73  C   UNL A   1      39.076  32.418  35.889  1.00  0.00     0.023 A 
ATOM     74  C   UNL A   1      38.332  31.794  36.903  1.00  0.00     0.031 A 
ATOM     75  C   UNL A   1      39.424  33.769  36.063  1.00  0.00     0.131 A 
ATOM     76  C   UNL A   1      37.921  32.531  38.025  1.00  0.00     0.055 A 
ATOM     77  C   UNL A   1      39.056  34.485  37.204  1.00  0.00     0.041 A 
ATOM     78  F   UNL A   1      40.142  34.411  35.128  1.00  0.00    -0.206 F 
ATOM     79  C   UNL A   1      38.288  33.868  38.188  1.00  0.00     0.022 A 
BRANCH  76  80
ATOM     80  S   UNL A   1      36.833  31.733  39.236  1.00  0.00     0.124 S 
ATOM     81  O   UNL A   1      35.596  32.488  39.068  1.00  0.00    -0.237 OA
ATOM     82  O   UNL A   1      36.813  30.353  38.762  1.00  0.00    -0.237 OA
ATOM     83  O   UNL A   1      37.524  31.943  40.506  1.00  0.00    -0.744 OA
ENDBRANCH  76  80
ENDBRANCH  49  73
BRANCH  61  84
ATOM     84  C   UNL A   1      44.272  28.037  34.314  1.00  0.00     0.023 A 
ATOM     85  C   UNL A   1      44.249  26.864  35.088  1.00  0.00     0.031 A 
ATOM     86  C   UNL A   1      45.466  28.778  34.265  1.00  0.00     0.131 A 
ATOM     87  C   UNL A   1      45.387  26.487  35.814  1.00  0.00     0.055 A 
ATOM     88  C   UNL A   1      46.611  28.369  34.947  1.00  0.00     0.041 A 
ATOM     89  F   UNL A   1      45.541  29.905  33.538  1.00  0.00    -0.206 F 
ATOM     90  C   UNL A   1      46.573  27.222  35.735  1.00  0.00     0.022 A 
BRANCH  87  91
ATOM     91  S   UNL A   1      45.283  25.049  36.914  1.00  0.00     0.124 S 
ATOM     92  O   UNL A   1      46.319  25.345  37.899  1.00  0.00    -0.237 OA
ATOM     93  O   UNL A   1      43.907  25.121  37.395  1.00  0.00    -0.237 OA
ATOM     94  O   UNL A   1      45.572  23.919  36.032  1.00  0.00    -0.744 OA
ENDBRANCH  87  91
ENDBRANCH  61  84
ENDBRANCH  35  36
ENDBRANCH  27  30
ENDBRANCH  25  26
ENDBRANCH  24  25
ENDBRANCH   1  24
TORSDOF 18
ENDMDL
