MODEL 1
REMARK VINA RESULT:     -12.3      0.000      0.000
REMARK SMILES CC(C)n1ccc(C[C@@H](C(=O)NCCCCNC(=O)c2ccc(-c3c4nc(c(-c5cc(S(=O)(=O)[O-])ccc5F)c5ccc([nH]5)c(-c5cc(S(=O)(=O)[O-])ccc5F)c5nc(c(-c6cc(S(=O)(=O)[O-])ccc6F)c6ccc3[nH]6)C=C5)C=C4)cc2)c2cccc(Cl)c2)n1
REMARK SMILES IDX 14 1 13 2 12 3 10 4 11 5 9 7 8 8 7 9 4 10 5 11 90 12 6 13
REMARK SMILES IDX 2 14 1 15 3 16 83 17 84 18 89 19 85 20 87 21 86 22 88 23
REMARK SMILES IDX 15 24 16 25 17 26 18 27 19 29 20 30 21 31 82 32 22 33 81 34
REMARK SMILES IDX 23 35 24 36 25 37 75 38 26 39 80 40 74 41 76 42 27 43 79 44
REMARK SMILES IDX 73 45 72 46 28 48 60 49 40 50 59 51 41 52 44 53 58 54 77 55
REMARK SMILES IDX 42 56 43 57 57 59 78 60 45 61 29 62 30 63 38 64 31 65 37 66
REMARK SMILES IDX 39 67 36 68 32 69 33 70 34 71 35 72 61 73 62 74 70 75 63 76
REMARK SMILES IDX 69 77 71 78 68 79 64 80 65 81 66 82 67 83 46 84 47 85 55 86
REMARK SMILES IDX 48 87 54 88 56 89 53 90 49 91 50 92 51 93 52 94
REMARK H PARENT 12 6 17 28 76 47 44 58
REMARK Flexibility Score: inf
ROOT
ATOM      1  C   UNL A   1      36.762  22.543  25.548  1.00  0.00     0.023 C 
ENDROOT
BRANCH   1   2
ATOM      2  C   UNL A   1      36.338  22.035  24.160  1.00  0.00     0.116 C 
BRANCH   2   3
ATOM      3  N   UNL A   1      35.341  22.925  23.585  1.00  0.00    -0.356 N 
ATOM      4  C   UNL A   1      33.984  22.736  23.662  1.00  0.00     0.227 C 
ATOM      5  O   UNL A   1      33.362  22.788  22.596  1.00  0.00    -0.274 OA
ATOM      6  H   UNL A   1      35.664  23.722  23.107  1.00  0.00     0.163 HD
BRANCH   4   7
ATOM      7  C   UNL A   1      33.287  22.514  25.027  1.00  0.00     0.114 C 
BRANCH   7   8
ATOM      8  C   UNL A   1      32.134  21.488  24.902  1.00  0.00     0.076 C 
BRANCH   8   9
ATOM      9  C   UNL A   1      32.451  20.062  24.604  1.00  0.00     0.064 A 
ATOM     10  N   UNL A   1      32.926  18.004  24.901  1.00  0.00    -0.270 N 
ATOM     11  C   UNL A   1      32.710  18.136  23.553  1.00  0.00     0.109 A 
ATOM     12  N   UNL A   1      32.779  19.182  25.561  1.00  0.00    -0.178 NA
ATOM     13  C   UNL A   1      32.359  19.443  23.338  1.00  0.00     0.045 A 
BRANCH  10  14
ATOM     14  C   UNL A   1      33.426  16.802  25.575  1.00  0.00     0.101 C 
ATOM     15  C   UNL A   1      32.374  15.702  25.748  1.00  0.00     0.033 C 
ATOM     16  C   UNL A   1      34.656  16.220  24.867  1.00  0.00     0.033 C 
ENDBRANCH  10  14
ENDBRANCH   8   9
ENDBRANCH   7   8
BRANCH   7  17
ATOM     17  C   UNL A   1      32.629  23.812  25.605  1.00  0.00    -0.034 A 
ATOM     18  C   UNL A   1      31.220  23.902  25.652  1.00  0.00     0.004 A 
ATOM     19  C   UNL A   1      33.353  24.969  25.951  1.00  0.00     0.025 A 
ATOM     20  C   UNL A   1      30.572  25.118  25.902  1.00  0.00     0.002 A 
ATOM     21  C   UNL A   1      32.700  26.181  26.208  1.00  0.00     0.041 A 
ATOM     22  C   UNL A   1      31.314  26.266  26.159  1.00  0.00     0.020 A 
ATOM     23  Cl  UNL A   1      33.621  27.601  26.536  1.00  0.00    -0.084 Cl
ENDBRANCH   7  17
ENDBRANCH   4   7
ENDBRANCH   2   3
ENDBRANCH   1   2
BRANCH   1  24
ATOM     24  C   UNL A   1      37.402  23.922  25.686  1.00  0.00     0.023 C 
BRANCH  24  25
ATOM     25  C   UNL A   1      38.480  23.991  26.750  1.00  0.00     0.116 C 
BRANCH  25  26
ATOM     26  N   UNL A   1      39.803  24.371  26.232  1.00  0.00    -0.352 N 
ATOM     27  C   UNL A   1      40.389  25.627  26.299  1.00  0.00     0.251 C 
ATOM     28  H   UNL A   1      40.327  23.662  25.795  1.00  0.00     0.163 HD
ATOM     29  O   UNL A   1      41.324  25.945  25.573  1.00  0.00    -0.269 OA
BRANCH  27  30
ATOM     30  C   UNL A   1      39.846  26.550  27.308  1.00  0.00     0.039 A 
ATOM     31  C   UNL A   1      39.582  26.153  28.620  1.00  0.00     0.014 A 
ATOM     32  C   UNL A   1      39.871  27.889  26.942  1.00  0.00     0.014 A 
ATOM     33  C   UNL A   1      39.483  27.142  29.601  1.00  0.00     0.010 A 
ATOM     34  C   UNL A   1      39.985  28.826  27.934  1.00  0.00     0.010 A 
ATOM     35  C   UNL A   1      39.745  28.481  29.260  1.00  0.00    -0.014 A 
BRANCH  35  36
ATOM     36  C   UNL A   1      39.924  29.518  30.279  1.00  0.00     0.031 A 
ATOM     37  C   UNL A   1      38.705  30.321  30.589  1.00  0.00     0.074 A 
ATOM     38  C   UNL A   1      41.031  29.613  31.051  1.00  0.00     0.049 A 
ATOM     39  N   UNL A   1      38.467  31.543  30.247  1.00  0.00    -0.248 NA
ATOM     40  C   UNL A   1      37.548  29.654  31.209  1.00  0.00     0.031 C 
ATOM     41  C   UNL A   1      42.208  28.733  31.091  1.00  0.00     0.029 A 
ATOM     42  N   UNL A   1      41.294  30.483  32.062  1.00  0.00    -0.354 N 
ATOM     43  C   UNL A   1      37.249  31.885  30.829  1.00  0.00     0.074 A 
ATOM     44  C   UNL A   1      36.643  30.638  31.209  1.00  0.00     0.031 C 
ATOM     45  C   UNL A   1      42.920  28.960  32.216  1.00  0.00     0.029 A 
ATOM     46  C   UNL A   1      42.378  30.137  32.866  1.00  0.00     0.049 A 
ATOM     47  H   UNL A   1      40.760  31.295  32.215  1.00  0.00     0.167 HD
ATOM     48  C   UNL A   1      36.968  33.181  31.155  1.00  0.00     0.034 A 
ATOM     49  C   UNL A   1      42.830  30.780  33.975  1.00  0.00     0.034 A 
ATOM     50  C   UNL A   1      37.920  34.079  30.533  1.00  0.00     0.049 A 
ATOM     51  C   UNL A   1      42.339  32.176  33.867  1.00  0.00     0.074 A 
ATOM     52  C   UNL A   1      38.291  34.340  29.226  1.00  0.00     0.029 A 
ATOM     53  N   UNL A   1      38.955  34.559  31.306  1.00  0.00    -0.354 N 
ATOM     54  N   UNL A   1      42.719  32.988  32.917  1.00  0.00    -0.248 NA
ATOM     55  C   UNL A   1      41.056  32.497  34.475  1.00  0.00     0.031 C 
ATOM     56  C   UNL A   1      39.714  34.448  29.271  1.00  0.00     0.029 A 
ATOM     57  C   UNL A   1      40.120  34.359  30.605  1.00  0.00     0.049 A 
ATOM     58  H   UNL A   1      38.874  34.969  32.199  1.00  0.00     0.167 HD
ATOM     59  C   UNL A   1      41.560  33.628  32.504  1.00  0.00     0.074 A 
ATOM     60  C   UNL A   1      40.587  33.357  33.565  1.00  0.00     0.031 C 
ATOM     61  C   UNL A   1      41.406  34.069  31.218  1.00  0.00     0.034 A 
BRANCH  48  62
ATOM     62  C   UNL A   1      36.090  33.639  32.305  1.00  0.00     0.023 A 
ATOM     63  C   UNL A   1      35.100  34.602  32.012  1.00  0.00     0.031 A 
ATOM     64  C   UNL A   1      36.336  33.420  33.678  1.00  0.00     0.131 A 
ATOM     65  C   UNL A   1      34.507  35.369  33.030  1.00  0.00     0.055 A 
ATOM     66  C   UNL A   1      35.694  34.140  34.692  1.00  0.00     0.041 A 
ATOM     67  F   UNL A   1      37.265  32.568  34.121  1.00  0.00    -0.206 F 
ATOM     68  C   UNL A   1      34.801  35.147  34.372  1.00  0.00     0.022 A 
BRANCH  65  69
ATOM     69  S   UNL A   1      33.489  36.789  32.553  1.00  0.00     0.124 S 
ATOM     70  O   UNL A   1      32.456  36.770  33.583  1.00  0.00    -0.237 OA
ATOM     71  O   UNL A   1      34.450  37.884  32.622  1.00  0.00    -0.237 OA
ATOM     72  O   UNL A   1      33.035  36.443  31.207  1.00  0.00    -0.744 OA
ENDBRANCH  65  69
ENDBRANCH  48  62
BRANCH  49  73
ATOM     73  C   UNL A   1      43.335  30.159  35.231  1.00  0.00     0.023 A 
ATOM     74  C   UNL A   1      42.913  28.895  35.696  1.00  0.00     0.031 A 
ATOM     75  C   UNL A   1      44.457  30.728  35.880  1.00  0.00     0.131 A 
ATOM     76  C   UNL A   1      43.606  28.256  36.756  1.00  0.00     0.055 A 
ATOM     77  C   UNL A   1      45.138  30.092  36.919  1.00  0.00     0.041 A 
ATOM     78  F   UNL A   1      44.980  31.893  35.463  1.00  0.00    -0.206 F 
ATOM     79  C   UNL A   1      44.722  28.845  37.355  1.00  0.00     0.022 A 
BRANCH  76  80
ATOM     80  S   UNL A   1      43.114  26.591  37.322  1.00  0.00     0.124 S 
ATOM     81  O   UNL A   1      43.759  25.726  36.340  1.00  0.00    -0.237 OA
ATOM     82  O   UNL A   1      43.652  26.548  38.677  1.00  0.00    -0.237 OA
ATOM     83  O   UNL A   1      41.653  26.622  37.245  1.00  0.00    -0.744 OA
ENDBRANCH  76  80
ENDBRANCH  49  73
BRANCH  61  84
ATOM     84  C   UNL A   1      42.620  34.082  30.304  1.00  0.00     0.023 A 
ATOM     85  C   UNL A   1      42.981  33.048  29.407  1.00  0.00     0.031 A 
ATOM     86  C   UNL A   1      43.373  35.270  30.257  1.00  0.00     0.131 A 
ATOM     87  C   UNL A   1      44.064  33.227  28.519  1.00  0.00     0.055 A 
ATOM     88  C   UNL A   1      44.428  35.451  29.363  1.00  0.00     0.041 A 
ATOM     89  F   UNL A   1      43.068  36.300  31.064  1.00  0.00    -0.206 F 
ATOM     90  C   UNL A   1      44.781  34.427  28.493  1.00  0.00     0.022 A 
BRANCH  87  91
ATOM     91  S   UNL A   1      44.582  31.891  27.387  1.00  0.00     0.124 S 
ATOM     92  O   UNL A   1      44.152  32.367  26.076  1.00  0.00    -0.237 OA
ATOM     93  O   UNL A   1      46.024  31.831  27.602  1.00  0.00    -0.237 OA
ATOM     94  O   UNL A   1      43.847  30.724  27.879  1.00  0.00    -0.744 OA
ENDBRANCH  87  91
ENDBRANCH  61  84
ENDBRANCH  35  36
ENDBRANCH  27  30
ENDBRANCH  25  26
ENDBRANCH  24  25
ENDBRANCH   1  24
TORSDOF 18
ENDMDL
MODEL 2
REMARK VINA RESULT:     -12.1      4.935     10.618
REMARK SMILES CC(C)n1ccc(C[C@@H](C(=O)NCCCCNC(=O)c2ccc(-c3c4nc(c(-c5cc(S(=O)(=O)[O-])ccc5F)c5ccc([nH]5)c(-c5cc(S(=O)(=O)[O-])ccc5F)c5nc(c(-c6cc(S(=O)(=O)[O-])ccc6F)c6ccc3[nH]6)C=C5)C=C4)cc2)c2cccc(Cl)c2)n1
REMARK SMILES IDX 14 1 13 2 12 3 10 4 11 5 9 7 8 8 7 9 4 10 5 11 90 12 6 13
REMARK SMILES IDX 2 14 1 15 3 16 83 17 84 18 89 19 85 20 87 21 86 22 88 23
REMARK SMILES IDX 15 24 16 25 17 26 18 27 19 29 20 30 21 31 82 32 22 33 81 34
REMARK SMILES IDX 23 35 24 36 25 37 75 38 26 39 80 40 74 41 76 42 27 43 79 44
REMARK SMILES IDX 73 45 72 46 28 48 60 49 40 50 59 51 41 52 44 53 58 54 77 55
REMARK SMILES IDX 42 56 43 57 57 59 78 60 45 61 29 62 30 63 38 64 31 65 37 66
REMARK SMILES IDX 39 67 36 68 32 69 33 70 34 71 35 72 61 73 62 74 70 75 63 76
REMARK SMILES IDX 69 77 71 78 68 79 64 80 65 81 66 82 67 83 46 84 47 85 55 86
REMARK SMILES IDX 48 87 54 88 56 89 53 90 49 91 50 92 51 93 52 94
REMARK H PARENT 12 6 17 28 76 47 44 58
REMARK Flexibility Score: inf
ROOT
ATOM      1  C   UNL A   1      32.715  28.738  27.529  1.00  0.00     0.023 C 
ENDROOT
BRANCH   1   2
ATOM      2  C   UNL A   1      31.700  28.051  26.601  1.00  0.00     0.116 C 
BRANCH   2   3
ATOM      3  N   UNL A   1      31.592  26.640  26.934  1.00  0.00    -0.356 N 
ATOM      4  C   UNL A   1      31.250  25.649  26.048  1.00  0.00     0.227 C 
ATOM      5  O   UNL A   1      30.336  24.894  26.395  1.00  0.00    -0.274 OA
ATOM      6  H   UNL A   1      31.780  26.375  27.863  1.00  0.00     0.163 HD
BRANCH   4   7
ATOM      7  C   UNL A   1      32.011  25.480  24.710  1.00  0.00     0.114 C 
BRANCH   7   8
ATOM      8  C   UNL A   1      31.054  25.627  23.502  1.00  0.00     0.076 C 
BRANCH   8   9
ATOM      9  C   UNL A   1      30.510  26.971  23.158  1.00  0.00     0.064 A 
ATOM     10  N   UNL A   1      29.135  28.588  22.940  1.00  0.00    -0.270 N 
ATOM     11  C   UNL A   1      30.357  29.100  22.583  1.00  0.00     0.109 A 
ATOM     12  N   UNL A   1      29.210  27.277  23.288  1.00  0.00    -0.178 NA
ATOM     13  C   UNL A   1      31.269  28.092  22.756  1.00  0.00     0.045 A 
BRANCH  10  14
ATOM     14  C   UNL A   1      27.848  29.278  22.813  1.00  0.00     0.101 C 
ATOM     15  C   UNL A   1      26.667  28.509  23.414  1.00  0.00     0.033 C 
ATOM     16  C   UNL A   1      27.893  30.689  23.413  1.00  0.00     0.033 C 
ENDBRANCH  10  14
ENDBRANCH   8   9
ENDBRANCH   7   8
BRANCH   7  17
ATOM     17  C   UNL A   1      32.672  24.069  24.547  1.00  0.00    -0.034 A 
ATOM     18  C   UNL A   1      32.362  23.296  23.407  1.00  0.00     0.004 A 
ATOM     19  C   UNL A   1      33.451  23.450  25.544  1.00  0.00     0.025 A 
ATOM     20  C   UNL A   1      32.700  21.939  23.327  1.00  0.00     0.002 A 
ATOM     21  C   UNL A   1      33.793  22.095  25.457  1.00  0.00     0.041 A 
ATOM     22  C   UNL A   1      33.398  21.331  24.366  1.00  0.00     0.020 A 
ATOM     23  Cl  UNL A   1      34.666  21.345  26.741  1.00  0.00    -0.084 Cl
ENDBRANCH   7  17
ENDBRANCH   4   7
ENDBRANCH   2   3
ENDBRANCH   1   2
BRANCH   1  24
ATOM     24  C   UNL A   1      33.779  29.660  26.937  1.00  0.00     0.023 C 
BRANCH  24  25
ATOM     25  C   UNL A   1      35.181  29.370  27.432  1.00  0.00     0.116 C 
BRANCH  25  26
ATOM     26  N   UNL A   1      35.520  30.053  28.691  1.00  0.00    -0.352 N 
ATOM     27  C   UNL A   1      36.602  29.779  29.516  1.00  0.00     0.251 C 
ATOM     28  H   UNL A   1      34.920  30.779  28.975  1.00  0.00     0.163 HD
ATOM     29  O   UNL A   1      36.635  30.150  30.684  1.00  0.00    -0.269 OA
BRANCH  27  30
ATOM     30  C   UNL A   1      37.720  29.040  28.907  1.00  0.00     0.039 A 
ATOM     31  C   UNL A   1      38.431  29.531  27.811  1.00  0.00     0.014 A 
ATOM     32  C   UNL A   1      38.184  27.969  29.659  1.00  0.00     0.014 A 
ATOM     33  C   UNL A   1      39.703  29.010  27.565  1.00  0.00     0.010 A 
ATOM     34  C   UNL A   1      39.503  27.621  29.539  1.00  0.00     0.010 A 
ATOM     35  C   UNL A   1      40.261  28.092  28.472  1.00  0.00    -0.014 A 
BRANCH  35  36
ATOM     36  C   UNL A   1      41.676  27.718  28.423  1.00  0.00     0.031 A 
ATOM     37  C   UNL A   1      41.990  26.524  27.586  1.00  0.00     0.074 A 
ATOM     38  C   UNL A   1      42.666  28.505  28.905  1.00  0.00     0.049 A 
ATOM     39  N   UNL A   1      42.312  25.343  27.998  1.00  0.00    -0.248 NA
ATOM     40  C   UNL A   1      41.769  26.592  26.132  1.00  0.00     0.031 C 
ATOM     41  C   UNL A   1      42.574  29.848  29.499  1.00  0.00     0.029 A 
ATOM     42  N   UNL A   1      44.011  28.304  28.869  1.00  0.00    -0.354 N 
ATOM     43  C   UNL A   1      42.590  24.590  26.861  1.00  0.00     0.074 A 
ATOM     44  C   UNL A   1      42.031  25.334  25.764  1.00  0.00     0.031 C 
ATOM     45  C   UNL A   1      43.793  30.425  29.531  1.00  0.00     0.029 A 
ATOM     46  C   UNL A   1      44.779  29.428  29.166  1.00  0.00     0.049 A 
ATOM     47  H   UNL A   1      44.410  27.432  28.650  1.00  0.00     0.167 HD
ATOM     48  C   UNL A   1      43.463  23.542  26.909  1.00  0.00     0.034 A 
ATOM     49  C   UNL A   1      46.134  29.537  29.147  1.00  0.00     0.034 A 
ATOM     50  C   UNL A   1      43.746  23.181  28.285  1.00  0.00     0.049 A 
ATOM     51  C   UNL A   1      46.658  28.157  29.298  1.00  0.00     0.074 A 
ATOM     52  C   UNL A   1      42.972  22.771  29.355  1.00  0.00     0.029 A 
ATOM     53  N   UNL A   1      44.924  23.633  28.841  1.00  0.00    -0.354 N 
ATOM     54  N   UNL A   1      46.465  27.441  30.374  1.00  0.00    -0.248 NA
ATOM     55  C   UNL A   1      46.925  27.393  28.089  1.00  0.00     0.031 C 
ATOM     56  C   UNL A   1      43.492  23.491  30.472  1.00  0.00     0.029 A 
ATOM     57  C   UNL A   1      44.614  24.209  30.049  1.00  0.00     0.049 A 
ATOM     58  H   UNL A   1      45.822  23.557  28.444  1.00  0.00     0.167 HD
ATOM     59  C   UNL A   1      46.140  26.175  29.910  1.00  0.00     0.074 A 
ATOM     60  C   UNL A   1      46.535  26.181  28.500  1.00  0.00     0.031 C 
ATOM     61  C   UNL A   1      45.323  25.341  30.623  1.00  0.00     0.034 A 
BRANCH  48  62
ATOM     62  C   UNL A   1      44.351  23.069  25.774  1.00  0.00     0.023 A 
ATOM     63  C   UNL A   1      44.435  21.676  25.562  1.00  0.00     0.031 A 
ATOM     64  C   UNL A   1      45.313  23.845  25.092  1.00  0.00     0.131 A 
ATOM     65  C   UNL A   1      45.491  21.114  24.823  1.00  0.00     0.055 A 
ATOM     66  C   UNL A   1      46.324  23.285  24.302  1.00  0.00     0.041 A 
ATOM     67  F   UNL A   1      45.392  25.174  25.213  1.00  0.00    -0.206 F 
ATOM     68  C   UNL A   1      46.441  21.911  24.194  1.00  0.00     0.022 A 
BRANCH  65  69
ATOM     69  S   UNL A   1      45.704  19.315  24.863  1.00  0.00     0.124 S 
ATOM     70  O   UNL A   1      47.001  19.188  25.520  1.00  0.00    -0.237 OA
ATOM     71  O   UNL A   1      44.543  18.892  25.639  1.00  0.00    -0.237 OA
ATOM     72  O   UNL A   1      45.681  18.940  23.451  1.00  0.00    -0.744 OA
ENDBRANCH  65  69
ENDBRANCH  48  62
BRANCH  49  73
ATOM     73  C   UNL A   1      46.936  30.694  28.661  1.00  0.00     0.023 A 
ATOM     74  C   UNL A   1      47.783  31.457  29.494  1.00  0.00     0.031 A 
ATOM     75  C   UNL A   1      47.057  30.913  27.268  1.00  0.00     0.131 A 
ATOM     76  C   UNL A   1      48.700  32.379  28.928  1.00  0.00     0.055 A 
ATOM     77  C   UNL A   1      47.965  31.819  26.716  1.00  0.00     0.041 A 
ATOM     78  F   UNL A   1      46.349  30.185  26.388  1.00  0.00    -0.206 F 
ATOM     79  C   UNL A   1      48.801  32.549  27.545  1.00  0.00     0.022 A 
BRANCH  76  80
ATOM     80  S   UNL A   1      49.849  33.321  29.988  1.00  0.00     0.124 S 
ATOM     81  O   UNL A   1      51.023  32.457  30.019  1.00  0.00    -0.237 OA
ATOM     82  O   UNL A   1      49.986  34.579  29.263  1.00  0.00    -0.237 OA
ATOM     83  O   UNL A   1      49.132  33.426  31.261  1.00  0.00    -0.744 OA
ENDBRANCH  76  80
ENDBRANCH  49  73
BRANCH  61  84
ATOM     84  C   UNL A   1      44.976  25.713  32.056  1.00  0.00     0.023 A 
ATOM     85  C   UNL A   1      43.804  26.394  32.464  1.00  0.00     0.031 A 
ATOM     86  C   UNL A   1      45.828  25.232  33.067  1.00  0.00     0.131 A 
ATOM     87  C   UNL A   1      43.532  26.576  33.837  1.00  0.00     0.055 A 
ATOM     88  C   UNL A   1      45.545  25.394  34.422  1.00  0.00     0.041 A 
ATOM     89  F   UNL A   1      46.945  24.555  32.749  1.00  0.00    -0.206 F 
ATOM     90  C   UNL A   1      44.397  26.072  34.813  1.00  0.00     0.022 A 
BRANCH  87  91
ATOM     91  S   UNL A   1      42.054  27.494  34.390  1.00  0.00     0.124 S 
ATOM     92  O   UNL A   1      41.230  26.469  35.021  1.00  0.00    -0.237 OA
ATOM     93  O   UNL A   1      42.618  28.500  35.284  1.00  0.00    -0.237 OA
ATOM     94  O   UNL A   1      41.503  28.032  33.144  1.00  0.00    -0.744 OA
ENDBRANCH  87  91
ENDBRANCH  61  84
ENDBRANCH  35  36
ENDBRANCH  27  30
ENDBRANCH  25  26
ENDBRANCH  24  25
ENDBRANCH   1  24
TORSDOF 18
ENDMDL
MODEL 3
REMARK VINA RESULT:     -12.0      4.916     10.288
REMARK SMILES CC(C)n1ccc(C[C@@H](C(=O)NCCCCNC(=O)c2ccc(-c3c4nc(c(-c5cc(S(=O)(=O)[O-])ccc5F)c5ccc([nH]5)c(-c5cc(S(=O)(=O)[O-])ccc5F)c5nc(c(-c6cc(S(=O)(=O)[O-])ccc6F)c6ccc3[nH]6)C=C5)C=C4)cc2)c2cccc(Cl)c2)n1
REMARK SMILES IDX 14 1 13 2 12 3 10 4 11 5 9 7 8 8 7 9 4 10 5 11 90 12 6 13
REMARK SMILES IDX 2 14 1 15 3 16 83 17 84 18 89 19 85 20 87 21 86 22 88 23
REMARK SMILES IDX 15 24 16 25 17 26 18 27 19 29 20 30 21 31 82 32 22 33 81 34
REMARK SMILES IDX 23 35 24 36 25 37 75 38 26 39 80 40 74 41 76 42 27 43 79 44
REMARK SMILES IDX 73 45 72 46 28 48 60 49 40 50 59 51 41 52 44 53 58 54 77 55
REMARK SMILES IDX 42 56 43 57 57 59 78 60 45 61 29 62 30 63 38 64 31 65 37 66
REMARK SMILES IDX 39 67 36 68 32 69 33 70 34 71 35 72 61 73 62 74 70 75 63 76
REMARK SMILES IDX 69 77 71 78 68 79 64 80 65 81 66 82 67 83 46 84 47 85 55 86
REMARK SMILES IDX 48 87 54 88 56 89 53 90 49 91 50 92 51 93 52 94
REMARK H PARENT 12 6 17 28 76 47 44 58
REMARK Flexibility Score: inf
ROOT
ATOM      1  C   UNL A   1      32.729  28.396  27.402  1.00  0.00     0.023 C 
ENDROOT
BRANCH   1   2
ATOM      2  C   UNL A   1      31.426  28.006  26.685  1.00  0.00     0.116 C 
BRANCH   2   3
ATOM      3  N   UNL A   1      31.153  26.591  26.877  1.00  0.00    -0.356 N 
ATOM      4  C   UNL A   1      30.467  25.797  25.991  1.00  0.00     0.227 C 
ATOM      5  O   UNL A   1      29.533  25.137  26.456  1.00  0.00    -0.274 OA
ATOM      6  H   UNL A   1      31.486  26.171  27.702  1.00  0.00     0.163 HD
BRANCH   4   7
ATOM      7  C   UNL A   1      30.887  25.718  24.503  1.00  0.00     0.114 C 
BRANCH   7   8
ATOM      8  C   UNL A   1      32.428  25.746  24.358  1.00  0.00     0.076 C 
BRANCH   8   9
ATOM      9  C   UNL A   1      33.206  24.489  24.549  1.00  0.00     0.064 A 
ATOM     10  N   UNL A   1      34.857  23.171  24.839  1.00  0.00    -0.270 N 
ATOM     11  C   UNL A   1      33.741  22.380  24.934  1.00  0.00     0.109 A 
ATOM     12  N   UNL A   1      34.546  24.470  24.593  1.00  0.00    -0.178 NA
ATOM     13  C   UNL A   1      32.660  23.209  24.795  1.00  0.00     0.045 A 
BRANCH  10  14
ATOM     14  C   UNL A   1      36.245  22.696  24.824  1.00  0.00     0.101 C 
ATOM     15  C   UNL A   1      36.856  22.606  23.422  1.00  0.00     0.033 C 
ATOM     16  C   UNL A   1      37.151  23.550  25.720  1.00  0.00     0.033 C 
ENDBRANCH  10  14
ENDBRANCH   8   9
ENDBRANCH   7   8
BRANCH   7  17
ATOM     17  C   UNL A   1      30.367  26.923  23.648  1.00  0.00    -0.034 A 
ATOM     18  C   UNL A   1      31.304  27.766  23.012  1.00  0.00     0.004 A 
ATOM     19  C   UNL A   1      29.015  27.314  23.588  1.00  0.00     0.025 A 
ATOM     20  C   UNL A   1      30.928  28.997  22.462  1.00  0.00     0.002 A 
ATOM     21  C   UNL A   1      28.642  28.543  23.030  1.00  0.00     0.041 A 
ATOM     22  C   UNL A   1      29.595  29.398  22.491  1.00  0.00     0.020 A 
ATOM     23  Cl  UNL A   1      26.989  29.032  23.058  1.00  0.00    -0.084 Cl
ENDBRANCH   7  17
ENDBRANCH   4   7
ENDBRANCH   2   3
ENDBRANCH   1   2
BRANCH   1  24
ATOM     24  C   UNL A   1      33.781  29.220  26.663  1.00  0.00     0.023 C 
BRANCH  24  25
ATOM     25  C   UNL A   1      35.190  29.018  27.183  1.00  0.00     0.116 C 
BRANCH  25  26
ATOM     26  N   UNL A   1      35.592  29.997  28.205  1.00  0.00    -0.352 N 
ATOM     27  C   UNL A   1      36.752  29.971  28.967  1.00  0.00     0.251 C 
ATOM     28  H   UNL A   1      34.977  30.749  28.364  1.00  0.00     0.163 HD
ATOM     29  O   UNL A   1      36.860  30.614  30.004  1.00  0.00    -0.269 OA
BRANCH  27  30
ATOM     30  C   UNL A   1      37.856  29.147  28.450  1.00  0.00     0.039 A 
ATOM     31  C   UNL A   1      38.647  29.549  27.372  1.00  0.00     0.014 A 
ATOM     32  C   UNL A   1      38.223  28.088  29.270  1.00  0.00     0.014 A 
ATOM     33  C   UNL A   1      39.899  28.951  27.214  1.00  0.00     0.010 A 
ATOM     34  C   UNL A   1      39.525  27.667  29.233  1.00  0.00     0.010 A 
ATOM     35  C   UNL A   1      40.361  28.047  28.188  1.00  0.00    -0.014 A 
BRANCH  35  36
ATOM     36  C   UNL A   1      41.754  27.598  28.229  1.00  0.00     0.031 A 
ATOM     37  C   UNL A   1      42.056  26.389  27.408  1.00  0.00     0.074 A 
ATOM     38  C   UNL A   1      42.751  28.330  28.777  1.00  0.00     0.049 A 
ATOM     39  N   UNL A   1      42.287  25.192  27.835  1.00  0.00    -0.248 NA
ATOM     40  C   UNL A   1      41.933  26.470  25.943  1.00  0.00     0.031 C 
ATOM     41  C   UNL A   1      42.693  29.674  29.369  1.00  0.00     0.029 A 
ATOM     42  N   UNL A   1      44.082  28.056  28.827  1.00  0.00    -0.354 N 
ATOM     43  C   UNL A   1      42.596  24.426  26.715  1.00  0.00     0.074 A 
ATOM     44  C   UNL A   1      42.150  25.200  25.588  1.00  0.00     0.031 C 
ATOM     45  C   UNL A   1      43.937  30.185  29.483  1.00  0.00     0.029 A 
ATOM     46  C   UNL A   1      44.889  29.136  29.178  1.00  0.00     0.049 A 
ATOM     47  H   UNL A   1      44.448  27.164  28.630  1.00  0.00     0.167 HD
ATOM     48  C   UNL A   1      43.407  23.332  26.815  1.00  0.00     0.034 A 
ATOM     49  C   UNL A   1      46.246  29.172  29.247  1.00  0.00     0.034 A 
ATOM     50  C   UNL A   1      43.580  22.956  28.204  1.00  0.00     0.049 A 
ATOM     51  C   UNL A   1      46.685  27.765  29.425  1.00  0.00     0.074 A 
ATOM     52  C   UNL A   1      42.718  22.586  29.220  1.00  0.00     0.029 A 
ATOM     53  N   UNL A   1      44.742  23.342  28.837  1.00  0.00    -0.354 N 
ATOM     54  N   UNL A   1      46.385  27.060  30.483  1.00  0.00    -0.248 NA
ATOM     55  C   UNL A   1      46.987  26.989  28.232  1.00  0.00     0.031 C 
ATOM     56  C   UNL A   1      43.203  23.276  30.372  1.00  0.00     0.029 A 
ATOM     57  C   UNL A   1      44.386  23.933  30.026  1.00  0.00     0.049 A 
ATOM     58  H   UNL A   1      45.659  23.219  28.498  1.00  0.00     0.167 HD
ATOM     59  C   UNL A   1      46.022  25.814  29.994  1.00  0.00     0.074 A 
ATOM     60  C   UNL A   1      46.507  25.800  28.613  1.00  0.00     0.031 C 
ATOM     61  C   UNL A   1      45.117  25.024  30.649  1.00  0.00     0.034 A 
BRANCH  48  62
ATOM     62  C   UNL A   1      44.340  22.813  25.737  1.00  0.00     0.023 A 
ATOM     63  C   UNL A   1      44.339  21.421  25.503  1.00  0.00     0.031 A 
ATOM     64  C   UNL A   1      45.402  23.527  25.142  1.00  0.00     0.131 A 
ATOM     65  C   UNL A   1      45.403  20.795  24.831  1.00  0.00     0.055 A 
ATOM     66  C   UNL A   1      46.426  22.907  24.416  1.00  0.00     0.041 A 
ATOM     67  F   UNL A   1      45.567  24.845  25.296  1.00  0.00    -0.206 F 
ATOM     68  C   UNL A   1      46.452  21.529  24.288  1.00  0.00     0.022 A 
BRANCH  65  69
ATOM     69  S   UNL A   1      45.483  18.985  24.849  1.00  0.00     0.124 S 
ATOM     70  O   UNL A   1      45.662  18.685  23.433  1.00  0.00    -0.237 OA
ATOM     71  O   UNL A   1      46.635  18.744  25.711  1.00  0.00    -0.237 OA
ATOM     72  O   UNL A   1      44.192  18.594  25.411  1.00  0.00    -0.744 OA
ENDBRANCH  65  69
ENDBRANCH  48  62
BRANCH  49  73
ATOM     73  C   UNL A   1      47.139  30.285  28.818  1.00  0.00     0.023 A 
ATOM     74  C   UNL A   1      48.211  30.766  29.601  1.00  0.00     0.031 A 
ATOM     75  C   UNL A   1      47.084  30.737  27.478  1.00  0.00     0.131 A 
ATOM     76  C   UNL A   1      49.167  31.649  29.038  1.00  0.00     0.055 A 
ATOM     77  C   UNL A   1      48.031  31.603  26.928  1.00  0.00     0.041 A 
ATOM     78  F   UNL A   1      46.147  30.280  26.632  1.00  0.00    -0.206 F 
ATOM     79  C   UNL A   1      49.086  32.055  27.704  1.00  0.00     0.022 A 
BRANCH  76  80
ATOM     80  S   UNL A   1      50.595  32.225  30.018  1.00  0.00     0.124 S 
ATOM     81  O   UNL A   1      50.914  33.499  29.384  1.00  0.00    -0.237 OA
ATOM     82  O   UNL A   1      50.045  32.291  31.367  1.00  0.00    -0.237 OA
ATOM     83  O   UNL A   1      51.594  31.174  29.817  1.00  0.00    -0.744 OA
ENDBRANCH  76  80
ENDBRANCH  49  73
BRANCH  61  84
ATOM     84  C   UNL A   1      44.698  25.414  32.058  1.00  0.00     0.023 A 
ATOM     85  C   UNL A   1      43.781  26.441  32.386  1.00  0.00     0.031 A 
ATOM     86  C   UNL A   1      45.166  24.605  33.111  1.00  0.00     0.131 A 
ATOM     87  C   UNL A   1      43.377  26.629  33.725  1.00  0.00     0.055 A 
ATOM     88  C   UNL A   1      44.747  24.780  34.428  1.00  0.00     0.041 A 
ATOM     89  F   UNL A   1      46.019  23.596  32.866  1.00  0.00    -0.206 F 
ATOM     90  C   UNL A   1      43.854  25.797  34.742  1.00  0.00     0.022 A 
BRANCH  87  91
ATOM     91  S   UNL A   1      42.234  27.977  34.181  1.00  0.00     0.124 S 
ATOM     92  O   UNL A   1      43.121  29.027  34.671  1.00  0.00    -0.237 OA
ATOM     93  O   UNL A   1      41.550  28.256  32.922  1.00  0.00    -0.237 OA
ATOM     94  O   UNL A   1      41.386  27.371  35.210  1.00  0.00    -0.744 OA
ENDBRANCH  87  91
ENDBRANCH  61  84
ENDBRANCH  35  36
ENDBRANCH  27  30
ENDBRANCH  25  26
ENDBRANCH  24  25
ENDBRANCH   1  24
TORSDOF 18
ENDMDL
