MODEL 1
REMARK VINA RESULT:     -12.2      0.000      0.000
REMARK SMILES Cc1cc(C[NH+]2C[C@@H](C)[C@H](C)C2)oc1C(=O)NCCCCNC(=O)c1ccc(-c2c3nc(c(-c4cc(S(=O)(=O)[O-])ccc4F)c4ccc([nH]4)c(-c4cc(S(=O)(=O)[O-])ccc4F)c4nc(c(-c5cc(S(=O)(=O)[O-])ccc5F)c5ccc2[nH]5)C=C4)C=C3)cc1
REMARK SMILES IDX 20 1 19 2 18 3 17 4 15 5 16 6 14 8 1 9 2 10 3 11 4 12 13 13
REMARK SMILES IDX 5 14 6 15 7 16 12 17 8 19 10 20 9 21 11 22 21 23 22 24 23 25
REMARK SMILES IDX 24 27 25 28 26 29 87 30 27 31 86 32 28 33 29 34 30 35 80 36
REMARK SMILES IDX 31 37 85 38 79 39 81 40 32 41 84 42 78 43 77 44 33 46 65 47
REMARK SMILES IDX 45 48 64 49 46 50 49 51 63 52 82 53 47 54 48 55 62 57 83 58
REMARK SMILES IDX 50 59 34 60 35 61 43 62 36 63 42 64 44 65 41 66 37 67 38 68
REMARK SMILES IDX 39 69 40 70 66 71 67 72 75 73 68 74 74 75 76 76 73 77 69 78
REMARK SMILES IDX 70 79 71 80 72 81 51 82 52 83 60 84 53 85 59 86 61 87 58 88
REMARK SMILES IDX 54 89 55 90 56 91 57 92
REMARK H PARENT 17 7 6 18 22 26 81 45 49 56
REMARK Flexibility Score: inf
ROOT
ATOM      1  C   UNL A   1      36.643  21.677  23.973  1.00  0.00     0.023 C 
ENDROOT
BRANCH   1   2
ATOM      2  C   UNL A   1      36.344  23.071  23.425  1.00  0.00     0.023 C 
BRANCH   2   3
ATOM      3  C   UNL A   1      35.552  24.001  24.334  1.00  0.00     0.116 C 
BRANCH   3   4
ATOM      4  N   UNL A   1      34.444  24.666  23.696  1.00  0.00    -0.349 N 
ATOM      5  C   UNL A   1      33.129  24.261  23.589  1.00  0.00     0.287 C 
ATOM      6  O   UNL A   1      32.402  24.983  22.904  1.00  0.00    -0.266 OA
ATOM      7  H   UNL A   1      34.655  25.532  23.277  1.00  0.00     0.163 HD
BRANCH   5   8
ATOM      8  C   UNL A   1      32.648  23.035  24.215  1.00  0.00     0.194 A 
ATOM      9  C   UNL A   1      31.270  23.541  26.385  1.00  0.00     0.049 C 
ATOM     10  C   UNL A   1      31.887  22.694  25.335  1.00  0.00     0.001 A 
ATOM     11  C   UNL A   1      31.750  21.277  25.308  1.00  0.00     0.056 A 
ATOM     12  C   UNL A   1      32.458  20.819  24.225  1.00  0.00     0.159 A 
ATOM     13  O   UNL A   1      32.970  21.876  23.541  1.00  0.00    -0.450 OA
BRANCH  12  14
ATOM     14  C   UNL A   1      32.758  19.455  23.697  1.00  0.00     0.338 C 
BRANCH  14  15
ATOM     15  N   UNL A   1      33.238  18.497  24.702  1.00  0.00    -0.328 N 
ATOM     16  C   UNL A   1      32.286  17.429  25.014  1.00  0.00     0.266 C 
ATOM     17  C   UNL A   1      34.554  17.906  24.447  1.00  0.00     0.266 C 
ATOM     18  H   UNL A   1      33.337  19.105  25.515  1.00  0.00     0.348 HD
ATOM     19  C   UNL A   1      33.170  16.356  25.642  1.00  0.00     0.049 C 
ATOM     20  C   UNL A   1      34.404  16.410  24.742  1.00  0.00     0.049 C 
ATOM     21  C   UNL A   1      32.490  14.994  25.674  1.00  0.00     0.014 C 
ATOM     22  C   UNL A   1      35.656  15.802  25.353  1.00  0.00     0.014 C 
ENDBRANCH  14  15
ENDBRANCH  12  14
ENDBRANCH   5   8
ENDBRANCH   3   4
ENDBRANCH   2   3
ENDBRANCH   1   2
BRANCH   1  23
ATOM     23  C   UNL A   1      37.088  21.600  25.431  1.00  0.00     0.116 C 
BRANCH  23  24
ATOM     24  N   UNL A   1      38.201  20.688  25.661  1.00  0.00    -0.352 N 
ATOM     25  C   UNL A   1      39.447  20.922  26.199  1.00  0.00     0.251 C 
ATOM     26  H   UNL A   1      38.035  19.757  25.390  1.00  0.00     0.163 HD
ATOM     27  O   UNL A   1      40.273  20.014  26.223  1.00  0.00    -0.269 OA
BRANCH  25  28
ATOM     28  C   UNL A   1      39.805  22.271  26.694  1.00  0.00     0.039 A 
ATOM     29  C   UNL A   1      40.826  22.395  27.639  1.00  0.00     0.014 A 
ATOM     30  C   UNL A   1      39.166  23.410  26.202  1.00  0.00     0.014 A 
ATOM     31  C   UNL A   1      41.281  23.666  28.004  1.00  0.00     0.010 A 
ATOM     32  C   UNL A   1      39.682  24.670  26.496  1.00  0.00     0.010 A 
ATOM     33  C   UNL A   1      40.754  24.813  27.390  1.00  0.00    -0.014 A 
BRANCH  33  34
ATOM     34  C   UNL A   1      41.317  26.165  27.653  1.00  0.00     0.031 A 
ATOM     35  C   UNL A   1      42.704  26.512  27.181  1.00  0.00     0.074 A 
ATOM     36  C   UNL A   1      40.616  27.052  28.390  1.00  0.00     0.049 A 
ATOM     37  N   UNL A   1      43.410  27.591  27.402  1.00  0.00    -0.248 NA
ATOM     38  C   UNL A   1      43.401  25.489  26.387  1.00  0.00     0.031 C 
ATOM     39  C   UNL A   1      39.282  26.819  28.951  1.00  0.00     0.029 A 
ATOM     40  N   UNL A   1      40.928  28.322  28.807  1.00  0.00    -0.354 N 
ATOM     41  C   UNL A   1      44.640  27.370  26.790  1.00  0.00     0.074 A 
ATOM     42  C   UNL A   1      44.603  26.029  26.250  1.00  0.00     0.031 C 
ATOM     43  C   UNL A   1      38.882  27.918  29.611  1.00  0.00     0.029 A 
ATOM     44  C   UNL A   1      39.946  28.916  29.568  1.00  0.00     0.049 A 
ATOM     45  H   UNL A   1      41.777  28.768  28.583  1.00  0.00     0.167 HD
ATOM     46  C   UNL A   1      45.693  28.218  26.667  1.00  0.00     0.034 A 
ATOM     47  C   UNL A   1      39.910  30.120  30.172  1.00  0.00     0.034 A 
ATOM     48  C   UNL A   1      45.707  29.561  27.195  1.00  0.00     0.049 A 
ATOM     49  C   UNL A   1      41.098  31.039  30.035  1.00  0.00     0.074 A 
ATOM     50  C   UNL A   1      46.693  30.525  27.073  1.00  0.00     0.029 A 
ATOM     51  N   UNL A   1      44.689  30.129  27.951  1.00  0.00    -0.354 N 
ATOM     52  N   UNL A   1      42.232  30.836  29.406  1.00  0.00    -0.248 NA
ATOM     53  C   UNL A   1      40.997  32.353  30.684  1.00  0.00     0.031 C 
ATOM     54  C   UNL A   1      46.303  31.648  27.810  1.00  0.00     0.029 A 
ATOM     55  C   UNL A   1      45.039  31.417  28.329  1.00  0.00     0.049 A 
ATOM     56  H   UNL A   1      43.844  29.683  28.186  1.00  0.00     0.167 HD
ATOM     57  C   UNL A   1      42.966  32.009  29.558  1.00  0.00     0.074 A 
ATOM     58  C   UNL A   1      42.138  32.919  30.324  1.00  0.00     0.031 C 
ATOM     59  C   UNL A   1      44.209  32.310  29.103  1.00  0.00     0.034 A 
BRANCH  46  60
ATOM     60  C   UNL A   1      46.917  27.701  25.950  1.00  0.00     0.023 A 
ATOM     61  C   UNL A   1      47.171  28.014  24.603  1.00  0.00     0.031 A 
ATOM     62  C   UNL A   1      47.829  26.857  26.609  1.00  0.00     0.131 A 
ATOM     63  C   UNL A   1      48.253  27.422  23.936  1.00  0.00     0.055 A 
ATOM     64  C   UNL A   1      48.954  26.340  25.963  1.00  0.00     0.041 A 
ATOM     65  F   UNL A   1      47.631  26.506  27.890  1.00  0.00    -0.206 F 
ATOM     66  C   UNL A   1      49.162  26.607  24.614  1.00  0.00     0.022 A 
BRANCH  63  67
ATOM     67  S   UNL A   1      48.366  27.609  22.135  1.00  0.00     0.124 S 
ATOM     68  O   UNL A   1      47.053  28.166  21.815  1.00  0.00    -0.237 OA
ATOM     69  O   UNL A   1      49.497  28.514  21.981  1.00  0.00    -0.237 OA
ATOM     70  O   UNL A   1      48.587  26.244  21.661  1.00  0.00    -0.744 OA
ENDBRANCH  63  67
ENDBRANCH  46  60
BRANCH  47  71
ATOM     71  C   UNL A   1      38.720  30.532  30.972  1.00  0.00     0.023 A 
ATOM     72  C   UNL A   1      37.630  31.178  30.365  1.00  0.00     0.031 A 
ATOM     73  C   UNL A   1      38.674  30.329  32.363  1.00  0.00     0.131 A 
ATOM     74  C   UNL A   1      36.564  31.641  31.152  1.00  0.00     0.055 A 
ATOM     75  C   UNL A   1      37.586  30.744  33.134  1.00  0.00     0.041 A 
ATOM     76  F   UNL A   1      39.686  29.713  32.993  1.00  0.00    -0.206 F 
ATOM     77  C   UNL A   1      36.529  31.417  32.530  1.00  0.00     0.022 A 
BRANCH  74  78
ATOM     78  S   UNL A   1      35.259  32.617  30.357  1.00  0.00     0.124 S 
ATOM     79  O   UNL A   1      35.982  33.825  29.975  1.00  0.00    -0.237 OA
ATOM     80  O   UNL A   1      34.849  31.742  29.263  1.00  0.00    -0.237 OA
ATOM     81  O   UNL A   1      34.269  32.791  31.418  1.00  0.00    -0.744 OA
ENDBRANCH  74  78
ENDBRANCH  47  71
BRANCH  59  82
ATOM     82  C   UNL A   1      44.727  33.699  29.392  1.00  0.00     0.023 A 
ATOM     83  C   UNL A   1      44.483  34.776  28.522  1.00  0.00     0.031 A 
ATOM     84  C   UNL A   1      45.485  33.942  30.551  1.00  0.00     0.131 A 
ATOM     85  C   UNL A   1      45.040  36.034  28.795  1.00  0.00     0.055 A 
ATOM     86  C   UNL A   1      45.985  35.210  30.849  1.00  0.00     0.041 A 
ATOM     87  F   UNL A   1      45.750  32.949  31.416  1.00  0.00    -0.206 F 
ATOM     88  C   UNL A   1      45.775  36.262  29.962  1.00  0.00     0.022 A 
BRANCH  85  89
ATOM     89  S   UNL A   1      44.869  37.350  27.559  1.00  0.00     0.124 S 
ATOM     90  O   UNL A   1      46.030  37.117  26.706  1.00  0.00    -0.237 OA
ATOM     91  O   UNL A   1      43.571  37.052  26.963  1.00  0.00    -0.237 OA
ATOM     92  O   UNL A   1      44.919  38.576  28.354  1.00  0.00    -0.744 OA
ENDBRANCH  85  89
ENDBRANCH  59  82
ENDBRANCH  33  34
ENDBRANCH  25  28
ENDBRANCH  23  24
ENDBRANCH   1  23
TORSDOF 16
ENDMDL
MODEL 2
REMARK VINA RESULT:     -12.2      1.708      7.798
REMARK SMILES Cc1cc(C[NH+]2C[C@@H](C)[C@H](C)C2)oc1C(=O)NCCCCNC(=O)c1ccc(-c2c3nc(c(-c4cc(S(=O)(=O)[O-])ccc4F)c4ccc([nH]4)c(-c4cc(S(=O)(=O)[O-])ccc4F)c4nc(c(-c5cc(S(=O)(=O)[O-])ccc5F)c5ccc2[nH]5)C=C4)C=C3)cc1
REMARK SMILES IDX 20 1 19 2 18 3 17 4 15 5 16 6 14 8 1 9 2 10 3 11 4 12 13 13
REMARK SMILES IDX 5 14 6 15 7 16 12 17 8 19 10 20 9 21 11 22 21 23 22 24 23 25
REMARK SMILES IDX 24 27 25 28 26 29 87 30 27 31 86 32 28 33 29 34 30 35 80 36
REMARK SMILES IDX 31 37 85 38 79 39 81 40 32 41 84 42 78 43 77 44 33 46 65 47
REMARK SMILES IDX 45 48 64 49 46 50 49 51 63 52 82 53 47 54 48 55 62 57 83 58
REMARK SMILES IDX 50 59 34 60 35 61 43 62 36 63 42 64 44 65 41 66 37 67 38 68
REMARK SMILES IDX 39 69 40 70 66 71 67 72 75 73 68 74 74 75 76 76 73 77 69 78
REMARK SMILES IDX 70 79 71 80 72 81 51 82 52 83 60 84 53 85 59 86 61 87 58 88
REMARK SMILES IDX 54 89 55 90 56 91 57 92
REMARK H PARENT 17 7 6 18 22 26 81 45 49 56
REMARK Flexibility Score: inf
ROOT
ATOM      1  C   UNL A   1      35.678  21.292  25.263  1.00  0.00     0.023 C 
ENDROOT
BRANCH   1   2
ATOM      2  C   UNL A   1      35.092  21.673  26.621  1.00  0.00     0.023 C 
BRANCH   2   3
ATOM      3  C   UNL A   1      34.467  23.058  26.725  1.00  0.00     0.116 C 
BRANCH   3   4
ATOM      4  N   UNL A   1      33.101  23.070  27.183  1.00  0.00    -0.349 N 
ATOM      5  C   UNL A   1      31.950  22.731  26.500  1.00  0.00     0.287 C 
ATOM      6  O   UNL A   1      30.894  22.924  27.106  1.00  0.00    -0.266 OA
ATOM      7  H   UNL A   1      32.970  23.362  28.114  1.00  0.00     0.163 HD
BRANCH   5   8
ATOM      8  C   UNL A   1      31.988  22.219  25.136  1.00  0.00     0.194 A 
ATOM      9  C   UNL A   1      31.568  24.122  23.384  1.00  0.00     0.049 C 
ATOM     10  C   UNL A   1      31.851  22.742  23.848  1.00  0.00     0.001 A 
ATOM     11  C   UNL A   1      32.071  21.657  22.951  1.00  0.00     0.056 A 
ATOM     12  C   UNL A   1      32.280  20.534  23.714  1.00  0.00     0.159 A 
ATOM     13  O   UNL A   1      32.268  20.874  25.029  1.00  0.00    -0.450 OA
BRANCH  12  14
ATOM     14  C   UNL A   1      32.495  19.094  23.382  1.00  0.00     0.338 C 
BRANCH  14  15
ATOM     15  N   UNL A   1      33.057  18.288  24.472  1.00  0.00    -0.328 N 
ATOM     16  C   UNL A   1      32.195  17.188  24.911  1.00  0.00     0.266 C 
ATOM     17  C   UNL A   1      34.413  17.775  24.257  1.00  0.00     0.266 C 
ATOM     18  H   UNL A   1      33.117  18.983  25.215  1.00  0.00     0.348 HD
ATOM     19  C   UNL A   1      33.166  16.258  25.632  1.00  0.00     0.049 C 
ATOM     20  C   UNL A   1      34.383  16.312  24.709  1.00  0.00     0.049 C 
ATOM     21  C   UNL A   1      32.595  14.859  25.818  1.00  0.00     0.014 C 
ATOM     22  C   UNL A   1      35.685  15.869  25.358  1.00  0.00     0.014 C 
ENDBRANCH  14  15
ENDBRANCH  12  14
ENDBRANCH   5   8
ENDBRANCH   3   4
ENDBRANCH   2   3
ENDBRANCH   1   2
BRANCH   1  23
ATOM     23  C   UNL A   1      37.126  21.699  25.007  1.00  0.00     0.116 C 
BRANCH  23  24
ATOM     24  N   UNL A   1      38.096  20.658  25.322  1.00  0.00    -0.352 N 
ATOM     25  C   UNL A   1      39.302  20.736  25.983  1.00  0.00     0.251 C 
ATOM     26  H   UNL A   1      37.850  19.757  25.015  1.00  0.00     0.163 HD
ATOM     27  O   UNL A   1      40.009  19.735  26.066  1.00  0.00    -0.269 OA
BRANCH  25  28
ATOM     28  C   UNL A   1      39.765  22.026  26.541  1.00  0.00     0.039 A 
ATOM     29  C   UNL A   1      40.802  22.024  27.478  1.00  0.00     0.014 A 
ATOM     30  C   UNL A   1      39.210  23.234  26.118  1.00  0.00     0.014 A 
ATOM     31  C   UNL A   1      41.356  23.236  27.902  1.00  0.00     0.010 A 
ATOM     32  C   UNL A   1      39.822  24.435  26.469  1.00  0.00     0.010 A 
ATOM     33  C   UNL A   1      40.910  24.450  27.354  1.00  0.00    -0.014 A 
BRANCH  33  34
ATOM     34  C   UNL A   1      41.576  25.741  27.679  1.00  0.00     0.031 A 
ATOM     35  C   UNL A   1      40.847  26.788  28.478  1.00  0.00     0.074 A 
ATOM     36  C   UNL A   1      42.803  26.005  27.184  1.00  0.00     0.049 A 
ATOM     37  N   UNL A   1      41.210  28.010  28.773  1.00  0.00    -0.248 NA
ATOM     38  C   UNL A   1      39.514  26.421  28.978  1.00  0.00     0.031 C 
ATOM     39  C   UNL A   1      43.595  25.095  26.353  1.00  0.00     0.029 A 
ATOM     40  N   UNL A   1      43.597  27.120  27.296  1.00  0.00    -0.354 N 
ATOM     41  C   UNL A   1      40.146  28.563  29.477  1.00  0.00     0.074 A 
ATOM     42  C   UNL A   1      39.099  27.564  29.503  1.00  0.00     0.031 C 
ATOM     43  C   UNL A   1      44.769  25.676  26.056  1.00  0.00     0.029 A 
ATOM     44  C   UNL A   1      44.798  27.018  26.628  1.00  0.00     0.049 A 
ATOM     45  H   UNL A   1      43.333  27.920  27.807  1.00  0.00     0.167 HD
ATOM     46  C   UNL A   1      40.059  29.781  30.069  1.00  0.00     0.034 A 
ATOM     47  C   UNL A   1      45.800  27.907  26.483  1.00  0.00     0.034 A 
ATOM     48  C   UNL A   1      41.120  30.759  30.051  1.00  0.00     0.049 A 
ATOM     49  C   UNL A   1      45.675  29.260  27.137  1.00  0.00     0.074 A 
ATOM     50  C   UNL A   1      41.162  31.996  30.671  1.00  0.00     0.029 A 
ATOM     51  N   UNL A   1      42.323  30.615  29.372  1.00  0.00    -0.354 N 
ATOM     52  N   UNL A   1      44.684  29.747  27.845  1.00  0.00    -0.248 NA
ATOM     53  C   UNL A   1      46.809  30.180  26.977  1.00  0.00     0.031 C 
ATOM     54  C   UNL A   1      42.359  32.625  30.313  1.00  0.00     0.029 A 
ATOM     55  C   UNL A   1      43.100  31.752  29.533  1.00  0.00     0.049 A 
ATOM     56  H   UNL A   1      42.586  29.820  28.853  1.00  0.00     0.167 HD
ATOM     57  C   UNL A   1      45.088  31.018  28.241  1.00  0.00     0.074 A 
ATOM     58  C   UNL A   1      46.420  31.215  27.705  1.00  0.00     0.031 C 
ATOM     59  C   UNL A   1      44.422  31.940  28.983  1.00  0.00     0.034 A 
BRANCH  46  60
ATOM     60  C   UNL A   1      38.763  30.120  30.766  1.00  0.00     0.023 A 
ATOM     61  C   UNL A   1      37.728  30.807  30.106  1.00  0.00     0.031 A 
ATOM     62  C   UNL A   1      38.567  29.783  32.117  1.00  0.00     0.131 A 
ATOM     63  C   UNL A   1      36.587  31.209  30.817  1.00  0.00     0.055 A 
ATOM     64  C   UNL A   1      37.391  30.110  32.796  1.00  0.00     0.041 A 
ATOM     65  F   UNL A   1      39.525  29.145  32.808  1.00  0.00    -0.206 F 
ATOM     66  C   UNL A   1      36.400  30.842  32.150  1.00  0.00     0.022 A 
BRANCH  63  67
ATOM     67  S   UNL A   1      35.427  32.348  30.013  1.00  0.00     0.124 S 
ATOM     68  O   UNL A   1      36.281  33.506  29.757  1.00  0.00    -0.237 OA
ATOM     69  O   UNL A   1      35.005  31.594  28.840  1.00  0.00    -0.237 OA
ATOM     70  O   UNL A   1      34.394  32.557  31.027  1.00  0.00    -0.744 OA
ENDBRANCH  63  67
ENDBRANCH  46  60
BRANCH  47  71
ATOM     71  C   UNL A   1      47.009  27.561  25.680  1.00  0.00     0.023 A 
ATOM     72  C   UNL A   1      47.096  27.902  24.321  1.00  0.00     0.031 A 
ATOM     73  C   UNL A   1      48.077  26.842  26.248  1.00  0.00     0.131 A 
ATOM     74  C   UNL A   1      48.201  27.483  23.563  1.00  0.00     0.055 A 
ATOM     75  C   UNL A   1      49.199  26.475  25.502  1.00  0.00     0.041 A 
ATOM     76  F   UNL A   1      48.048  26.495  27.544  1.00  0.00    -0.206 F 
ATOM     77  C   UNL A   1      49.259  26.783  24.147  1.00  0.00     0.022 A 
BRANCH  74  78
ATOM     78  S   UNL A   1      48.197  27.796  21.776  1.00  0.00     0.124 S 
ATOM     79  O   UNL A   1      49.314  28.724  21.634  1.00  0.00    -0.237 OA
ATOM     80  O   UNL A   1      48.402  26.457  21.233  1.00  0.00    -0.237 OA
ATOM     81  O   UNL A   1      46.874  28.369  21.534  1.00  0.00    -0.744 OA
ENDBRANCH  74  78
ENDBRANCH  47  71
BRANCH  59  82
ATOM     82  C   UNL A   1      45.149  33.227  29.290  1.00  0.00     0.023 A 
ATOM     83  C   UNL A   1      45.961  33.366  30.428  1.00  0.00     0.031 A 
ATOM     84  C   UNL A   1      45.014  34.334  28.433  1.00  0.00     0.131 A 
ATOM     85  C   UNL A   1      46.564  34.601  30.710  1.00  0.00     0.055 A 
ATOM     86  C   UNL A   1      45.666  35.542  28.686  1.00  0.00     0.041 A 
ATOM     87  F   UNL A   1      44.249  34.259  27.332  1.00  0.00    -0.206 F 
ATOM     88  C   UNL A   1      46.435  35.685  29.837  1.00  0.00     0.022 A 
BRANCH  85  89
ATOM     89  S   UNL A   1      47.446  34.803  32.282  1.00  0.00     0.124 S 
ATOM     90  O   UNL A   1      48.812  35.053  31.832  1.00  0.00    -0.237 OA
ATOM     91  O   UNL A   1      46.756  35.938  32.884  1.00  0.00    -0.237 OA
ATOM     92  O   UNL A   1      47.240  33.522  32.957  1.00  0.00    -0.744 OA
ENDBRANCH  85  89
ENDBRANCH  59  82
ENDBRANCH  33  34
ENDBRANCH  25  28
ENDBRANCH  23  24
ENDBRANCH   1  23
TORSDOF 16
ENDMDL
MODEL 3
REMARK VINA RESULT:     -12.0      1.758      7.798
REMARK SMILES Cc1cc(C[NH+]2C[C@@H](C)[C@H](C)C2)oc1C(=O)NCCCCNC(=O)c1ccc(-c2c3nc(c(-c4cc(S(=O)(=O)[O-])ccc4F)c4ccc([nH]4)c(-c4cc(S(=O)(=O)[O-])ccc4F)c4nc(c(-c5cc(S(=O)(=O)[O-])ccc5F)c5ccc2[nH]5)C=C4)C=C3)cc1
REMARK SMILES IDX 20 1 19 2 18 3 17 4 15 5 16 6 14 8 1 9 2 10 3 11 4 12 13 13
REMARK SMILES IDX 5 14 6 15 7 16 12 17 8 19 10 20 9 21 11 22 21 23 22 24 23 25
REMARK SMILES IDX 24 27 25 28 26 29 87 30 27 31 86 32 28 33 29 34 30 35 80 36
REMARK SMILES IDX 31 37 85 38 79 39 81 40 32 41 84 42 78 43 77 44 33 46 65 47
REMARK SMILES IDX 45 48 64 49 46 50 49 51 63 52 82 53 47 54 48 55 62 57 83 58
REMARK SMILES IDX 50 59 34 60 35 61 43 62 36 63 42 64 44 65 41 66 37 67 38 68
REMARK SMILES IDX 39 69 40 70 66 71 67 72 75 73 68 74 74 75 76 76 73 77 69 78
REMARK SMILES IDX 70 79 71 80 72 81 51 82 52 83 60 84 53 85 59 86 61 87 58 88
REMARK SMILES IDX 54 89 55 90 56 91 57 92
REMARK H PARENT 17 7 6 18 22 26 81 45 49 56
REMARK Flexibility Score: inf
ROOT
ATOM      1  C   UNL A   1      35.513  22.136  25.183  1.00  0.00     0.023 C 
ENDROOT
BRANCH   1   2
ATOM      2  C   UNL A   1      35.232  23.082  26.348  1.00  0.00     0.023 C 
BRANCH   2   3
ATOM      3  C   UNL A   1      34.067  24.046  26.172  1.00  0.00     0.116 C 
BRANCH   3   4
ATOM      4  N   UNL A   1      32.823  23.600  26.747  1.00  0.00    -0.349 N 
ATOM      5  C   UNL A   1      31.825  22.834  26.179  1.00  0.00     0.287 C 
ATOM      6  O   UNL A   1      30.816  22.675  26.869  1.00  0.00    -0.266 OA
ATOM      7  H   UNL A   1      32.663  23.882  27.676  1.00  0.00     0.163 HD
BRANCH   5   8
ATOM      8  C   UNL A   1      31.948  22.287  24.833  1.00  0.00     0.194 A 
ATOM      9  C   UNL A   1      31.626  24.142  23.010  1.00  0.00     0.049 C 
ATOM     10  C   UNL A   1      31.887  22.776  23.526  1.00  0.00     0.001 A 
ATOM     11  C   UNL A   1      32.165  21.669  22.673  1.00  0.00     0.056 A 
ATOM     12  C   UNL A   1      32.333  20.568  23.476  1.00  0.00     0.159 A 
ATOM     13  O   UNL A   1      32.240  20.941  24.779  1.00  0.00    -0.450 OA
BRANCH  12  14
ATOM     14  C   UNL A   1      32.575  19.121  23.195  1.00  0.00     0.338 C 
BRANCH  14  15
ATOM     15  N   UNL A   1      33.081  18.348  24.335  1.00  0.00    -0.328 N 
ATOM     16  C   UNL A   1      32.157  17.321  24.820  1.00  0.00     0.266 C 
ATOM     17  C   UNL A   1      34.410  17.755  24.169  1.00  0.00     0.266 C 
ATOM     18  H   UNL A   1      33.168  19.080  25.041  1.00  0.00     0.348 HD
ATOM     19  C   UNL A   1      33.068  16.383  25.605  1.00  0.00     0.049 C 
ATOM     20  C   UNL A   1      34.298  16.322  24.700  1.00  0.00     0.049 C 
ATOM     21  C   UNL A   1      32.423  15.027  25.859  1.00  0.00     0.014 C 
ATOM     22  C   UNL A   1      35.567  15.849  25.391  1.00  0.00     0.014 C 
ENDBRANCH  14  15
ENDBRANCH  12  14
ENDBRANCH   5   8
ENDBRANCH   3   4
ENDBRANCH   2   3
ENDBRANCH   1   2
BRANCH   1  23
ATOM     23  C   UNL A   1      36.930  22.154  24.616  1.00  0.00     0.116 C 
BRANCH  23  24
ATOM     24  N   UNL A   1      37.746  21.020  25.031  1.00  0.00    -0.352 N 
ATOM     25  C   UNL A   1      38.878  20.977  25.815  1.00  0.00     0.251 C 
ATOM     26  H   UNL A   1      37.439  20.147  24.699  1.00  0.00     0.163 HD
ATOM     27  O   UNL A   1      39.463  19.909  25.971  1.00  0.00    -0.269 OA
BRANCH  25  28
ATOM     28  C   UNL A   1      39.414  22.217  26.419  1.00  0.00     0.039 A 
ATOM     29  C   UNL A   1      40.466  22.124  27.334  1.00  0.00     0.014 A 
ATOM     30  C   UNL A   1      38.911  23.469  26.061  1.00  0.00     0.014 A 
ATOM     31  C   UNL A   1      41.086  23.287  27.799  1.00  0.00     0.010 A 
ATOM     32  C   UNL A   1      39.588  24.622  26.451  1.00  0.00     0.010 A 
ATOM     33  C   UNL A   1      40.691  24.544  27.314  1.00  0.00    -0.014 A 
BRANCH  33  34
ATOM     34  C   UNL A   1      41.426  25.786  27.682  1.00  0.00     0.031 A 
ATOM     35  C   UNL A   1      40.716  26.898  28.406  1.00  0.00     0.074 A 
ATOM     36  C   UNL A   1      42.707  25.948  27.290  1.00  0.00     0.049 A 
ATOM     37  N   UNL A   1      41.147  28.093  28.719  1.00  0.00    -0.248 NA
ATOM     38  C   UNL A   1      39.321  26.642  28.795  1.00  0.00     0.031 C 
ATOM     39  C   UNL A   1      43.493  24.966  26.537  1.00  0.00     0.029 A 
ATOM     40  N   UNL A   1      43.573  27.001  27.457  1.00  0.00    -0.354 N 
ATOM     41  C   UNL A   1      40.073  28.737  29.325  1.00  0.00     0.074 A 
ATOM     42  C   UNL A   1      38.954  27.822  29.272  1.00  0.00     0.031 C 
ATOM     43  C   UNL A   1      44.728  25.451  26.334  1.00  0.00     0.029 A 
ATOM     44  C   UNL A   1      44.813  26.796  26.894  1.00  0.00     0.049 A 
ATOM     45  H   UNL A   1      43.330  27.826  27.936  1.00  0.00     0.167 HD
ATOM     46  C   UNL A   1      40.032  29.968  29.896  1.00  0.00     0.034 A 
ATOM     47  C   UNL A   1      45.890  27.603  26.825  1.00  0.00     0.034 A 
ATOM     48  C   UNL A   1      41.163  30.861  29.957  1.00  0.00     0.049 A 
ATOM     49  C   UNL A   1      45.816  28.972  27.453  1.00  0.00     0.074 A 
ATOM     50  C   UNL A   1      41.249  32.101  30.567  1.00  0.00     0.029 A 
ATOM     51  N   UNL A   1      42.404  30.615  29.384  1.00  0.00    -0.354 N 
ATOM     52  N   UNL A   1      44.810  29.545  28.071  1.00  0.00    -0.248 NA
ATOM     53  C   UNL A   1      47.027  29.800  27.381  1.00  0.00     0.031 C 
ATOM     54  C   UNL A   1      42.518  32.632  30.306  1.00  0.00     0.029 A 
ATOM     55  C   UNL A   1      43.251  31.692  29.599  1.00  0.00     0.049 A 
ATOM     56  H   UNL A   1      42.648  29.795  28.897  1.00  0.00     0.167 HD
ATOM     57  C   UNL A   1      45.277  30.788  28.487  1.00  0.00     0.074 A 
ATOM     58  C   UNL A   1      46.660  30.873  28.064  1.00  0.00     0.031 C 
ATOM     59  C   UNL A   1      44.625  31.769  29.161  1.00  0.00     0.034 A 
BRANCH  46  60
ATOM     60  C   UNL A   1      38.712  30.416  30.477  1.00  0.00     0.023 A 
ATOM     61  C   UNL A   1      37.750  31.081  29.697  1.00  0.00     0.031 A 
ATOM     62  C   UNL A   1      38.422  30.207  31.837  1.00  0.00     0.131 A 
ATOM     63  C   UNL A   1      36.587  31.587  30.296  1.00  0.00     0.055 A 
ATOM     64  C   UNL A   1      37.222  30.637  32.410  1.00  0.00     0.041 A 
ATOM     65  F   UNL A   1      39.308  29.596  32.639  1.00  0.00    -0.206 F 
ATOM     66  C   UNL A   1      36.304  31.347  31.642  1.00  0.00     0.022 A 
BRANCH  63  67
ATOM     67  S   UNL A   1      35.528  32.695  29.326  1.00  0.00     0.124 S 
ATOM     68  O   UNL A   1      36.470  33.211  28.336  1.00  0.00    -0.237 OA
ATOM     69  O   UNL A   1      34.503  31.790  28.821  1.00  0.00    -0.237 OA
ATOM     70  O   UNL A   1      35.067  33.676  30.308  1.00  0.00    -0.744 OA
ENDBRANCH  63  67
ENDBRANCH  46  60
BRANCH  47  71
ATOM     71  C   UNL A   1      47.131  27.153  26.131  1.00  0.00     0.023 A 
ATOM     72  C   UNL A   1      48.129  26.444  26.820  1.00  0.00     0.031 A 
ATOM     73  C   UNL A   1      47.361  27.465  24.779  1.00  0.00     0.131 A 
ATOM     74  C   UNL A   1      49.329  26.113  26.171  1.00  0.00     0.055 A 
ATOM     75  C   UNL A   1      48.534  27.087  24.123  1.00  0.00     0.041 A 
ATOM     76  F   UNL A   1      46.439  28.137  24.071  1.00  0.00    -0.206 F 
ATOM     77  C   UNL A   1      49.533  26.419  24.824  1.00  0.00     0.022 A 
BRANCH  74  78
ATOM     78  S   UNL A   1      50.658  25.349  27.141  1.00  0.00     0.124 S 
ATOM     79  O   UNL A   1      49.933  24.322  27.882  1.00  0.00    -0.237 OA
ATOM     80  O   UNL A   1      51.559  24.871  26.097  1.00  0.00    -0.237 OA
ATOM     81  O   UNL A   1      51.171  26.456  27.946  1.00  0.00    -0.744 OA
ENDBRANCH  74  78
ENDBRANCH  47  71
BRANCH  59  82
ATOM     82  C   UNL A   1      45.421  33.002  29.516  1.00  0.00     0.023 A 
ATOM     83  C   UNL A   1      45.376  34.165  28.728  1.00  0.00     0.031 A 
ATOM     84  C   UNL A   1      46.245  33.006  30.655  1.00  0.00     0.131 A 
ATOM     85  C   UNL A   1      46.184  35.264  29.057  1.00  0.00     0.055 A 
ATOM     86  C   UNL A   1      46.999  34.124  31.012  1.00  0.00     0.041 A 
ATOM     87  F   UNL A   1      46.328  31.922  31.443  1.00  0.00    -0.206 F 
ATOM     88  C   UNL A   1      46.981  35.257  30.204  1.00  0.00     0.022 A 
BRANCH  85  89
ATOM     89  S   UNL A   1      46.247  36.672  27.916  1.00  0.00     0.124 S 
ATOM     90  O   UNL A   1      44.919  37.254  28.078  1.00  0.00    -0.237 OA
ATOM     91  O   UNL A   1      47.355  37.457  28.449  1.00  0.00    -0.237 OA
ATOM     92  O   UNL A   1      46.497  36.050  26.616  1.00  0.00    -0.744 OA
ENDBRANCH  85  89
ENDBRANCH  59  82
ENDBRANCH  33  34
ENDBRANCH  25  28
ENDBRANCH  23  24
ENDBRANCH   1  23
TORSDOF 16
ENDMDL
