MODEL 1
REMARK VINA RESULT:     -10.7      0.000      0.000
REMARK SMILES CC[C@@H](NS(=O)(=O)c1ccc(CC#N)cc1)C(=O)NCCCCNC(=O)c1ccc(-c2c3nc(c(-c4cc(S(=O)(=O)[O-])ccc4F)c4ccc([nH]4)c(-c4cc(S(=O)(=O)[O-])ccc4F)c4nc(c(-c5cc(S(=O)(=O)[O-])ccc5F)c5ccc2[nH]5)C=C4)C=C3)cc1
REMARK SMILES IDX 20 1 19 2 17 3 18 4 3 6 2 7 1 8 4 9 5 11 6 12 7 13 8 14 9 15
REMARK SMILES IDX 16 16 10 17 15 18 11 19 12 20 13 21 14 22 21 23 22 24 23 25
REMARK SMILES IDX 24 26 25 27 26 29 27 30 28 31 89 32 29 33 88 34 30 35 31 36
REMARK SMILES IDX 32 37 82 38 33 39 87 40 81 41 83 42 34 43 86 44 80 45 79 46
REMARK SMILES IDX 35 48 67 49 47 50 66 51 48 52 51 53 65 54 84 55 49 56 50 57
REMARK SMILES IDX 64 59 85 60 52 61 36 62 37 63 45 64 38 65 44 66 46 67 43 68
REMARK SMILES IDX 39 69 40 70 41 71 42 72 68 73 69 74 77 75 70 76 76 77 78 78
REMARK SMILES IDX 75 79 71 80 72 81 73 82 74 83 53 84 54 85 62 86 55 87 61 88
REMARK SMILES IDX 63 89 60 90 56 91 57 92 58 93 59 94
REMARK H PARENT 19 5 4 10 24 28 83 47 51 58
REMARK Flexibility Score: inf
ROOT
ATOM      1  C   UNL A   1      32.243  26.271  26.580  1.00  0.00     0.116 C 
ENDROOT
BRANCH   1   2
ATOM      2  N   UNL A   1      31.397  25.120  26.852  1.00  0.00    -0.355 N 
ATOM      3  C   UNL A   1      31.410  23.875  26.288  1.00  0.00     0.238 C 
ATOM      4  O   UNL A   1      30.466  23.115  26.519  1.00  0.00    -0.273 OA
ATOM      5  H   UNL A   1      30.713  25.259  27.547  1.00  0.00     0.163 HD
BRANCH   3   6
ATOM      6  C   UNL A   1      32.574  23.442  25.390  1.00  0.00     0.158 C 
BRANCH   6   7
ATOM      7  C   UNL A   1      32.897  21.970  25.689  1.00  0.00     0.027 C 
ATOM      8  C   UNL A   1      34.018  21.385  24.848  1.00  0.00     0.006 C 
ENDBRANCH   6   7
BRANCH   6   9
ATOM      9  N   UNL A   1      32.243  23.691  23.972  1.00  0.00    -0.199 NA
ATOM     10  H   UNL A   1      31.275  24.011  23.946  1.00  0.00     0.142 HD
BRANCH   9  11
ATOM     11  S   UNL A   1      33.144  24.797  23.077  1.00  0.00     0.241 S 
ATOM     12  O   UNL A   1      34.318  25.126  23.851  1.00  0.00    -0.207 OA
ATOM     13  O   UNL A   1      33.262  24.205  21.759  1.00  0.00    -0.207 OA
BRANCH  11  14
ATOM     14  C   UNL A   1      32.122  26.244  22.931  1.00  0.00     0.082 A 
ATOM     15  C   UNL A   1      32.666  27.475  22.556  1.00  0.00     0.022 A 
ATOM     16  C   UNL A   1      30.762  26.149  23.241  1.00  0.00     0.022 A 
ATOM     17  C   UNL A   1      31.826  28.592  22.423  1.00  0.00     0.006 A 
ATOM     18  C   UNL A   1      29.926  27.259  23.090  1.00  0.00     0.006 A 
ATOM     19  C   UNL A   1      30.444  28.490  22.668  1.00  0.00    -0.034 A 
BRANCH  19  20
ATOM     20  C   UNL A   1      29.527  29.694  22.526  1.00  0.00     0.155 C 
BRANCH  20  21
ATOM     21  C   UNL A   1      28.090  29.319  22.853  1.00  0.00     0.067 C 
ATOM     22  N   UNL A   1      26.899  29.007  23.124  1.00  0.00    -0.198 NA
ENDBRANCH  20  21
ENDBRANCH  19  20
ENDBRANCH  11  14
ENDBRANCH   9  11
ENDBRANCH   6   9
ENDBRANCH   3   6
ENDBRANCH   1   2
BRANCH   1  23
ATOM     23  C   UNL A   1      31.604  27.537  27.143  1.00  0.00     0.023 C 
BRANCH  23  24
ATOM     24  C   UNL A   1      31.475  28.661  26.115  1.00  0.00     0.023 C 
BRANCH  24  25
ATOM     25  C   UNL A   1      32.712  29.543  25.993  1.00  0.00     0.116 C 
BRANCH  25  26
ATOM     26  N   UNL A   1      32.421  30.944  26.257  1.00  0.00    -0.352 N 
ATOM     27  C   UNL A   1      33.060  31.802  27.118  1.00  0.00     0.251 C 
ATOM     28  H   UNL A   1      31.667  31.327  25.753  1.00  0.00     0.163 HD
ATOM     29  O   UNL A   1      32.571  32.898  27.367  1.00  0.00    -0.269 OA
BRANCH  27  30
ATOM     30  C   UNL A   1      34.320  31.370  27.758  1.00  0.00     0.039 A 
ATOM     31  C   UNL A   1      35.317  32.315  28.001  1.00  0.00     0.014 A 
ATOM     32  C   UNL A   1      34.493  30.040  28.152  1.00  0.00     0.014 A 
ATOM     33  C   UNL A   1      36.465  31.937  28.699  1.00  0.00     0.010 A 
ATOM     34  C   UNL A   1      35.597  29.687  28.921  1.00  0.00     0.010 A 
ATOM     35  C   UNL A   1      36.598  30.630  29.197  1.00  0.00    -0.014 A 
BRANCH  35  36
ATOM     36  C   UNL A   1      37.784  30.226  29.996  1.00  0.00     0.031 A 
ATOM     37  C   UNL A   1      38.805  29.293  29.403  1.00  0.00     0.074 A 
ATOM     38  C   UNL A   1      37.913  30.652  31.268  1.00  0.00     0.049 A 
ATOM     39  N   UNL A   1      39.869  28.771  29.956  1.00  0.00    -0.248 NA
ATOM     40  C   UNL A   1      38.577  28.864  28.016  1.00  0.00     0.031 C 
ATOM     41  C   UNL A   1      36.970  31.529  31.964  1.00  0.00     0.029 A 
ATOM     42  N   UNL A   1      38.885  30.404  32.203  1.00  0.00    -0.354 N 
ATOM     43  C   UNL A   1      40.432  27.946  28.988  1.00  0.00     0.074 A 
ATOM     44  C   UNL A   1      39.545  27.978  27.845  1.00  0.00     0.031 C 
ATOM     45  C   UNL A   1      37.428  31.773  33.202  1.00  0.00     0.029 A 
ATOM     46  C   UNL A   1      38.667  31.030  33.408  1.00  0.00     0.049 A 
ATOM     47  H   UNL A   1      39.666  29.829  32.028  1.00  0.00     0.167 HD
ATOM     48  C   UNL A   1      41.594  27.247  29.038  1.00  0.00     0.034 A 
ATOM     49  C   UNL A   1      39.378  31.000  34.553  1.00  0.00     0.034 A 
ATOM     50  C   UNL A   1      42.467  27.230  30.186  1.00  0.00     0.049 A 
ATOM     51  C   UNL A   1      40.643  30.181  34.603  1.00  0.00     0.074 A 
ATOM     52  C   UNL A   1      43.690  26.600  30.330  1.00  0.00     0.029 A 
ATOM     53  N   UNL A   1      42.204  27.863  31.396  1.00  0.00    -0.354 N 
ATOM     54  N   UNL A   1      41.189  29.445  33.662  1.00  0.00    -0.248 NA
ATOM     55  C   UNL A   1      41.393  30.199  35.866  1.00  0.00     0.031 C 
ATOM     56  C   UNL A   1      44.125  26.780  31.646  1.00  0.00     0.029 A 
ATOM     57  C   UNL A   1      43.222  27.603  32.301  1.00  0.00     0.049 A 
ATOM     58  H   UNL A   1      41.411  28.415  31.583  1.00  0.00     0.167 HD
ATOM     59  C   UNL A   1      42.365  28.940  34.210  1.00  0.00     0.074 A 
ATOM     60  C   UNL A   1      42.453  29.467  35.557  1.00  0.00     0.031 C 
ATOM     61  C   UNL A   1      43.292  28.122  33.649  1.00  0.00     0.034 A 
BRANCH  48  62
ATOM     62  C   UNL A   1      41.960  26.425  27.823  1.00  0.00     0.023 A 
ATOM     63  C   UNL A   1      41.592  25.072  27.707  1.00  0.00     0.031 A 
ATOM     64  C   UNL A   1      42.728  26.983  26.787  1.00  0.00     0.131 A 
ATOM     65  C   UNL A   1      42.072  24.303  26.637  1.00  0.00     0.055 A 
ATOM     66  C   UNL A   1      43.120  26.237  25.674  1.00  0.00     0.041 A 
ATOM     67  F   UNL A   1      43.131  28.263  26.847  1.00  0.00    -0.206 F 
ATOM     68  C   UNL A   1      42.809  24.882  25.604  1.00  0.00     0.022 A 
BRANCH  65  69
ATOM     69  S   UNL A   1      41.870  22.502  26.712  1.00  0.00     0.124 S 
ATOM     70  O   UNL A   1      40.446  22.376  27.015  1.00  0.00    -0.237 OA
ATOM     71  O   UNL A   1      42.279  22.082  25.377  1.00  0.00    -0.237 OA
ATOM     72  O   UNL A   1      42.766  22.101  27.796  1.00  0.00    -0.744 OA
ENDBRANCH  65  69
ENDBRANCH  48  62
BRANCH  49  73
ATOM     73  C   UNL A   1      38.913  31.763  35.749  1.00  0.00     0.023 A 
ATOM     74  C   UNL A   1      38.229  31.122  36.794  1.00  0.00     0.031 A 
ATOM     75  C   UNL A   1      39.120  33.149  35.849  1.00  0.00     0.131 A 
ATOM     76  C   UNL A   1      37.737  31.874  37.872  1.00  0.00     0.055 A 
ATOM     77  C   UNL A   1      38.679  33.885  36.950  1.00  0.00     0.041 A 
ATOM     78  F   UNL A   1      39.772  33.811  34.880  1.00  0.00    -0.206 F 
ATOM     79  C   UNL A   1      37.972  33.248  37.966  1.00  0.00     0.022 A 
BRANCH  76  80
ATOM     80  S   UNL A   1      36.715  31.041  39.117  1.00  0.00     0.124 S 
ATOM     81  O   UNL A   1      36.505  29.736  38.503  1.00  0.00    -0.237 OA
ATOM     82  O   UNL A   1      37.582  31.069  40.290  1.00  0.00    -0.237 OA
ATOM     83  O   UNL A   1      35.527  31.890  39.203  1.00  0.00    -0.744 OA
ENDBRANCH  76  80
ENDBRANCH  49  73
BRANCH  61  84
ATOM     84  C   UNL A   1      44.509  27.786  34.479  1.00  0.00     0.023 A 
ATOM     85  C   UNL A   1      44.568  26.633  35.283  1.00  0.00     0.031 A 
ATOM     86  C   UNL A   1      45.627  28.640  34.469  1.00  0.00     0.131 A 
ATOM     87  C   UNL A   1      45.694  26.398  36.087  1.00  0.00     0.055 A 
ATOM     88  C   UNL A   1      46.772  28.365  35.218  1.00  0.00     0.041 A 
ATOM     89  F   UNL A   1      45.627  29.759  33.726  1.00  0.00    -0.206 F 
ATOM     90  C   UNL A   1      46.804  27.246  36.044  1.00  0.00     0.022 A 
BRANCH  87  91
ATOM     91  S   UNL A   1      45.645  25.028  37.274  1.00  0.00     0.124 S 
ATOM     92  O   UNL A   1      44.517  24.243  36.784  1.00  0.00    -0.237 OA
ATOM     93  O   UNL A   1      46.963  24.424  37.107  1.00  0.00    -0.237 OA
ATOM     94  O   UNL A   1      45.428  25.693  38.558  1.00  0.00    -0.744 OA
ENDBRANCH  87  91
ENDBRANCH  61  84
ENDBRANCH  35  36
ENDBRANCH  27  30
ENDBRANCH  25  26
ENDBRANCH  24  25
ENDBRANCH  23  24
ENDBRANCH   1  23
TORSDOF 20
ENDMDL
MODEL 2
REMARK VINA RESULT:     -10.7      5.256      8.300
REMARK SMILES CC[C@@H](NS(=O)(=O)c1ccc(CC#N)cc1)C(=O)NCCCCNC(=O)c1ccc(-c2c3nc(c(-c4cc(S(=O)(=O)[O-])ccc4F)c4ccc([nH]4)c(-c4cc(S(=O)(=O)[O-])ccc4F)c4nc(c(-c5cc(S(=O)(=O)[O-])ccc5F)c5ccc2[nH]5)C=C4)C=C3)cc1
REMARK SMILES IDX 20 1 19 2 17 3 18 4 3 6 2 7 1 8 4 9 5 11 6 12 7 13 8 14 9 15
REMARK SMILES IDX 16 16 10 17 15 18 11 19 12 20 13 21 14 22 21 23 22 24 23 25
REMARK SMILES IDX 24 26 25 27 26 29 27 30 28 31 89 32 29 33 88 34 30 35 31 36
REMARK SMILES IDX 32 37 82 38 33 39 87 40 81 41 83 42 34 43 86 44 80 45 79 46
REMARK SMILES IDX 35 48 67 49 47 50 66 51 48 52 51 53 65 54 84 55 49 56 50 57
REMARK SMILES IDX 64 59 85 60 52 61 36 62 37 63 45 64 38 65 44 66 46 67 43 68
REMARK SMILES IDX 39 69 40 70 41 71 42 72 68 73 69 74 77 75 70 76 76 77 78 78
REMARK SMILES IDX 75 79 71 80 72 81 73 82 74 83 53 84 54 85 62 86 55 87 61 88
REMARK SMILES IDX 63 89 60 90 56 91 57 92 58 93 59 94
REMARK H PARENT 19 5 4 10 24 28 83 47 51 58
REMARK Flexibility Score: inf
ROOT
ATOM      1  C   UNL A   1      35.910  21.101  25.532  1.00  0.00     0.116 C 
ENDROOT
BRANCH   1   2
ATOM      2  N   UNL A   1      34.844  20.128  25.356  1.00  0.00    -0.355 N 
ATOM      3  C   UNL A   1      33.494  20.320  25.264  1.00  0.00     0.238 C 
ATOM      4  O   UNL A   1      32.754  19.335  25.326  1.00  0.00    -0.273 OA
ATOM      5  H   UNL A   1      35.140  19.190  25.293  1.00  0.00     0.163 HD
BRANCH   3   6
ATOM      6  C   UNL A   1      32.921  21.731  25.086  1.00  0.00     0.158 C 
BRANCH   6   7
ATOM      7  C   UNL A   1      32.776  22.011  23.582  1.00  0.00     0.027 C 
ATOM      8  C   UNL A   1      33.598  23.182  23.075  1.00  0.00     0.006 C 
ENDBRANCH   6   7
BRANCH   6   9
ATOM      9  N   UNL A   1      31.651  21.862  25.830  1.00  0.00    -0.199 NA
ATOM     10  H   UNL A   1      31.469  20.958  26.265  1.00  0.00     0.142 HD
BRANCH   9  11
ATOM     11  S   UNL A   1      31.499  23.023  27.040  1.00  0.00     0.241 S 
ATOM     12  O   UNL A   1      30.103  23.084  27.408  1.00  0.00    -0.207 OA
ATOM     13  O   UNL A   1      32.513  22.681  28.018  1.00  0.00    -0.207 OA
BRANCH  11  14
ATOM     14  C   UNL A   1      31.968  24.565  26.290  1.00  0.00     0.082 A 
ATOM     15  C   UNL A   1      31.026  25.364  25.638  1.00  0.00     0.022 A 
ATOM     16  C   UNL A   1      33.310  24.953  26.320  1.00  0.00     0.022 A 
ATOM     17  C   UNL A   1      31.425  26.590  25.081  1.00  0.00     0.006 A 
ATOM     18  C   UNL A   1      33.700  26.182  25.780  1.00  0.00     0.006 A 
ATOM     19  C   UNL A   1      32.762  27.021  25.165  1.00  0.00    -0.034 A 
BRANCH  19  20
ATOM     20  C   UNL A   1      33.202  28.347  24.565  1.00  0.00     0.155 C 
BRANCH  20  21
ATOM     21  C   UNL A   1      32.456  29.504  25.210  1.00  0.00     0.067 C 
ATOM     22  N   UNL A   1      31.837  30.464  25.744  1.00  0.00    -0.198 NA
ENDBRANCH  20  21
ENDBRANCH  19  20
ENDBRANCH  11  14
ENDBRANCH   9  11
ENDBRANCH   6   9
ENDBRANCH   3   6
ENDBRANCH   1   2
BRANCH   1  23
ATOM     23  C   UNL A   1      37.035  20.835  24.536  1.00  0.00     0.023 C 
BRANCH  23  24
ATOM     24  C   UNL A   1      38.015  19.758  25.001  1.00  0.00     0.023 C 
BRANCH  24  25
ATOM     25  C   UNL A   1      39.198  20.290  25.801  1.00  0.00     0.116 C 
BRANCH  25  26
ATOM     26  N   UNL A   1      40.264  19.309  25.931  1.00  0.00    -0.352 N 
ATOM     27  C   UNL A   1      41.605  19.525  26.135  1.00  0.00     0.251 C 
ATOM     28  H   UNL A   1      39.988  18.365  25.865  1.00  0.00     0.163 HD
ATOM     29  O   UNL A   1      42.399  18.597  26.030  1.00  0.00    -0.269 OA
BRANCH  27  30
ATOM     30  C   UNL A   1      42.071  20.892  26.448  1.00  0.00     0.039 A 
ATOM     31  C   UNL A   1      42.307  21.784  25.401  1.00  0.00     0.014 A 
ATOM     32  C   UNL A   1      42.234  21.297  27.775  1.00  0.00     0.014 A 
ATOM     33  C   UNL A   1      42.647  23.107  25.691  1.00  0.00     0.010 A 
ATOM     34  C   UNL A   1      42.488  22.634  28.062  1.00  0.00     0.010 A 
ATOM     35  C   UNL A   1      42.703  23.552  27.024  1.00  0.00    -0.014 A 
BRANCH  35  36
ATOM     36  C   UNL A   1      43.001  24.971  27.350  1.00  0.00     0.031 A 
ATOM     37  C   UNL A   1      44.384  25.518  27.122  1.00  0.00     0.074 A 
ATOM     38  C   UNL A   1      42.047  25.747  27.901  1.00  0.00     0.049 A 
ATOM     39  N   UNL A   1      44.862  26.703  27.401  1.00  0.00    -0.248 NA
ATOM     40  C   UNL A   1      45.366  24.597  26.532  1.00  0.00     0.031 C 
ATOM     41  C   UNL A   1      40.681  25.318  28.205  1.00  0.00     0.029 A 
ATOM     42  N   UNL A   1      42.081  27.056  28.309  1.00  0.00    -0.354 N 
ATOM     43  C   UNL A   1      46.203  26.667  27.031  1.00  0.00     0.074 A 
ATOM     44  C   UNL A   1      46.475  25.318  26.582  1.00  0.00     0.031 C 
ATOM     45  C   UNL A   1      39.998  26.355  28.716  1.00  0.00     0.029 A 
ATOM     46  C   UNL A   1      40.889  27.505  28.828  1.00  0.00     0.049 A 
ATOM     47  H   UNL A   1      42.884  27.622  28.238  1.00  0.00     0.167 HD
ATOM     48  C   UNL A   1      47.114  27.672  27.040  1.00  0.00     0.034 A 
ATOM     49  C   UNL A   1      40.555  28.704  29.347  1.00  0.00     0.034 A 
ATOM     50  C   UNL A   1      46.821  29.011  27.488  1.00  0.00     0.049 A 
ATOM     51  C   UNL A   1      41.595  29.794  29.388  1.00  0.00     0.074 A 
ATOM     52  C   UNL A   1      47.651  30.118  27.494  1.00  0.00     0.029 A 
ATOM     53  N   UNL A   1      45.607  29.425  28.024  1.00  0.00    -0.354 N 
ATOM     54  N   UNL A   1      42.845  29.760  28.988  1.00  0.00    -0.248 NA
ATOM     55  C   UNL A   1      41.175  31.088  29.942  1.00  0.00     0.031 C 
ATOM     56  C   UNL A   1      46.970  31.174  28.108  1.00  0.00     0.029 A 
ATOM     57  C   UNL A   1      45.681  30.757  28.400  1.00  0.00     0.049 A 
ATOM     58  H   UNL A   1      44.811  28.855  28.122  1.00  0.00     0.167 HD
ATOM     59  C   UNL A   1      43.350  31.039  29.210  1.00  0.00     0.074 A 
ATOM     60  C   UNL A   1      42.265  31.820  29.768  1.00  0.00     0.031 C 
ATOM     61  C   UNL A   1      44.595  31.524  28.969  1.00  0.00     0.034 A 
BRANCH  48  62
ATOM     62  C   UNL A   1      48.515  27.340  26.577  1.00  0.00     0.023 A 
ATOM     63  C   UNL A   1      48.966  27.674  25.288  1.00  0.00     0.031 A 
ATOM     64  C   UNL A   1      49.397  26.636  27.416  1.00  0.00     0.131 A 
ATOM     65  C   UNL A   1      50.218  27.224  24.843  1.00  0.00     0.055 A 
ATOM     66  C   UNL A   1      50.681  26.276  27.001  1.00  0.00     0.041 A 
ATOM     67  F   UNL A   1      49.019  26.268  28.650  1.00  0.00    -0.206 F 
ATOM     68  C   UNL A   1      51.090  26.552  25.699  1.00  0.00     0.022 A 
BRANCH  65  69
ATOM     69  S   UNL A   1      50.609  27.371  23.078  1.00  0.00     0.124 S 
ATOM     70  O   UNL A   1      51.895  26.682  23.002  1.00  0.00    -0.237 OA
ATOM     71  O   UNL A   1      49.483  26.691  22.448  1.00  0.00    -0.237 OA
ATOM     72  O   UNL A   1      50.671  28.815  22.859  1.00  0.00    -0.744 OA
ENDBRANCH  65  69
ENDBRANCH  48  62
BRANCH  49  73
ATOM     73  C   UNL A   1      39.178  28.940  29.872  1.00  0.00     0.023 A 
ATOM     74  C   UNL A   1      38.196  29.552  29.076  1.00  0.00     0.031 A 
ATOM     75  C   UNL A   1      38.833  28.585  31.187  1.00  0.00     0.131 A 
ATOM     76  C   UNL A   1      36.931  29.830  29.617  1.00  0.00     0.055 A 
ATOM     77  C   UNL A   1      37.556  28.813  31.704  1.00  0.00     0.041 A 
ATOM     78  F   UNL A   1      39.733  27.994  31.990  1.00  0.00    -0.206 F 
ATOM     79  C   UNL A   1      36.599  29.450  30.920  1.00  0.00     0.022 A 
BRANCH  76  80
ATOM     80  S   UNL A   1      35.746  30.770  28.616  1.00  0.00     0.124 S 
ATOM     81  O   UNL A   1      36.633  31.562  27.773  1.00  0.00    -0.237 OA
ATOM     82  O   UNL A   1      35.002  29.707  27.949  1.00  0.00    -0.237 OA
ATOM     83  O   UNL A   1      34.989  31.528  29.611  1.00  0.00    -0.744 OA
ENDBRANCH  76  80
ENDBRANCH  49  73
BRANCH  61  84
ATOM     84  C   UNL A   1      44.834  32.987  29.263  1.00  0.00     0.023 A 
ATOM     85  C   UNL A   1      45.337  33.426  30.501  1.00  0.00     0.031 A 
ATOM     86  C   UNL A   1      44.546  33.959  28.287  1.00  0.00     0.131 A 
ATOM     87  C   UNL A   1      45.479  34.800  30.751  1.00  0.00     0.055 A 
ATOM     88  C   UNL A   1      44.756  35.319  28.517  1.00  0.00     0.041 A 
ATOM     89  F   UNL A   1      44.058  33.600  27.088  1.00  0.00    -0.206 F 
ATOM     90  C   UNL A   1      45.211  35.747  29.759  1.00  0.00     0.022 A 
BRANCH  87  91
ATOM     91  S   UNL A   1      45.917  35.339  32.425  1.00  0.00     0.124 S 
ATOM     92  O   UNL A   1      47.204  35.990  32.208  1.00  0.00    -0.237 OA
ATOM     93  O   UNL A   1      44.806  36.222  32.769  1.00  0.00    -0.237 OA
ATOM     94  O   UNL A   1      45.972  34.091  33.185  1.00  0.00    -0.744 OA
ENDBRANCH  87  91
ENDBRANCH  61  84
ENDBRANCH  35  36
ENDBRANCH  27  30
ENDBRANCH  25  26
ENDBRANCH  24  25
ENDBRANCH  23  24
ENDBRANCH   1  23
TORSDOF 20
ENDMDL
MODEL 3
REMARK VINA RESULT:     -10.6      4.942      7.694
REMARK SMILES CC[C@@H](NS(=O)(=O)c1ccc(CC#N)cc1)C(=O)NCCCCNC(=O)c1ccc(-c2c3nc(c(-c4cc(S(=O)(=O)[O-])ccc4F)c4ccc([nH]4)c(-c4cc(S(=O)(=O)[O-])ccc4F)c4nc(c(-c5cc(S(=O)(=O)[O-])ccc5F)c5ccc2[nH]5)C=C4)C=C3)cc1
REMARK SMILES IDX 20 1 19 2 17 3 18 4 3 6 2 7 1 8 4 9 5 11 6 12 7 13 8 14 9 15
REMARK SMILES IDX 16 16 10 17 15 18 11 19 12 20 13 21 14 22 21 23 22 24 23 25
REMARK SMILES IDX 24 26 25 27 26 29 27 30 28 31 89 32 29 33 88 34 30 35 31 36
REMARK SMILES IDX 32 37 82 38 33 39 87 40 81 41 83 42 34 43 86 44 80 45 79 46
REMARK SMILES IDX 35 48 67 49 47 50 66 51 48 52 51 53 65 54 84 55 49 56 50 57
REMARK SMILES IDX 64 59 85 60 52 61 36 62 37 63 45 64 38 65 44 66 46 67 43 68
REMARK SMILES IDX 39 69 40 70 41 71 42 72 68 73 69 74 77 75 70 76 76 77 78 78
REMARK SMILES IDX 75 79 71 80 72 81 73 82 74 83 53 84 54 85 62 86 55 87 61 88
REMARK SMILES IDX 63 89 60 90 56 91 57 92 58 93 59 94
REMARK H PARENT 19 5 4 10 24 28 83 47 51 58
REMARK Flexibility Score: inf
ROOT
ATOM      1  C   UNL A   1      35.192  21.392  26.064  1.00  0.00     0.116 C 
ENDROOT
BRANCH   1   2
ATOM      2  N   UNL A   1      34.271  20.318  25.728  1.00  0.00    -0.355 N 
ATOM      3  C   UNL A   1      32.952  20.378  25.376  1.00  0.00     0.238 C 
ATOM      4  O   UNL A   1      32.305  19.328  25.337  1.00  0.00    -0.273 OA
ATOM      5  H   UNL A   1      34.656  19.412  25.760  1.00  0.00     0.163 HD
BRANCH   3   6
ATOM      6  C   UNL A   1      32.300  21.723  25.037  1.00  0.00     0.158 C 
BRANCH   6   7
ATOM      7  C   UNL A   1      32.078  21.787  23.518  1.00  0.00     0.027 C 
ATOM      8  C   UNL A   1      32.370  23.139  22.892  1.00  0.00     0.006 C 
ENDBRANCH   6   7
BRANCH   6   9
ATOM      9  N   UNL A   1      31.057  21.898  25.816  1.00  0.00    -0.199 NA
ATOM     10  H   UNL A   1      30.868  21.005  26.273  1.00  0.00     0.142 HD
BRANCH   9  11
ATOM     11  S   UNL A   1      30.968  23.082  27.009  1.00  0.00     0.241 S 
ATOM     12  O   UNL A   1      29.650  23.008  27.596  1.00  0.00    -0.207 OA
ATOM     13  O   UNL A   1      32.156  22.890  27.818  1.00  0.00    -0.207 OA
BRANCH  11  14
ATOM     14  C   UNL A   1      31.137  24.635  26.159  1.00  0.00     0.082 A 
ATOM     15  C   UNL A   1      32.352  25.324  26.153  1.00  0.00     0.022 A 
ATOM     16  C   UNL A   1      30.018  25.188  25.529  1.00  0.00     0.022 A 
ATOM     17  C   UNL A   1      32.458  26.534  25.449  1.00  0.00     0.006 A 
ATOM     18  C   UNL A   1      30.133  26.384  24.814  1.00  0.00     0.006 A 
ATOM     19  C   UNL A   1      31.355  27.065  24.754  1.00  0.00    -0.034 A 
BRANCH  19  20
ATOM     20  C   UNL A   1      31.461  28.374  23.989  1.00  0.00     0.155 C 
BRANCH  20  21
ATOM     21  C   UNL A   1      31.522  29.554  24.947  1.00  0.00     0.067 C 
ATOM     22  N   UNL A   1      31.572  30.532  25.740  1.00  0.00    -0.198 NA
ENDBRANCH  20  21
ENDBRANCH  19  20
ENDBRANCH  11  14
ENDBRANCH   9  11
ENDBRANCH   6   9
ENDBRANCH   3   6
ENDBRANCH   1   2
BRANCH   1  23
ATOM     23  C   UNL A   1      35.912  21.877  24.809  1.00  0.00     0.023 C 
BRANCH  23  24
ATOM     24  C   UNL A   1      37.363  21.406  24.721  1.00  0.00     0.023 C 
BRANCH  24  25
ATOM     25  C   UNL A   1      38.297  22.059  25.732  1.00  0.00     0.116 C 
BRANCH  25  26
ATOM     26  N   UNL A   1      39.492  21.267  25.975  1.00  0.00    -0.352 N 
ATOM     27  C   UNL A   1      40.724  21.688  26.412  1.00  0.00     0.251 C 
ATOM     28  H   UNL A   1      39.407  20.300  25.804  1.00  0.00     0.163 HD
ATOM     29  O   UNL A   1      41.681  20.922  26.382  1.00  0.00    -0.269 OA
BRANCH  27  30
ATOM     30  C   UNL A   1      40.880  23.080  26.883  1.00  0.00     0.039 A 
ATOM     31  C   UNL A   1      41.255  23.310  28.208  1.00  0.00     0.014 A 
ATOM     32  C   UNL A   1      40.695  24.150  26.003  1.00  0.00     0.014 A 
ATOM     33  C   UNL A   1      41.507  24.616  28.632  1.00  0.00     0.010 A 
ATOM     34  C   UNL A   1      41.029  25.438  26.405  1.00  0.00     0.010 A 
ATOM     35  C   UNL A   1      41.432  25.687  27.725  1.00  0.00    -0.014 A 
BRANCH  35  36
ATOM     36  C   UNL A   1      41.757  27.075  28.143  1.00  0.00     0.031 A 
ATOM     37  C   UNL A   1      43.187  27.544  28.139  1.00  0.00     0.074 A 
ATOM     38  C   UNL A   1      40.778  27.891  28.580  1.00  0.00     0.049 A 
ATOM     39  N   UNL A   1      43.683  28.690  28.529  1.00  0.00    -0.248 NA
ATOM     40  C   UNL A   1      44.193  26.583  27.664  1.00  0.00     0.031 C 
ATOM     41  C   UNL A   1      39.360  27.537  28.666  1.00  0.00     0.029 A 
ATOM     42  N   UNL A   1      40.823  29.183  29.037  1.00  0.00    -0.354 N 
ATOM     43  C   UNL A   1      45.060  28.583  28.356  1.00  0.00     0.074 A 
ATOM     44  C   UNL A   1      45.320  27.235  27.901  1.00  0.00     0.031 C 
ATOM     45  C   UNL A   1      38.668  28.597  29.111  1.00  0.00     0.029 A 
ATOM     46  C   UNL A   1      39.595  29.688  29.394  1.00  0.00     0.049 A 
ATOM     47  H   UNL A   1      41.659  29.701  29.104  1.00  0.00     0.167 HD
ATOM     48  C   UNL A   1      46.014  29.531  28.534  1.00  0.00     0.034 A 
ATOM     49  C   UNL A   1      39.255  30.889  29.903  1.00  0.00     0.034 A 
ATOM     50  C   UNL A   1      45.734  30.872  28.985  1.00  0.00     0.049 A 
ATOM     51  C   UNL A   1      40.337  31.913  30.136  1.00  0.00     0.074 A 
ATOM     52  C   UNL A   1      46.614  31.926  29.153  1.00  0.00     0.029 A 
ATOM     53  N   UNL A   1      44.479  31.342  29.354  1.00  0.00    -0.354 N 
ATOM     54  N   UNL A   1      41.628  31.816  29.920  1.00  0.00    -0.248 NA
ATOM     55  C   UNL A   1      39.912  33.214  30.671  1.00  0.00     0.031 C 
ATOM     56  C   UNL A   1      45.910  33.003  29.701  1.00  0.00     0.029 A 
ATOM     57  C   UNL A   1      44.570  32.657  29.787  1.00  0.00     0.049 A 
ATOM     58  H   UNL A   1      43.647  30.819  29.315  1.00  0.00     0.167 HD
ATOM     59  C   UNL A   1      42.165  33.054  30.261  1.00  0.00     0.074 A 
ATOM     60  C   UNL A   1      41.054  33.884  30.684  1.00  0.00     0.031 C 
ATOM     61  C   UNL A   1      43.457  33.471  30.221  1.00  0.00     0.034 A 
BRANCH  48  62
ATOM     62  C   UNL A   1      47.448  29.129  28.267  1.00  0.00     0.023 A 
ATOM     63  C   UNL A   1      47.929  28.932  26.961  1.00  0.00     0.031 A 
ATOM     64  C   UNL A   1      48.334  28.891  29.333  1.00  0.00     0.131 A 
ATOM     65  C   UNL A   1      49.219  28.420  26.757  1.00  0.00     0.055 A 
ATOM     66  C   UNL A   1      49.649  28.475  29.120  1.00  0.00     0.041 A 
ATOM     67  F   UNL A   1      47.929  29.039  30.605  1.00  0.00    -0.206 F 
ATOM     68  C   UNL A   1      50.093  28.217  27.826  1.00  0.00     0.022 A 
BRANCH  65  69
ATOM     69  S   UNL A   1      49.668  27.853  25.094  1.00  0.00     0.124 S 
ATOM     70  O   UNL A   1      50.195  26.518  25.369  1.00  0.00    -0.237 OA
ATOM     71  O   UNL A   1      48.393  27.902  24.389  1.00  0.00    -0.237 OA
ATOM     72  O   UNL A   1      50.664  28.829  24.656  1.00  0.00    -0.744 OA
ENDBRANCH  65  69
ENDBRANCH  48  62
BRANCH  49  73
ATOM     73  C   UNL A   1      37.831  31.193  30.231  1.00  0.00     0.023 A 
ATOM     74  C   UNL A   1      36.951  31.678  29.251  1.00  0.00     0.031 A 
ATOM     75  C   UNL A   1      37.338  31.031  31.538  1.00  0.00     0.131 A 
ATOM     76  C   UNL A   1      35.637  32.025  29.601  1.00  0.00     0.055 A 
ATOM     77  C   UNL A   1      36.015  31.325  31.870  1.00  0.00     0.041 A 
ATOM     78  F   UNL A   1      38.136  30.566  32.512  1.00  0.00    -0.206 F 
ATOM     79  C   UNL A   1      35.158  31.837  30.900  1.00  0.00     0.022 A 
BRANCH  76  80
ATOM     80  S   UNL A   1      34.581  32.805  28.349  1.00  0.00     0.124 S 
ATOM     81  O   UNL A   1      33.666  33.582  29.176  1.00  0.00    -0.237 OA
ATOM     82  O   UNL A   1      35.549  33.568  27.568  1.00  0.00    -0.237 OA
ATOM     83  O   UNL A   1      33.982  31.667  27.654  1.00  0.00    -0.744 OA
ENDBRANCH  76  80
ENDBRANCH  49  73
BRANCH  61  84
ATOM     84  C   UNL A   1      43.731  34.907  30.601  1.00  0.00     0.023 A 
ATOM     85  C   UNL A   1      43.852  35.314  31.942  1.00  0.00     0.031 A 
ATOM     86  C   UNL A   1      43.864  35.888  29.601  1.00  0.00     0.131 A 
ATOM     87  C   UNL A   1      44.041  36.670  32.248  1.00  0.00     0.055 A 
ATOM     88  C   UNL A   1      44.121  37.225  29.909  1.00  0.00     0.041 A 
ATOM     89  F   UNL A   1      43.752  35.561  28.303  1.00  0.00    -0.206 F 
ATOM     90  C   UNL A   1      44.196  37.624  31.239  1.00  0.00     0.022 A 
BRANCH  87  91
ATOM     91  S   UNL A   1      43.971  37.189  33.983  1.00  0.00     0.124 S 
ATOM     92  O   UNL A   1      45.355  37.012  34.408  1.00  0.00    -0.237 OA
ATOM     93  O   UNL A   1      43.508  38.569  33.879  1.00  0.00    -0.237 OA
ATOM     94  O   UNL A   1      43.015  36.259  34.582  1.00  0.00    -0.744 OA
ENDBRANCH  87  91
ENDBRANCH  61  84
ENDBRANCH  35  36
ENDBRANCH  27  30
ENDBRANCH  25  26
ENDBRANCH  24  25
ENDBRANCH  23  24
ENDBRANCH   1  23
TORSDOF 20
ENDMDL
