MODEL 1
REMARK VINA RESULT:     -11.8      0.000      0.000
REMARK SMILES CCC[C@]1(C(=O)NCCCCNC(=O)c2ccc(-c3c4nc(c(-c5cc(S(=O)(=O)[O-])ccc5F)c5ccc([nH]5)c(-c5cc(S(=O)(=O)[O-])ccc5F)c5nc(c(-c6cc(S(=O)(=O)[O-])ccc6F)c6ccc3[nH]6)C=C5)C=C4)cc2)CCN(c2cncc(C(=O)OC)n2)C1
REMARK SMILES IDX 9 1 8 2 7 3 5 4 6 5 4 7 78 8 91 9 79 10 80 11 3 12 2 13 1 14
REMARK SMILES IDX 81 15 82 16 90 17 83 18 85 19 84 20 86 21 87 22 88 23 89 24
REMARK SMILES IDX 10 25 11 26 12 27 13 28 14 30 15 31 16 32 77 33 17 34 76 35
REMARK SMILES IDX 18 36 19 37 20 38 70 39 21 40 75 41 69 42 71 43 22 44 74 45
REMARK SMILES IDX 68 46 67 47 23 49 55 50 35 51 54 52 36 53 39 54 53 55 72 56
REMARK SMILES IDX 37 57 38 58 52 60 73 61 40 62 24 63 25 64 33 65 26 66 32 67
REMARK SMILES IDX 34 68 31 69 27 70 28 71 29 72 30 73 56 74 57 75 65 76 58 77
REMARK SMILES IDX 64 78 66 79 63 80 59 81 60 82 61 83 62 84 41 85 42 86 50 87
REMARK SMILES IDX 43 88 49 89 51 90 48 91 44 92 45 93 46 94 47 95
REMARK H PARENT 7 6 12 29 71 48 39 59
REMARK Flexibility Score: inf
ROOT
ATOM      1  C   UNL A   1      31.534  27.658  26.890  1.00  0.00     0.023 C 
ENDROOT
BRANCH   1   2
ATOM      2  C   UNL A   1      32.056  26.310  26.408  1.00  0.00     0.116 C 
BRANCH   2   3
ATOM      3  N   UNL A   1      31.192  25.208  26.796  1.00  0.00    -0.356 N 
ATOM      4  C   UNL A   1      31.401  23.862  26.837  1.00  0.00     0.228 C 
ATOM      5  O   UNL A   1      30.458  23.184  27.257  1.00  0.00    -0.274 OA
ATOM      6  H   UNL A   1      30.291  25.484  27.082  1.00  0.00     0.163 HD
BRANCH   4   7
ATOM      7  C   UNL A   1      32.718  23.202  26.364  1.00  0.00     0.068 C 
ATOM      8  C   UNL A   1      33.320  22.354  27.508  1.00  0.00     0.040 C 
ATOM      9  C   UNL A   1      32.430  22.220  25.207  1.00  0.00     0.135 C 
ATOM     10  C   UNL A   1      33.794  21.061  26.861  1.00  0.00     0.119 C 
ATOM     11  N   UNL A   1      33.011  20.962  25.649  1.00  0.00    -0.354 N 
BRANCH   7  12
ATOM     12  C   UNL A   1      33.709  24.335  25.955  1.00  0.00     0.018 C 
BRANCH  12  13
ATOM     13  C   UNL A   1      34.905  24.006  25.047  1.00  0.00    -0.002 C 
ATOM     14  C   UNL A   1      36.255  23.962  25.747  1.00  0.00     0.004 C 
ENDBRANCH  12  13
ENDBRANCH   7  12
BRANCH  11  15
ATOM     15  C   UNL A   1      32.871  19.799  24.941  1.00  0.00     0.148 A 
ATOM     16  C   UNL A   1      32.414  19.819  23.614  1.00  0.00     0.157 A 
ATOM     17  N   UNL A   1      33.191  18.624  25.522  1.00  0.00    -0.221 NA
ATOM     18  N   UNL A   1      32.258  18.721  22.836  1.00  0.00    -0.258 NA
ATOM     19  C   UNL A   1      32.999  17.504  24.765  1.00  0.00     0.169 A 
ATOM     20  C   UNL A   1      32.561  17.557  23.449  1.00  0.00     0.147 A 
BRANCH  19  21
ATOM     21  C   UNL A   1      33.181  16.157  25.366  1.00  0.00     0.358 C 
ATOM     22  O   UNL A   1      32.363  15.258  25.245  1.00  0.00    -0.244 OA
BRANCH  21  23
ATOM     23  O   UNL A   1      34.324  16.087  26.097  1.00  0.00    -0.464 OA
ATOM     24  C   UNL A   1      35.486  15.823  25.310  1.00  0.00     0.282 C 
ENDBRANCH  21  23
ENDBRANCH  19  21
ENDBRANCH  11  15
ENDBRANCH   4   7
ENDBRANCH   2   3
ENDBRANCH   1   2
BRANCH   1  25
ATOM     25  C   UNL A   1      31.593  28.771  25.848  1.00  0.00     0.023 C 
BRANCH  25  26
ATOM     26  C   UNL A   1      32.855  29.625  25.886  1.00  0.00     0.116 C 
BRANCH  26  27
ATOM     27  N   UNL A   1      32.605  30.988  26.332  1.00  0.00    -0.352 N 
ATOM     28  C   UNL A   1      33.298  31.739  27.251  1.00  0.00     0.251 C 
ATOM     29  H   UNL A   1      31.831  31.434  25.919  1.00  0.00     0.163 HD
ATOM     30  O   UNL A   1      32.845  32.816  27.624  1.00  0.00    -0.269 OA
BRANCH  28  31
ATOM     31  C   UNL A   1      34.566  31.222  27.808  1.00  0.00     0.039 A 
ATOM     32  C   UNL A   1      35.638  32.100  27.979  1.00  0.00     0.014 A 
ATOM     33  C   UNL A   1      34.684  29.883  28.191  1.00  0.00     0.014 A 
ATOM     34  C   UNL A   1      36.802  31.649  28.602  1.00  0.00     0.010 A 
ATOM     35  C   UNL A   1      35.810  29.461  28.891  1.00  0.00     0.010 A 
ATOM     36  C   UNL A   1      36.883  30.339  29.102  1.00  0.00    -0.014 A 
BRANCH  36  37
ATOM     37  C   UNL A   1      38.085  29.875  29.845  1.00  0.00     0.031 A 
ATOM     38  C   UNL A   1      38.354  30.378  31.237  1.00  0.00     0.074 A 
ATOM     39  C   UNL A   1      38.954  29.036  29.247  1.00  0.00     0.049 A 
ATOM     40  N   UNL A   1      39.363  30.120  32.030  1.00  0.00    -0.248 NA
ATOM     41  C   UNL A   1      37.374  31.318  31.802  1.00  0.00     0.031 C 
ATOM     42  C   UNL A   1      38.825  28.516  27.883  1.00  0.00     0.029 A 
ATOM     43  N   UNL A   1      40.119  28.472  29.705  1.00  0.00    -0.354 N 
ATOM     44  C   UNL A   1      39.142  30.869  33.181  1.00  0.00     0.074 A 
ATOM     45  C   UNL A   1      37.944  31.646  32.951  1.00  0.00     0.031 C 
ATOM     46  C   UNL A   1      39.846  27.682  27.631  1.00  0.00     0.029 A 
ATOM     47  C   UNL A   1      40.730  27.645  28.791  1.00  0.00     0.049 A 
ATOM     48  H   UNL A   1      40.484  28.643  30.603  1.00  0.00     0.167 HD
ATOM     49  C   UNL A   1      39.858  30.885  34.334  1.00  0.00     0.034 A 
ATOM     50  C   UNL A   1      41.877  26.942  28.873  1.00  0.00     0.034 A 
ATOM     51  C   UNL A   1      41.049  30.101  34.546  1.00  0.00     0.049 A 
ATOM     52  C   UNL A   1      42.674  27.003  30.152  1.00  0.00     0.074 A 
ATOM     53  C   UNL A   1      41.825  30.004  35.689  1.00  0.00     0.029 A 
ATOM     54  N   UNL A   1      41.647  29.283  33.594  1.00  0.00    -0.354 N 
ATOM     55  N   UNL A   1      42.421  27.673  31.254  1.00  0.00    -0.248 NA
ATOM     56  C   UNL A   1      43.902  26.200  30.205  1.00  0.00     0.031 C 
ATOM     57  C   UNL A   1      42.929  29.194  35.403  1.00  0.00     0.029 A 
ATOM     58  C   UNL A   1      42.798  28.709  34.112  1.00  0.00     0.049 A 
ATOM     59  H   UNL A   1      41.302  29.133  32.684  1.00  0.00     0.167 HD
ATOM     60  C   UNL A   1      43.444  27.345  32.140  1.00  0.00     0.074 A 
ATOM     61  C   UNL A   1      44.302  26.403  31.451  1.00  0.00     0.031 C 
ATOM     62  C   UNL A   1      43.654  27.780  33.410  1.00  0.00     0.034 A 
BRANCH  49  63
ATOM     63  C   UNL A   1      39.378  31.801  35.437  1.00  0.00     0.023 A 
ATOM     64  C   UNL A   1      38.686  31.308  36.558  1.00  0.00     0.031 A 
ATOM     65  C   UNL A   1      39.593  33.188  35.357  1.00  0.00     0.131 A 
ATOM     66  C   UNL A   1      38.167  32.199  37.509  1.00  0.00     0.055 A 
ATOM     67  C   UNL A   1      39.150  34.061  36.352  1.00  0.00     0.041 A 
ATOM     68  F   UNL A   1      40.226  33.723  34.300  1.00  0.00    -0.206 F 
ATOM     69  C   UNL A   1      38.418  33.571  37.430  1.00  0.00     0.022 A 
BRANCH  66  70
ATOM     70  S   UNL A   1      37.028  31.555  38.765  1.00  0.00     0.124 S 
ATOM     71  O   UNL A   1      36.742  30.218  38.247  1.00  0.00    -0.237 OA
ATOM     72  O   UNL A   1      37.832  31.612  39.980  1.00  0.00    -0.237 OA
ATOM     73  O   UNL A   1      35.901  32.486  38.716  1.00  0.00    -0.744 OA
ENDBRANCH  66  70
ENDBRANCH  49  63
BRANCH  50  74
ATOM     74  C   UNL A   1      42.352  26.125  27.718  1.00  0.00     0.023 A 
ATOM     75  C   UNL A   1      41.976  24.779  27.578  1.00  0.00     0.031 A 
ATOM     76  C   UNL A   1      43.232  26.664  26.762  1.00  0.00     0.131 A 
ATOM     77  C   UNL A   1      42.517  24.005  26.539  1.00  0.00     0.055 A 
ATOM     78  C   UNL A   1      43.719  25.906  25.696  1.00  0.00     0.041 A 
ATOM     79  F   UNL A   1      43.624  27.945  26.846  1.00  0.00    -0.206 F 
ATOM     80  C   UNL A   1      43.374  24.563  25.588  1.00  0.00     0.022 A 
BRANCH  77  81
ATOM     81  S   UNL A   1      42.160  22.226  26.505  1.00  0.00     0.124 S 
ATOM     82  O   UNL A   1      42.636  21.804  27.818  1.00  0.00    -0.237 OA
ATOM     83  O   UNL A   1      40.714  22.211  26.311  1.00  0.00    -0.237 OA
ATOM     84  O   UNL A   1      42.945  21.744  25.372  1.00  0.00    -0.744 OA
ENDBRANCH  77  81
ENDBRANCH  50  74
BRANCH  62  85
ATOM     85  C   UNL A   1      44.838  27.199  34.147  1.00  0.00     0.023 A 
ATOM     86  C   UNL A   1      44.711  26.088  34.998  1.00  0.00     0.031 A 
ATOM     87  C   UNL A   1      46.111  27.785  34.013  1.00  0.00     0.131 A 
ATOM     88  C   UNL A   1      45.818  25.640  35.734  1.00  0.00     0.055 A 
ATOM     89  C   UNL A   1      47.225  27.289  34.692  1.00  0.00     0.041 A 
ATOM     90  F   UNL A   1      46.293  28.852  33.218  1.00  0.00    -0.206 F 
ATOM     91  C   UNL A   1      47.079  26.221  35.571  1.00  0.00     0.022 A 
BRANCH  88  92
ATOM     92  S   UNL A   1      45.564  24.363  36.997  1.00  0.00     0.124 S 
ATOM     93  O   UNL A   1      44.418  24.888  37.732  1.00  0.00    -0.237 OA
ATOM     94  O   UNL A   1      45.312  23.172  36.191  1.00  0.00    -0.237 OA
ATOM     95  O   UNL A   1      46.825  24.355  37.736  1.00  0.00    -0.744 OA
ENDBRANCH  88  92
ENDBRANCH  62  85
ENDBRANCH  36  37
ENDBRANCH  28  31
ENDBRANCH  26  27
ENDBRANCH  25  26
ENDBRANCH   1  25
TORSDOF 19
ENDMDL
MODEL 2
REMARK VINA RESULT:     -11.8      2.547      8.274
REMARK SMILES CCC[C@]1(C(=O)NCCCCNC(=O)c2ccc(-c3c4nc(c(-c5cc(S(=O)(=O)[O-])ccc5F)c5ccc([nH]5)c(-c5cc(S(=O)(=O)[O-])ccc5F)c5nc(c(-c6cc(S(=O)(=O)[O-])ccc6F)c6ccc3[nH]6)C=C5)C=C4)cc2)CCN(c2cncc(C(=O)OC)n2)C1
REMARK SMILES IDX 9 1 8 2 7 3 5 4 6 5 4 7 78 8 91 9 79 10 80 11 3 12 2 13 1 14
REMARK SMILES IDX 81 15 82 16 90 17 83 18 85 19 84 20 86 21 87 22 88 23 89 24
REMARK SMILES IDX 10 25 11 26 12 27 13 28 14 30 15 31 16 32 77 33 17 34 76 35
REMARK SMILES IDX 18 36 19 37 20 38 70 39 21 40 75 41 69 42 71 43 22 44 74 45
REMARK SMILES IDX 68 46 67 47 23 49 55 50 35 51 54 52 36 53 39 54 53 55 72 56
REMARK SMILES IDX 37 57 38 58 52 60 73 61 40 62 24 63 25 64 33 65 26 66 32 67
REMARK SMILES IDX 34 68 31 69 27 70 28 71 29 72 30 73 56 74 57 75 65 76 58 77
REMARK SMILES IDX 64 78 66 79 63 80 59 81 60 82 61 83 62 84 41 85 42 86 50 87
REMARK SMILES IDX 43 88 49 89 51 90 48 91 44 92 45 93 46 94 47 95
REMARK H PARENT 7 6 12 29 71 48 39 59
REMARK Flexibility Score: inf
ROOT
ATOM      1  C   UNL A   1      31.836  30.495  25.741  1.00  0.00     0.023 C 
ENDROOT
BRANCH   1   2
ATOM      2  C   UNL A   1      32.830  29.341  25.750  1.00  0.00     0.116 C 
BRANCH   2   3
ATOM      3  N   UNL A   1      33.685  29.335  24.575  1.00  0.00    -0.356 N 
ATOM      4  C   UNL A   1      33.737  28.504  23.495  1.00  0.00     0.228 C 
ATOM      5  O   UNL A   1      34.570  28.796  22.632  1.00  0.00    -0.274 OA
ATOM      6  H   UNL A   1      34.347  30.063  24.555  1.00  0.00     0.163 HD
BRANCH   4   7
ATOM      7  C   UNL A   1      32.838  27.253  23.354  1.00  0.00     0.068 C 
ATOM      8  C   UNL A   1      33.185  26.503  22.047  1.00  0.00     0.040 C 
ATOM      9  C   UNL A   1      33.125  26.265  24.506  1.00  0.00     0.135 C 
ATOM     10  C   UNL A   1      33.201  25.025  22.410  1.00  0.00     0.119 C 
ATOM     11  N   UNL A   1      33.434  25.011  23.837  1.00  0.00    -0.354 N 
BRANCH   7  12
ATOM     12  C   UNL A   1      31.351  27.724  23.324  1.00  0.00     0.018 C 
BRANCH  12  13
ATOM     13  C   UNL A   1      30.359  27.170  24.359  1.00  0.00    -0.002 C 
ATOM     14  C   UNL A   1      29.157  26.441  23.776  1.00  0.00     0.004 C 
ENDBRANCH  12  13
ENDBRANCH   7  12
BRANCH  11  15
ATOM     15  C   UNL A   1      33.853  23.900  24.517  1.00  0.00     0.148 A 
ATOM     16  C   UNL A   1      34.971  23.957  25.363  1.00  0.00     0.157 A 
ATOM     17  N   UNL A   1      33.172  22.742  24.383  1.00  0.00    -0.221 NA
ATOM     18  N   UNL A   1      35.448  22.913  26.082  1.00  0.00    -0.258 NA
ATOM     19  C   UNL A   1      33.665  21.669  25.069  1.00  0.00     0.169 A 
ATOM     20  C   UNL A   1      34.765  21.761  25.911  1.00  0.00     0.147 A 
BRANCH  19  21
ATOM     21  C   UNL A   1      33.074  20.321  24.869  1.00  0.00     0.358 C 
ATOM     22  O   UNL A   1      31.906  20.063  25.111  1.00  0.00    -0.244 OA
BRANCH  21  23
ATOM     23  O   UNL A   1      34.006  19.426  24.445  1.00  0.00    -0.464 OA
ATOM     24  C   UNL A   1      33.735  18.087  24.858  1.00  0.00     0.282 C 
ENDBRANCH  21  23
ENDBRANCH  19  21
ENDBRANCH  11  15
ENDBRANCH   4   7
ENDBRANCH   2   3
ENDBRANCH   1   2
BRANCH   1  25
ATOM     25  C   UNL A   1      31.820  31.329  27.019  1.00  0.00     0.023 C 
BRANCH  25  26
ATOM     26  C   UNL A   1      33.046  32.212  27.229  1.00  0.00     0.116 C 
BRANCH  26  27
ATOM     27  N   UNL A   1      32.705  33.593  27.533  1.00  0.00    -0.352 N 
ATOM     28  C   UNL A   1      33.205  34.412  28.518  1.00  0.00     0.251 C 
ATOM     29  H   UNL A   1      32.021  33.998  26.953  1.00  0.00     0.163 HD
ATOM     30  O   UNL A   1      32.681  35.500  28.730  1.00  0.00    -0.269 OA
BRANCH  28  31
ATOM     31  C   UNL A   1      34.346  33.953  29.337  1.00  0.00     0.039 A 
ATOM     32  C   UNL A   1      34.103  33.122  30.432  1.00  0.00     0.014 A 
ATOM     33  C   UNL A   1      35.655  34.317  29.006  1.00  0.00     0.014 A 
ATOM     34  C   UNL A   1      35.179  32.597  31.148  1.00  0.00     0.010 A 
ATOM     35  C   UNL A   1      36.726  33.721  29.665  1.00  0.00     0.010 A 
ATOM     36  C   UNL A   1      36.499  32.856  30.746  1.00  0.00    -0.014 A 
BRANCH  36  37
ATOM     37  C   UNL A   1      37.652  32.230  31.447  1.00  0.00     0.031 A 
ATOM     38  C   UNL A   1      38.417  31.112  30.795  1.00  0.00     0.074 A 
ATOM     39  C   UNL A   1      37.977  32.642  32.689  1.00  0.00     0.049 A 
ATOM     40  N   UNL A   1      39.425  30.417  31.260  1.00  0.00    -0.248 NA
ATOM     41  C   UNL A   1      37.974  30.700  29.455  1.00  0.00     0.031 C 
ATOM     42  C   UNL A   1      37.280  33.686  33.444  1.00  0.00     0.029 A 
ATOM     43  N   UNL A   1      38.975  32.233  33.539  1.00  0.00    -0.354 N 
ATOM     44  C   UNL A   1      39.730  29.485  30.274  1.00  0.00     0.074 A 
ATOM     45  C   UNL A   1      38.754  29.656  29.220  1.00  0.00     0.031 C 
ATOM     46  C   UNL A   1      37.894  33.862  34.624  1.00  0.00     0.029 A 
ATOM     47  C   UNL A   1      38.996  32.912  34.736  1.00  0.00     0.049 A 
ATOM     48  H   UNL A   1      39.617  31.522  33.313  1.00  0.00     0.167 HD
ATOM     49  C   UNL A   1      40.748  28.588  30.239  1.00  0.00     0.034 A 
ATOM     50  C   UNL A   1      39.804  32.779  35.806  1.00  0.00     0.034 A 
ATOM     51  C   UNL A   1      41.714  28.434  31.298  1.00  0.00     0.049 A 
ATOM     52  C   UNL A   1      40.907  31.751  35.758  1.00  0.00     0.074 A 
ATOM     53  C   UNL A   1      42.812  27.592  31.347  1.00  0.00     0.029 A 
ATOM     54  N   UNL A   1      41.697  29.129  32.502  1.00  0.00    -0.354 N 
ATOM     55  N   UNL A   1      41.217  30.915  34.793  1.00  0.00    -0.248 NA
ATOM     56  C   UNL A   1      41.778  31.660  36.936  1.00  0.00     0.031 C 
ATOM     57  C   UNL A   1      43.408  27.721  32.606  1.00  0.00     0.029 A 
ATOM     58  C   UNL A   1      42.741  28.709  33.311  1.00  0.00     0.049 A 
ATOM     59  H   UNL A   1      41.038  29.820  32.744  1.00  0.00     0.167 HD
ATOM     60  C   UNL A   1      42.340  30.223  35.239  1.00  0.00     0.074 A 
ATOM     61  C   UNL A   1      42.662  30.754  36.547  1.00  0.00     0.031 C 
ATOM     62  C   UNL A   1      43.044  29.238  34.622  1.00  0.00     0.034 A 
BRANCH  49  63
ATOM     63  C   UNL A   1      40.844  27.693  29.024  1.00  0.00     0.023 A 
ATOM     64  C   UNL A   1      41.792  27.922  28.010  1.00  0.00     0.031 A 
ATOM     65  C   UNL A   1      39.962  26.611  28.863  1.00  0.00     0.131 A 
ATOM     66  C   UNL A   1      41.783  27.134  26.851  1.00  0.00     0.055 A 
ATOM     67  C   UNL A   1      40.017  25.774  27.747  1.00  0.00     0.041 A 
ATOM     68  F   UNL A   1      39.019  26.353  29.785  1.00  0.00    -0.206 F 
ATOM     69  C   UNL A   1      40.921  26.043  26.723  1.00  0.00     0.022 A 
BRANCH  66  70
ATOM     70  S   UNL A   1      42.808  27.650  25.446  1.00  0.00     0.124 S 
ATOM     71  O   UNL A   1      41.945  28.635  24.797  1.00  0.00    -0.237 OA
ATOM     72  O   UNL A   1      43.999  28.177  26.101  1.00  0.00    -0.237 OA
ATOM     73  O   UNL A   1      43.004  26.413  24.692  1.00  0.00    -0.744 OA
ENDBRANCH  66  70
ENDBRANCH  49  63
BRANCH  50  74
ATOM     74  C   UNL A   1      39.605  33.627  37.018  1.00  0.00     0.023 A 
ATOM     75  C   UNL A   1      38.948  33.126  38.154  1.00  0.00     0.031 A 
ATOM     76  C   UNL A   1      40.026  34.970  37.040  1.00  0.00     0.131 A 
ATOM     77  C   UNL A   1      38.684  33.975  39.241  1.00  0.00     0.055 A 
ATOM     78  C   UNL A   1      39.814  35.791  38.148  1.00  0.00     0.041 A 
ATOM     79  F   UNL A   1      40.660  35.500  35.983  1.00  0.00    -0.206 F 
ATOM     80  C   UNL A   1      39.126  35.299  39.252  1.00  0.00     0.022 A 
BRANCH  77  81
ATOM     81  S   UNL A   1      37.665  33.347  40.604  1.00  0.00     0.124 S 
ATOM     82  O   UNL A   1      38.513  32.292  41.146  1.00  0.00    -0.237 OA
ATOM     83  O   UNL A   1      37.507  34.536  41.436  1.00  0.00    -0.237 OA
ATOM     84  O   UNL A   1      36.449  32.890  39.937  1.00  0.00    -0.744 OA
ENDBRANCH  77  81
ENDBRANCH  50  74
BRANCH  62  85
ATOM     85  C   UNL A   1      44.262  28.710  35.344  1.00  0.00     0.023 A 
ATOM     86  C   UNL A   1      44.176  27.654  36.269  1.00  0.00     0.031 A 
ATOM     87  C   UNL A   1      45.524  29.289  35.119  1.00  0.00     0.131 A 
ATOM     88  C   UNL A   1      45.317  27.258  36.985  1.00  0.00     0.055 A 
ATOM     89  C   UNL A   1      46.668  28.842  35.781  1.00  0.00     0.041 A 
ATOM     90  F   UNL A   1      45.666  30.303  34.251  1.00  0.00    -0.206 F 
ATOM     91  C   UNL A   1      46.566  27.831  36.732  1.00  0.00     0.022 A 
BRANCH  88  92
ATOM     92  S   UNL A   1      45.123  26.064  38.337  1.00  0.00     0.124 S 
ATOM     93  O   UNL A   1      44.399  24.980  37.681  1.00  0.00    -0.237 OA
ATOM     94  O   UNL A   1      46.506  25.778  38.702  1.00  0.00    -0.237 OA
ATOM     95  O   UNL A   1      44.357  26.803  39.339  1.00  0.00    -0.744 OA
ENDBRANCH  88  92
ENDBRANCH  62  85
ENDBRANCH  36  37
ENDBRANCH  28  31
ENDBRANCH  26  27
ENDBRANCH  25  26
ENDBRANCH   1  25
TORSDOF 19
ENDMDL
MODEL 3
REMARK VINA RESULT:     -11.6      2.442      8.247
REMARK SMILES CCC[C@]1(C(=O)NCCCCNC(=O)c2ccc(-c3c4nc(c(-c5cc(S(=O)(=O)[O-])ccc5F)c5ccc([nH]5)c(-c5cc(S(=O)(=O)[O-])ccc5F)c5nc(c(-c6cc(S(=O)(=O)[O-])ccc6F)c6ccc3[nH]6)C=C5)C=C4)cc2)CCN(c2cncc(C(=O)OC)n2)C1
REMARK SMILES IDX 9 1 8 2 7 3 5 4 6 5 4 7 78 8 91 9 79 10 80 11 3 12 2 13 1 14
REMARK SMILES IDX 81 15 82 16 90 17 83 18 85 19 84 20 86 21 87 22 88 23 89 24
REMARK SMILES IDX 10 25 11 26 12 27 13 28 14 30 15 31 16 32 77 33 17 34 76 35
REMARK SMILES IDX 18 36 19 37 20 38 70 39 21 40 75 41 69 42 71 43 22 44 74 45
REMARK SMILES IDX 68 46 67 47 23 49 55 50 35 51 54 52 36 53 39 54 53 55 72 56
REMARK SMILES IDX 37 57 38 58 52 60 73 61 40 62 24 63 25 64 33 65 26 66 32 67
REMARK SMILES IDX 34 68 31 69 27 70 28 71 29 72 30 73 56 74 57 75 65 76 58 77
REMARK SMILES IDX 64 78 66 79 63 80 59 81 60 82 61 83 62 84 41 85 42 86 50 87
REMARK SMILES IDX 43 88 49 89 51 90 48 91 44 92 45 93 46 94 47 95
REMARK H PARENT 7 6 12 29 71 48 39 59
REMARK Flexibility Score: inf
ROOT
ATOM      1  C   UNL A   1      31.090  30.768  25.466  1.00  0.00     0.023 C 
ENDROOT
BRANCH   1   2
ATOM      2  C   UNL A   1      32.104  29.648  25.661  1.00  0.00     0.116 C 
BRANCH   2   3
ATOM      3  N   UNL A   1      33.101  29.609  24.605  1.00  0.00    -0.356 N 
ATOM      4  C   UNL A   1      33.203  28.844  23.481  1.00  0.00     0.228 C 
ATOM      5  O   UNL A   1      34.171  29.085  22.753  1.00  0.00    -0.274 OA
ATOM      6  H   UNL A   1      33.836  30.254  24.721  1.00  0.00     0.163 HD
BRANCH   4   7
ATOM      7  C   UNL A   1      32.199  27.719  23.138  1.00  0.00     0.068 C 
ATOM      8  C   UNL A   1      32.851  26.716  22.158  1.00  0.00     0.040 C 
ATOM      9  C   UNL A   1      31.853  26.914  24.410  1.00  0.00     0.135 C 
ATOM     10  C   UNL A   1      32.454  25.333  22.655  1.00  0.00     0.119 C 
ATOM     11  N   UNL A   1      32.142  25.534  24.053  1.00  0.00    -0.354 N 
BRANCH   7  12
ATOM     12  C   UNL A   1      30.943  28.371  22.482  1.00  0.00     0.018 C 
BRANCH  12  13
ATOM     13  C   UNL A   1      29.575  28.246  23.172  1.00  0.00    -0.002 C 
ATOM     14  C   UNL A   1      28.616  29.400  22.919  1.00  0.00     0.004 C 
ENDBRANCH  12  13
ENDBRANCH   7  12
BRANCH  11  15
ATOM     15  C   UNL A   1      32.066  24.510  24.958  1.00  0.00     0.148 A 
ATOM     16  C   UNL A   1      31.516  24.718  26.232  1.00  0.00     0.157 A 
ATOM     17  N   UNL A   1      32.512  23.283  24.613  1.00  0.00    -0.221 NA
ATOM     18  N   UNL A   1      31.390  23.763  27.183  1.00  0.00    -0.258 NA
ATOM     19  C   UNL A   1      32.430  22.318  25.576  1.00  0.00     0.169 A 
ATOM     20  C   UNL A   1      31.866  22.552  26.822  1.00  0.00     0.147 A 
BRANCH  19  21
ATOM     21  C   UNL A   1      33.030  20.979  25.343  1.00  0.00     0.358 C 
ATOM     22  O   UNL A   1      34.225  20.807  25.160  1.00  0.00    -0.244 OA
BRANCH  21  23
ATOM     23  O   UNL A   1      32.081  20.007  25.304  1.00  0.00    -0.464 OA
ATOM     24  C   UNL A   1      32.523  18.807  24.669  1.00  0.00     0.282 C 
ENDBRANCH  21  23
ENDBRANCH  19  21
ENDBRANCH  11  15
ENDBRANCH   4   7
ENDBRANCH   2   3
ENDBRANCH   1   2
BRANCH   1  25
ATOM     25  C   UNL A   1      31.114  31.842  26.550  1.00  0.00     0.023 C 
BRANCH  25  26
ATOM     26  C   UNL A   1      32.490  32.428  26.848  1.00  0.00     0.116 C 
BRANCH  26  27
ATOM     27  N   UNL A   1      32.427  33.772  27.401  1.00  0.00    -0.352 N 
ATOM     28  C   UNL A   1      33.212  34.348  28.371  1.00  0.00     0.251 C 
ATOM     29  H   UNL A   1      31.722  34.351  27.029  1.00  0.00     0.163 HD
ATOM     30  O   UNL A   1      32.909  35.444  28.831  1.00  0.00    -0.269 OA
BRANCH  28  31
ATOM     31  C   UNL A   1      34.395  33.620  28.878  1.00  0.00     0.039 A 
ATOM     32  C   UNL A   1      35.665  34.156  28.659  1.00  0.00     0.014 A 
ATOM     33  C   UNL A   1      34.248  32.428  29.595  1.00  0.00     0.014 A 
ATOM     34  C   UNL A   1      36.780  33.536  29.224  1.00  0.00     0.010 A 
ATOM     35  C   UNL A   1      35.349  31.863  30.230  1.00  0.00     0.010 A 
ATOM     36  C   UNL A   1      36.628  32.409  30.049  1.00  0.00    -0.014 A 
BRANCH  36  37
ATOM     37  C   UNL A   1      37.799  31.792  30.727  1.00  0.00     0.031 A 
ATOM     38  C   UNL A   1      38.629  30.761  30.013  1.00  0.00     0.074 A 
ATOM     39  C   UNL A   1      38.085  32.130  32.001  1.00  0.00     0.049 A 
ATOM     40  N   UNL A   1      39.662  30.084  30.446  1.00  0.00    -0.248 NA
ATOM     41  C   UNL A   1      38.227  30.424  28.639  1.00  0.00     0.031 C 
ATOM     42  C   UNL A   1      37.325  33.083  32.813  1.00  0.00     0.029 A 
ATOM     43  N   UNL A   1      39.088  31.711  32.838  1.00  0.00    -0.354 N 
ATOM     44  C   UNL A   1      40.027  29.240  29.404  1.00  0.00     0.074 A 
ATOM     45  C   UNL A   1      39.061  29.438  28.346  1.00  0.00     0.031 C 
ATOM     46  C   UNL A   1      37.912  33.205  34.014  1.00  0.00     0.029 A 
ATOM     47  C   UNL A   1      39.057  32.303  34.080  1.00  0.00     0.049 A 
ATOM     48  H   UNL A   1      39.768  31.049  32.575  1.00  0.00     0.167 HD
ATOM     49  C   UNL A   1      41.089  28.398  29.325  1.00  0.00     0.034 A 
ATOM     50  C   UNL A   1      39.855  32.134  35.153  1.00  0.00     0.034 A 
ATOM     51  C   UNL A   1      42.046  28.215  30.389  1.00  0.00     0.049 A 
ATOM     52  C   UNL A   1      41.007  31.166  35.054  1.00  0.00     0.074 A 
ATOM     53  C   UNL A   1      43.183  27.426  30.400  1.00  0.00     0.029 A 
ATOM     54  N   UNL A   1      41.975  28.822  31.638  1.00  0.00    -0.354 N 
ATOM     55  N   UNL A   1      41.373  30.416  34.039  1.00  0.00    -0.248 NA
ATOM     56  C   UNL A   1      41.864  31.034  36.239  1.00  0.00     0.031 C 
ATOM     57  C   UNL A   1      43.753  27.494  31.676  1.00  0.00     0.029 A 
ATOM     58  C   UNL A   1      43.027  28.397  32.436  1.00  0.00     0.049 A 
ATOM     59  H   UNL A   1      41.280  29.462  31.915  1.00  0.00     0.167 HD
ATOM     60  C   UNL A   1      42.522  29.749  34.456  1.00  0.00     0.074 A 
ATOM     61  C   UNL A   1      42.797  30.202  35.805  1.00  0.00     0.031 C 
ATOM     62  C   UNL A   1      43.283  28.846  33.785  1.00  0.00     0.034 A 
BRANCH  49  63
ATOM     63  C   UNL A   1      41.248  27.596  28.053  1.00  0.00     0.023 A 
ATOM     64  C   UNL A   1      40.927  26.228  27.997  1.00  0.00     0.031 A 
ATOM     65  C   UNL A   1      41.752  28.199  26.888  1.00  0.00     0.131 A 
ATOM     66  C   UNL A   1      41.185  25.494  26.830  1.00  0.00     0.055 A 
ATOM     67  C   UNL A   1      41.924  27.483  25.702  1.00  0.00     0.041 A 
ATOM     68  F   UNL A   1      42.100  29.497  26.883  1.00  0.00    -0.206 F 
ATOM     69  C   UNL A   1      41.655  26.117  25.672  1.00  0.00     0.022 A 
BRANCH  66  70
ATOM     70  S   UNL A   1      41.045  23.687  26.896  1.00  0.00     0.124 S 
ATOM     71  O   UNL A   1      39.632  23.489  26.578  1.00  0.00    -0.237 OA
ATOM     72  O   UNL A   1      41.996  23.259  25.877  1.00  0.00    -0.237 OA
ATOM     73  O   UNL A   1      41.416  23.364  28.273  1.00  0.00    -0.744 OA
ENDBRANCH  66  70
ENDBRANCH  49  63
BRANCH  50  74
ATOM     74  C   UNL A   1      39.596  32.884  36.417  1.00  0.00     0.023 A 
ATOM     75  C   UNL A   1      38.718  32.381  37.392  1.00  0.00     0.031 A 
ATOM     76  C   UNL A   1      40.184  34.141  36.648  1.00  0.00     0.131 A 
ATOM     77  C   UNL A   1      38.413  33.153  38.525  1.00  0.00     0.055 A 
ATOM     78  C   UNL A   1      39.924  34.876  37.806  1.00  0.00     0.041 A 
ATOM     79  F   UNL A   1      41.032  34.669  35.751  1.00  0.00    -0.206 F 
ATOM     80  C   UNL A   1      39.022  34.390  38.746  1.00  0.00     0.022 A 
BRANCH  77  81
ATOM     81  S   UNL A   1      37.130  32.557  39.661  1.00  0.00     0.124 S 
ATOM     82  O   UNL A   1      35.939  32.620  38.821  1.00  0.00    -0.237 OA
ATOM     83  O   UNL A   1      37.614  31.221  39.991  1.00  0.00    -0.237 OA
ATOM     84  O   UNL A   1      37.173  33.522  40.757  1.00  0.00    -0.744 OA
ENDBRANCH  77  81
ENDBRANCH  50  74
BRANCH  62  85
ATOM     85  C   UNL A   1      44.514  28.326  34.491  1.00  0.00     0.023 A 
ATOM     86  C   UNL A   1      45.751  28.990  34.413  1.00  0.00     0.031 A 
ATOM     87  C   UNL A   1      44.451  27.133  35.235  1.00  0.00     0.131 A 
ATOM     88  C   UNL A   1      46.888  28.422  35.008  1.00  0.00     0.055 A 
ATOM     89  C   UNL A   1      45.570  26.612  35.885  1.00  0.00     0.041 A 
ATOM     90  F   UNL A   1      43.299  26.453  35.341  1.00  0.00    -0.206 F 
ATOM     91  C   UNL A   1      46.802  27.248  35.760  1.00  0.00     0.022 A 
BRANCH  88  92
ATOM     92  S   UNL A   1      48.506  29.177  34.685  1.00  0.00     0.124 S 
ATOM     93  O   UNL A   1      48.480  29.339  33.235  1.00  0.00    -0.237 OA
ATOM     94  O   UNL A   1      48.437  30.408  35.466  1.00  0.00    -0.237 OA
ATOM     95  O   UNL A   1      49.454  28.180  35.181  1.00  0.00    -0.744 OA
ENDBRANCH  88  92
ENDBRANCH  62  85
ENDBRANCH  36  37
ENDBRANCH  28  31
ENDBRANCH  26  27
ENDBRANCH  25  26
ENDBRANCH   1  25
TORSDOF 19
ENDMDL
