MODEL 1
REMARK VINA RESULT:     -12.2      0.000      0.000
REMARK SMILES O=C(NCCCCNC(=O)c1ccc(-c2cccc(O)c2)cc1Cl)c1ccc(-c2c3nc(c(-c4cc(S(=O)(=O)[O-])ccc4F)c4ccc([nH]4)c(-c4cc(S(=O)(=O)[O-])ccc4F)c4nc(c(-c5cc(S(=O)(=O)[O-])ccc5F)c5ccc2[nH]5)C=C4)C=C3)cc1
REMARK SMILES IDX 5 1 4 2 3 3 1 4 2 5 25 7 26 8 87 9 27 10 86 11 28 12 29 13
REMARK SMILES IDX 30 14 80 15 31 16 85 17 79 18 81 19 32 20 84 21 78 22 77 23
REMARK SMILES IDX 33 25 65 26 45 27 64 28 46 29 49 30 63 31 82 32 47 33 48 34
REMARK SMILES IDX 62 36 83 37 50 38 34 39 35 40 43 41 36 42 42 43 44 44 41 45
REMARK SMILES IDX 37 46 38 47 39 48 40 49 66 50 67 51 75 52 68 53 74 54 76 55
REMARK SMILES IDX 73 56 69 57 70 58 71 59 72 60 51 61 52 62 60 63 53 64 59 65
REMARK SMILES IDX 61 66 58 67 54 68 55 69 56 70 57 71 6 72 7 73 8 74 9 75
REMARK SMILES IDX 10 77 11 78 12 79 23 80 13 81 22 82 24 83 14 84 15 85 16 86
REMARK SMILES IDX 21 87 17 88 19 89 18 90 20 91
REMARK H PARENT 3 6 81 24 49 35 8 76 20 92
REMARK Flexibility Score: inf
ROOT
ATOM      1  C   UNL A   1      32.810  27.926  25.879  1.00  0.00     0.023 C 
ENDROOT
BRANCH   1   2
ATOM      2  C   UNL A   1      34.076  28.643  26.333  1.00  0.00     0.116 C 
BRANCH   2   3
ATOM      3  N   UNL A   1      33.841  30.033  26.695  1.00  0.00    -0.352 N 
ATOM      4  O   UNL A   1      34.124  31.960  27.829  1.00  0.00    -0.269 OA
ATOM      5  C   UNL A   1      34.560  30.849  27.537  1.00  0.00     0.251 C 
ATOM      6  H   UNL A   1      33.053  30.449  26.278  1.00  0.00     0.163 HD
BRANCH   5   7
ATOM      7  C   UNL A   1      35.842  30.381  28.108  1.00  0.00     0.039 A 
ATOM      8  C   UNL A   1      37.051  30.622  27.451  1.00  0.00     0.014 A 
ATOM      9  C   UNL A   1      35.832  29.695  29.326  1.00  0.00     0.014 A 
ATOM     10  C   UNL A   1      38.228  30.062  27.938  1.00  0.00     0.010 A 
ATOM     11  C   UNL A   1      37.027  29.199  29.854  1.00  0.00     0.010 A 
ATOM     12  C   UNL A   1      38.231  29.352  29.148  1.00  0.00    -0.014 A 
BRANCH  12  13
ATOM     13  C   UNL A   1      39.508  28.817  29.686  1.00  0.00     0.031 A 
ATOM     14  C   UNL A   1      40.204  29.486  30.838  1.00  0.00     0.074 A 
ATOM     15  C   UNL A   1      40.042  27.717  29.120  1.00  0.00     0.049 A 
ATOM     16  N   UNL A   1      41.340  29.176  31.411  1.00  0.00    -0.248 NA
ATOM     17  C   UNL A   1      39.543  30.666  31.412  1.00  0.00     0.031 C 
ATOM     18  C   UNL A   1      39.463  26.992  27.985  1.00  0.00     0.029 A 
ATOM     19  N   UNL A   1      41.186  27.019  29.411  1.00  0.00    -0.354 N 
ATOM     20  C   UNL A   1      41.541  30.131  32.403  1.00  0.00     0.074 A 
ATOM     21  C   UNL A   1      40.424  31.052  32.325  1.00  0.00     0.031 C 
ATOM     22  C   UNL A   1      40.247  25.948  27.686  1.00  0.00     0.029 A 
ATOM     23  C   UNL A   1      41.411  25.961  28.564  1.00  0.00     0.049 A 
ATOM     24  H   UNL A   1      41.787  27.254  30.154  1.00  0.00     0.167 HD
ATOM     25  C   UNL A   1      42.559  30.225  33.296  1.00  0.00     0.034 A 
ATOM     26  C   UNL A   1      42.454  25.114  28.475  1.00  0.00     0.034 A 
ATOM     27  C   UNL A   1      43.663  29.294  33.355  1.00  0.00     0.049 A 
ATOM     28  C   UNL A   1      43.589  25.255  29.451  1.00  0.00     0.074 A 
ATOM     29  C   UNL A   1      44.716  29.258  34.255  1.00  0.00     0.029 A 
ATOM     30  N   UNL A   1      43.868  28.244  32.467  1.00  0.00    -0.354 N 
ATOM     31  N   UNL A   1      43.746  26.139  30.408  1.00  0.00    -0.248 NA
ATOM     32  C   UNL A   1      44.681  24.281  29.340  1.00  0.00     0.031 C 
ATOM     33  C   UNL A   1      45.591  28.235  33.869  1.00  0.00     0.029 A 
ATOM     34  C   UNL A   1      45.049  27.581  32.773  1.00  0.00     0.049 A 
ATOM     35  H   UNL A   1      43.265  28.005  31.728  1.00  0.00     0.167 HD
ATOM     36  C   UNL A   1      44.952  25.822  31.022  1.00  0.00     0.074 A 
ATOM     37  C   UNL A   1      45.472  24.654  30.336  1.00  0.00     0.031 C 
ATOM     38  C   UNL A   1      45.571  26.437  32.062  1.00  0.00     0.034 A 
BRANCH  25  39
ATOM     39  C   UNL A   1      42.544  31.401  34.246  1.00  0.00     0.023 A 
ATOM     40  C   UNL A   1      41.730  31.421  35.392  1.00  0.00     0.031 A 
ATOM     41  C   UNL A   1      43.330  32.537  33.979  1.00  0.00     0.131 A 
ATOM     42  C   UNL A   1      41.658  32.581  36.180  1.00  0.00     0.055 A 
ATOM     43  C   UNL A   1      43.314  33.658  34.813  1.00  0.00     0.041 A 
ATOM     44  F   UNL A   1      44.115  32.586  32.891  1.00  0.00    -0.206 F 
ATOM     45  C   UNL A   1      42.461  33.692  35.911  1.00  0.00     0.022 A 
BRANCH  42  46
ATOM     46  S   UNL A   1      40.380  32.677  37.465  1.00  0.00     0.124 S 
ATOM     47  O   UNL A   1      41.136  32.322  38.665  1.00  0.00    -0.237 OA
ATOM     48  O   UNL A   1      39.944  34.065  37.374  1.00  0.00    -0.237 OA
ATOM     49  O   UNL A   1      39.395  31.682  37.045  1.00  0.00    -0.744 OA
ENDBRANCH  42  46
ENDBRANCH  25  39
BRANCH  26  50
ATOM     50  C   UNL A   1      42.485  24.098  27.389  1.00  0.00     0.023 A 
ATOM     51  C   UNL A   1      41.717  22.927  27.458  1.00  0.00     0.031 A 
ATOM     52  C   UNL A   1      43.278  24.305  26.245  1.00  0.00     0.131 A 
ATOM     53  C   UNL A   1      41.774  21.996  26.410  1.00  0.00     0.055 A 
ATOM     54  C   UNL A   1      43.298  23.398  25.186  1.00  0.00     0.041 A 
ATOM     55  F   UNL A   1      44.021  25.418  26.127  1.00  0.00    -0.206 F 
ATOM     56  C   UNL A   1      42.547  22.229  25.269  1.00  0.00     0.022 A 
BRANCH  53  57
ATOM     57  S   UNL A   1      40.851  20.443  26.574  1.00  0.00     0.124 S 
ATOM     58  O   UNL A   1      41.662  19.529  25.779  1.00  0.00    -0.237 OA
ATOM     59  O   UNL A   1      40.872  20.230  28.017  1.00  0.00    -0.237 OA
ATOM     60  O   UNL A   1      39.540  20.766  26.013  1.00  0.00    -0.744 OA
ENDBRANCH  53  57
ENDBRANCH  26  50
BRANCH  38  61
ATOM     61  C   UNL A   1      46.869  25.832  32.533  1.00  0.00     0.023 A 
ATOM     62  C   UNL A   1      48.095  26.150  31.925  1.00  0.00     0.031 A 
ATOM     63  C   UNL A   1      46.875  24.916  33.601  1.00  0.00     0.131 A 
ATOM     64  C   UNL A   1      49.272  25.523  32.358  1.00  0.00     0.055 A 
ATOM     65  C   UNL A   1      48.056  24.334  34.061  1.00  0.00     0.041 A 
ATOM     66  F   UNL A   1      45.730  24.576  34.214  1.00  0.00    -0.206 F 
ATOM     67  C   UNL A   1      49.263  24.628  33.433  1.00  0.00     0.022 A 
BRANCH  64  68
ATOM     68  S   UNL A   1      50.814  25.834  31.454  1.00  0.00     0.124 S 
ATOM     69  O   UNL A   1      51.726  24.879  32.073  1.00  0.00    -0.237 OA
ATOM     70  O   UNL A   1      50.431  25.550  30.075  1.00  0.00    -0.237 OA
ATOM     71  O   UNL A   1      51.100  27.239  31.738  1.00  0.00    -0.744 OA
ENDBRANCH  64  68
ENDBRANCH  38  61
ENDBRANCH  12  13
ENDBRANCH   5   7
ENDBRANCH   2   3
ENDBRANCH   1   2
BRANCH   1  72
ATOM     72  C   UNL A   1      32.812  26.408  26.055  1.00  0.00     0.023 C 
BRANCH  72  73
ATOM     73  C   UNL A   1      31.440  25.765  26.229  1.00  0.00     0.116 C 
BRANCH  73  74
ATOM     74  N   UNL A   1      31.179  24.708  25.263  1.00  0.00    -0.352 N 
ATOM     75  C   UNL A   1      30.667  24.822  23.995  1.00  0.00     0.252 C 
ATOM     76  H   UNL A   1      31.397  23.795  25.558  1.00  0.00     0.163 HD
ATOM     77  O   UNL A   1      30.491  23.839  23.283  1.00  0.00    -0.269 OA
BRANCH  75  78
ATOM     78  C   UNL A   1      30.247  26.145  23.510  1.00  0.00     0.058 A 
ATOM     79  C   UNL A   1      28.950  26.556  23.829  1.00  0.00     0.016 A 
ATOM     80  C   UNL A   1      31.094  26.986  22.789  1.00  0.00     0.054 A 
ATOM     81  C   UNL A   1      28.523  27.840  23.482  1.00  0.00     0.009 A 
ATOM     82  C   UNL A   1      30.664  28.275  22.459  1.00  0.00     0.030 A 
ATOM     83  Cl  UNL A   1      32.675  26.510  22.285  1.00  0.00    -0.083 Cl
ATOM     84  C   UNL A   1      29.380  28.732  22.814  1.00  0.00    -0.017 A 
BRANCH  84  85
ATOM     85  C   UNL A   1      28.962  30.112  22.512  1.00  0.00    -0.015 A 
ATOM     86  C   UNL A   1      29.065  31.132  23.474  1.00  0.00     0.009 A 
ATOM     87  C   UNL A   1      28.419  30.445  21.259  1.00  0.00     0.054 A 
ATOM     88  C   UNL A   1      28.632  32.433  23.199  1.00  0.00     0.004 A 
ATOM     89  C   UNL A   1      27.992  31.744  20.992  1.00  0.00     0.116 A 
ATOM     90  C   UNL A   1      28.092  32.742  21.953  1.00  0.00     0.046 A 
BRANCH  89  91
ATOM     91  O   UNL A   1      27.468  31.996  19.758  1.00  0.00    -0.508 OA
ATOM     92  H   UNL A   1      27.880  31.644  18.993  1.00  0.00     0.293 HD
ENDBRANCH  89  91
ENDBRANCH  84  85
ENDBRANCH  75  78
ENDBRANCH  73  74
ENDBRANCH  72  73
ENDBRANCH   1  72
TORSDOF 16
ENDMDL
MODEL 2
REMARK VINA RESULT:     -12.2      2.622      8.004
REMARK SMILES O=C(NCCCCNC(=O)c1ccc(-c2cccc(O)c2)cc1Cl)c1ccc(-c2c3nc(c(-c4cc(S(=O)(=O)[O-])ccc4F)c4ccc([nH]4)c(-c4cc(S(=O)(=O)[O-])ccc4F)c4nc(c(-c5cc(S(=O)(=O)[O-])ccc5F)c5ccc2[nH]5)C=C4)C=C3)cc1
REMARK SMILES IDX 5 1 4 2 3 3 1 4 2 5 25 7 26 8 87 9 27 10 86 11 28 12 29 13
REMARK SMILES IDX 30 14 80 15 31 16 85 17 79 18 81 19 32 20 84 21 78 22 77 23
REMARK SMILES IDX 33 25 65 26 45 27 64 28 46 29 49 30 63 31 82 32 47 33 48 34
REMARK SMILES IDX 62 36 83 37 50 38 34 39 35 40 43 41 36 42 42 43 44 44 41 45
REMARK SMILES IDX 37 46 38 47 39 48 40 49 66 50 67 51 75 52 68 53 74 54 76 55
REMARK SMILES IDX 73 56 69 57 70 58 71 59 72 60 51 61 52 62 60 63 53 64 59 65
REMARK SMILES IDX 61 66 58 67 54 68 55 69 56 70 57 71 6 72 7 73 8 74 9 75
REMARK SMILES IDX 10 77 11 78 12 79 23 80 13 81 22 82 24 83 14 84 15 85 16 86
REMARK SMILES IDX 21 87 17 88 19 89 18 90 20 91
REMARK H PARENT 3 6 81 24 49 35 8 76 20 92
REMARK Flexibility Score: inf
ROOT
ATOM      1  C   UNL A   1      31.777  28.163  26.292  1.00  0.00     0.023 C 
ENDROOT
BRANCH   1   2
ATOM      2  C   UNL A   1      32.773  29.194  25.773  1.00  0.00     0.116 C 
BRANCH   2   3
ATOM      3  N   UNL A   1      32.396  30.561  26.097  1.00  0.00    -0.352 N 
ATOM      4  O   UNL A   1      32.417  32.508  27.230  1.00  0.00    -0.269 OA
ATOM      5  C   UNL A   1      32.966  31.436  26.991  1.00  0.00     0.251 C 
ATOM      6  H   UNL A   1      31.617  30.911  25.604  1.00  0.00     0.163 HD
BRANCH   5   7
ATOM      7  C   UNL A   1      34.224  31.075  27.681  1.00  0.00     0.039 A 
ATOM      8  C   UNL A   1      34.383  29.820  28.273  1.00  0.00     0.014 A 
ATOM      9  C   UNL A   1      35.264  32.008  27.727  1.00  0.00     0.014 A 
ATOM     10  C   UNL A   1      35.522  29.549  29.027  1.00  0.00     0.010 A 
ATOM     11  C   UNL A   1      36.439  31.705  28.420  1.00  0.00     0.010 A 
ATOM     12  C   UNL A   1      36.565  30.484  29.102  1.00  0.00    -0.014 A 
BRANCH  12  13
ATOM     13  C   UNL A   1      37.801  30.151  29.857  1.00  0.00     0.031 A 
ATOM     14  C   UNL A   1      38.837  29.229  29.279  1.00  0.00     0.074 A 
ATOM     15  C   UNL A   1      37.979  30.688  31.079  1.00  0.00     0.049 A 
ATOM     16  N   UNL A   1      39.955  28.803  29.811  1.00  0.00    -0.248 NA
ATOM     17  C   UNL A   1      38.574  28.704  27.931  1.00  0.00     0.031 C 
ATOM     18  C   UNL A   1      37.033  31.585  31.749  1.00  0.00     0.029 A 
ATOM     19  N   UNL A   1      39.007  30.559  31.978  1.00  0.00    -0.354 N 
ATOM     20  C   UNL A   1      40.524  27.948  28.872  1.00  0.00     0.074 A 
ATOM     21  C   UNL A   1      39.604  27.889  27.753  1.00  0.00     0.031 C 
ATOM     22  C   UNL A   1      37.529  31.934  32.943  1.00  0.00     0.029 A 
ATOM     23  C   UNL A   1      38.796  31.243  33.151  1.00  0.00     0.049 A 
ATOM     24  H   UNL A   1      39.817  30.029  31.799  1.00  0.00     0.167 HD
ATOM     25  C   UNL A   1      41.705  27.281  28.939  1.00  0.00     0.034 A 
ATOM     26  C   UNL A   1      39.521  31.283  34.286  1.00  0.00     0.034 A 
ATOM     27  C   UNL A   1      42.606  27.356  30.066  1.00  0.00     0.049 A 
ATOM     28  C   UNL A   1      40.808  30.510  34.353  1.00  0.00     0.074 A 
ATOM     29  C   UNL A   1      43.853  26.771  30.216  1.00  0.00     0.029 A 
ATOM     30  N   UNL A   1      42.350  28.043  31.247  1.00  0.00    -0.354 N 
ATOM     31  N   UNL A   1      41.353  29.737  33.443  1.00  0.00    -0.248 NA
ATOM     32  C   UNL A   1      41.581  30.621  35.596  1.00  0.00     0.031 C 
ATOM     33  C   UNL A   1      44.316  27.045  31.508  1.00  0.00     0.029 A 
ATOM     34  C   UNL A   1      43.395  27.864  32.143  1.00  0.00     0.049 A 
ATOM     35  H   UNL A   1      41.543  28.579  31.424  1.00  0.00     0.167 HD
ATOM     36  C   UNL A   1      42.540  29.276  34.000  1.00  0.00     0.074 A 
ATOM     37  C   UNL A   1      42.640  29.872  35.318  1.00  0.00     0.031 C 
ATOM     38  C   UNL A   1      43.467  28.440  33.466  1.00  0.00     0.034 A 
BRANCH  25  39
ATOM     39  C   UNL A   1      42.060  26.379  27.778  1.00  0.00     0.023 A 
ATOM     40  C   UNL A   1      41.683  25.025  27.746  1.00  0.00     0.031 A 
ATOM     41  C   UNL A   1      42.821  26.875  26.704  1.00  0.00     0.131 A 
ATOM     42  C   UNL A   1      42.137  24.196  26.708  1.00  0.00     0.055 A 
ATOM     43  C   UNL A   1      43.199  26.063  25.632  1.00  0.00     0.041 A 
ATOM     44  F   UNL A   1      43.225  28.154  26.684  1.00  0.00    -0.206 F 
ATOM     45  C   UNL A   1      42.873  24.710  25.638  1.00  0.00     0.022 A 
BRANCH  42  46
ATOM     46  S   UNL A   1      41.887  22.405  26.858  1.00  0.00     0.124 S 
ATOM     47  O   UNL A   1      42.112  21.956  25.485  1.00  0.00    -0.237 OA
ATOM     48  O   UNL A   1      42.906  22.025  27.828  1.00  0.00    -0.237 OA
ATOM     49  O   UNL A   1      40.506  22.288  27.322  1.00  0.00    -0.744 OA
ENDBRANCH  42  46
ENDBRANCH  25  39
BRANCH  26  50
ATOM     50  C   UNL A   1      39.008  32.044  35.457  1.00  0.00     0.023 A 
ATOM     51  C   UNL A   1      38.354  31.402  36.518  1.00  0.00     0.031 A 
ATOM     52  C   UNL A   1      39.191  33.437  35.535  1.00  0.00     0.131 A 
ATOM     53  C   UNL A   1      37.887  32.157  37.605  1.00  0.00     0.055 A 
ATOM     54  C   UNL A   1      38.764  34.176  36.637  1.00  0.00     0.041 A 
ATOM     55  F   UNL A   1      39.822  34.094  34.549  1.00  0.00    -0.206 F 
ATOM     56  C   UNL A   1      38.100  33.536  37.679  1.00  0.00     0.022 A 
BRANCH  53  57
ATOM     57  S   UNL A   1      36.954  31.314  38.913  1.00  0.00     0.124 S 
ATOM     58  O   UNL A   1      36.842  29.963  38.374  1.00  0.00    -0.237 OA
ATOM     59  O   UNL A   1      37.835  31.474  40.064  1.00  0.00    -0.237 OA
ATOM     60  O   UNL A   1      35.703  32.067  38.978  1.00  0.00    -0.744 OA
ENDBRANCH  53  57
ENDBRANCH  26  50
BRANCH  38  61
ATOM     61  C   UNL A   1      44.683  28.149  34.308  1.00  0.00     0.023 A 
ATOM     62  C   UNL A   1      44.722  27.059  35.196  1.00  0.00     0.031 A 
ATOM     63  C   UNL A   1      45.814  28.980  34.227  1.00  0.00     0.131 A 
ATOM     64  C   UNL A   1      45.852  26.856  36.002  1.00  0.00     0.055 A 
ATOM     65  C   UNL A   1      46.955  28.743  34.995  1.00  0.00     0.041 A 
ATOM     66  F   UNL A   1      45.827  30.036  33.399  1.00  0.00    -0.206 F 
ATOM     67  C   UNL A   1      46.975  27.682  35.896  1.00  0.00     0.022 A 
BRANCH  64  68
ATOM     68  S   UNL A   1      45.813  25.537  37.247  1.00  0.00     0.124 S 
ATOM     69  O   UNL A   1      45.873  24.338  36.419  1.00  0.00    -0.237 OA
ATOM     70  O   UNL A   1      47.001  25.825  38.044  1.00  0.00    -0.237 OA
ATOM     71  O   UNL A   1      44.540  25.753  37.935  1.00  0.00    -0.744 OA
ENDBRANCH  64  68
ENDBRANCH  38  61
ENDBRANCH  12  13
ENDBRANCH   5   7
ENDBRANCH   2   3
ENDBRANCH   1   2
BRANCH   1  72
ATOM     72  C   UNL A   1      32.204  26.703  26.149  1.00  0.00     0.023 C 
BRANCH  72  73
ATOM     73  C   UNL A   1      31.093  25.673  26.329  1.00  0.00     0.116 C 
BRANCH  73  74
ATOM     74  N   UNL A   1      31.071  24.667  25.278  1.00  0.00    -0.352 N 
ATOM     75  C   UNL A   1      30.760  24.830  23.951  1.00  0.00     0.252 C 
ATOM     76  H   UNL A   1      31.310  23.753  25.554  1.00  0.00     0.163 HD
ATOM     77  O   UNL A   1      30.777  23.886  23.168  1.00  0.00    -0.269 OA
BRANCH  75  78
ATOM     78  C   UNL A   1      30.322  26.150  23.477  1.00  0.00     0.058 A 
ATOM     79  C   UNL A   1      29.023  26.546  23.811  1.00  0.00     0.016 A 
ATOM     80  C   UNL A   1      31.152  27.003  22.751  1.00  0.00     0.054 A 
ATOM     81  C   UNL A   1      28.579  27.827  23.474  1.00  0.00     0.009 A 
ATOM     82  C   UNL A   1      30.705  28.289  22.432  1.00  0.00     0.030 A 
ATOM     83  Cl  UNL A   1      32.733  26.546  22.229  1.00  0.00    -0.083 Cl
ATOM     84  C   UNL A   1      29.420  28.730  22.801  1.00  0.00    -0.017 A 
BRANCH  84  85
ATOM     85  C   UNL A   1      28.984  30.108  22.510  1.00  0.00    -0.015 A 
ATOM     86  C   UNL A   1      29.077  31.122  23.478  1.00  0.00     0.009 A 
ATOM     87  C   UNL A   1      28.434  30.443  21.261  1.00  0.00     0.054 A 
ATOM     88  C   UNL A   1      28.628  32.420  23.214  1.00  0.00     0.004 A 
ATOM     89  C   UNL A   1      27.990  31.738  21.004  1.00  0.00     0.116 A 
ATOM     90  C   UNL A   1      28.081  32.730  21.972  1.00  0.00     0.046 A 
BRANCH  89  91
ATOM     91  O   UNL A   1      27.459  31.992  19.773  1.00  0.00    -0.508 OA
ATOM     92  H   UNL A   1      26.531  32.064  19.670  1.00  0.00     0.293 HD
ENDBRANCH  89  91
ENDBRANCH  84  85
ENDBRANCH  75  78
ENDBRANCH  73  74
ENDBRANCH  72  73
ENDBRANCH   1  72
TORSDOF 16
ENDMDL
MODEL 3
REMARK VINA RESULT:     -12.2      1.321      1.601
REMARK SMILES O=C(NCCCCNC(=O)c1ccc(-c2cccc(O)c2)cc1Cl)c1ccc(-c2c3nc(c(-c4cc(S(=O)(=O)[O-])ccc4F)c4ccc([nH]4)c(-c4cc(S(=O)(=O)[O-])ccc4F)c4nc(c(-c5cc(S(=O)(=O)[O-])ccc5F)c5ccc2[nH]5)C=C4)C=C3)cc1
REMARK SMILES IDX 5 1 4 2 3 3 1 4 2 5 25 7 26 8 87 9 27 10 86 11 28 12 29 13
REMARK SMILES IDX 30 14 80 15 31 16 85 17 79 18 81 19 32 20 84 21 78 22 77 23
REMARK SMILES IDX 33 25 65 26 45 27 64 28 46 29 49 30 63 31 82 32 47 33 48 34
REMARK SMILES IDX 62 36 83 37 50 38 34 39 35 40 43 41 36 42 42 43 44 44 41 45
REMARK SMILES IDX 37 46 38 47 39 48 40 49 66 50 67 51 75 52 68 53 74 54 76 55
REMARK SMILES IDX 73 56 69 57 70 58 71 59 72 60 51 61 52 62 60 63 53 64 59 65
REMARK SMILES IDX 61 66 58 67 54 68 55 69 56 70 57 71 6 72 7 73 8 74 9 75
REMARK SMILES IDX 10 77 11 78 12 79 23 80 13 81 22 82 24 83 14 84 15 85 16 86
REMARK SMILES IDX 21 87 17 88 19 89 18 90 20 91
REMARK H PARENT 3 6 81 24 49 35 8 76 20 92
REMARK Flexibility Score: inf
ROOT
ATOM      1  C   UNL A   1      32.690  28.001  25.834  1.00  0.00     0.023 C 
ENDROOT
BRANCH   1   2
ATOM      2  C   UNL A   1      33.993  28.770  26.021  1.00  0.00     0.116 C 
BRANCH   2   3
ATOM      3  N   UNL A   1      33.788  30.111  26.548  1.00  0.00    -0.352 N 
ATOM      4  O   UNL A   1      34.098  31.875  27.915  1.00  0.00    -0.269 OA
ATOM      5  C   UNL A   1      34.510  30.797  27.496  1.00  0.00     0.251 C 
ATOM      6  H   UNL A   1      33.019  30.599  26.171  1.00  0.00     0.163 HD
BRANCH   5   7
ATOM      7  C   UNL A   1      35.767  30.225  28.027  1.00  0.00     0.039 A 
ATOM      8  C   UNL A   1      35.793  29.570  29.261  1.00  0.00     0.014 A 
ATOM      9  C   UNL A   1      36.938  30.340  27.270  1.00  0.00     0.014 A 
ATOM     10  C   UNL A   1      37.008  29.155  29.799  1.00  0.00     0.010 A 
ATOM     11  C   UNL A   1      38.144  29.853  27.779  1.00  0.00     0.010 A 
ATOM     12  C   UNL A   1      38.195  29.284  29.062  1.00  0.00    -0.014 A 
BRANCH  12  13
ATOM     13  C   UNL A   1      39.471  28.776  29.625  1.00  0.00     0.031 A 
ATOM     14  C   UNL A   1      40.146  29.477  30.771  1.00  0.00     0.074 A 
ATOM     15  C   UNL A   1      40.024  27.670  29.089  1.00  0.00     0.049 A 
ATOM     16  N   UNL A   1      41.278  29.193  31.363  1.00  0.00    -0.248 NA
ATOM     17  C   UNL A   1      39.465  30.662  31.311  1.00  0.00     0.031 C 
ATOM     18  C   UNL A   1      39.468  26.915  27.964  1.00  0.00     0.029 A 
ATOM     19  N   UNL A   1      41.173  26.993  29.408  1.00  0.00    -0.354 N 
ATOM     20  C   UNL A   1      41.457  30.172  32.337  1.00  0.00     0.074 A 
ATOM     21  C   UNL A   1      40.330  31.077  32.226  1.00  0.00     0.031 C 
ATOM     22  C   UNL A   1      40.267  25.873  27.696  1.00  0.00     0.029 A 
ATOM     23  C   UNL A   1      41.420  25.919  28.587  1.00  0.00     0.049 A 
ATOM     24  H   UNL A   1      41.762  27.250  30.154  1.00  0.00     0.167 HD
ATOM     25  C   UNL A   1      42.463  30.296  33.239  1.00  0.00     0.034 A 
ATOM     26  C   UNL A   1      42.474  25.083  28.529  1.00  0.00     0.034 A 
ATOM     27  C   UNL A   1      43.577  29.380  33.331  1.00  0.00     0.049 A 
ATOM     28  C   UNL A   1      43.596  25.258  29.515  1.00  0.00     0.074 A 
ATOM     29  C   UNL A   1      44.620  29.376  34.243  1.00  0.00     0.029 A 
ATOM     30  N   UNL A   1      43.805  28.314  32.468  1.00  0.00    -0.354 N 
ATOM     31  N   UNL A   1      43.732  26.164  30.454  1.00  0.00    -0.248 NA
ATOM     32  C   UNL A   1      44.701  24.295  29.437  1.00  0.00     0.031 C 
ATOM     33  C   UNL A   1      45.511  28.355  33.890  1.00  0.00     0.029 A 
ATOM     34  C   UNL A   1      44.990  27.672  32.802  1.00  0.00     0.049 A 
ATOM     35  H   UNL A   1      43.213  28.052  31.727  1.00  0.00     0.167 HD
ATOM     36  C   UNL A   1      44.934  25.874  31.088  1.00  0.00     0.074 A 
ATOM     37  C   UNL A   1      45.475  24.699  30.434  1.00  0.00     0.031 C 
ATOM     38  C   UNL A   1      45.533  26.519  32.122  1.00  0.00     0.034 A 
BRANCH  25  39
ATOM     39  C   UNL A   1      42.423  31.493  34.163  1.00  0.00     0.023 A 
ATOM     40  C   UNL A   1      41.659  31.496  35.343  1.00  0.00     0.031 A 
ATOM     41  C   UNL A   1      43.133  32.663  33.838  1.00  0.00     0.131 A 
ATOM     42  C   UNL A   1      41.555  32.669  36.108  1.00  0.00     0.055 A 
ATOM     43  C   UNL A   1      43.091  33.800  34.647  1.00  0.00     0.041 A 
ATOM     44  F   UNL A   1      43.868  32.728  32.717  1.00  0.00    -0.206 F 
ATOM     45  C   UNL A   1      42.284  33.814  35.781  1.00  0.00     0.022 A 
BRANCH  42  46
ATOM     46  S   UNL A   1      40.329  32.726  37.445  1.00  0.00     0.124 S 
ATOM     47  O   UNL A   1      41.144  32.391  38.611  1.00  0.00    -0.237 OA
ATOM     48  O   UNL A   1      39.850  34.101  37.375  1.00  0.00    -0.237 OA
ATOM     49  O   UNL A   1      39.357  31.704  37.063  1.00  0.00    -0.744 OA
ENDBRANCH  42  46
ENDBRANCH  25  39
BRANCH  26  50
ATOM     50  C   UNL A   1      42.529  24.044  27.465  1.00  0.00     0.023 A 
ATOM     51  C   UNL A   1      41.944  22.783  27.640  1.00  0.00     0.031 A 
ATOM     52  C   UNL A   1      43.159  24.319  26.236  1.00  0.00     0.131 A 
ATOM     53  C   UNL A   1      42.018  21.832  26.611  1.00  0.00     0.055 A 
ATOM     54  C   UNL A   1      43.191  23.387  25.199  1.00  0.00     0.041 A 
ATOM     55  F   UNL A   1      43.722  25.518  26.016  1.00  0.00    -0.206 F 
ATOM     56  C   UNL A   1      42.624  22.131  25.386  1.00  0.00     0.022 A 
BRANCH  53  57
ATOM     57  S   UNL A   1      41.343  20.175  26.906  1.00  0.00     0.124 S 
ATOM     58  O   UNL A   1      42.513  19.333  26.680  1.00  0.00    -0.237 OA
ATOM     59  O   UNL A   1      40.883  20.277  28.286  1.00  0.00    -0.237 OA
ATOM     60  O   UNL A   1      40.285  20.055  25.905  1.00  0.00    -0.744 OA
ENDBRANCH  53  57
ENDBRANCH  26  50
BRANCH  38  61
ATOM     61  C   UNL A   1      46.832  25.939  32.621  1.00  0.00     0.023 A 
ATOM     62  C   UNL A   1      46.861  24.908  33.576  1.00  0.00     0.031 A 
ATOM     63  C   UNL A   1      48.057  26.435  32.141  1.00  0.00     0.131 A 
ATOM     64  C   UNL A   1      48.093  24.436  34.055  1.00  0.00     0.055 A 
ATOM     65  C   UNL A   1      49.278  25.927  32.584  1.00  0.00     0.041 A 
ATOM     66  F   UNL A   1      48.084  27.423  31.232  1.00  0.00    -0.206 F 
ATOM     67  C   UNL A   1      49.302  24.928  33.554  1.00  0.00     0.022 A 
BRANCH  64  68
ATOM     68  S   UNL A   1      48.099  23.217  35.398  1.00  0.00     0.124 S 
ATOM     69  O   UNL A   1      47.212  22.184  34.873  1.00  0.00    -0.237 OA
ATOM     70  O   UNL A   1      49.511  22.860  35.490  1.00  0.00    -0.237 OA
ATOM     71  O   UNL A   1      47.575  23.962  36.541  1.00  0.00    -0.744 OA
ENDBRANCH  64  68
ENDBRANCH  38  61
ENDBRANCH  12  13
ENDBRANCH   5   7
ENDBRANCH   2   3
ENDBRANCH   1   2
BRANCH   1  72
ATOM     72  C   UNL A   1      32.800  26.481  25.944  1.00  0.00     0.023 C 
BRANCH  72  73
ATOM     73  C   UNL A   1      31.492  25.745  26.214  1.00  0.00     0.116 C 
BRANCH  73  74
ATOM     74  N   UNL A   1      31.226  24.683  25.256  1.00  0.00    -0.352 N 
ATOM     75  C   UNL A   1      30.699  24.789  23.992  1.00  0.00     0.252 C 
ATOM     76  H   UNL A   1      31.453  23.772  25.552  1.00  0.00     0.163 HD
ATOM     77  O   UNL A   1      30.521  23.802  23.287  1.00  0.00    -0.269 OA
BRANCH  75  78
ATOM     78  C   UNL A   1      30.267  26.108  23.508  1.00  0.00     0.058 A 
ATOM     79  C   UNL A   1      28.989  26.534  23.880  1.00  0.00     0.016 A 
ATOM     80  C   UNL A   1      31.085  26.931  22.735  1.00  0.00     0.054 A 
ATOM     81  C   UNL A   1      28.556  27.816  23.533  1.00  0.00     0.009 A 
ATOM     82  C   UNL A   1      30.650  28.218  22.406  1.00  0.00     0.030 A 
ATOM     83  Cl  UNL A   1      32.639  26.435  22.166  1.00  0.00    -0.083 Cl
ATOM     84  C   UNL A   1      29.388  28.690  22.812  1.00  0.00    -0.017 A 
BRANCH  84  85
ATOM     85  C   UNL A   1      28.966  30.069  22.509  1.00  0.00    -0.015 A 
ATOM     86  C   UNL A   1      29.065  31.090  23.470  1.00  0.00     0.009 A 
ATOM     87  C   UNL A   1      28.423  30.400  21.256  1.00  0.00     0.054 A 
ATOM     88  C   UNL A   1      28.629  32.390  23.194  1.00  0.00     0.004 A 
ATOM     89  C   UNL A   1      27.993  31.697  20.987  1.00  0.00     0.116 A 
ATOM     90  C   UNL A   1      28.089  32.696  21.948  1.00  0.00     0.046 A 
BRANCH  89  91
ATOM     91  O   UNL A   1      27.469  31.947  19.752  1.00  0.00    -0.508 OA
ATOM     92  H   UNL A   1      26.726  32.511  19.664  1.00  0.00     0.293 HD
ENDBRANCH  89  91
ENDBRANCH  84  85
ENDBRANCH  75  78
ENDBRANCH  73  74
ENDBRANCH  72  73
ENDBRANCH   1  72
TORSDOF 16
ENDMDL
