MODEL 1
REMARK VINA RESULT:     -12.1      0.000      0.000
REMARK SMILES Cn1ccc(NC(=O)[C@@H]2CCCC[C@@H]2C(=O)NCCCCNC(=O)c2ccc(-c3c4nc(c(-c5cc(S(=O)(=O)[O-])ccc5F)c5ccc([nH]5)c(-c5cc(S(=O)(=O)[O-])ccc5F)c5nc(c(-c6cc(S(=O)(=O)[O-])ccc6F)c6ccc3[nH]6)C=C5)C=C4)cc2)n1
REMARK SMILES IDX 20 1 19 2 18 3 17 4 15 5 16 6 14 8 9 9 10 10 11 11 13 12
REMARK SMILES IDX 12 13 7 14 6 15 8 17 5 18 1 19 2 20 3 21 88 22 4 23 21 24
REMARK SMILES IDX 22 25 23 26 24 28 25 29 26 30 87 31 27 32 86 33 28 34 29 35
REMARK SMILES IDX 30 36 80 37 31 38 85 39 79 40 81 41 32 42 84 43 78 44 77 45
REMARK SMILES IDX 33 47 65 48 45 49 64 50 46 51 49 52 63 53 82 54 47 55 48 56
REMARK SMILES IDX 62 58 83 59 50 60 34 61 35 62 43 63 36 64 42 65 44 66 41 67
REMARK SMILES IDX 37 68 38 69 39 70 40 71 66 72 67 73 75 74 68 75 74 76 76 77
REMARK SMILES IDX 73 78 69 79 70 80 71 81 72 82 51 83 52 84 60 85 53 86 59 87
REMARK SMILES IDX 61 88 58 89 54 90 55 91 56 92 57 93
REMARK H PARENT 17 7 6 16 22 27 81 46 49 57
REMARK Flexibility Score: inf
ROOT
ATOM      1  C   UNL A   1      32.492  30.790  26.825  1.00  0.00     0.023 C 
ENDROOT
BRANCH   1   2
ATOM      2  C   UNL A   1      32.726  29.346  27.260  1.00  0.00     0.023 C 
BRANCH   2   3
ATOM      3  C   UNL A   1      31.448  28.560  27.551  1.00  0.00     0.116 C 
BRANCH   3   4
ATOM      4  N   UNL A   1      31.490  27.278  26.892  1.00  0.00    -0.356 N 
ATOM      5  C   UNL A   1      31.316  26.942  25.588  1.00  0.00     0.223 C 
ATOM      6  O   UNL A   1      31.398  25.739  25.332  1.00  0.00    -0.275 OA
ATOM      7  H   UNL A   1      31.676  26.517  27.488  1.00  0.00     0.163 HD
BRANCH   5   8
ATOM      8  C   UNL A   1      31.121  28.009  24.494  1.00  0.00     0.091 C 
ATOM      9  C   UNL A   1      30.253  27.642  23.264  1.00  0.00     0.091 C 
ATOM     10  C   UNL A   1      30.827  26.372  22.614  1.00  0.00     0.014 C 
ATOM     11  C   UNL A   1      32.225  26.649  22.064  1.00  0.00     0.001 C 
ATOM     12  C   UNL A   1      32.508  28.412  23.924  1.00  0.00     0.014 C 
ATOM     13  C   UNL A   1      33.165  27.320  23.065  1.00  0.00     0.001 C 
BRANCH   9  14
ATOM     14  C   UNL A   1      28.730  27.583  23.401  1.00  0.00     0.229 C 
ATOM     15  N   UNL A   1      27.922  28.644  23.119  1.00  0.00    -0.309 N 
ATOM     16  H   UNL A   1      26.964  28.496  23.292  1.00  0.00     0.171 HD
ATOM     17  O   UNL A   1      28.165  26.544  23.761  1.00  0.00    -0.274 OA
BRANCH  15  18
ATOM     18  C   UNL A   1      28.238  29.888  22.632  1.00  0.00     0.154 A 
ATOM     19  C   UNL A   1      28.948  33.274  23.034  1.00  0.00     0.173 C 
ATOM     20  N   UNL A   1      28.674  31.954  22.519  1.00  0.00    -0.274 N 
ATOM     21  C   UNL A   1      28.336  31.615  21.245  1.00  0.00     0.110 A 
ATOM     22  N   UNL A   1      28.670  30.913  23.364  1.00  0.00    -0.155 NA
ATOM     23  C   UNL A   1      28.092  30.261  21.274  1.00  0.00     0.068 A 
ENDBRANCH  15  18
ENDBRANCH   9  14
ENDBRANCH   5   8
ENDBRANCH   3   4
ENDBRANCH   2   3
ENDBRANCH   1   2
BRANCH   1  24
ATOM     24  C   UNL A   1      33.441  31.796  27.457  1.00  0.00     0.116 C 
BRANCH  24  25
ATOM     25  N   UNL A   1      32.863  33.125  27.616  1.00  0.00    -0.352 N 
ATOM     26  C   UNL A   1      33.244  34.096  28.513  1.00  0.00     0.251 C 
ATOM     27  H   UNL A   1      32.118  33.352  27.015  1.00  0.00     0.163 HD
ATOM     28  O   UNL A   1      32.624  35.151  28.597  1.00  0.00    -0.269 OA
BRANCH  26  29
ATOM     29  C   UNL A   1      34.381  33.804  29.408  1.00  0.00     0.039 A 
ATOM     30  C   UNL A   1      34.186  32.951  30.494  1.00  0.00     0.014 A 
ATOM     31  C   UNL A   1      35.659  34.266  29.081  1.00  0.00     0.014 A 
ATOM     32  C   UNL A   1      35.292  32.489  31.210  1.00  0.00     0.010 A 
ATOM     33  C   UNL A   1      36.762  33.744  29.744  1.00  0.00     0.010 A 
ATOM     34  C   UNL A   1      36.591  32.845  30.810  1.00  0.00    -0.014 A 
BRANCH  34  35
ATOM     35  C   UNL A   1      37.795  32.296  31.487  1.00  0.00     0.031 A 
ATOM     36  C   UNL A   1      38.566  31.183  30.835  1.00  0.00     0.074 A 
ATOM     37  C   UNL A   1      38.130  32.726  32.719  1.00  0.00     0.049 A 
ATOM     38  N   UNL A   1      39.545  30.461  31.312  1.00  0.00    -0.248 NA
ATOM     39  C   UNL A   1      38.145  30.807  29.476  1.00  0.00     0.031 C 
ATOM     40  C   UNL A   1      37.430  33.768  33.475  1.00  0.00     0.029 A 
ATOM     41  N   UNL A   1      39.136  32.327  33.563  1.00  0.00    -0.354 N 
ATOM     42  C   UNL A   1      39.840  29.526  30.325  1.00  0.00     0.074 A 
ATOM     43  C   UNL A   1      38.892  29.738  29.250  1.00  0.00     0.031 C 
ATOM     44  C   UNL A   1      38.039  33.937  34.660  1.00  0.00     0.029 A 
ATOM     45  C   UNL A   1      39.141  32.987  34.771  1.00  0.00     0.049 A 
ATOM     46  H   UNL A   1      39.794  31.633  33.326  1.00  0.00     0.167 HD
ATOM     47  C   UNL A   1      40.822  28.591  30.308  1.00  0.00     0.034 A 
ATOM     48  C   UNL A   1      39.936  32.833  35.849  1.00  0.00     0.034 A 
ATOM     49  C   UNL A   1      41.775  28.414  31.376  1.00  0.00     0.049 A 
ATOM     50  C   UNL A   1      41.029  31.796  35.805  1.00  0.00     0.074 A 
ATOM     51  C   UNL A   1      42.845  27.539  31.442  1.00  0.00     0.029 A 
ATOM     52  N   UNL A   1      41.773  29.130  32.567  1.00  0.00    -0.354 N 
ATOM     53  N   UNL A   1      41.319  30.942  34.849  1.00  0.00    -0.248 NA
ATOM     54  C   UNL A   1      41.909  31.708  36.978  1.00  0.00     0.031 C 
ATOM     55  C   UNL A   1      43.458  27.689  32.691  1.00  0.00     0.029 A 
ATOM     56  C   UNL A   1      42.812  28.704  33.380  1.00  0.00     0.049 A 
ATOM     57  H   UNL A   1      41.127  29.836  32.800  1.00  0.00     0.167 HD
ATOM     58  C   UNL A   1      42.436  30.241  35.294  1.00  0.00     0.074 A 
ATOM     59  C   UNL A   1      42.769  30.775  36.599  1.00  0.00     0.031 C 
ATOM     60  C   UNL A   1      43.128  29.250  34.678  1.00  0.00     0.034 A 
BRANCH  47  61
ATOM     61  C   UNL A   1      40.890  27.684  29.104  1.00  0.00     0.023 A 
ATOM     62  C   UNL A   1      41.826  27.892  28.075  1.00  0.00     0.031 A 
ATOM     63  C   UNL A   1      39.975  26.627  28.955  1.00  0.00     0.131 A 
ATOM     64  C   UNL A   1      41.769  27.118  26.908  1.00  0.00     0.055 A 
ATOM     65  C   UNL A   1      39.981  25.802  27.828  1.00  0.00     0.041 A 
ATOM     66  F   UNL A   1      39.044  26.391  29.892  1.00  0.00    -0.206 F 
ATOM     67  C   UNL A   1      40.870  26.057  26.787  1.00  0.00     0.022 A 
BRANCH  64  68
ATOM     68  S   UNL A   1      42.779  27.621  25.487  1.00  0.00     0.124 S 
ATOM     69  O   UNL A   1      44.070  27.879  26.123  1.00  0.00    -0.237 OA
ATOM     70  O   UNL A   1      42.716  26.450  24.623  1.00  0.00    -0.237 OA
ATOM     71  O   UNL A   1      42.093  28.809  24.983  1.00  0.00    -0.744 OA
ENDBRANCH  64  68
ENDBRANCH  47  61
BRANCH  48  72
ATOM     72  C   UNL A   1      39.733  33.670  37.065  1.00  0.00     0.023 A 
ATOM     73  C   UNL A   1      39.147  33.130  38.221  1.00  0.00     0.031 A 
ATOM     74  C   UNL A   1      40.086  35.031  37.077  1.00  0.00     0.131 A 
ATOM     75  C   UNL A   1      38.889  33.957  39.325  1.00  0.00     0.055 A 
ATOM     76  C   UNL A   1      39.870  35.839  38.195  1.00  0.00     0.041 A 
ATOM     77  F   UNL A   1      40.657  35.594  36.000  1.00  0.00    -0.206 F 
ATOM     78  C   UNL A   1      39.256  35.305  39.324  1.00  0.00     0.022 A 
BRANCH  75  79
ATOM     79  S   UNL A   1      37.992  33.260  40.739  1.00  0.00     0.124 S 
ATOM     80  O   UNL A   1      38.600  31.940  40.857  1.00  0.00    -0.237 OA
ATOM     81  O   UNL A   1      38.311  34.211  41.799  1.00  0.00    -0.237 OA
ATOM     82  O   UNL A   1      36.599  33.269  40.296  1.00  0.00    -0.744 OA
ENDBRANCH  75  79
ENDBRANCH  48  72
BRANCH  60  83
ATOM     83  C   UNL A   1      44.351  28.726  35.387  1.00  0.00     0.023 A 
ATOM     84  C   UNL A   1      44.260  27.791  36.432  1.00  0.00     0.031 A 
ATOM     85  C   UNL A   1      45.628  29.176  35.006  1.00  0.00     0.131 A 
ATOM     86  C   UNL A   1      45.423  27.369  37.092  1.00  0.00     0.055 A 
ATOM     87  C   UNL A   1      46.785  28.714  35.633  1.00  0.00     0.041 A 
ATOM     88  F   UNL A   1      45.769  30.069  34.014  1.00  0.00    -0.206 F 
ATOM     89  C   UNL A   1      46.686  27.813  36.690  1.00  0.00     0.022 A 
BRANCH  86  90
ATOM     90  S   UNL A   1      45.262  26.282  38.536  1.00  0.00     0.124 S 
ATOM     91  O   UNL A   1      43.853  26.445  38.882  1.00  0.00    -0.237 OA
ATOM     92  O   UNL A   1      45.638  24.982  37.991  1.00  0.00    -0.237 OA
ATOM     93  O   UNL A   1      46.206  26.846  39.498  1.00  0.00    -0.744 OA
ENDBRANCH  86  90
ENDBRANCH  60  83
ENDBRANCH  34  35
ENDBRANCH  26  29
ENDBRANCH  24  25
ENDBRANCH   1  24
TORSDOF 16
ENDMDL
MODEL 2
REMARK VINA RESULT:     -12.0      5.587     10.451
REMARK SMILES Cn1ccc(NC(=O)[C@@H]2CCCC[C@@H]2C(=O)NCCCCNC(=O)c2ccc(-c3c4nc(c(-c5cc(S(=O)(=O)[O-])ccc5F)c5ccc([nH]5)c(-c5cc(S(=O)(=O)[O-])ccc5F)c5nc(c(-c6cc(S(=O)(=O)[O-])ccc6F)c6ccc3[nH]6)C=C5)C=C4)cc2)n1
REMARK SMILES IDX 20 1 19 2 18 3 17 4 15 5 16 6 14 8 9 9 10 10 11 11 13 12
REMARK SMILES IDX 12 13 7 14 6 15 8 17 5 18 1 19 2 20 3 21 88 22 4 23 21 24
REMARK SMILES IDX 22 25 23 26 24 28 25 29 26 30 87 31 27 32 86 33 28 34 29 35
REMARK SMILES IDX 30 36 80 37 31 38 85 39 79 40 81 41 32 42 84 43 78 44 77 45
REMARK SMILES IDX 33 47 65 48 45 49 64 50 46 51 49 52 63 53 82 54 47 55 48 56
REMARK SMILES IDX 62 58 83 59 50 60 34 61 35 62 43 63 36 64 42 65 44 66 41 67
REMARK SMILES IDX 37 68 38 69 39 70 40 71 66 72 67 73 75 74 68 75 74 76 76 77
REMARK SMILES IDX 73 78 69 79 70 80 71 81 72 82 51 83 52 84 60 85 53 86 59 87
REMARK SMILES IDX 61 88 58 89 54 90 55 91 56 92 57 93
REMARK H PARENT 17 7 6 16 22 27 81 46 49 57
REMARK Flexibility Score: inf
ROOT
ATOM      1  C   UNL A   1      35.207  22.738  25.002  1.00  0.00     0.023 C 
ENDROOT
BRANCH   1   2
ATOM      2  C   UNL A   1      33.958  23.466  25.490  1.00  0.00     0.023 C 
BRANCH   2   3
ATOM      3  C   UNL A   1      33.662  24.773  24.757  1.00  0.00     0.116 C 
BRANCH   3   4
ATOM      4  N   UNL A   1      34.169  25.894  25.509  1.00  0.00    -0.356 N 
ATOM      5  C   UNL A   1      33.560  27.033  25.928  1.00  0.00     0.223 C 
ATOM      6  O   UNL A   1      34.275  27.822  26.548  1.00  0.00    -0.275 OA
ATOM      7  H   UNL A   1      35.118  25.822  25.760  1.00  0.00     0.163 HD
BRANCH   5   8
ATOM      8  C   UNL A   1      32.052  27.271  25.718  1.00  0.00     0.091 C 
ATOM      9  C   UNL A   1      31.615  28.188  24.549  1.00  0.00     0.091 C 
ATOM     10  C   UNL A   1      32.311  29.552  24.702  1.00  0.00     0.014 C 
ATOM     11  C   UNL A   1      31.829  30.247  25.975  1.00  0.00     0.001 C 
ATOM     12  C   UNL A   1      31.455  27.911  27.000  1.00  0.00     0.014 C 
ATOM     13  C   UNL A   1      31.890  29.369  27.223  1.00  0.00     0.001 C 
BRANCH   9  14
ATOM     14  C   UNL A   1      31.678  27.667  23.112  1.00  0.00     0.229 C 
ATOM     15  N   UNL A   1      30.768  28.019  22.159  1.00  0.00    -0.309 N 
ATOM     16  H   UNL A   1      30.888  27.581  21.286  1.00  0.00     0.171 HD
ATOM     17  O   UNL A   1      32.584  26.908  22.750  1.00  0.00    -0.274 OA
BRANCH  15  18
ATOM     18  C   UNL A   1      29.710  28.891  22.229  1.00  0.00     0.154 A 
ATOM     19  C   UNL A   1      28.254  32.023  21.783  1.00  0.00     0.173 C 
ATOM     20  N   UNL A   1      28.539  30.648  22.114  1.00  0.00    -0.274 N 
ATOM     21  C   UNL A   1      27.836  29.834  22.948  1.00  0.00     0.110 A 
ATOM     22  N   UNL A   1      29.651  30.078  21.628  1.00  0.00    -0.155 NA
ATOM     23  C   UNL A   1      28.550  28.659  23.007  1.00  0.00     0.068 A 
ENDBRANCH  15  18
ENDBRANCH   9  14
ENDBRANCH   5   8
ENDBRANCH   3   4
ENDBRANCH   2   3
ENDBRANCH   1   2
BRANCH   1  24
ATOM     24  C   UNL A   1      36.196  22.386  26.102  1.00  0.00     0.116 C 
BRANCH  24  25
ATOM     25  N   UNL A   1      37.160  21.362  25.715  1.00  0.00    -0.352 N 
ATOM     26  C   UNL A   1      38.528  21.411  25.856  1.00  0.00     0.251 C 
ATOM     27  H   UNL A   1      36.791  20.546  25.307  1.00  0.00     0.163 HD
ATOM     28  O   UNL A   1      39.237  20.511  25.419  1.00  0.00    -0.269 OA
BRANCH  26  29
ATOM     29  C   UNL A   1      39.115  22.606  26.494  1.00  0.00     0.039 A 
ATOM     30  C   UNL A   1      40.189  22.446  27.372  1.00  0.00     0.014 A 
ATOM     31  C   UNL A   1      38.688  23.880  26.110  1.00  0.00     0.014 A 
ATOM     32  C   UNL A   1      40.894  23.571  27.802  1.00  0.00     0.010 A 
ATOM     33  C   UNL A   1      39.439  24.989  26.477  1.00  0.00     0.010 A 
ATOM     34  C   UNL A   1      40.554  24.846  27.320  1.00  0.00    -0.014 A 
BRANCH  34  35
ATOM     35  C   UNL A   1      41.342  26.053  27.680  1.00  0.00     0.031 A 
ATOM     36  C   UNL A   1      40.690  27.151  28.472  1.00  0.00     0.074 A 
ATOM     37  C   UNL A   1      42.598  26.203  27.215  1.00  0.00     0.049 A 
ATOM     38  N   UNL A   1      41.139  28.345  28.762  1.00  0.00    -0.248 NA
ATOM     39  C   UNL A   1      39.331  26.881  28.965  1.00  0.00     0.031 C 
ATOM     40  C   UNL A   1      43.322  25.226  26.395  1.00  0.00     0.029 A 
ATOM     41  N   UNL A   1      43.484  27.242  27.347  1.00  0.00    -0.354 N 
ATOM     42  C   UNL A   1      40.107  28.979  29.447  1.00  0.00     0.074 A 
ATOM     43  C   UNL A   1      38.991  28.056  29.472  1.00  0.00     0.031 C 
ATOM     44  C   UNL A   1      44.545  25.707  26.116  1.00  0.00     0.029 A 
ATOM     45  C   UNL A   1      44.678  27.041  26.693  1.00  0.00     0.049 A 
ATOM     46  H   UNL A   1      43.284  28.058  27.862  1.00  0.00     0.167 HD
ATOM     47  C   UNL A   1      40.099  30.208  30.019  1.00  0.00     0.034 A 
ATOM     48  C   UNL A   1      45.751  27.846  26.562  1.00  0.00     0.034 A 
ATOM     49  C   UNL A   1      41.230  31.102  30.008  1.00  0.00     0.049 A 
ATOM     50  C   UNL A   1      45.726  29.204  27.216  1.00  0.00     0.074 A 
ATOM     51  C   UNL A   1      41.354  32.346  30.603  1.00  0.00     0.029 A 
ATOM     52  N   UNL A   1      42.437  30.845  29.369  1.00  0.00    -0.354 N 
ATOM     53  N   UNL A   1      44.755  29.777  27.892  1.00  0.00    -0.248 NA
ATOM     54  C   UNL A   1      46.941  30.021  27.098  1.00  0.00     0.031 C 
ATOM     55  C   UNL A   1      42.614  32.862  30.281  1.00  0.00     0.029 A 
ATOM     56  C   UNL A   1      43.304  31.914  29.542  1.00  0.00     0.049 A 
ATOM     57  H   UNL A   1      42.647  30.024  28.868  1.00  0.00     0.167 HD
ATOM     58  C   UNL A   1      45.259  31.006  28.309  1.00  0.00     0.074 A 
ATOM     59  C   UNL A   1      46.618  31.088  27.813  1.00  0.00     0.031 C 
ATOM     60  C   UNL A   1      44.656  31.976  29.040  1.00  0.00     0.034 A 
BRANCH  47  61
ATOM     61  C   UNL A   1      38.817  30.652  30.680  1.00  0.00     0.023 A 
ATOM     62  C   UNL A   1      37.851  31.404  29.987  1.00  0.00     0.031 A 
ATOM     63  C   UNL A   1      38.577  30.364  32.036  1.00  0.00     0.131 A 
ATOM     64  C   UNL A   1      36.740  31.918  30.671  1.00  0.00     0.055 A 
ATOM     65  C   UNL A   1      37.424  30.804  32.688  1.00  0.00     0.041 A 
ATOM     66  F   UNL A   1      39.471  29.669  32.756  1.00  0.00    -0.206 F 
ATOM     67  C   UNL A   1      36.505  31.602  32.011  1.00  0.00     0.022 A 
BRANCH  64  68
ATOM     68  S   UNL A   1      35.694  33.135  29.825  1.00  0.00     0.124 S 
ATOM     69  O   UNL A   1      35.532  34.152  30.862  1.00  0.00    -0.237 OA
ATOM     70  O   UNL A   1      36.511  33.514  28.681  1.00  0.00    -0.237 OA
ATOM     71  O   UNL A   1      34.482  32.382  29.507  1.00  0.00    -0.744 OA
ENDBRANCH  64  68
ENDBRANCH  47  61
BRANCH  48  72
ATOM     72  C   UNL A   1      46.940  27.402  25.780  1.00  0.00     0.023 A 
ATOM     73  C   UNL A   1      47.108  27.794  24.442  1.00  0.00     0.031 A 
ATOM     74  C   UNL A   1      47.904  26.551  26.345  1.00  0.00     0.131 A 
ATOM     75  C   UNL A   1      48.191  27.297  23.699  1.00  0.00     0.055 A 
ATOM     76  C   UNL A   1      49.005  26.096  25.616  1.00  0.00     0.041 A 
ATOM     77  F   UNL A   1      47.794  26.153  27.624  1.00  0.00    -0.206 F 
ATOM     78  C   UNL A   1      49.146  26.460  24.280  1.00  0.00     0.022 A 
BRANCH  75  79
ATOM     79  S   UNL A   1      48.288  27.702  21.934  1.00  0.00     0.124 S 
ATOM     80  O   UNL A   1      48.485  26.386  21.336  1.00  0.00    -0.237 OA
ATOM     81  O   UNL A   1      46.992  28.328  21.696  1.00  0.00    -0.237 OA
ATOM     82  O   UNL A   1      49.437  28.603  21.855  1.00  0.00    -0.744 OA
ENDBRANCH  75  79
ENDBRANCH  48  72
BRANCH  60  83
ATOM     83  C   UNL A   1      45.488  33.181  29.398  1.00  0.00     0.023 A 
ATOM     84  C   UNL A   1      45.525  34.325  28.585  1.00  0.00     0.031 A 
ATOM     85  C   UNL A   1      46.258  33.175  30.576  1.00  0.00     0.131 A 
ATOM     86  C   UNL A   1      46.352  35.403  28.937  1.00  0.00     0.055 A 
ATOM     87  C   UNL A   1      47.038  34.270  30.946  1.00  0.00     0.041 A 
ATOM     88  F   UNL A   1      46.257  32.105  31.387  1.00  0.00    -0.206 F 
ATOM     89  C   UNL A   1      47.097  35.389  30.119  1.00  0.00     0.022 A 
BRANCH  86  90
ATOM     90  S   UNL A   1      46.498  36.802  27.790  1.00  0.00     0.124 S 
ATOM     91  O   UNL A   1      45.192  36.795  27.137  1.00  0.00    -0.237 OA
ATOM     92  O   UNL A   1      46.754  37.919  28.692  1.00  0.00    -0.237 OA
ATOM     93  O   UNL A   1      47.622  36.428  26.934  1.00  0.00    -0.744 OA
ENDBRANCH  86  90
ENDBRANCH  60  83
ENDBRANCH  34  35
ENDBRANCH  26  29
ENDBRANCH  24  25
ENDBRANCH   1  24
TORSDOF 16
ENDMDL
MODEL 3
REMARK VINA RESULT:     -11.9      6.003     11.557
REMARK SMILES Cn1ccc(NC(=O)[C@@H]2CCCC[C@@H]2C(=O)NCCCCNC(=O)c2ccc(-c3c4nc(c(-c5cc(S(=O)(=O)[O-])ccc5F)c5ccc([nH]5)c(-c5cc(S(=O)(=O)[O-])ccc5F)c5nc(c(-c6cc(S(=O)(=O)[O-])ccc6F)c6ccc3[nH]6)C=C5)C=C4)cc2)n1
REMARK SMILES IDX 20 1 19 2 18 3 17 4 15 5 16 6 14 8 9 9 10 10 11 11 13 12
REMARK SMILES IDX 12 13 7 14 6 15 8 17 5 18 1 19 2 20 3 21 88 22 4 23 21 24
REMARK SMILES IDX 22 25 23 26 24 28 25 29 26 30 87 31 27 32 86 33 28 34 29 35
REMARK SMILES IDX 30 36 80 37 31 38 85 39 79 40 81 41 32 42 84 43 78 44 77 45
REMARK SMILES IDX 33 47 65 48 45 49 64 50 46 51 49 52 63 53 82 54 47 55 48 56
REMARK SMILES IDX 62 58 83 59 50 60 34 61 35 62 43 63 36 64 42 65 44 66 41 67
REMARK SMILES IDX 37 68 38 69 39 70 40 71 66 72 67 73 75 74 68 75 74 76 76 77
REMARK SMILES IDX 73 78 69 79 70 80 71 81 72 82 51 83 52 84 60 85 53 86 59 87
REMARK SMILES IDX 61 88 58 89 54 90 55 91 56 92 57 93
REMARK H PARENT 17 7 6 16 22 27 81 46 49 57
REMARK Flexibility Score: inf
ROOT
ATOM      1  C   UNL A   1      38.105  21.219  25.121  1.00  0.00     0.023 C 
ENDROOT
BRANCH   1   2
ATOM      2  C   UNL A   1      37.530  22.621  24.939  1.00  0.00     0.023 C 
BRANCH   2   3
ATOM      3  C   UNL A   1      36.775  23.156  26.154  1.00  0.00     0.116 C 
BRANCH   3   4
ATOM      4  N   UNL A   1      35.665  22.293  26.474  1.00  0.00    -0.356 N 
ATOM      5  C   UNL A   1      34.336  22.428  26.235  1.00  0.00     0.223 C 
ATOM      6  O   UNL A   1      33.624  21.511  26.651  1.00  0.00    -0.275 OA
ATOM      7  H   UNL A   1      35.914  21.465  26.944  1.00  0.00     0.163 HD
BRANCH   5   8
ATOM      8  C   UNL A   1      33.773  23.606  25.418  1.00  0.00     0.091 C 
ATOM      9  C   UNL A   1      32.234  23.751  25.312  1.00  0.00     0.091 C 
ATOM     10  C   UNL A   1      31.651  22.442  24.751  1.00  0.00     0.014 C 
ATOM     11  C   UNL A   1      32.144  22.217  23.323  1.00  0.00     0.001 C 
ATOM     12  C   UNL A   1      34.287  23.503  23.956  1.00  0.00     0.014 C 
ATOM     13  C   UNL A   1      33.657  22.349  23.160  1.00  0.00     0.001 C 
BRANCH   9  14
ATOM     14  C   UNL A   1      31.437  24.271  26.509  1.00  0.00     0.229 C 
ATOM     15  N   UNL A   1      30.714  25.427  26.469  1.00  0.00    -0.309 N 
ATOM     16  H   UNL A   1      30.284  25.679  27.317  1.00  0.00     0.171 HD
ATOM     17  O   UNL A   1      31.403  23.641  27.573  1.00  0.00    -0.274 OA
BRANCH  15  18
ATOM     18  C   UNL A   1      30.494  26.293  25.427  1.00  0.00     0.154 A 
ATOM     19  C   UNL A   1      30.725  29.417  23.905  1.00  0.00     0.173 C 
ATOM     20  N   UNL A   1      30.440  28.043  24.241  1.00  0.00    -0.274 N 
ATOM     21  C   UNL A   1      29.518  27.223  23.666  1.00  0.00     0.110 A 
ATOM     22  N   UNL A   1      31.078  27.480  25.278  1.00  0.00    -0.155 NA
ATOM     23  C   UNL A   1      29.562  26.053  24.387  1.00  0.00     0.068 A 
ENDBRANCH  15  18
ENDBRANCH   9  14
ENDBRANCH   5   8
ENDBRANCH   3   4
ENDBRANCH   2   3
ENDBRANCH   1   2
BRANCH   1  24
ATOM     24  C   UNL A   1      39.306  21.151  26.051  1.00  0.00     0.116 C 
BRANCH  24  25
ATOM     25  N   UNL A   1      40.050  19.900  25.954  1.00  0.00    -0.352 N 
ATOM     26  C   UNL A   1      41.410  19.729  26.071  1.00  0.00     0.251 C 
ATOM     27  H   UNL A   1      39.519  19.088  25.786  1.00  0.00     0.163 HD
ATOM     28  O   UNL A   1      41.922  18.629  25.893  1.00  0.00    -0.269 OA
BRANCH  26  29
ATOM     29  C   UNL A   1      42.235  20.920  26.357  1.00  0.00     0.039 A 
ATOM     30  C   UNL A   1      42.638  21.733  25.297  1.00  0.00     0.014 A 
ATOM     31  C   UNL A   1      42.481  21.293  27.681  1.00  0.00     0.014 A 
ATOM     32  C   UNL A   1      43.219  22.973  25.570  1.00  0.00     0.010 A 
ATOM     33  C   UNL A   1      42.987  22.559  27.948  1.00  0.00     0.010 A 
ATOM     34  C   UNL A   1      43.354  23.415  26.896  1.00  0.00    -0.014 A 
BRANCH  34  35
ATOM     35  C   UNL A   1      43.878  24.767  27.221  1.00  0.00     0.031 A 
ATOM     36  C   UNL A   1      42.949  25.803  27.788  1.00  0.00     0.074 A 
ATOM     37  C   UNL A   1      45.151  25.088  26.915  1.00  0.00     0.049 A 
ATOM     38  N   UNL A   1      43.155  27.077  27.999  1.00  0.00    -0.248 NA
ATOM     39  C   UNL A   1      41.590  25.348  28.120  1.00  0.00     0.031 C 
ATOM     40  C   UNL A   1      46.135  24.181  26.317  1.00  0.00     0.029 A 
ATOM     41  N   UNL A   1      45.833  26.272  27.048  1.00  0.00    -0.354 N 
ATOM     42  C   UNL A   1      41.945  27.582  28.462  1.00  0.00     0.074 A 
ATOM     43  C   UNL A   1      40.997  26.487  28.441  1.00  0.00     0.031 C 
ATOM     44  C   UNL A   1      47.296  24.838  26.153  1.00  0.00     0.029 A 
ATOM     45  C   UNL A   1      47.128  26.221  26.588  1.00  0.00     0.049 A 
ATOM     46  H   UNL A   1      45.430  27.083  27.436  1.00  0.00     0.167 HD
ATOM     47  C   UNL A   1      41.657  28.838  28.885  1.00  0.00     0.034 A 
ATOM     48  C   UNL A   1      48.069  27.183  26.514  1.00  0.00     0.034 A 
ATOM     49  C   UNL A   1      42.622  29.908  28.926  1.00  0.00     0.049 A 
ATOM     50  C   UNL A   1      47.731  28.570  27.000  1.00  0.00     0.074 A 
ATOM     51  C   UNL A   1      42.457  31.203  29.388  1.00  0.00     0.029 A 
ATOM     52  N   UNL A   1      43.937  29.807  28.490  1.00  0.00    -0.354 N 
ATOM     53  N   UNL A   1      46.592  29.025  27.469  1.00  0.00    -0.248 NA
ATOM     54  C   UNL A   1      48.807  29.569  26.956  1.00  0.00     0.031 C 
ATOM     55  C   UNL A   1      43.655  31.897  29.183  1.00  0.00     0.029 A 
ATOM     56  C   UNL A   1      44.589  31.020  28.656  1.00  0.00     0.049 A 
ATOM     57  H   UNL A   1      44.347  28.993  28.117  1.00  0.00     0.167 HD
ATOM     58  C   UNL A   1      46.827  30.355  27.809  1.00  0.00     0.074 A 
ATOM     59  C   UNL A   1      48.215  30.624  27.495  1.00  0.00     0.031 C 
ATOM     60  C   UNL A   1      45.975  31.268  28.338  1.00  0.00     0.034 A 
BRANCH  47  61
ATOM     61  C   UNL A   1      40.235  29.112  29.313  1.00  0.00     0.023 A 
ATOM     62  C   UNL A   1      39.849  29.061  30.664  1.00  0.00     0.031 A 
ATOM     63  C   UNL A   1      39.241  29.379  28.354  1.00  0.00     0.131 A 
ATOM     64  C   UNL A   1      38.496  29.182  31.011  1.00  0.00     0.055 A 
ATOM     65  C   UNL A   1      37.909  29.588  28.716  1.00  0.00     0.041 A 
ATOM     66  F   UNL A   1      39.544  29.420  27.048  1.00  0.00    -0.206 F 
ATOM     67  C   UNL A   1      37.525  29.471  30.049  1.00  0.00     0.022 A 
BRANCH  64  68
ATOM     68  S   UNL A   1      38.003  28.798  32.714  1.00  0.00     0.124 S 
ATOM     69  O   UNL A   1      36.652  29.352  32.760  1.00  0.00    -0.237 OA
ATOM     70  O   UNL A   1      38.099  27.344  32.750  1.00  0.00    -0.237 OA
ATOM     71  O   UNL A   1      38.989  29.510  33.525  1.00  0.00    -0.744 OA
ENDBRANCH  64  68
ENDBRANCH  47  61
BRANCH  48  72
ATOM     72  C   UNL A   1      49.417  26.883  25.954  1.00  0.00     0.023 A 
ATOM     73  C   UNL A   1      49.802  27.375  24.697  1.00  0.00     0.031 A 
ATOM     74  C   UNL A   1      50.327  26.068  26.651  1.00  0.00     0.131 A 
ATOM     75  C   UNL A   1      51.043  27.011  24.153  1.00  0.00     0.055 A 
ATOM     76  C   UNL A   1      51.580  25.747  26.126  1.00  0.00     0.041 A 
ATOM     77  F   UNL A   1      50.011  25.579  27.861  1.00  0.00    -0.206 F 
ATOM     78  C   UNL A   1      51.939  26.209  24.864  1.00  0.00     0.022 A 
BRANCH  75  79
ATOM     79  S   UNL A   1      51.437  27.540  22.464  1.00  0.00     0.124 S 
ATOM     80  O   UNL A   1      52.864  27.250  22.385  1.00  0.00    -0.237 OA
ATOM     81  O   UNL A   1      50.563  26.684  21.667  1.00  0.00    -0.237 OA
ATOM     82  O   UNL A   1      51.087  28.959  22.461  1.00  0.00    -0.744 OA
ENDBRANCH  75  79
ENDBRANCH  48  72
BRANCH  60  83
ATOM     83  C   UNL A   1      46.543  32.625  28.667  1.00  0.00     0.023 A 
ATOM     84  C   UNL A   1      46.508  33.687  27.748  1.00  0.00     0.031 A 
ATOM     85  C   UNL A   1      47.131  32.852  29.924  1.00  0.00     0.131 A 
ATOM     86  C   UNL A   1      47.093  34.918  28.083  1.00  0.00     0.055 A 
ATOM     87  C   UNL A   1      47.665  34.093  30.270  1.00  0.00     0.041 A 
ATOM     88  F   UNL A   1      47.190  31.870  30.838  1.00  0.00    -0.206 F 
ATOM     89  C   UNL A   1      47.657  35.132  29.343  1.00  0.00     0.022 A 
BRANCH  86  90
ATOM     90  S   UNL A   1      47.170  36.220  26.822  1.00  0.00     0.124 S 
ATOM     91  O   UNL A   1      46.288  35.690  25.785  1.00  0.00    -0.237 OA
ATOM     92  O   UNL A   1      46.674  37.385  27.545  1.00  0.00    -0.237 OA
ATOM     93  O   UNL A   1      48.586  36.270  26.465  1.00  0.00    -0.744 OA
ENDBRANCH  86  90
ENDBRANCH  60  83
ENDBRANCH  34  35
ENDBRANCH  26  29
ENDBRANCH  24  25
ENDBRANCH   1  24
TORSDOF 16
ENDMDL
