MODEL 1
REMARK VINA RESULT:     -12.4      0.000      0.000
REMARK SMILES Cn1cc(S(=O)(=O)N[C@@H]2C=C[C@@H](C(=O)NCCCCNC(=O)c3ccc(-c4c5nc(c(-c6cc(S(=O)(=O)[O-])ccc6F)c6ccc([nH]6)c(-c6cc(S(=O)(=O)[O-])ccc6F)c6nc(c(-c7cc(S(=O)(=O)[O-])ccc7F)c7ccc4[nH]7)C=C6)C=C5)cc3)C2)cc1C(N)=O
REMARK SMILES IDX 17 1 16 2 15 3 13 4 14 5 12 7 9 8 10 9 86 10 11 11 8 12 5 14
REMARK SMILES IDX 6 15 7 16 4 17 1 18 2 19 3 20 88 21 87 22 89 23 90 24 91 25
REMARK SMILES IDX 18 28 19 29 20 30 21 31 22 33 23 34 24 35 85 36 25 37 84 38
REMARK SMILES IDX 26 39 27 40 28 41 78 42 29 43 83 44 77 45 79 46 30 47 82 48
REMARK SMILES IDX 76 49 75 50 31 52 63 53 43 54 62 55 44 56 47 57 61 58 80 59
REMARK SMILES IDX 45 60 46 61 60 63 81 64 48 65 32 66 33 67 41 68 34 69 40 70
REMARK SMILES IDX 42 71 39 72 35 73 36 74 37 75 38 76 64 77 65 78 73 79 66 80
REMARK SMILES IDX 72 81 74 82 71 83 67 84 68 85 69 86 70 87 49 88 50 89 58 90
REMARK SMILES IDX 51 91 57 92 59 93 56 94 52 95 53 96 54 97 55 98
REMARK H PARENT 15 6 8 13 90 26 90 27 20 32 79 51 47 62
REMARK Flexibility Score: inf
ROOT
ATOM      1  C   UNL A   1      31.314  31.368  26.179  1.00  0.00     0.023 C 
ENDROOT
BRANCH   1   2
ATOM      2  C   UNL A   1      30.888  30.519  24.989  1.00  0.00     0.116 C 
BRANCH   2   3
ATOM      3  N   UNL A   1      29.851  31.156  24.196  1.00  0.00    -0.356 N 
ATOM      4  C   UNL A   1      29.169  30.702  23.106  1.00  0.00     0.226 C 
ATOM      5  O   UNL A   1      28.266  31.412  22.654  1.00  0.00    -0.274 OA
ATOM      6  H   UNL A   1      29.600  32.059  24.495  1.00  0.00     0.163 HD
BRANCH   4   7
ATOM      7  C   UNL A   1      29.494  29.363  22.438  1.00  0.00     0.103 C 
ATOM      8  C   UNL A   1      31.173  27.582  22.762  1.00  0.00     0.093 C 
ATOM      9  C   UNL A   1      29.857  27.258  23.391  1.00  0.00    -0.011 C 
ATOM     10  C   UNL A   1      30.997  29.059  22.352  1.00  0.00     0.042 C 
ATOM     11  C   UNL A   1      28.928  28.196  23.184  1.00  0.00    -0.016 C 
BRANCH   8  12
ATOM     12  N   UNL A   1      31.386  26.769  21.555  1.00  0.00    -0.204 NA
ATOM     13  H   UNL A   1      30.646  26.067  21.529  1.00  0.00     0.142 HD
BRANCH  12  14
ATOM     14  S   UNL A   1      32.859  25.956  21.393  1.00  0.00     0.242 S 
ATOM     15  O   UNL A   1      33.912  26.826  21.863  1.00  0.00    -0.207 OA
ATOM     16  O   UNL A   1      32.868  25.373  20.070  1.00  0.00    -0.207 OA
BRANCH  14  17
ATOM     17  C   UNL A   1      32.871  24.600  22.458  1.00  0.00     0.100 A 
ATOM     18  C   UNL A   1      34.427  22.098  24.550  1.00  0.00     0.150 C 
ATOM     19  N   UNL A   1      33.535  22.994  23.843  1.00  0.00    -0.345 N 
ATOM     20  C   UNL A   1      33.973  23.923  22.927  1.00  0.00     0.107 A 
ATOM     21  C   UNL A   1      32.164  23.107  24.017  1.00  0.00     0.107 A 
ATOM     22  C   UNL A   1      31.732  24.022  23.064  1.00  0.00     0.055 A 
BRANCH  21  23
ATOM     23  C   UNL A   1      31.379  22.405  25.012  1.00  0.00     0.265 C 
ATOM     24  N   UNL A   1      30.486  23.181  25.694  1.00  0.00    -0.364 N 
ATOM     25  O   UNL A   1      31.497  21.218  25.296  1.00  0.00    -0.268 OA
ATOM     26  H   UNL A   1      30.390  24.135  25.469  1.00  0.00     0.160 HD
ATOM     27  H   UNL A   1      29.938  22.787  26.411  1.00  0.00     0.160 HD
ENDBRANCH  21  23
ENDBRANCH  14  17
ENDBRANCH  12  14
ENDBRANCH   8  12
ENDBRANCH   4   7
ENDBRANCH   2   3
ENDBRANCH   1   2
BRANCH   1  28
ATOM     28  C   UNL A   1      32.506  30.819  26.957  1.00  0.00     0.023 C 
BRANCH  28  29
ATOM     29  C   UNL A   1      33.509  31.866  27.436  1.00  0.00     0.116 C 
BRANCH  29  30
ATOM     30  N   UNL A   1      32.922  33.186  27.628  1.00  0.00    -0.352 N 
ATOM     31  C   UNL A   1      33.274  34.165  28.528  1.00  0.00     0.251 C 
ATOM     32  H   UNL A   1      32.169  33.406  27.033  1.00  0.00     0.163 HD
ATOM     33  O   UNL A   1      32.602  35.186  28.626  1.00  0.00    -0.269 OA
BRANCH  31  34
ATOM     34  C   UNL A   1      34.444  33.944  29.401  1.00  0.00     0.039 A 
ATOM     35  C   UNL A   1      34.271  33.242  30.595  1.00  0.00     0.014 A 
ATOM     36  C   UNL A   1      35.716  34.348  28.989  1.00  0.00     0.014 A 
ATOM     37  C   UNL A   1      35.393  32.846  31.325  1.00  0.00     0.010 A 
ATOM     38  C   UNL A   1      36.833  33.898  29.683  1.00  0.00     0.010 A 
ATOM     39  C   UNL A   1      36.682  33.119  30.841  1.00  0.00    -0.014 A 
BRANCH  39  40
ATOM     40  C   UNL A   1      37.890  32.546  31.489  1.00  0.00     0.031 A 
ATOM     41  C   UNL A   1      38.614  31.397  30.851  1.00  0.00     0.074 A 
ATOM     42  C   UNL A   1      38.260  32.995  32.704  1.00  0.00     0.049 A 
ATOM     43  N   UNL A   1      39.601  30.679  31.320  1.00  0.00    -0.248 NA
ATOM     44  C   UNL A   1      38.142  30.982  29.521  1.00  0.00     0.031 C 
ATOM     45  C   UNL A   1      37.600  34.073  33.447  1.00  0.00     0.029 A 
ATOM     46  N   UNL A   1      39.267  32.587  33.543  1.00  0.00    -0.354 N 
ATOM     47  C   UNL A   1      39.860  29.715  30.353  1.00  0.00     0.074 A 
ATOM     48  C   UNL A   1      38.893  29.913  29.294  1.00  0.00     0.031 C 
ATOM     49  C   UNL A   1      38.222  34.243  34.624  1.00  0.00     0.029 A 
ATOM     50  C   UNL A   1      39.294  33.261  34.742  1.00  0.00     0.049 A 
ATOM     51  H   UNL A   1      39.909  31.879  33.309  1.00  0.00     0.167 HD
ATOM     52  C   UNL A   1      40.827  28.765  30.346  1.00  0.00     0.034 A 
ATOM     53  C   UNL A   1      40.078  33.092  35.824  1.00  0.00     0.034 A 
ATOM     54  C   UNL A   1      41.794  28.592  31.402  1.00  0.00     0.049 A 
ATOM     55  C   UNL A   1      41.131  32.017  35.800  1.00  0.00     0.074 A 
ATOM     56  C   UNL A   1      42.869  27.722  31.454  1.00  0.00     0.029 A 
ATOM     57  N   UNL A   1      41.793  29.294  32.601  1.00  0.00    -0.354 N 
ATOM     58  N   UNL A   1      41.405  31.152  34.851  1.00  0.00    -0.248 NA
ATOM     59  C   UNL A   1      41.981  31.895  36.992  1.00  0.00     0.031 C 
ATOM     60  C   UNL A   1      43.483  27.857  32.706  1.00  0.00     0.029 A 
ATOM     61  C   UNL A   1      42.827  28.852  33.413  1.00  0.00     0.049 A 
ATOM     62  H   UNL A   1      41.153  30.003  32.839  1.00  0.00     0.167 HD
ATOM     63  C   UNL A   1      42.469  30.394  35.326  1.00  0.00     0.074 A 
ATOM     64  C   UNL A   1      42.798  30.914  36.638  1.00  0.00     0.031 C 
ATOM     65  C   UNL A   1      43.120  29.362  34.731  1.00  0.00     0.034 A 
BRANCH  52  66
ATOM     66  C   UNL A   1      40.864  27.827  29.165  1.00  0.00     0.023 A 
ATOM     67  C   UNL A   1      41.782  28.001  28.115  1.00  0.00     0.031 A 
ATOM     68  C   UNL A   1      39.952  26.761  29.075  1.00  0.00     0.131 A 
ATOM     69  C   UNL A   1      41.720  27.169  26.986  1.00  0.00     0.055 A 
ATOM     70  C   UNL A   1      39.945  25.891  27.983  1.00  0.00     0.041 A 
ATOM     71  F   UNL A   1      39.041  26.558  30.039  1.00  0.00    -0.206 F 
ATOM     72  C   UNL A   1      40.823  26.101  26.924  1.00  0.00     0.022 A 
BRANCH  69  73
ATOM     73  S   UNL A   1      42.741  27.586  25.548  1.00  0.00     0.124 S 
ATOM     74  O   UNL A   1      42.123  28.831  25.098  1.00  0.00    -0.237 OA
ATOM     75  O   UNL A   1      44.072  27.708  26.130  1.00  0.00    -0.237 OA
ATOM     76  O   UNL A   1      42.554  26.446  24.652  1.00  0.00    -0.744 OA
ENDBRANCH  69  73
ENDBRANCH  52  66
BRANCH  53  77
ATOM     77  C   UNL A   1      39.882  33.936  37.036  1.00  0.00     0.023 A 
ATOM     78  C   UNL A   1      39.228  33.429  38.169  1.00  0.00     0.031 A 
ATOM     79  C   UNL A   1      40.318  35.272  37.064  1.00  0.00     0.131 A 
ATOM     80  C   UNL A   1      38.994  34.267  39.272  1.00  0.00     0.055 A 
ATOM     81  C   UNL A   1      40.120  36.088  38.179  1.00  0.00     0.041 A 
ATOM     82  F   UNL A   1      40.957  35.800  36.008  1.00  0.00    -0.206 F 
ATOM     83  C   UNL A   1      39.443  35.589  39.287  1.00  0.00     0.022 A 
BRANCH  80  84
ATOM     84  S   UNL A   1      38.031  33.618  40.665  1.00  0.00     0.124 S 
ATOM     85  O   UNL A   1      38.978  32.693  41.278  1.00  0.00    -0.237 OA
ATOM     86  O   UNL A   1      37.739  34.832  41.420  1.00  0.00    -0.237 OA
ATOM     87  O   UNL A   1      36.876  32.996  40.020  1.00  0.00    -0.744 OA
ENDBRANCH  80  84
ENDBRANCH  53  77
BRANCH  65  88
ATOM     88  C   UNL A   1      44.264  28.751  35.498  1.00  0.00     0.023 A 
ATOM     89  C   UNL A   1      44.056  27.697  36.403  1.00  0.00     0.031 A 
ATOM     90  C   UNL A   1      45.570  29.242  35.335  1.00  0.00     0.131 A 
ATOM     91  C   UNL A   1      45.134  27.197  37.150  1.00  0.00     0.055 A 
ATOM     92  C   UNL A   1      46.647  28.707  36.043  1.00  0.00     0.041 A 
ATOM     93  F   UNL A   1      45.820  30.249  34.484  1.00  0.00    -0.206 F 
ATOM     94  C   UNL A   1      46.431  27.686  36.965  1.00  0.00     0.022 A 
BRANCH  91  95
ATOM     95  S   UNL A   1      44.808  25.945  38.421  1.00  0.00     0.124 S 
ATOM     96  O   UNL A   1      43.683  26.532  39.143  1.00  0.00    -0.237 OA
ATOM     97  O   UNL A   1      44.505  24.760  37.625  1.00  0.00    -0.237 OA
ATOM     98  O   UNL A   1      46.061  25.882  39.171  1.00  0.00    -0.744 OA
ENDBRANCH  91  95
ENDBRANCH  65  88
ENDBRANCH  39  40
ENDBRANCH  31  34
ENDBRANCH  29  30
ENDBRANCH  28  29
ENDBRANCH   1  28
TORSDOF 18
ENDMDL
MODEL 2
REMARK VINA RESULT:     -12.3      1.798      2.434
REMARK SMILES Cn1cc(S(=O)(=O)N[C@@H]2C=C[C@@H](C(=O)NCCCCNC(=O)c3ccc(-c4c5nc(c(-c6cc(S(=O)(=O)[O-])ccc6F)c6ccc([nH]6)c(-c6cc(S(=O)(=O)[O-])ccc6F)c6nc(c(-c7cc(S(=O)(=O)[O-])ccc7F)c7ccc4[nH]7)C=C6)C=C5)cc3)C2)cc1C(N)=O
REMARK SMILES IDX 17 1 16 2 15 3 13 4 14 5 12 7 9 8 10 9 86 10 11 11 8 12 5 14
REMARK SMILES IDX 6 15 7 16 4 17 1 18 2 19 3 20 88 21 87 22 89 23 90 24 91 25
REMARK SMILES IDX 18 28 19 29 20 30 21 31 22 33 23 34 24 35 85 36 25 37 84 38
REMARK SMILES IDX 26 39 27 40 28 41 78 42 29 43 83 44 77 45 79 46 30 47 82 48
REMARK SMILES IDX 76 49 75 50 31 52 63 53 43 54 62 55 44 56 47 57 61 58 80 59
REMARK SMILES IDX 45 60 46 61 60 63 81 64 48 65 32 66 33 67 41 68 34 69 40 70
REMARK SMILES IDX 42 71 39 72 35 73 36 74 37 75 38 76 64 77 65 78 73 79 66 80
REMARK SMILES IDX 72 81 74 82 71 83 67 84 68 85 69 86 70 87 49 88 50 89 58 90
REMARK SMILES IDX 51 91 57 92 59 93 56 94 52 95 53 96 54 97 55 98
REMARK H PARENT 15 6 8 13 90 26 90 27 20 32 79 51 47 62
REMARK Flexibility Score: inf
ROOT
ATOM      1  C   UNL A   1      31.527  31.035  26.158  1.00  0.00     0.023 C 
ENDROOT
BRANCH   1   2
ATOM      2  C   UNL A   1      31.783  29.845  27.073  1.00  0.00     0.116 C 
BRANCH   2   3
ATOM      3  N   UNL A   1      33.177  29.734  27.463  1.00  0.00    -0.356 N 
ATOM      4  C   UNL A   1      34.168  28.933  26.977  1.00  0.00     0.226 C 
ATOM      5  O   UNL A   1      35.307  29.085  27.430  1.00  0.00    -0.274 OA
ATOM      6  H   UNL A   1      33.450  30.332  28.195  1.00  0.00     0.163 HD
BRANCH   4   7
ATOM      7  C   UNL A   1      33.908  27.867  25.909  1.00  0.00     0.103 C 
ATOM      8  C   UNL A   1      31.977  26.501  25.202  1.00  0.00     0.093 C 
ATOM      9  C   UNL A   1      32.182  27.702  24.339  1.00  0.00    -0.011 C 
ATOM     10  C   UNL A   1      32.960  26.747  26.365  1.00  0.00     0.042 C 
ATOM     11  C   UNL A   1      33.251  28.425  24.687  1.00  0.00    -0.016 C 
BRANCH   8  12
ATOM     12  N   UNL A   1      32.372  25.276  24.490  1.00  0.00    -0.204 NA
ATOM     13  H   UNL A   1      32.392  25.499  23.494  1.00  0.00     0.142 HD
BRANCH  12  14
ATOM     14  S   UNL A   1      31.409  23.900  24.678  1.00  0.00     0.242 S 
ATOM     15  O   UNL A   1      30.591  23.752  23.497  1.00  0.00    -0.207 OA
ATOM     16  O   UNL A   1      30.846  23.966  26.007  1.00  0.00    -0.207 OA
BRANCH  14  17
ATOM     17  C   UNL A   1      32.424  22.506  24.713  1.00  0.00     0.100 A 
ATOM     18  C   UNL A   1      35.565  20.755  25.075  1.00  0.00     0.150 C 
ATOM     19  N   UNL A   1      34.182  21.165  24.936  1.00  0.00    -0.345 N 
ATOM     20  C   UNL A   1      33.796  22.481  24.822  1.00  0.00     0.107 A 
ATOM     21  C   UNL A   1      33.067  20.342  24.962  1.00  0.00     0.107 A 
ATOM     22  C   UNL A   1      31.979  21.165  24.699  1.00  0.00     0.055 A 
BRANCH  21  23
ATOM     23  C   UNL A   1      33.076  18.918  25.229  1.00  0.00     0.265 C 
ATOM     24  N   UNL A   1      32.830  18.573  26.527  1.00  0.00    -0.364 N 
ATOM     25  O   UNL A   1      33.325  18.047  24.403  1.00  0.00    -0.268 OA
ATOM     26  H   UNL A   1      32.631  19.271  27.193  1.00  0.00     0.160 HD
ATOM     27  H   UNL A   1      32.852  17.626  26.797  1.00  0.00     0.160 HD
ENDBRANCH  21  23
ENDBRANCH  14  17
ENDBRANCH  12  14
ENDBRANCH   8  12
ENDBRANCH   4   7
ENDBRANCH   2   3
ENDBRANCH   1   2
BRANCH   1  28
ATOM     28  C   UNL A   1      31.380  32.371  26.879  1.00  0.00     0.023 C 
BRANCH  28  29
ATOM     29  C   UNL A   1      32.678  33.147  27.086  1.00  0.00     0.116 C 
BRANCH  29  30
ATOM     30  N   UNL A   1      32.528  34.305  27.958  1.00  0.00    -0.352 N 
ATOM     31  C   UNL A   1      33.285  34.670  29.047  1.00  0.00     0.251 C 
ATOM     32  H   UNL A   1      31.782  34.908  27.738  1.00  0.00     0.163 HD
ATOM     33  O   UNL A   1      32.956  35.628  29.737  1.00  0.00    -0.269 OA
BRANCH  31  34
ATOM     34  C   UNL A   1      34.471  33.862  29.395  1.00  0.00     0.039 A 
ATOM     35  C   UNL A   1      35.726  34.276  28.944  1.00  0.00     0.014 A 
ATOM     36  C   UNL A   1      34.346  32.758  30.242  1.00  0.00     0.014 A 
ATOM     37  C   UNL A   1      36.871  33.646  29.433  1.00  0.00     0.010 A 
ATOM     38  C   UNL A   1      35.489  32.175  30.777  1.00  0.00     0.010 A 
ATOM     39  C   UNL A   1      36.761  32.632  30.399  1.00  0.00    -0.014 A 
BRANCH  39  40
ATOM     40  C   UNL A   1      37.960  32.079  31.080  1.00  0.00     0.031 A 
ATOM     41  C   UNL A   1      38.709  30.930  30.471  1.00  0.00     0.074 A 
ATOM     42  C   UNL A   1      38.298  32.544  32.298  1.00  0.00     0.049 A 
ATOM     43  N   UNL A   1      39.692  30.227  30.970  1.00  0.00    -0.248 NA
ATOM     44  C   UNL A   1      38.272  30.495  29.135  1.00  0.00     0.031 C 
ATOM     45  C   UNL A   1      37.611  33.623  33.014  1.00  0.00     0.029 A 
ATOM     46  N   UNL A   1      39.290  32.155  33.163  1.00  0.00    -0.354 N 
ATOM     47  C   UNL A   1      39.983  29.256  30.020  1.00  0.00     0.074 A 
ATOM     48  C   UNL A   1      39.038  29.433  28.937  1.00  0.00     0.031 C 
ATOM     49  C   UNL A   1      38.205  33.812  34.203  1.00  0.00     0.029 A 
ATOM     50  C   UNL A   1      39.284  32.843  34.356  1.00  0.00     0.049 A 
ATOM     51  H   UNL A   1      39.944  31.451  32.952  1.00  0.00     0.167 HD
ATOM     52  C   UNL A   1      40.959  28.315  30.044  1.00  0.00     0.034 A 
ATOM     53  C   UNL A   1      40.045  32.694  35.457  1.00  0.00     0.034 A 
ATOM     54  C   UNL A   1      41.904  28.164  31.124  1.00  0.00     0.049 A 
ATOM     55  C   UNL A   1      41.109  31.629  35.468  1.00  0.00     0.074 A 
ATOM     56  C   UNL A   1      42.986  27.306  31.209  1.00  0.00     0.029 A 
ATOM     57  N   UNL A   1      41.869  28.879  32.314  1.00  0.00    -0.354 N 
ATOM     58  N   UNL A   1      41.412  30.757  34.534  1.00  0.00    -0.248 NA
ATOM     59  C   UNL A   1      41.933  31.528  36.679  1.00  0.00     0.031 C 
ATOM     60  C   UNL A   1      43.570  27.460  32.472  1.00  0.00     0.029 A 
ATOM     61  C   UNL A   1      42.889  28.456  33.154  1.00  0.00     0.049 A 
ATOM     62  H   UNL A   1      41.217  29.583  32.530  1.00  0.00     0.167 HD
ATOM     63  C   UNL A   1      42.474  30.015  35.041  1.00  0.00     0.074 A 
ATOM     64  C   UNL A   1      42.768  30.552  36.355  1.00  0.00     0.031 C 
ATOM     65  C   UNL A   1      43.148  28.984  34.473  1.00  0.00     0.034 A 
BRANCH  52  66
ATOM     66  C   UNL A   1      41.032  27.365  28.875  1.00  0.00     0.023 A 
ATOM     67  C   UNL A   1      42.017  27.495  27.880  1.00  0.00     0.031 A 
ATOM     68  C   UNL A   1      40.088  26.332  28.738  1.00  0.00     0.131 A 
ATOM     69  C   UNL A   1      41.991  26.656  26.756  1.00  0.00     0.055 A 
ATOM     70  C   UNL A   1      40.114  25.452  27.655  1.00  0.00     0.041 A 
ATOM     71  F   UNL A   1      39.115  26.172  29.648  1.00  0.00    -0.206 F 
ATOM     72  C   UNL A   1      41.061  25.620  26.649  1.00  0.00     0.022 A 
BRANCH  69  73
ATOM     73  S   UNL A   1      43.111  27.021  25.378  1.00  0.00     0.124 S 
ATOM     74  O   UNL A   1      44.312  27.461  26.084  1.00  0.00    -0.237 OA
ATOM     75  O   UNL A   1      43.205  25.735  24.698  1.00  0.00    -0.237 OA
ATOM     76  O   UNL A   1      42.413  28.071  24.637  1.00  0.00    -0.744 OA
ENDBRANCH  69  73
ENDBRANCH  52  66
BRANCH  53  77
ATOM     77  C   UNL A   1      39.814  33.548  36.655  1.00  0.00     0.023 A 
ATOM     78  C   UNL A   1      39.128  33.051  37.774  1.00  0.00     0.031 A 
ATOM     79  C   UNL A   1      40.246  34.886  36.682  1.00  0.00     0.131 A 
ATOM     80  C   UNL A   1      38.862  33.898  38.861  1.00  0.00     0.055 A 
ATOM     81  C   UNL A   1      40.015  35.712  37.783  1.00  0.00     0.041 A 
ATOM     82  F   UNL A   1      40.914  35.405  35.639  1.00  0.00    -0.206 F 
ATOM     83  C   UNL A   1      39.309  35.222  38.876  1.00  0.00     0.022 A 
BRANCH  80  84
ATOM     84  S   UNL A   1      37.861  33.261  40.232  1.00  0.00     0.124 S 
ATOM     85  O   UNL A   1      36.614  32.919  39.558  1.00  0.00    -0.237 OA
ATOM     86  O   UNL A   1      38.668  32.137  40.696  1.00  0.00    -0.237 OA
ATOM     87  O   UNL A   1      37.786  34.393  41.154  1.00  0.00    -0.744 OA
ENDBRANCH  80  84
ENDBRANCH  53  77
BRANCH  65  88
ATOM     88  C   UNL A   1      44.280  28.392  35.271  1.00  0.00     0.023 A 
ATOM     89  C   UNL A   1      44.057  27.371  36.211  1.00  0.00     0.031 A 
ATOM     90  C   UNL A   1      45.591  28.869  35.104  1.00  0.00     0.131 A 
ATOM     91  C   UNL A   1      45.124  26.891  36.985  1.00  0.00     0.055 A 
ATOM     92  C   UNL A   1      46.657  28.352  35.841  1.00  0.00     0.041 A 
ATOM     93  F   UNL A   1      45.855  29.845  34.221  1.00  0.00    -0.206 F 
ATOM     94  C   UNL A   1      46.426  27.366  36.796  1.00  0.00     0.022 A 
BRANCH  91  95
ATOM     95  S   UNL A   1      44.778  25.686  38.295  1.00  0.00     0.124 S 
ATOM     96  O   UNL A   1      43.939  24.714  37.599  1.00  0.00    -0.237 OA
ATOM     97  O   UNL A   1      46.114  25.227  38.661  1.00  0.00    -0.237 OA
ATOM     98  O   UNL A   1      44.094  26.476  39.317  1.00  0.00    -0.744 OA
ENDBRANCH  91  95
ENDBRANCH  65  88
ENDBRANCH  39  40
ENDBRANCH  31  34
ENDBRANCH  29  30
ENDBRANCH  28  29
ENDBRANCH   1  28
TORSDOF 18
ENDMDL
MODEL 3
REMARK VINA RESULT:     -12.0      5.961     11.460
REMARK SMILES Cn1cc(S(=O)(=O)N[C@@H]2C=C[C@@H](C(=O)NCCCCNC(=O)c3ccc(-c4c5nc(c(-c6cc(S(=O)(=O)[O-])ccc6F)c6ccc([nH]6)c(-c6cc(S(=O)(=O)[O-])ccc6F)c6nc(c(-c7cc(S(=O)(=O)[O-])ccc7F)c7ccc4[nH]7)C=C6)C=C5)cc3)C2)cc1C(N)=O
REMARK SMILES IDX 17 1 16 2 15 3 13 4 14 5 12 7 9 8 10 9 86 10 11 11 8 12 5 14
REMARK SMILES IDX 6 15 7 16 4 17 1 18 2 19 3 20 88 21 87 22 89 23 90 24 91 25
REMARK SMILES IDX 18 28 19 29 20 30 21 31 22 33 23 34 24 35 85 36 25 37 84 38
REMARK SMILES IDX 26 39 27 40 28 41 78 42 29 43 83 44 77 45 79 46 30 47 82 48
REMARK SMILES IDX 76 49 75 50 31 52 63 53 43 54 62 55 44 56 47 57 61 58 80 59
REMARK SMILES IDX 45 60 46 61 60 63 81 64 48 65 32 66 33 67 41 68 34 69 40 70
REMARK SMILES IDX 42 71 39 72 35 73 36 74 37 75 38 76 64 77 65 78 73 79 66 80
REMARK SMILES IDX 72 81 74 82 71 83 67 84 68 85 69 86 70 87 49 88 50 89 58 90
REMARK SMILES IDX 51 91 57 92 59 93 56 94 52 95 53 96 54 97 55 98
REMARK H PARENT 15 6 8 13 90 26 90 27 20 32 79 51 47 62
REMARK Flexibility Score: inf
ROOT
ATOM      1  C   UNL A   1      37.514  20.834  24.921  1.00  0.00     0.023 C 
ENDROOT
BRANCH   1   2
ATOM      2  C   UNL A   1      36.022  20.546  25.019  1.00  0.00     0.116 C 
BRANCH   2   3
ATOM      3  N   UNL A   1      35.709  19.149  24.775  1.00  0.00    -0.356 N 
ATOM      4  C   UNL A   1      34.504  18.516  24.690  1.00  0.00     0.226 C 
ATOM      5  O   UNL A   1      34.502  17.318  24.390  1.00  0.00    -0.274 OA
ATOM      6  H   UNL A   1      36.493  18.566  24.651  1.00  0.00     0.163 HD
BRANCH   4   7
ATOM      7  C   UNL A   1      33.181  19.238  24.956  1.00  0.00     0.103 C 
ATOM      8  C   UNL A   1      32.456  21.589  25.164  1.00  0.00     0.093 C 
ATOM      9  C   UNL A   1      32.184  21.018  23.811  1.00  0.00    -0.011 C 
ATOM     10  C   UNL A   1      33.323  20.497  25.824  1.00  0.00     0.042 C 
ATOM     11  C   UNL A   1      32.533  19.732  23.701  1.00  0.00    -0.016 C 
BRANCH   8  12
ATOM     12  N   UNL A   1      31.206  21.737  25.926  1.00  0.00    -0.204 NA
ATOM     13  H   UNL A   1      30.443  21.773  25.250  1.00  0.00     0.142 HD
BRANCH  12  14
ATOM     14  S   UNL A   1      31.046  23.082  26.937  1.00  0.00     0.242 S 
ATOM     15  O   UNL A   1      32.104  23.039  27.920  1.00  0.00    -0.207 OA
ATOM     16  O   UNL A   1      29.650  23.162  27.304  1.00  0.00    -0.207 OA
BRANCH  14  17
ATOM     17  C   UNL A   1      31.329  24.513  26.017  1.00  0.00     0.100 A 
ATOM     18  C   UNL A   1      30.352  27.437  24.133  1.00  0.00     0.150 C 
ATOM     19  N   UNL A   1      31.033  26.394  24.872  1.00  0.00    -0.345 N 
ATOM     20  C   UNL A   1      30.390  25.286  25.374  1.00  0.00     0.107 A 
ATOM     21  C   UNL A   1      32.370  26.375  25.237  1.00  0.00     0.107 A 
ATOM     22  C   UNL A   1      32.583  25.143  25.845  1.00  0.00     0.055 A 
BRANCH  21  23
ATOM     23  C   UNL A   1      33.318  27.449  25.024  1.00  0.00     0.265 C 
ATOM     24  N   UNL A   1      33.448  28.319  26.068  1.00  0.00    -0.364 N 
ATOM     25  O   UNL A   1      33.948  27.640  23.989  1.00  0.00    -0.268 OA
ATOM     26  H   UNL A   1      32.942  28.170  26.900  1.00  0.00     0.160 HD
ATOM     27  H   UNL A   1      34.048  29.097  25.989  1.00  0.00     0.160 HD
ENDBRANCH  21  23
ENDBRANCH  14  17
ENDBRANCH  12  14
ENDBRANCH   8  12
ENDBRANCH   4   7
ENDBRANCH   2   3
ENDBRANCH   1   2
BRANCH   1  28
ATOM     28  C   UNL A   1      38.404  19.596  24.938  1.00  0.00     0.023 C 
BRANCH  28  29
ATOM     29  C   UNL A   1      39.270  19.433  26.184  1.00  0.00     0.116 C 
BRANCH  29  30
ATOM     30  N   UNL A   1      40.590  18.882  25.904  1.00  0.00    -0.352 N 
ATOM     31  C   UNL A   1      41.816  19.505  25.962  1.00  0.00     0.251 C 
ATOM     32  H   UNL A   1      40.608  17.935  25.636  1.00  0.00     0.163 HD
ATOM     33  O   UNL A   1      42.826  18.918  25.591  1.00  0.00    -0.269 OA
BRANCH  31  34
ATOM     34  C   UNL A   1      41.885  20.903  26.433  1.00  0.00     0.039 A 
ATOM     35  C   UNL A   1      42.275  21.153  27.750  1.00  0.00     0.014 A 
ATOM     36  C   UNL A   1      41.656  21.956  25.544  1.00  0.00     0.014 A 
ATOM     37  C   UNL A   1      42.544  22.463  28.147  1.00  0.00     0.010 A 
ATOM     38  C   UNL A   1      41.987  23.252  25.923  1.00  0.00     0.010 A 
ATOM     39  C   UNL A   1      42.461  23.514  27.218  1.00  0.00    -0.014 A 
BRANCH  39  40
ATOM     40  C   UNL A   1      42.926  24.883  27.555  1.00  0.00     0.031 A 
ATOM     41  C   UNL A   1      41.982  25.867  28.183  1.00  0.00     0.074 A 
ATOM     42  C   UNL A   1      44.165  25.266  27.189  1.00  0.00     0.049 A 
ATOM     43  N   UNL A   1      42.157  27.139  28.430  1.00  0.00    -0.248 NA
ATOM     44  C   UNL A   1      40.654  25.355  28.554  1.00  0.00     0.031 C 
ATOM     45  C   UNL A   1      45.153  24.413  26.523  1.00  0.00     0.029 A 
ATOM     46  N   UNL A   1      44.800  26.478  27.302  1.00  0.00    -0.354 N 
ATOM     47  C   UNL A   1      40.958  27.587  28.970  1.00  0.00     0.074 A 
ATOM     48  C   UNL A   1      40.049  26.460  28.969  1.00  0.00     0.031 C 
ATOM     49  C   UNL A   1      46.268  25.124  26.294  1.00  0.00     0.029 A 
ATOM     50  C   UNL A   1      46.062  26.494  26.754  1.00  0.00     0.049 A 
ATOM     51  H   UNL A   1      44.391  27.261  27.735  1.00  0.00     0.167 HD
ATOM     52  C   UNL A   1      40.652  28.823  29.439  1.00  0.00     0.034 A 
ATOM     53  C   UNL A   1      46.944  27.502  26.614  1.00  0.00     0.034 A 
ATOM     54  C   UNL A   1      41.575  29.931  29.448  1.00  0.00     0.049 A 
ATOM     55  C   UNL A   1      46.573  28.869  27.123  1.00  0.00     0.074 A 
ATOM     56  C   UNL A   1      41.399  31.196  29.981  1.00  0.00     0.029 A 
ATOM     57  N   UNL A   1      42.845  29.910  28.887  1.00  0.00    -0.354 N 
ATOM     58  N   UNL A   1      45.455  29.263  27.688  1.00  0.00    -0.248 NA
ATOM     59  C   UNL A   1      47.582  29.927  26.976  1.00  0.00     0.031 C 
ATOM     60  C   UNL A   1      42.537  31.957  29.690  1.00  0.00     0.029 A 
ATOM     61  C   UNL A   1      43.449  31.151  29.027  1.00  0.00     0.049 A 
ATOM     62  H   UNL A   1      43.258  29.129  28.452  1.00  0.00     0.167 HD
ATOM     63  C   UNL A   1      45.634  30.612  27.979  1.00  0.00     0.074 A 
ATOM     64  C   UNL A   1      46.971  30.958  27.541  1.00  0.00     0.031 C 
ATOM     65  C   UNL A   1      44.773  31.486  28.557  1.00  0.00     0.034 A 
BRANCH  52  66
ATOM     66  C   UNL A   1      39.251  29.038  29.954  1.00  0.00     0.023 A 
ATOM     67  C   UNL A   1      38.242  29.581  29.140  1.00  0.00     0.031 A 
ATOM     68  C   UNL A   1      38.927  28.722  31.285  1.00  0.00     0.131 A 
ATOM     69  C   UNL A   1      36.979  29.861  29.684  1.00  0.00     0.055 A 
ATOM     70  C   UNL A   1      37.646  28.933  31.799  1.00  0.00     0.041 A 
ATOM     71  F   UNL A   1      39.855  28.219  32.113  1.00  0.00    -0.206 F 
ATOM     72  C   UNL A   1      36.667  29.519  31.002  1.00  0.00     0.022 A 
BRANCH  69  73
ATOM     73  S   UNL A   1      35.793  30.796  28.681  1.00  0.00     0.124 S 
ATOM     74  O   UNL A   1      36.680  31.499  27.757  1.00  0.00    -0.237 OA
ATOM     75  O   UNL A   1      34.971  29.742  28.099  1.00  0.00    -0.237 OA
ATOM     76  O   UNL A   1      35.117  31.650  29.656  1.00  0.00    -0.744 OA
ENDBRANCH  69  73
ENDBRANCH  52  66
BRANCH  53  77
ATOM     77  C   UNL A   1      48.250  27.273  25.937  1.00  0.00     0.023 A 
ATOM     78  C   UNL A   1      48.381  27.429  24.548  1.00  0.00     0.031 A 
ATOM     79  C   UNL A   1      49.379  26.860  26.666  1.00  0.00     0.131 A 
ATOM     80  C   UNL A   1      49.605  27.138  23.926  1.00  0.00     0.055 A 
ATOM     81  C   UNL A   1      50.605  26.613  26.048  1.00  0.00     0.041 A 
ATOM     82  F   UNL A   1      49.307  26.705  27.998  1.00  0.00    -0.206 F 
ATOM     83  C   UNL A   1      50.719  26.740  24.668  1.00  0.00     0.022 A 
BRANCH  80  84
ATOM     84  S   UNL A   1      49.700  27.225  22.117  1.00  0.00     0.124 S 
ATOM     85  O   UNL A   1      51.098  26.885  21.875  1.00  0.00    -0.237 OA
ATOM     86  O   UNL A   1      48.717  26.224  21.716  1.00  0.00    -0.237 OA
ATOM     87  O   UNL A   1      49.333  28.609  21.823  1.00  0.00    -0.744 OA
ENDBRANCH  80  84
ENDBRANCH  53  77
BRANCH  65  88
ATOM     88  C   UNL A   1      45.271  32.893  28.763  1.00  0.00     0.023 A 
ATOM     89  C   UNL A   1      45.973  33.257  29.925  1.00  0.00     0.031 A 
ATOM     90  C   UNL A   1      45.022  33.882  27.797  1.00  0.00     0.131 A 
ATOM     91  C   UNL A   1      46.363  34.592  30.113  1.00  0.00     0.055 A 
ATOM     92  C   UNL A   1      45.457  35.196  27.967  1.00  0.00     0.041 A 
ATOM     93  F   UNL A   1      44.354  33.584  26.671  1.00  0.00    -0.206 F 
ATOM     94  C   UNL A   1      46.121  35.561  29.135  1.00  0.00     0.022 A 
BRANCH  91  95
ATOM     95  S   UNL A   1      47.128  35.062  31.689  1.00  0.00     0.124 S 
ATOM     96  O   UNL A   1      47.325  33.765  32.329  1.00  0.00    -0.237 OA
ATOM     97  O   UNL A   1      48.340  35.750  31.256  1.00  0.00    -0.237 OA
ATOM     98  O   UNL A   1      46.123  35.917  32.318  1.00  0.00    -0.744 OA
ENDBRANCH  91  95
ENDBRANCH  65  88
ENDBRANCH  39  40
ENDBRANCH  31  34
ENDBRANCH  29  30
ENDBRANCH  28  29
ENDBRANCH   1  28
TORSDOF 18
ENDMDL
