MODEL 1
REMARK VINA RESULT:     -11.5      0.000      0.000
REMARK SMILES Cc1csc(NC(=O)[C@@H]2CC=CC[C@H]2C(=O)NCCCCNC(=O)c2ccc(-c3c4nc(c(-c5cc(S(=O)(=O)[O-])ccc5F)c5ccc([nH]5)c(-c5cc(S(=O)(=O)[O-])ccc5F)c5nc(c(-c6cc(S(=O)(=O)[O-])ccc6F)c6ccc3[nH]6)C=C5)C=C4)cc2)n1
REMARK SMILES IDX 20 1 19 2 18 3 17 4 15 5 16 6 14 8 9 9 10 10 11 11 13 12
REMARK SMILES IDX 12 13 7 14 6 15 8 17 5 18 1 19 2 20 3 21 88 22 4 23 21 24
REMARK SMILES IDX 22 25 23 26 24 28 25 29 26 30 87 31 27 32 86 33 28 34 29 35
REMARK SMILES IDX 30 36 80 37 31 38 85 39 79 40 81 41 32 42 84 43 78 44 77 45
REMARK SMILES IDX 33 47 65 48 45 49 64 50 46 51 49 52 63 53 82 54 47 55 48 56
REMARK SMILES IDX 62 58 83 59 50 60 34 61 35 62 43 63 36 64 42 65 44 66 41 67
REMARK SMILES IDX 37 68 38 69 39 70 40 71 66 72 67 73 75 74 68 75 74 76 76 77
REMARK SMILES IDX 73 78 69 79 70 80 71 81 72 82 51 83 52 84 60 85 53 86 59 87
REMARK SMILES IDX 61 88 58 89 54 90 55 91 56 92 57 93
REMARK H PARENT 17 7 6 16 22 27 81 46 49 57
REMARK Flexibility Score: inf
ROOT
ATOM      1  C   UNL A   1      35.983  21.219  25.727  1.00  0.00     0.023 C 
ENDROOT
BRANCH   1   2
ATOM      2  C   UNL A   1      35.164  20.224  24.905  1.00  0.00     0.023 C 
BRANCH   2   3
ATOM      3  C   UNL A   1      33.670  20.238  25.221  1.00  0.00     0.116 C 
BRANCH   3   4
ATOM      4  N   UNL A   1      32.878  20.340  24.011  1.00  0.00    -0.356 N 
ATOM      5  C   UNL A   1      32.463  21.433  23.310  1.00  0.00     0.224 C 
ATOM      6  O   UNL A   1      31.895  21.242  22.231  1.00  0.00    -0.275 OA
ATOM      7  H   UNL A   1      32.592  19.477  23.632  1.00  0.00     0.163 HD
BRANCH   5   8
ATOM      8  C   UNL A   1      32.813  22.848  23.763  1.00  0.00     0.095 C 
ATOM      9  C   UNL A   1      32.687  23.092  25.302  1.00  0.00     0.095 C 
ATOM     10  C   UNL A   1      33.493  24.322  25.716  1.00  0.00     0.041 C 
ATOM     11  C   UNL A   1      34.799  24.562  25.038  1.00  0.00    -0.030 C 
ATOM     12  C   UNL A   1      34.159  23.191  23.080  1.00  0.00     0.041 C 
ATOM     13  C   UNL A   1      35.100  24.053  23.845  1.00  0.00    -0.030 C 
BRANCH   9  14
ATOM     14  C   UNL A   1      31.184  23.030  25.700  1.00  0.00     0.230 C 
ATOM     15  N   UNL A   1      30.317  24.038  25.951  1.00  0.00    -0.302 N 
ATOM     16  H   UNL A   1      29.440  23.737  26.280  1.00  0.00     0.172 HD
ATOM     17  O   UNL A   1      30.678  21.913  25.900  1.00  0.00    -0.274 OA
BRANCH  15  18
ATOM     18  C   UNL A   1      30.429  25.386  25.838  1.00  0.00     0.189 A 
ATOM     19  C   UNL A   1      31.738  28.497  26.971  1.00  0.00     0.068 C 
ATOM     20  C   UNL A   1      31.070  27.475  26.130  1.00  0.00     0.051 A 
ATOM     21  C   UNL A   1      30.716  27.543  24.798  1.00  0.00     0.092 A 
ATOM     22  N   UNL A   1      30.807  26.261  26.719  1.00  0.00    -0.225 NA
ATOM     23  S   UNL A   1      30.102  26.016  24.284  1.00  0.00    -0.105 S 
ENDBRANCH  15  18
ENDBRANCH   9  14
ENDBRANCH   5   8
ENDBRANCH   3   4
ENDBRANCH   2   3
ENDBRANCH   1   2
BRANCH   1  24
ATOM     24  C   UNL A   1      37.392  21.478  25.204  1.00  0.00     0.116 C 
BRANCH  24  25
ATOM     25  N   UNL A   1      38.328  20.419  25.547  1.00  0.00    -0.352 N 
ATOM     26  C   UNL A   1      39.569  20.529  26.133  1.00  0.00     0.251 C 
ATOM     27  H   UNL A   1      38.036  19.504  25.332  1.00  0.00     0.163 HD
ATOM     28  O   UNL A   1      40.293  19.548  26.227  1.00  0.00    -0.269 OA
BRANCH  26  29
ATOM     29  C   UNL A   1      40.022  21.854  26.607  1.00  0.00     0.039 A 
ATOM     30  C   UNL A   1      40.991  21.915  27.611  1.00  0.00     0.014 A 
ATOM     31  C   UNL A   1      39.529  23.024  26.025  1.00  0.00     0.014 A 
ATOM     32  C   UNL A   1      41.520  23.154  27.979  1.00  0.00     0.010 A 
ATOM     33  C   UNL A   1      40.109  24.248  26.342  1.00  0.00     0.010 A 
ATOM     34  C   UNL A   1      41.114  24.326  27.320  1.00  0.00    -0.014 A 
BRANCH  34  35
ATOM     35  C   UNL A   1      41.734  25.641  27.631  1.00  0.00     0.031 A 
ATOM     36  C   UNL A   1      40.960  26.673  28.405  1.00  0.00     0.074 A 
ATOM     37  C   UNL A   1      42.964  25.926  27.159  1.00  0.00     0.049 A 
ATOM     38  N   UNL A   1      41.292  27.901  28.707  1.00  0.00    -0.248 NA
ATOM     39  C   UNL A   1      39.623  26.278  28.876  1.00  0.00     0.031 C 
ATOM     40  C   UNL A   1      43.794  25.021  26.360  1.00  0.00     0.029 A 
ATOM     41  N   UNL A   1      43.730  27.059  27.273  1.00  0.00    -0.354 N 
ATOM     42  C   UNL A   1      40.204  28.432  29.391  1.00  0.00     0.074 A 
ATOM     43  C   UNL A   1      39.179  27.408  29.404  1.00  0.00     0.031 C 
ATOM     44  C   UNL A   1      44.960  25.625  26.078  1.00  0.00     0.029 A 
ATOM     45  C   UNL A   1      44.944  26.976  26.630  1.00  0.00     0.049 A 
ATOM     46  H   UNL A   1      43.438  27.858  27.769  1.00  0.00     0.167 HD
ATOM     47  C   UNL A   1      40.079  29.650  29.972  1.00  0.00     0.034 A 
ATOM     48  C   UNL A   1      45.927  27.888  26.489  1.00  0.00     0.034 A 
ATOM     49  C   UNL A   1      41.116  30.653  29.960  1.00  0.00     0.049 A 
ATOM     50  C   UNL A   1      45.755  29.244  27.126  1.00  0.00     0.074 A 
ATOM     51  C   UNL A   1      41.117  31.897  30.565  1.00  0.00     0.029 A 
ATOM     52  N   UNL A   1      42.335  30.531  29.303  1.00  0.00    -0.354 N 
ATOM     53  N   UNL A   1      44.740  29.711  27.817  1.00  0.00    -0.248 NA
ATOM     54  C   UNL A   1      46.865  30.193  26.975  1.00  0.00     0.031 C 
ATOM     55  C   UNL A   1      42.302  32.554  30.218  1.00  0.00     0.029 A 
ATOM     56  C   UNL A   1      43.080  31.689  29.465  1.00  0.00     0.049 A 
ATOM     57  H   UNL A   1      42.626  29.738  28.799  1.00  0.00     0.167 HD
ATOM     58  C   UNL A   1      45.107  30.995  28.211  1.00  0.00     0.074 A 
ATOM     59  C   UNL A   1      46.441  31.221  27.696  1.00  0.00     0.031 C 
ATOM     60  C   UNL A   1      44.408  31.903  28.939  1.00  0.00     0.034 A 
BRANCH  47  61
ATOM     61  C   UNL A   1      38.767  29.970  30.646  1.00  0.00     0.023 A 
ATOM     62  C   UNL A   1      37.758  30.702  29.993  1.00  0.00     0.031 A 
ATOM     63  C   UNL A   1      38.521  29.549  31.965  1.00  0.00     0.131 A 
ATOM     64  C   UNL A   1      36.585  31.048  30.680  1.00  0.00     0.055 A 
ATOM     65  C   UNL A   1      37.318  29.829  32.617  1.00  0.00     0.041 A 
ATOM     66  F   UNL A   1      39.454  28.866  32.648  1.00  0.00    -0.206 F 
ATOM     67  C   UNL A   1      36.347  30.594  31.979  1.00  0.00     0.022 A 
BRANCH  64  68
ATOM     68  S   UNL A   1      35.435  32.213  29.899  1.00  0.00     0.124 S 
ATOM     69  O   UNL A   1      34.449  32.409  30.959  1.00  0.00    -0.237 OA
ATOM     70  O   UNL A   1      36.293  33.354  29.605  1.00  0.00    -0.237 OA
ATOM     71  O   UNL A   1      34.947  31.481  28.732  1.00  0.00    -0.744 OA
ENDBRANCH  64  68
ENDBRANCH  47  61
BRANCH  48  72
ATOM     72  C   UNL A   1      47.156  27.567  25.708  1.00  0.00     0.023 A 
ATOM     73  C   UNL A   1      47.249  27.885  24.343  1.00  0.00     0.031 A 
ATOM     74  C   UNL A   1      48.234  26.885  26.299  1.00  0.00     0.131 A 
ATOM     75  C   UNL A   1      48.369  27.474  23.603  1.00  0.00     0.055 A 
ATOM     76  C   UNL A   1      49.372  26.529  25.571  1.00  0.00     0.041 A 
ATOM     77  F   UNL A   1      48.201  26.559  27.601  1.00  0.00    -0.206 F 
ATOM     78  C   UNL A   1      49.436  26.809  24.210  1.00  0.00     0.022 A 
BRANCH  75  79
ATOM     79  S   UNL A   1      48.362  27.729  21.806  1.00  0.00     0.124 S 
ATOM     80  O   UNL A   1      48.580  26.375  21.312  1.00  0.00    -0.237 OA
ATOM     81  O   UNL A   1      47.031  28.286  21.585  1.00  0.00    -0.237 OA
ATOM     82  O   UNL A   1      49.468  28.660  21.591  1.00  0.00    -0.744 OA
ENDBRANCH  75  79
ENDBRANCH  48  72
BRANCH  60  83
ATOM     83  C   UNL A   1      45.101  33.204  29.262  1.00  0.00     0.023 A 
ATOM     84  C   UNL A   1      45.068  34.302  28.384  1.00  0.00     0.031 A 
ATOM     85  C   UNL A   1      45.815  33.341  30.466  1.00  0.00     0.131 A 
ATOM     86  C   UNL A   1      45.783  35.468  28.697  1.00  0.00     0.055 A 
ATOM     87  C   UNL A   1      46.472  34.526  30.801  1.00  0.00     0.041 A 
ATOM     88  F   UNL A   1      45.883  32.324  31.340  1.00  0.00    -0.206 F 
ATOM     89  C   UNL A   1      46.470  35.594  29.908  1.00  0.00     0.022 A 
BRANCH  86  90
ATOM     90  S   UNL A   1      45.880  36.790  27.458  1.00  0.00     0.124 S 
ATOM     91  O   UNL A   1      44.629  37.507  27.681  1.00  0.00    -0.237 OA
ATOM     92  O   UNL A   1      47.097  37.495  27.849  1.00  0.00    -0.237 OA
ATOM     93  O   UNL A   1      45.963  36.066  26.191  1.00  0.00    -0.744 OA
ENDBRANCH  86  90
ENDBRANCH  60  83
ENDBRANCH  34  35
ENDBRANCH  26  29
ENDBRANCH  24  25
ENDBRANCH   1  24
TORSDOF 16
ENDMDL
MODEL 2
REMARK VINA RESULT:     -11.5      5.024      8.045
REMARK SMILES Cc1csc(NC(=O)[C@@H]2CC=CC[C@H]2C(=O)NCCCCNC(=O)c2ccc(-c3c4nc(c(-c5cc(S(=O)(=O)[O-])ccc5F)c5ccc([nH]5)c(-c5cc(S(=O)(=O)[O-])ccc5F)c5nc(c(-c6cc(S(=O)(=O)[O-])ccc6F)c6ccc3[nH]6)C=C5)C=C4)cc2)n1
REMARK SMILES IDX 20 1 19 2 18 3 17 4 15 5 16 6 14 8 9 9 10 10 11 11 13 12
REMARK SMILES IDX 12 13 7 14 6 15 8 17 5 18 1 19 2 20 3 21 88 22 4 23 21 24
REMARK SMILES IDX 22 25 23 26 24 28 25 29 26 30 87 31 27 32 86 33 28 34 29 35
REMARK SMILES IDX 30 36 80 37 31 38 85 39 79 40 81 41 32 42 84 43 78 44 77 45
REMARK SMILES IDX 33 47 65 48 45 49 64 50 46 51 49 52 63 53 82 54 47 55 48 56
REMARK SMILES IDX 62 58 83 59 50 60 34 61 35 62 43 63 36 64 42 65 44 66 41 67
REMARK SMILES IDX 37 68 38 69 39 70 40 71 66 72 67 73 75 74 68 75 74 76 76 77
REMARK SMILES IDX 73 78 69 79 70 80 71 81 72 82 51 83 52 84 60 85 53 86 59 87
REMARK SMILES IDX 61 88 58 89 54 90 55 91 56 92 57 93
REMARK H PARENT 17 7 6 16 22 27 81 46 49 57
REMARK Flexibility Score: inf
ROOT
ATOM      1  C   UNL A   1      33.340  27.743  26.417  1.00  0.00     0.023 C 
ENDROOT
BRANCH   1   2
ATOM      2  C   UNL A   1      33.644  26.447  25.665  1.00  0.00     0.023 C 
BRANCH   2   3
ATOM      3  C   UNL A   1      32.816  25.251  26.128  1.00  0.00     0.116 C 
BRANCH   3   4
ATOM      4  N   UNL A   1      32.550  24.340  25.032  1.00  0.00    -0.356 N 
ATOM      5  C   UNL A   1      33.288  23.307  24.537  1.00  0.00     0.224 C 
ATOM      6  O   UNL A   1      32.775  22.600  23.665  1.00  0.00    -0.275 OA
ATOM      7  H   UNL A   1      31.694  24.492  24.568  1.00  0.00     0.163 HD
BRANCH   5   8
ATOM      8  C   UNL A   1      34.644  22.939  25.135  1.00  0.00     0.095 C 
ATOM      9  C   UNL A   1      34.903  21.404  25.272  1.00  0.00     0.095 C 
ATOM     10  C   UNL A   1      36.399  21.124  25.405  1.00  0.00     0.041 C 
ATOM     11  C   UNL A   1      37.339  21.961  24.606  1.00  0.00    -0.030 C 
ATOM     12  C   UNL A   1      35.688  23.789  24.372  1.00  0.00     0.041 C 
ATOM     13  C   UNL A   1      37.020  23.167  24.141  1.00  0.00    -0.030 C 
BRANCH   9  14
ATOM     14  C   UNL A   1      33.948  20.826  26.357  1.00  0.00     0.230 C 
ATOM     15  N   UNL A   1      33.050  19.819  26.266  1.00  0.00    -0.302 N 
ATOM     16  H   UNL A   1      32.494  19.706  27.070  1.00  0.00     0.172 HD
ATOM     17  O   UNL A   1      33.917  21.387  27.465  1.00  0.00    -0.274 OA
BRANCH  15  18
ATOM     18  C   UNL A   1      32.769  18.936  25.274  1.00  0.00     0.189 A 
ATOM     19  C   UNL A   1      32.294  18.192  21.825  1.00  0.00     0.068 C 
ATOM     20  C   UNL A   1      32.485  18.026  23.286  1.00  0.00     0.051 A 
ATOM     21  C   UNL A   1      32.824  16.892  23.995  1.00  0.00     0.092 A 
ATOM     22  N   UNL A   1      32.369  19.157  24.059  1.00  0.00    -0.225 NA
ATOM     23  S   UNL A   1      33.060  17.296  25.655  1.00  0.00    -0.105 S 
ENDBRANCH  15  18
ENDBRANCH   9  14
ENDBRANCH   5   8
ENDBRANCH   3   4
ENDBRANCH   2   3
ENDBRANCH   1   2
BRANCH   1  24
ATOM     24  C   UNL A   1      34.359  28.859  26.212  1.00  0.00     0.116 C 
BRANCH  24  25
ATOM     25  N   UNL A   1      33.883  30.153  26.676  1.00  0.00    -0.352 N 
ATOM     26  C   UNL A   1      34.414  30.961  27.655  1.00  0.00     0.251 C 
ATOM     27  H   UNL A   1      33.075  30.496  26.229  1.00  0.00     0.163 HD
ATOM     28  O   UNL A   1      33.809  31.958  28.023  1.00  0.00    -0.269 OA
BRANCH  26  29
ATOM     29  C   UNL A   1      35.699  30.581  28.278  1.00  0.00     0.039 A 
ATOM     30  C   UNL A   1      35.685  29.756  29.405  1.00  0.00     0.014 A 
ATOM     31  C   UNL A   1      36.911  30.996  27.718  1.00  0.00     0.014 A 
ATOM     32  C   UNL A   1      36.892  29.287  29.927  1.00  0.00     0.010 A 
ATOM     33  C   UNL A   1      38.106  30.468  28.196  1.00  0.00     0.010 A 
ATOM     34  C   UNL A   1      38.110  29.605  29.303  1.00  0.00    -0.014 A 
BRANCH  34  35
ATOM     35  C   UNL A   1      39.396  29.038  29.787  1.00  0.00     0.031 A 
ATOM     36  C   UNL A   1      40.138  29.707  30.911  1.00  0.00     0.074 A 
ATOM     37  C   UNL A   1      39.924  27.962  29.169  1.00  0.00     0.049 A 
ATOM     38  N   UNL A   1      41.306  29.416  31.421  1.00  0.00    -0.248 NA
ATOM     39  C   UNL A   1      39.490  30.878  31.523  1.00  0.00     0.031 C 
ATOM     40  C   UNL A   1      39.317  27.253  28.040  1.00  0.00     0.029 A 
ATOM     41  N   UNL A   1      41.094  27.280  29.395  1.00  0.00    -0.354 N 
ATOM     42  C   UNL A   1      41.542  30.372  32.402  1.00  0.00     0.074 A 
ATOM     43  C   UNL A   1      40.420  31.287  32.372  1.00  0.00     0.031 C 
ATOM     44  C   UNL A   1      40.107  26.225  27.689  1.00  0.00     0.029 A 
ATOM     45  C   UNL A   1      41.299  26.228  28.532  1.00  0.00     0.049 A 
ATOM     46  H   UNL A   1      41.728  27.522  30.108  1.00  0.00     0.167 HD
ATOM     47  C   UNL A   1      42.586  30.466  33.262  1.00  0.00     0.034 A 
ATOM     48  C   UNL A   1      42.335  25.372  28.422  1.00  0.00     0.034 A 
ATOM     49  C   UNL A   1      43.689  29.537  33.286  1.00  0.00     0.049 A 
ATOM     50  C   UNL A   1      43.495  25.511  29.376  1.00  0.00     0.074 A 
ATOM     51  C   UNL A   1      44.769  29.504  34.151  1.00  0.00     0.029 A 
ATOM     52  N   UNL A   1      43.860  28.479  32.400  1.00  0.00    -0.354 N 
ATOM     53  N   UNL A   1      43.676  26.389  30.335  1.00  0.00    -0.248 NA
ATOM     54  C   UNL A   1      44.584  24.535  29.241  1.00  0.00     0.031 C 
ATOM     55  C   UNL A   1      45.625  28.475  33.747  1.00  0.00     0.029 A 
ATOM     56  C   UNL A   1      45.041  27.810  32.681  1.00  0.00     0.049 A 
ATOM     57  H   UNL A   1      43.233  28.241  31.680  1.00  0.00     0.167 HD
ATOM     58  C   UNL A   1      44.883  26.048  30.939  1.00  0.00     0.074 A 
ATOM     59  C   UNL A   1      45.377  24.876  30.246  1.00  0.00     0.031 C 
ATOM     60  C   UNL A   1      45.525  26.646  31.976  1.00  0.00     0.034 A 
BRANCH  47  61
ATOM     61  C   UNL A   1      42.591  31.625  34.228  1.00  0.00     0.023 A 
ATOM     62  C   UNL A   1      41.979  31.538  35.492  1.00  0.00     0.031 A 
ATOM     63  C   UNL A   1      43.206  32.841  33.880  1.00  0.00     0.131 A 
ATOM     64  C   UNL A   1      41.936  32.663  36.330  1.00  0.00     0.055 A 
ATOM     65  C   UNL A   1      43.228  33.933  34.751  1.00  0.00     0.041 A 
ATOM     66  F   UNL A   1      43.787  32.992  32.679  1.00  0.00    -0.206 F 
ATOM     67  C   UNL A   1      42.579  33.851  35.979  1.00  0.00     0.022 A 
BRANCH  64  68
ATOM     68  S   UNL A   1      40.911  32.591  37.824  1.00  0.00     0.124 S 
ATOM     69  O   UNL A   1      39.731  31.880  37.339  1.00  0.00    -0.237 OA
ATOM     70  O   UNL A   1      41.761  31.856  38.754  1.00  0.00    -0.237 OA
ATOM     71  O   UNL A   1      40.690  33.997  38.157  1.00  0.00    -0.744 OA
ENDBRANCH  64  68
ENDBRANCH  47  61
BRANCH  48  72
ATOM     72  C   UNL A   1      42.341  24.316  27.368  1.00  0.00     0.023 A 
ATOM     73  C   UNL A   1      41.731  23.071  27.589  1.00  0.00     0.031 A 
ATOM     74  C   UNL A   1      43.007  24.515  26.146  1.00  0.00     0.131 A 
ATOM     75  C   UNL A   1      41.845  22.055  26.627  1.00  0.00     0.055 A 
ATOM     76  C   UNL A   1      43.068  23.521  25.168  1.00  0.00     0.041 A 
ATOM     77  F   UNL A   1      43.604  25.688  25.880  1.00  0.00    -0.206 F 
ATOM     78  C   UNL A   1      42.499  22.276  25.412  1.00  0.00     0.022 A 
BRANCH  75  79
ATOM     79  S   UNL A   1      41.216  20.402  27.032  1.00  0.00     0.124 S 
ATOM     80  O   UNL A   1      40.106  20.269  26.096  1.00  0.00    -0.237 OA
ATOM     81  O   UNL A   1      42.380  19.562  26.771  1.00  0.00    -0.237 OA
ATOM     82  O   UNL A   1      40.837  20.518  28.439  1.00  0.00    -0.744 OA
ENDBRANCH  75  79
ENDBRANCH  48  72
BRANCH  60  83
ATOM     83  C   UNL A   1      46.804  26.003  32.454  1.00  0.00     0.023 A 
ATOM     84  C   UNL A   1      46.811  25.015  33.454  1.00  0.00     0.031 A 
ATOM     85  C   UNL A   1      48.037  26.396  31.903  1.00  0.00     0.131 A 
ATOM     86  C   UNL A   1      48.031  24.493  33.911  1.00  0.00     0.055 A 
ATOM     87  C   UNL A   1      49.242  25.828  32.318  1.00  0.00     0.041 A 
ATOM     88  F   UNL A   1      48.091  27.338  30.948  1.00  0.00    -0.206 F 
ATOM     89  C   UNL A   1      49.245  24.881  33.338  1.00  0.00     0.022 A 
BRANCH  86  90
ATOM     90  S   UNL A   1      48.018  23.366  35.333  1.00  0.00     0.124 S 
ATOM     91  O   UNL A   1      48.649  24.178  36.369  1.00  0.00    -0.237 OA
ATOM     92  O   UNL A   1      46.594  23.103  35.510  1.00  0.00    -0.237 OA
ATOM     93  O   UNL A   1      48.806  22.225  34.874  1.00  0.00    -0.744 OA
ENDBRANCH  86  90
ENDBRANCH  60  83
ENDBRANCH  34  35
ENDBRANCH  26  29
ENDBRANCH  24  25
ENDBRANCH   1  24
TORSDOF 16
ENDMDL
MODEL 3
REMARK VINA RESULT:     -11.4      1.763      2.599
REMARK SMILES Cc1csc(NC(=O)[C@@H]2CC=CC[C@H]2C(=O)NCCCCNC(=O)c2ccc(-c3c4nc(c(-c5cc(S(=O)(=O)[O-])ccc5F)c5ccc([nH]5)c(-c5cc(S(=O)(=O)[O-])ccc5F)c5nc(c(-c6cc(S(=O)(=O)[O-])ccc6F)c6ccc3[nH]6)C=C5)C=C4)cc2)n1
REMARK SMILES IDX 20 1 19 2 18 3 17 4 15 5 16 6 14 8 9 9 10 10 11 11 13 12
REMARK SMILES IDX 12 13 7 14 6 15 8 17 5 18 1 19 2 20 3 21 88 22 4 23 21 24
REMARK SMILES IDX 22 25 23 26 24 28 25 29 26 30 87 31 27 32 86 33 28 34 29 35
REMARK SMILES IDX 30 36 80 37 31 38 85 39 79 40 81 41 32 42 84 43 78 44 77 45
REMARK SMILES IDX 33 47 65 48 45 49 64 50 46 51 49 52 63 53 82 54 47 55 48 56
REMARK SMILES IDX 62 58 83 59 50 60 34 61 35 62 43 63 36 64 42 65 44 66 41 67
REMARK SMILES IDX 37 68 38 69 39 70 40 71 66 72 67 73 75 74 68 75 74 76 76 77
REMARK SMILES IDX 73 78 69 79 70 80 71 81 72 82 51 83 52 84 60 85 53 86 59 87
REMARK SMILES IDX 61 88 58 89 54 90 55 91 56 92 57 93
REMARK H PARENT 17 7 6 16 22 27 81 46 49 57
REMARK Flexibility Score: inf
ROOT
ATOM      1  C   UNL A   1      36.471  22.387  23.808  1.00  0.00     0.023 C 
ENDROOT
BRANCH   1   2
ATOM      2  C   UNL A   1      35.257  23.271  23.519  1.00  0.00     0.023 C 
BRANCH   2   3
ATOM      3  C   UNL A   1      34.991  24.329  24.587  1.00  0.00     0.116 C 
BRANCH   3   4
ATOM      4  N   UNL A   1      33.577  24.415  24.900  1.00  0.00    -0.356 N 
ATOM      5  C   UNL A   1      32.772  25.499  25.076  1.00  0.00     0.224 C 
ATOM      6  O   UNL A   1      31.561  25.300  25.217  1.00  0.00    -0.275 OA
ATOM      7  H   UNL A   1      33.125  23.546  25.002  1.00  0.00     0.163 HD
BRANCH   5   8
ATOM      8  C   UNL A   1      33.315  26.922  24.959  1.00  0.00     0.095 C 
ATOM      9  C   UNL A   1      32.319  27.953  24.336  1.00  0.00     0.095 C 
ATOM     10  C   UNL A   1      32.731  29.379  24.696  1.00  0.00     0.041 C 
ATOM     11  C   UNL A   1      33.286  29.623  26.058  1.00  0.00    -0.030 C 
ATOM     12  C   UNL A   1      33.937  27.252  26.337  1.00  0.00     0.041 C 
ATOM     13  C   UNL A   1      33.833  28.663  26.800  1.00  0.00    -0.030 C 
BRANCH   9  14
ATOM     14  C   UNL A   1      32.108  27.605  22.834  1.00  0.00     0.230 C 
ATOM     15  N   UNL A   1      31.100  27.954  22.002  1.00  0.00    -0.302 N 
ATOM     16  H   UNL A   1      31.147  27.527  21.117  1.00  0.00     0.172 HD
ATOM     17  O   UNL A   1      32.921  26.836  22.293  1.00  0.00    -0.274 OA
BRANCH  15  18
ATOM     18  C   UNL A   1      30.036  28.781  22.157  1.00  0.00     0.189 A 
ATOM     19  C   UNL A   1      28.036  31.508  21.044  1.00  0.00     0.068 C 
ATOM     20  C   UNL A   1      28.496  30.319  21.799  1.00  0.00     0.051 A 
ATOM     21  C   UNL A   1      27.774  29.479  22.623  1.00  0.00     0.092 A 
ATOM     22  N   UNL A   1      29.809  29.945  21.630  1.00  0.00    -0.225 NA
ATOM     23  S   UNL A   1      28.771  28.165  23.127  1.00  0.00    -0.105 S 
ENDBRANCH  15  18
ENDBRANCH   9  14
ENDBRANCH   5   8
ENDBRANCH   3   4
ENDBRANCH   2   3
ENDBRANCH   1   2
BRANCH   1  24
ATOM     24  C   UNL A   1      36.651  22.002  25.273  1.00  0.00     0.116 C 
BRANCH  24  25
ATOM     25  N   UNL A   1      37.570  20.889  25.458  1.00  0.00    -0.352 N 
ATOM     26  C   UNL A   1      38.865  20.915  25.922  1.00  0.00     0.251 C 
ATOM     27  H   UNL A   1      37.218  20.001  25.220  1.00  0.00     0.163 HD
ATOM     28  O   UNL A   1      39.552  19.904  25.884  1.00  0.00    -0.269 OA
BRANCH  26  29
ATOM     29  C   UNL A   1      39.420  22.190  26.425  1.00  0.00     0.039 A 
ATOM     30  C   UNL A   1      40.528  22.154  27.273  1.00  0.00     0.014 A 
ATOM     31  C   UNL A   1      38.878  23.412  26.017  1.00  0.00     0.014 A 
ATOM     32  C   UNL A   1      41.140  23.351  27.654  1.00  0.00     0.010 A 
ATOM     33  C   UNL A   1      39.533  24.597  26.339  1.00  0.00     0.010 A 
ATOM     34  C   UNL A   1      40.673  24.579  27.158  1.00  0.00    -0.014 A 
BRANCH  34  35
ATOM     35  C   UNL A   1      41.367  25.854  27.475  1.00  0.00     0.031 A 
ATOM     36  C   UNL A   1      40.661  26.918  28.270  1.00  0.00     0.074 A 
ATOM     37  C   UNL A   1      42.606  26.076  26.990  1.00  0.00     0.049 A 
ATOM     38  N   UNL A   1      41.063  28.123  28.580  1.00  0.00    -0.248 NA
ATOM     39  C   UNL A   1      39.310  26.592  28.753  1.00  0.00     0.031 C 
ATOM     40  C   UNL A   1      43.375  25.136  26.172  1.00  0.00     0.029 A 
ATOM     41  N   UNL A   1      43.435  27.165  27.107  1.00  0.00    -0.354 N 
ATOM     42  C   UNL A   1      40.015  28.705  29.283  1.00  0.00     0.074 A 
ATOM     43  C   UNL A   1      38.936  27.739  29.299  1.00  0.00     0.031 C 
ATOM     44  C   UNL A   1      44.568  25.679  25.881  1.00  0.00     0.029 A 
ATOM     45  C   UNL A   1      44.634  27.022  26.447  1.00  0.00     0.049 A 
ATOM     46  H   UNL A   1      43.193  27.973  27.614  1.00  0.00     0.167 HD
ATOM     47  C   UNL A   1      39.964  29.922  29.879  1.00  0.00     0.034 A 
ATOM     48  C   UNL A   1      45.664  27.881  26.304  1.00  0.00     0.034 A 
ATOM     49  C   UNL A   1      41.054  30.866  29.864  1.00  0.00     0.049 A 
ATOM     50  C   UNL A   1      45.574  29.237  26.957  1.00  0.00     0.074 A 
ATOM     51  C   UNL A   1      41.131  32.102  30.482  1.00  0.00     0.029 A 
ATOM     52  N   UNL A   1      42.257  30.685  29.191  1.00  0.00    -0.354 N 
ATOM     53  N   UNL A   1      44.595  29.751  27.665  1.00  0.00    -0.248 NA
ATOM     54  C   UNL A   1      46.733  30.125  26.802  1.00  0.00     0.031 C 
ATOM     55  C   UNL A   1      42.347  32.696  30.127  1.00  0.00     0.029 A 
ATOM     56  C   UNL A   1      43.066  31.798  29.355  1.00  0.00     0.049 A 
ATOM     57  H   UNL A   1      42.498  29.883  28.674  1.00  0.00     0.167 HD
ATOM     58  C   UNL A   1      45.036  31.008  28.069  1.00  0.00     0.074 A 
ATOM     59  C   UNL A   1      46.375  31.167  27.538  1.00  0.00     0.031 C 
ATOM     60  C   UNL A   1      44.397  31.946  28.814  1.00  0.00     0.034 A 
BRANCH  47  61
ATOM     61  C   UNL A   1      38.680  30.305  30.573  1.00  0.00     0.023 A 
ATOM     62  C   UNL A   1      37.655  30.998  29.903  1.00  0.00     0.031 A 
ATOM     63  C   UNL A   1      38.478  29.986  31.927  1.00  0.00     0.131 A 
ATOM     64  C   UNL A   1      36.510  31.407  30.603  1.00  0.00     0.055 A 
ATOM     65  C   UNL A   1      37.302  30.327  32.599  1.00  0.00     0.041 A 
ATOM     66  F   UNL A   1      39.429  29.346  32.627  1.00  0.00    -0.206 F 
ATOM     67  C   UNL A   1      36.315  31.053  31.939  1.00  0.00     0.022 A 
BRANCH  64  68
ATOM     68  S   UNL A   1      35.343  32.523  29.778  1.00  0.00     0.124 S 
ATOM     69  O   UNL A   1      34.321  32.695  30.808  1.00  0.00    -0.237 OA
ATOM     70  O   UNL A   1      36.168  33.691  29.496  1.00  0.00    -0.237 OA
ATOM     71  O   UNL A   1      34.913  31.764  28.605  1.00  0.00    -0.744 OA
ENDBRANCH  64  68
ENDBRANCH  47  61
BRANCH  48  72
ATOM     72  C   UNL A   1      46.864  27.502  25.503  1.00  0.00     0.023 A 
ATOM     73  C   UNL A   1      47.002  27.913  24.168  1.00  0.00     0.031 A 
ATOM     74  C   UNL A   1      47.864  26.673  26.042  1.00  0.00     0.131 A 
ATOM     75  C   UNL A   1      48.084  27.452  23.401  1.00  0.00     0.055 A 
ATOM     76  C   UNL A   1      48.968  26.264  25.293  1.00  0.00     0.041 A 
ATOM     77  F   UNL A   1      47.785  26.252  27.315  1.00  0.00    -0.206 F 
ATOM     78  C   UNL A   1      49.075  26.641  23.958  1.00  0.00     0.022 A 
BRANCH  75  79
ATOM     79  S   UNL A   1      48.121  27.844  21.630  1.00  0.00     0.124 S 
ATOM     80  O   UNL A   1      49.276  28.729  21.545  1.00  0.00    -0.237 OA
ATOM     81  O   UNL A   1      48.279  26.523  21.031  1.00  0.00    -0.237 OA
ATOM     82  O   UNL A   1      46.826  28.481  21.395  1.00  0.00    -0.744 OA
ENDBRANCH  75  79
ENDBRANCH  48  72
BRANCH  60  83
ATOM     83  C   UNL A   1      45.165  33.203  29.142  1.00  0.00     0.023 A 
ATOM     84  C   UNL A   1      45.140  34.329  28.302  1.00  0.00     0.031 A 
ATOM     85  C   UNL A   1      45.943  33.268  30.312  1.00  0.00     0.131 A 
ATOM     86  C   UNL A   1      45.922  35.452  28.615  1.00  0.00     0.055 A 
ATOM     87  C   UNL A   1      46.669  34.410  30.651  1.00  0.00     0.041 A 
ATOM     88  F   UNL A   1      46.006  32.220  31.151  1.00  0.00    -0.206 F 
ATOM     89  C   UNL A   1      46.673  35.506  29.792  1.00  0.00     0.022 A 
BRANCH  86  90
ATOM     90  S   UNL A   1      46.020  36.808  27.414  1.00  0.00     0.124 S 
ATOM     91  O   UNL A   1      46.722  36.177  26.300  1.00  0.00    -0.237 OA
ATOM     92  O   UNL A   1      44.614  37.123  27.184  1.00  0.00    -0.237 OA
ATOM     93  O   UNL A   1      46.778  37.838  28.120  1.00  0.00    -0.744 OA
ENDBRANCH  86  90
ENDBRANCH  60  83
ENDBRANCH  34  35
ENDBRANCH  26  29
ENDBRANCH  24  25
ENDBRANCH   1  24
TORSDOF 16
ENDMDL
