MODEL 1
REMARK VINA RESULT:     -11.9      0.000      0.000
REMARK SMILES C[C@]1(C(=O)NCCCCNC(=O)c2ccc(-c3c4nc(c(-c5cc(S(=O)(=O)[O-])ccc5F)c5ccc([nH]5)c(-c5cc(S(=O)(=O)[O-])ccc5F)c5nc(c(-c6cc(S(=O)(=O)[O-])ccc6F)c6ccc3[nH]6)C=C5)C=C4)cc2)COC[C@H]1Nc1ccc2nnnn2n1
REMARK SMILES IDX 8 1 7 2 6 3 5 4 3 5 4 6 2 8 1 9 76 10 79 11 77 12 78 13
REMARK SMILES IDX 80 14 81 16 82 17 89 18 83 19 88 20 84 21 87 22 85 23 86 24
REMARK SMILES IDX 9 25 10 26 11 27 12 29 13 30 14 31 75 32 15 33 74 34 16 35
REMARK SMILES IDX 17 36 18 37 68 38 19 39 73 40 67 41 69 42 20 43 72 44 66 45
REMARK SMILES IDX 65 46 21 48 53 49 33 50 52 51 34 52 37 53 51 54 70 55 35 56
REMARK SMILES IDX 36 57 50 59 71 60 38 61 22 62 23 63 31 64 24 65 30 66 32 67
REMARK SMILES IDX 29 68 25 69 26 70 27 71 28 72 54 73 55 74 63 75 56 76 62 77
REMARK SMILES IDX 64 78 61 79 57 80 58 81 59 82 60 83 39 84 40 85 48 86 41 87
REMARK SMILES IDX 47 88 49 89 46 90 42 91 43 92 44 93 45 94
REMARK H PARENT 5 7 80 15 10 28 69 47 37 58
REMARK Flexibility Score: inf
ROOT
ATOM      1  C   UNL A   1      33.472  28.733  27.387  1.00  0.00     0.023 C 
ENDROOT
BRANCH   1   2
ATOM      2  C   UNL A   1      31.960  28.545  27.459  1.00  0.00     0.023 C 
BRANCH   2   3
ATOM      3  C   UNL A   1      31.364  27.607  26.422  1.00  0.00     0.116 C 
BRANCH   3   4
ATOM      4  N   UNL A   1      31.147  26.262  26.916  1.00  0.00    -0.355 N 
ATOM      5  C   UNL A   1      31.580  25.038  26.509  1.00  0.00     0.230 C 
ATOM      6  O   UNL A   1      31.352  24.132  27.316  1.00  0.00    -0.274 OA
ATOM      7  H   UNL A   1      30.566  26.227  27.709  1.00  0.00     0.163 HD
BRANCH   5   8
ATOM      8  C   UNL A   1      32.166  24.769  25.113  1.00  0.00     0.092 C 
ATOM      9  C   UNL A   1      33.269  25.825  24.889  1.00  0.00     0.026 C 
ATOM     10  C   UNL A   1      32.737  23.356  24.931  1.00  0.00     0.179 C 
ATOM     11  C   UNL A   1      31.171  24.848  23.934  1.00  0.00     0.124 C 
ATOM     12  O   UNL A   1      32.380  22.875  23.631  1.00  0.00    -0.378 OA
ATOM     13  C   UNL A   1      31.101  23.432  23.374  1.00  0.00     0.186 C 
BRANCH  11  14
ATOM     14  N   UNL A   1      29.829  25.342  24.180  1.00  0.00    -0.362 N 
ATOM     15  H   UNL A   1      29.229  24.871  24.802  1.00  0.00     0.162 HD
BRANCH  14  16
ATOM     16  C   UNL A   1      29.413  26.468  23.534  1.00  0.00     0.149 A 
ATOM     17  C   UNL A   1      30.474  27.260  22.780  1.00  0.00     0.053 A 
ATOM     18  N   UNL A   1      28.184  26.867  23.700  1.00  0.00    -0.129 NA
ATOM     19  C   UNL A   1      30.303  28.586  22.955  1.00  0.00     0.057 A 
ATOM     20  N   UNL A   1      27.994  28.135  23.290  1.00  0.00    -0.108 N 
ATOM     21  C   UNL A   1      28.972  29.062  23.001  1.00  0.00     0.200 A 
ATOM     22  N   UNL A   1      26.807  28.753  23.342  1.00  0.00    -0.022 NA
ATOM     23  N   UNL A   1      28.416  30.250  22.924  1.00  0.00    -0.107 NA
ATOM     24  N   UNL A   1      27.067  30.035  23.111  1.00  0.00    -0.022 NA
ENDBRANCH  14  16
ENDBRANCH  11  14
ENDBRANCH   5   8
ENDBRANCH   3   4
ENDBRANCH   2   3
ENDBRANCH   1   2
BRANCH   1  25
ATOM     25  C   UNL A   1      33.948  30.080  26.852  1.00  0.00     0.116 C 
BRANCH  25  26
ATOM     26  N   UNL A   1      33.789  31.173  27.798  1.00  0.00    -0.352 N 
ATOM     27  C   UNL A   1      34.625  31.567  28.820  1.00  0.00     0.251 C 
ATOM     28  H   UNL A   1      32.968  31.707  27.693  1.00  0.00     0.163 HD
ATOM     29  O   UNL A   1      34.287  32.468  29.572  1.00  0.00    -0.269 OA
BRANCH  27  30
ATOM     30  C   UNL A   1      35.903  30.851  29.018  1.00  0.00     0.039 A 
ATOM     31  C   UNL A   1      37.051  31.344  28.397  1.00  0.00     0.014 A 
ATOM     32  C   UNL A   1      35.973  29.741  29.862  1.00  0.00     0.014 A 
ATOM     33  C   UNL A   1      38.290  30.771  28.688  1.00  0.00     0.010 A 
ATOM     34  C   UNL A   1      37.215  29.223  30.211  1.00  0.00     0.010 A 
ATOM     35  C   UNL A   1      38.387  29.735  29.631  1.00  0.00    -0.014 A 
BRANCH  35  36
ATOM     36  C   UNL A   1      39.701  29.167  30.022  1.00  0.00     0.031 A 
ATOM     37  C   UNL A   1      40.483  29.793  31.143  1.00  0.00     0.074 A 
ATOM     38  C   UNL A   1      40.223  28.141  29.322  1.00  0.00     0.049 A 
ATOM     39  N   UNL A   1      41.679  29.503  31.585  1.00  0.00    -0.248 NA
ATOM     40  C   UNL A   1      39.843  30.923  31.830  1.00  0.00     0.031 C 
ATOM     41  C   UNL A   1      39.580  27.481  28.183  1.00  0.00     0.029 A 
ATOM     42  N   UNL A   1      41.415  27.478  29.460  1.00  0.00    -0.354 N 
ATOM     43  C   UNL A   1      41.943  30.424  32.592  1.00  0.00     0.074 A 
ATOM     44  C   UNL A   1      40.812  31.328  32.635  1.00  0.00     0.031 C 
ATOM     45  C   UNL A   1      40.370  26.485  27.750  1.00  0.00     0.029 A 
ATOM     46  C   UNL A   1      41.591  26.464  28.549  1.00  0.00     0.049 A 
ATOM     47  H   UNL A   1      42.083  27.708  30.146  1.00  0.00     0.167 HD
ATOM     48  C   UNL A   1      43.012  30.492  33.424  1.00  0.00     0.034 A 
ATOM     49  C   UNL A   1      42.623  25.615  28.377  1.00  0.00     0.034 A 
ATOM     50  C   UNL A   1      44.127  29.578  33.368  1.00  0.00     0.049 A 
ATOM     51  C   UNL A   1      43.816  25.723  29.289  1.00  0.00     0.074 A 
ATOM     52  C   UNL A   1      45.239  29.516  34.190  1.00  0.00     0.029 A 
ATOM     53  N   UNL A   1      44.276  28.566  32.426  1.00  0.00    -0.354 N 
ATOM     54  N   UNL A   1      44.033  26.568  30.270  1.00  0.00    -0.248 NA
ATOM     55  C   UNL A   1      44.900  24.758  29.072  1.00  0.00     0.031 C 
ATOM     56  C   UNL A   1      46.087  28.511  33.707  1.00  0.00     0.029 A 
ATOM     57  C   UNL A   1      45.473  27.897  32.627  1.00  0.00     0.049 A 
ATOM     58  H   UNL A   1      43.625  28.357  31.717  1.00  0.00     0.167 HD
ATOM     59  C   UNL A   1      45.267  26.216  30.808  1.00  0.00     0.074 A 
ATOM     60  C   UNL A   1      45.740  25.077  30.046  1.00  0.00     0.031 C 
ATOM     61  C   UNL A   1      45.942  26.774  31.845  1.00  0.00     0.034 A 
BRANCH  48  62
ATOM     62  C   UNL A   1      43.019  31.616  34.437  1.00  0.00     0.023 A 
ATOM     63  C   UNL A   1      42.307  31.518  35.647  1.00  0.00     0.031 A 
ATOM     64  C   UNL A   1      43.672  32.830  34.158  1.00  0.00     0.131 A 
ATOM     65  C   UNL A   1      42.166  32.644  36.471  1.00  0.00     0.055 A 
ATOM     66  C   UNL A   1      43.612  33.916  35.034  1.00  0.00     0.041 A 
ATOM     67  F   UNL A   1      44.353  32.994  33.014  1.00  0.00    -0.206 F 
ATOM     68  C   UNL A   1      42.835  33.835  36.187  1.00  0.00     0.022 A 
BRANCH  65  69
ATOM     69  S   UNL A   1      40.935  32.586  37.803  1.00  0.00     0.124 S 
ATOM     70  O   UNL A   1      39.855  31.830  37.172  1.00  0.00    -0.237 OA
ATOM     71  O   UNL A   1      41.655  31.903  38.869  1.00  0.00    -0.237 OA
ATOM     72  O   UNL A   1      40.633  33.994  38.053  1.00  0.00    -0.744 OA
ENDBRANCH  65  69
ENDBRANCH  48  62
BRANCH  49  73
ATOM     73  C   UNL A   1      42.569  24.577  27.311  1.00  0.00     0.023 A 
ATOM     74  C   UNL A   1      41.790  23.421  27.476  1.00  0.00     0.031 A 
ATOM     75  C   UNL A   1      43.299  24.720  26.118  1.00  0.00     0.131 A 
ATOM     76  C   UNL A   1      41.783  22.435  26.477  1.00  0.00     0.055 A 
ATOM     77  C   UNL A   1      43.258  23.753  25.111  1.00  0.00     0.041 A 
ATOM     78  F   UNL A   1      44.050  25.813  25.909  1.00  0.00    -0.206 F 
ATOM     79  C   UNL A   1      42.502  22.599  25.292  1.00  0.00     0.022 A 
BRANCH  76  80
ATOM     80  S   UNL A   1      40.847  20.910  26.771  1.00  0.00     0.124 S 
ATOM     81  O   UNL A   1      39.587  21.199  26.096  1.00  0.00    -0.237 OA
ATOM     82  O   UNL A   1      41.697  19.905  26.142  1.00  0.00    -0.237 OA
ATOM     83  O   UNL A   1      40.772  20.832  28.228  1.00  0.00    -0.744 OA
ENDBRANCH  76  80
ENDBRANCH  49  73
BRANCH  61  84
ATOM     84  C   UNL A   1      47.247  26.128  32.235  1.00  0.00     0.023 A 
ATOM     85  C   UNL A   1      48.445  26.404  31.552  1.00  0.00     0.031 A 
ATOM     86  C   UNL A   1      47.288  25.206  33.297  1.00  0.00     0.131 A 
ATOM     87  C   UNL A   1      49.622  25.726  31.903  1.00  0.00     0.055 A 
ATOM     88  C   UNL A   1      48.473  24.577  33.679  1.00  0.00     0.041 A 
ATOM     89  F   UNL A   1      46.173  24.904  33.981  1.00  0.00    -0.206 F 
ATOM     90  C   UNL A   1      49.647  24.825  32.973  1.00  0.00     0.022 A 
BRANCH  87  91
ATOM     91  S   UNL A   1      51.105  25.968  30.887  1.00  0.00     0.124 S 
ATOM     92  O   UNL A   1      51.183  27.423  30.808  1.00  0.00    -0.237 OA
ATOM     93  O   UNL A   1      52.139  25.318  31.685  1.00  0.00    -0.237 OA
ATOM     94  O   UNL A   1      50.776  25.295  29.633  1.00  0.00    -0.744 OA
ENDBRANCH  87  91
ENDBRANCH  61  84
ENDBRANCH  35  36
ENDBRANCH  27  30
ENDBRANCH  25  26
ENDBRANCH   1  25
TORSDOF 16
ENDMDL
MODEL 2
REMARK VINA RESULT:     -11.9      5.134     10.045
REMARK SMILES C[C@]1(C(=O)NCCCCNC(=O)c2ccc(-c3c4nc(c(-c5cc(S(=O)(=O)[O-])ccc5F)c5ccc([nH]5)c(-c5cc(S(=O)(=O)[O-])ccc5F)c5nc(c(-c6cc(S(=O)(=O)[O-])ccc6F)c6ccc3[nH]6)C=C5)C=C4)cc2)COC[C@H]1Nc1ccc2nnnn2n1
REMARK SMILES IDX 8 1 7 2 6 3 5 4 3 5 4 6 2 8 1 9 76 10 79 11 77 12 78 13
REMARK SMILES IDX 80 14 81 16 82 17 89 18 83 19 88 20 84 21 87 22 85 23 86 24
REMARK SMILES IDX 9 25 10 26 11 27 12 29 13 30 14 31 75 32 15 33 74 34 16 35
REMARK SMILES IDX 17 36 18 37 68 38 19 39 73 40 67 41 69 42 20 43 72 44 66 45
REMARK SMILES IDX 65 46 21 48 53 49 33 50 52 51 34 52 37 53 51 54 70 55 35 56
REMARK SMILES IDX 36 57 50 59 71 60 38 61 22 62 23 63 31 64 24 65 30 66 32 67
REMARK SMILES IDX 29 68 25 69 26 70 27 71 28 72 54 73 55 74 63 75 56 76 62 77
REMARK SMILES IDX 64 78 61 79 57 80 58 81 59 82 60 83 39 84 40 85 48 86 41 87
REMARK SMILES IDX 47 88 49 89 46 90 42 91 43 92 44 93 45 94
REMARK H PARENT 5 7 80 15 10 28 69 47 37 58
REMARK Flexibility Score: inf
ROOT
ATOM      1  C   UNL A   1      36.972  21.612  24.236  1.00  0.00     0.023 C 
ENDROOT
BRANCH   1   2
ATOM      2  C   UNL A   1      36.879  22.893  23.413  1.00  0.00     0.023 C 
BRANCH   2   3
ATOM      3  C   UNL A   1      35.586  23.678  23.561  1.00  0.00     0.116 C 
BRANCH   3   4
ATOM      4  N   UNL A   1      34.436  23.014  22.982  1.00  0.00    -0.355 N 
ATOM      5  C   UNL A   1      33.189  22.732  23.448  1.00  0.00     0.230 C 
ATOM      6  O   UNL A   1      32.407  22.334  22.580  1.00  0.00    -0.274 OA
ATOM      7  H   UNL A   1      34.590  22.700  22.062  1.00  0.00     0.163 HD
BRANCH   5   8
ATOM      8  C   UNL A   1      32.817  22.762  24.940  1.00  0.00     0.092 C 
ATOM      9  C   UNL A   1      34.132  22.991  25.715  1.00  0.00     0.026 C 
ATOM     10  C   UNL A   1      31.787  23.837  25.311  1.00  0.00     0.179 C 
ATOM     11  C   UNL A   1      32.140  21.489  25.495  1.00  0.00     0.124 C 
ATOM     12  O   UNL A   1      30.862  23.287  26.255  1.00  0.00    -0.378 OA
ATOM     13  C   UNL A   1      30.733  21.922  25.888  1.00  0.00     0.186 C 
BRANCH  11  14
ATOM     14  N   UNL A   1      32.070  20.308  24.655  1.00  0.00    -0.362 N 
ATOM     15  H   UNL A   1      31.510  20.303  23.846  1.00  0.00     0.162 HD
BRANCH  14  16
ATOM     16  C   UNL A   1      32.793  19.207  25.005  1.00  0.00     0.149 A 
ATOM     17  C   UNL A   1      34.295  19.263  24.759  1.00  0.00     0.053 A 
ATOM     18  N   UNL A   1      32.157  18.141  25.402  1.00  0.00    -0.129 NA
ATOM     19  C   UNL A   1      34.750  18.090  24.274  1.00  0.00     0.057 A 
ATOM     20  N   UNL A   1      32.938  17.044  25.401  1.00  0.00    -0.108 N 
ATOM     21  C   UNL A   1      34.168  16.910  24.793  1.00  0.00     0.200 A 
ATOM     22  N   UNL A   1      32.509  15.837  25.792  1.00  0.00    -0.022 NA
ATOM     23  N   UNL A   1      34.482  15.635  24.757  1.00  0.00    -0.107 NA
ATOM     24  N   UNL A   1      33.454  14.986  25.406  1.00  0.00    -0.022 NA
ENDBRANCH  14  16
ENDBRANCH  11  14
ENDBRANCH   5   8
ENDBRANCH   3   4
ENDBRANCH   2   3
ENDBRANCH   1   2
BRANCH   1  25
ATOM     25  C   UNL A   1      37.598  21.757  25.619  1.00  0.00     0.116 C 
BRANCH  25  26
ATOM     26  N   UNL A   1      38.719  20.859  25.849  1.00  0.00    -0.352 N 
ATOM     27  C   UNL A   1      39.951  21.130  26.402  1.00  0.00     0.251 C 
ATOM     28  H   UNL A   1      38.576  19.925  25.572  1.00  0.00     0.163 HD
ATOM     29  O   UNL A   1      40.806  20.259  26.444  1.00  0.00    -0.269 OA
BRANCH  27  30
ATOM     30  C   UNL A   1      40.233  22.496  26.891  1.00  0.00     0.039 A 
ATOM     31  C   UNL A   1      41.106  22.656  27.968  1.00  0.00     0.014 A 
ATOM     32  C   UNL A   1      39.687  23.609  26.248  1.00  0.00     0.014 A 
ATOM     33  C   UNL A   1      41.499  23.940  28.350  1.00  0.00     0.010 A 
ATOM     34  C   UNL A   1      40.140  24.881  26.578  1.00  0.00     0.010 A 
ATOM     35  C   UNL A   1      41.053  25.060  27.629  1.00  0.00    -0.014 A 
BRANCH  35  36
ATOM     36  C   UNL A   1      41.524  26.428  27.961  1.00  0.00     0.031 A 
ATOM     37  C   UNL A   1      42.929  26.839  27.621  1.00  0.00     0.074 A 
ATOM     38  C   UNL A   1      40.714  27.271  28.631  1.00  0.00     0.049 A 
ATOM     39  N   UNL A   1      43.559  27.952  27.895  1.00  0.00    -0.248 NA
ATOM     40  C   UNL A   1      43.744  25.843  26.913  1.00  0.00     0.031 C 
ATOM     41  C   UNL A   1      39.346  26.969  29.058  1.00  0.00     0.029 A 
ATOM     42  N   UNL A   1      40.927  28.549  29.078  1.00  0.00    -0.354 N 
ATOM     43  C   UNL A   1      44.849  27.785  27.406  1.00  0.00     0.074 A 
ATOM     44  C   UNL A   1      44.928  26.433  26.893  1.00  0.00     0.031 C 
ATOM     45  C   UNL A   1      38.831  28.046  29.673  1.00  0.00     0.029 A 
ATOM     46  C   UNL A   1      39.843  29.095  29.724  1.00  0.00     0.049 A 
ATOM     47  H   UNL A   1      41.777  29.030  28.950  1.00  0.00     0.167 HD
ATOM     48  C   UNL A   1      45.865  28.684  27.360  1.00  0.00     0.034 A 
ATOM     49  C   UNL A   1      39.686  30.306  30.294  1.00  0.00     0.034 A 
ATOM     50  C   UNL A   1      45.764  30.028  27.873  1.00  0.00     0.049 A 
ATOM     51  C   UNL A   1      40.832  31.282  30.263  1.00  0.00     0.074 A 
ATOM     52  C   UNL A   1      46.705  31.043  27.836  1.00  0.00     0.029 A 
ATOM     53  N   UNL A   1      44.652  30.547  28.529  1.00  0.00    -0.354 N 
ATOM     54  N   UNL A   1      42.033  31.129  29.754  1.00  0.00    -0.248 NA
ATOM     55  C   UNL A   1      40.598  32.594  30.877  1.00  0.00     0.031 C 
ATOM     56  C   UNL A   1      46.187  32.149  28.522  1.00  0.00     0.029 A 
ATOM     57  C   UNL A   1      44.895  31.852  28.927  1.00  0.00     0.049 A 
ATOM     58  H   UNL A   1      43.813  30.055  28.688  1.00  0.00     0.167 HD
ATOM     59  C   UNL A   1      42.688  32.340  29.960  1.00  0.00     0.074 A 
ATOM     60  C   UNL A   1      41.744  33.211  30.633  1.00  0.00     0.031 C 
ATOM     61  C   UNL A   1      43.950  32.702  29.615  1.00  0.00     0.034 A 
BRANCH  48  62
ATOM     62  C   UNL A   1      47.169  28.211  26.758  1.00  0.00     0.023 A 
ATOM     63  C   UNL A   1      47.409  28.289  25.373  1.00  0.00     0.031 A 
ATOM     64  C   UNL A   1      48.150  27.600  27.558  1.00  0.00     0.131 A 
ATOM     65  C   UNL A   1      48.535  27.663  24.820  1.00  0.00     0.055 A 
ATOM     66  C   UNL A   1      49.320  27.068  27.012  1.00  0.00     0.041 A 
ATOM     67  F   UNL A   1      47.974  27.478  28.883  1.00  0.00    -0.206 F 
ATOM     68  C   UNL A   1      49.507  27.076  25.631  1.00  0.00     0.022 A 
BRANCH  65  69
ATOM     69  S   UNL A   1      48.605  27.452  23.019  1.00  0.00     0.124 S 
ATOM     70  O   UNL A   1      47.371  28.112  22.598  1.00  0.00    -0.237 OA
ATOM     71  O   UNL A   1      49.845  28.132  22.669  1.00  0.00    -0.237 OA
ATOM     72  O   UNL A   1      48.615  26.001  22.843  1.00  0.00    -0.744 OA
ENDBRANCH  65  69
ENDBRANCH  48  62
BRANCH  49  73
ATOM     73  C   UNL A   1      38.389  30.672  30.928  1.00  0.00     0.023 A 
ATOM     74  C   UNL A   1      37.429  31.411  30.220  1.00  0.00     0.031 A 
ATOM     75  C   UNL A   1      38.095  30.298  32.251  1.00  0.00     0.131 A 
ATOM     76  C   UNL A   1      36.230  31.781  30.848  1.00  0.00     0.055 A 
ATOM     77  C   UNL A   1      36.884  30.636  32.858  1.00  0.00     0.041 A 
ATOM     78  F   UNL A   1      38.977  29.581  32.966  1.00  0.00    -0.206 F 
ATOM     79  C   UNL A   1      35.947  31.389  32.157  1.00  0.00     0.022 A 
BRANCH  76  80
ATOM     80  S   UNL A   1      35.059  32.823  29.936  1.00  0.00     0.124 S 
ATOM     81  O   UNL A   1      34.176  33.282  31.002  1.00  0.00    -0.237 OA
ATOM     82  O   UNL A   1      35.939  33.831  29.353  1.00  0.00    -0.237 OA
ATOM     83  O   UNL A   1      34.456  31.899  28.978  1.00  0.00    -0.744 OA
ENDBRANCH  76  80
ENDBRANCH  49  73
BRANCH  61  84
ATOM     84  C   UNL A   1      44.361  34.120  29.928  1.00  0.00     0.023 A 
ATOM     85  C   UNL A   1      44.061  35.187  29.064  1.00  0.00     0.031 A 
ATOM     86  C   UNL A   1      45.082  34.401  31.103  1.00  0.00     0.131 A 
ATOM     87  C   UNL A   1      44.525  36.478  29.360  1.00  0.00     0.055 A 
ATOM     88  C   UNL A   1      45.491  35.696  31.421  1.00  0.00     0.041 A 
ATOM     89  F   UNL A   1      45.397  33.419  31.962  1.00  0.00    -0.206 F 
ATOM     90  C   UNL A   1      45.225  36.742  30.541  1.00  0.00     0.022 A 
BRANCH  87  91
ATOM     91  S   UNL A   1      44.278  37.796  28.138  1.00  0.00     0.124 S 
ATOM     92  O   UNL A   1      45.298  38.765  28.527  1.00  0.00    -0.237 OA
ATOM     93  O   UNL A   1      44.510  37.099  26.877  1.00  0.00    -0.237 OA
ATOM     94  O   UNL A   1      42.899  38.221  28.365  1.00  0.00    -0.744 OA
ENDBRANCH  87  91
ENDBRANCH  61  84
ENDBRANCH  35  36
ENDBRANCH  27  30
ENDBRANCH  25  26
ENDBRANCH   1  25
TORSDOF 16
ENDMDL
MODEL 3
REMARK VINA RESULT:     -11.9      2.829      8.000
REMARK SMILES C[C@]1(C(=O)NCCCCNC(=O)c2ccc(-c3c4nc(c(-c5cc(S(=O)(=O)[O-])ccc5F)c5ccc([nH]5)c(-c5cc(S(=O)(=O)[O-])ccc5F)c5nc(c(-c6cc(S(=O)(=O)[O-])ccc6F)c6ccc3[nH]6)C=C5)C=C4)cc2)COC[C@H]1Nc1ccc2nnnn2n1
REMARK SMILES IDX 8 1 7 2 6 3 5 4 3 5 4 6 2 8 1 9 76 10 79 11 77 12 78 13
REMARK SMILES IDX 80 14 81 16 82 17 89 18 83 19 88 20 84 21 87 22 85 23 86 24
REMARK SMILES IDX 9 25 10 26 11 27 12 29 13 30 14 31 75 32 15 33 74 34 16 35
REMARK SMILES IDX 17 36 18 37 68 38 19 39 73 40 67 41 69 42 20 43 72 44 66 45
REMARK SMILES IDX 65 46 21 48 53 49 33 50 52 51 34 52 37 53 51 54 70 55 35 56
REMARK SMILES IDX 36 57 50 59 71 60 38 61 22 62 23 63 31 64 24 65 30 66 32 67
REMARK SMILES IDX 29 68 25 69 26 70 27 71 28 72 54 73 55 74 63 75 56 76 62 77
REMARK SMILES IDX 64 78 61 79 57 80 58 81 59 82 60 83 39 84 40 85 48 86 41 87
REMARK SMILES IDX 47 88 49 89 46 90 42 91 43 92 44 93 45 94
REMARK H PARENT 5 7 80 15 10 28 69 47 37 58
REMARK Flexibility Score: inf
ROOT
ATOM      1  C   UNL A   1      31.431  29.164  26.414  1.00  0.00     0.023 C 
ENDROOT
BRANCH   1   2
ATOM      2  C   UNL A   1      31.919  27.961  27.213  1.00  0.00     0.023 C 
BRANCH   2   3
ATOM      3  C   UNL A   1      32.203  26.705  26.404  1.00  0.00     0.116 C 
BRANCH   3   4
ATOM      4  N   UNL A   1      31.352  25.586  26.754  1.00  0.00    -0.355 N 
ATOM      5  C   UNL A   1      31.513  24.236  26.692  1.00  0.00     0.230 C 
ATOM      6  O   UNL A   1      30.636  23.599  27.283  1.00  0.00    -0.274 OA
ATOM      7  H   UNL A   1      30.476  25.860  27.111  1.00  0.00     0.163 HD
BRANCH   5   8
ATOM      8  C   UNL A   1      32.596  23.553  25.842  1.00  0.00     0.092 C 
ATOM      9  C   UNL A   1      33.792  24.528  25.788  1.00  0.00     0.026 C 
ATOM     10  C   UNL A   1      33.048  22.187  26.378  1.00  0.00     0.179 C 
ATOM     11  C   UNL A   1      32.196  23.193  24.394  1.00  0.00     0.124 C 
ATOM     12  O   UNL A   1      33.220  21.290  25.275  1.00  0.00    -0.378 OA
ATOM     13  C   UNL A   1      32.226  21.671  24.336  1.00  0.00     0.186 C 
BRANCH  11  14
ATOM     14  N   UNL A   1      30.930  23.676  23.875  1.00  0.00    -0.362 N 
ATOM     15  H   UNL A   1      30.116  23.129  23.954  1.00  0.00     0.162 HD
BRANCH  14  16
ATOM     16  C   UNL A   1      30.887  24.900  23.277  1.00  0.00     0.149 A 
ATOM     17  C   UNL A   1      32.030  25.244  22.330  1.00  0.00     0.053 A 
ATOM     18  N   UNL A   1      29.961  25.742  23.639  1.00  0.00    -0.129 NA
ATOM     19  C   UNL A   1      32.426  26.522  22.492  1.00  0.00     0.057 A 
ATOM     20  N   UNL A   1      30.218  26.999  23.231  1.00  0.00    -0.108 N 
ATOM     21  C   UNL A   1      31.417  27.480  22.752  1.00  0.00     0.200 A 
ATOM     22  N   UNL A   1      29.396  28.030  23.466  1.00  0.00    -0.022 NA
ATOM     23  N   UNL A   1      31.369  28.793  22.736  1.00  0.00    -0.107 NA
ATOM     24  N   UNL A   1      30.096  29.116  23.157  1.00  0.00    -0.022 NA
ENDBRANCH  14  16
ENDBRANCH  11  14
ENDBRANCH   5   8
ENDBRANCH   3   4
ENDBRANCH   2   3
ENDBRANCH   1   2
BRANCH   1  25
ATOM     25  C   UNL A   1      32.502  30.173  26.015  1.00  0.00     0.116 C 
BRANCH  25  26
ATOM     26  N   UNL A   1      32.212  31.533  26.442  1.00  0.00    -0.352 N 
ATOM     27  C   UNL A   1      32.942  32.358  27.269  1.00  0.00     0.251 C 
ATOM     28  H   UNL A   1      31.377  31.918  26.090  1.00  0.00     0.163 HD
ATOM     29  O   UNL A   1      32.499  33.452  27.585  1.00  0.00    -0.269 OA
BRANCH  27  30
ATOM     30  C   UNL A   1      34.233  31.878  27.804  1.00  0.00     0.039 A 
ATOM     31  C   UNL A   1      35.274  32.794  27.968  1.00  0.00     0.014 A 
ATOM     32  C   UNL A   1      34.390  30.547  28.196  1.00  0.00     0.014 A 
ATOM     33  C   UNL A   1      36.448  32.394  28.606  1.00  0.00     0.010 A 
ATOM     34  C   UNL A   1      35.529  30.171  28.901  1.00  0.00     0.010 A 
ATOM     35  C   UNL A   1      36.567  31.091  29.116  1.00  0.00    -0.014 A 
BRANCH  35  36
ATOM     36  C   UNL A   1      37.771  30.665  29.874  1.00  0.00     0.031 A 
ATOM     37  C   UNL A   1      38.773  29.746  29.233  1.00  0.00     0.074 A 
ATOM     38  C   UNL A   1      37.923  31.045  31.157  1.00  0.00     0.049 A 
ATOM     39  N   UNL A   1      39.842  29.195  29.746  1.00  0.00    -0.248 NA
ATOM     40  C   UNL A   1      38.508  29.366  27.839  1.00  0.00     0.031 C 
ATOM     41  C   UNL A   1      36.994  31.897  31.903  1.00  0.00     0.029 A 
ATOM     42  N   UNL A   1      38.910  30.757  32.064  1.00  0.00    -0.354 N 
ATOM     43  C   UNL A   1      40.371  28.392  28.743  1.00  0.00     0.074 A 
ATOM     44  C   UNL A   1      39.456  28.469  27.622  1.00  0.00     0.031 C 
ATOM     45  C   UNL A   1      37.475  32.091  33.142  1.00  0.00     0.029 A 
ATOM     46  C   UNL A   1      38.719  31.344  33.293  1.00  0.00     0.049 A 
ATOM     47  H   UNL A   1      39.682  30.183  31.856  1.00  0.00     0.167 HD
ATOM     48  C   UNL A   1      41.527  27.680  28.742  1.00  0.00     0.034 A 
ATOM     49  C   UNL A   1      39.463  31.285  34.414  1.00  0.00     0.034 A 
ATOM     50  C   UNL A   1      42.427  27.621  29.868  1.00  0.00     0.049 A 
ATOM     51  C   UNL A   1      40.727  30.466  34.408  1.00  0.00     0.074 A 
ATOM     52  C   UNL A   1      43.650  26.978  29.967  1.00  0.00     0.029 A 
ATOM     53  N   UNL A   1      42.198  28.222  31.101  1.00  0.00    -0.354 N 
ATOM     54  N   UNL A   1      41.242  29.749  33.436  1.00  0.00    -0.248 NA
ATOM     55  C   UNL A   1      41.511  30.455  35.648  1.00  0.00     0.031 C 
ATOM     56  C   UNL A   1      44.126  27.138  31.274  1.00  0.00     0.029 A 
ATOM     57  C   UNL A   1      43.238  27.940  31.973  1.00  0.00     0.049 A 
ATOM     58  H   UNL A   1      41.409  28.769  31.322  1.00  0.00     0.167 HD
ATOM     59  C   UNL A   1      42.429  29.225  33.940  1.00  0.00     0.074 A 
ATOM     60  C   UNL A   1      42.554  29.717  35.299  1.00  0.00     0.031 C 
ATOM     61  C   UNL A   1      43.339  28.421  33.332  1.00  0.00     0.034 A 
BRANCH  48  62
ATOM     62  C   UNL A   1      41.845  26.896  27.489  1.00  0.00     0.023 A 
ATOM     63  C   UNL A   1      41.539  25.527  27.381  1.00  0.00     0.031 A 
ATOM     64  C   UNL A   1      42.536  27.498  26.422  1.00  0.00     0.131 A 
ATOM     65  C   UNL A   1      42.023  24.782  26.296  1.00  0.00     0.055 A 
ATOM     66  C   UNL A   1      42.927  26.771  25.295  1.00  0.00     0.041 A 
ATOM     67  F   UNL A   1      42.874  28.795  26.470  1.00  0.00    -0.206 F 
ATOM     68  C   UNL A   1      42.692  25.399  25.238  1.00  0.00     0.022 A 
BRANCH  65  69
ATOM     69  S   UNL A   1      41.942  22.972  26.390  1.00  0.00     0.124 S 
ATOM     70  O   UNL A   1      42.764  22.702  27.567  1.00  0.00    -0.237 OA
ATOM     71  O   UNL A   1      40.513  22.727  26.539  1.00  0.00    -0.237 OA
ATOM     72  O   UNL A   1      42.523  22.536  25.122  1.00  0.00    -0.744 OA
ENDBRANCH  65  69
ENDBRANCH  48  62
BRANCH  49  73
ATOM     73  C   UNL A   1      39.044  32.033  35.632  1.00  0.00     0.023 A 
ATOM     74  C   UNL A   1      38.337  31.390  36.659  1.00  0.00     0.031 A 
ATOM     75  C   UNL A   1      39.336  33.400  35.782  1.00  0.00     0.131 A 
ATOM     76  C   UNL A   1      37.915  32.121  37.780  1.00  0.00     0.055 A 
ATOM     77  C   UNL A   1      38.948  34.114  36.917  1.00  0.00     0.041 A 
ATOM     78  F   UNL A   1      40.020  34.056  34.831  1.00  0.00    -0.206 F 
ATOM     79  C   UNL A   1      38.226  33.474  37.921  1.00  0.00     0.022 A 
BRANCH  76  80
ATOM     80  S   UNL A   1      36.915  31.280  39.037  1.00  0.00     0.124 S 
ATOM     81  O   UNL A   1      36.713  29.969  38.430  1.00  0.00    -0.237 OA
ATOM     82  O   UNL A   1      37.793  31.320  40.202  1.00  0.00    -0.237 OA
ATOM     83  O   UNL A   1      35.719  32.114  39.134  1.00  0.00    -0.744 OA
ENDBRANCH  76  80
ENDBRANCH  49  73
BRANCH  61  84
ATOM     84  C   UNL A   1      44.568  28.061  34.128  1.00  0.00     0.023 A 
ATOM     85  C   UNL A   1      44.678  26.837  34.810  1.00  0.00     0.031 A 
ATOM     86  C   UNL A   1      45.640  28.969  34.219  1.00  0.00     0.131 A 
ATOM     87  C   UNL A   1      45.810  26.574  35.596  1.00  0.00     0.055 A 
ATOM     88  C   UNL A   1      46.788  28.678  34.956  1.00  0.00     0.041 A 
ATOM     89  F   UNL A   1      45.586  30.153  33.589  1.00  0.00    -0.206 F 
ATOM     90  C   UNL A   1      46.873  27.480  35.660  1.00  0.00     0.022 A 
BRANCH  87  91
ATOM     91  S   UNL A   1      45.841  25.067  36.606  1.00  0.00     0.124 S 
ATOM     92  O   UNL A   1      46.313  24.071  35.650  1.00  0.00    -0.237 OA
ATOM     93  O   UNL A   1      46.775  25.423  37.669  1.00  0.00    -0.237 OA
ATOM     94  O   UNL A   1      44.451  24.911  37.031  1.00  0.00    -0.744 OA
ENDBRANCH  87  91
ENDBRANCH  61  84
ENDBRANCH  35  36
ENDBRANCH  27  30
ENDBRANCH  25  26
ENDBRANCH   1  25
TORSDOF 16
ENDMDL
