MODEL 1
REMARK VINA RESULT:     -12.6      0.000      0.000
REMARK SMILES O=C(NCCCCNC(=O)c1cc(NC(=O)c2cncc(Br)c2)ccc1O)c1ccc(-c2c3nc(c(-c4cc(S(=O)(=O)[O-])ccc4F)c4ccc([nH]4)c(-c4cc(S(=O)(=O)[O-])ccc4F)c4nc(c(-c5cc(S(=O)(=O)[O-])ccc5F)c5ccc2[nH]5)C=C4)C=C3)cc1
REMARK SMILES IDX 5 1 4 2 3 3 1 4 2 5 28 7 29 8 90 9 30 10 89 11 31 12 32 13
REMARK SMILES IDX 33 14 83 15 34 16 88 17 82 18 84 19 35 20 87 21 81 22 80 23
REMARK SMILES IDX 36 25 68 26 48 27 67 28 49 29 52 30 66 31 85 32 50 33 51 34
REMARK SMILES IDX 65 36 86 37 53 38 37 39 38 40 46 41 39 42 45 43 47 44 44 45
REMARK SMILES IDX 40 46 41 47 42 48 43 49 69 50 70 51 78 52 71 53 77 54 79 55
REMARK SMILES IDX 76 56 72 57 73 58 74 59 75 60 54 61 55 62 63 63 56 64 62 65
REMARK SMILES IDX 64 66 61 67 57 68 58 69 59 70 60 71 6 72 7 73 8 74 9 75
REMARK SMILES IDX 10 77 11 78 12 79 26 80 13 81 25 82 24 83 27 84 14 86 15 87
REMARK SMILES IDX 16 89 17 90 18 91 23 92 19 93 21 94 20 95 22 96
REMARK H PARENT 3 6 84 24 52 35 8 76 27 85 14 88
REMARK Flexibility Score: inf
ROOT
ATOM      1  C   UNL A   1      31.366  32.123  26.522  1.00  0.00     0.023 C 
ENDROOT
BRANCH   1   2
ATOM      2  C   UNL A   1      32.615  32.607  27.251  1.00  0.00     0.116 C 
BRANCH   2   3
ATOM      3  N   UNL A   1      32.500  33.981  27.719  1.00  0.00    -0.352 N 
ATOM      4  O   UNL A   1      32.870  35.768  29.035  1.00  0.00    -0.269 OA
ATOM      5  C   UNL A   1      33.218  34.642  28.686  1.00  0.00     0.251 C 
ATOM      6  H   UNL A   1      31.803  34.517  27.277  1.00  0.00     0.163 HD
BRANCH   5   7
ATOM      7  C   UNL A   1      34.388  33.997  29.321  1.00  0.00     0.039 A 
ATOM      8  C   UNL A   1      34.229  32.971  30.257  1.00  0.00     0.014 A 
ATOM      9  C   UNL A   1      35.670  34.417  28.956  1.00  0.00     0.014 A 
ATOM     10  C   UNL A   1      35.339  32.461  30.926  1.00  0.00     0.010 A 
ATOM     11  C   UNL A   1      36.789  33.852  29.575  1.00  0.00     0.010 A 
ATOM     12  C   UNL A   1      36.631  32.891  30.589  1.00  0.00    -0.014 A 
BRANCH  12  13
ATOM     13  C   UNL A   1      37.819  32.320  31.274  1.00  0.00     0.031 A 
ATOM     14  C   UNL A   1      38.580  31.179  30.659  1.00  0.00     0.074 A 
ATOM     15  C   UNL A   1      38.194  32.814  32.469  1.00  0.00     0.049 A 
ATOM     16  N   UNL A   1      39.568  30.477  31.154  1.00  0.00    -0.248 NA
ATOM     17  C   UNL A   1      38.162  30.763  29.314  1.00  0.00     0.031 C 
ATOM     18  C   UNL A   1      37.540  33.927  33.160  1.00  0.00     0.029 A 
ATOM     19  N   UNL A   1      39.201  32.437  33.322  1.00  0.00    -0.354 N 
ATOM     20  C   UNL A   1      39.878  29.522  30.193  1.00  0.00     0.074 A 
ATOM     21  C   UNL A   1      38.943  29.715  29.102  1.00  0.00     0.031 C 
ATOM     22  C   UNL A   1      38.163  34.143  34.328  1.00  0.00     0.029 A 
ATOM     23  C   UNL A   1      39.212  33.145  34.501  1.00  0.00     0.049 A 
ATOM     24  H   UNL A   1      39.852  31.730  33.109  1.00  0.00     0.167 HD
ATOM     25  C   UNL A   1      40.854  28.578  30.218  1.00  0.00     0.034 A 
ATOM     26  C   UNL A   1      39.949  32.981  35.617  1.00  0.00     0.034 A 
ATOM     27  C   UNL A   1      41.768  28.401  31.322  1.00  0.00     0.049 A 
ATOM     28  C   UNL A   1      40.981  31.887  35.657  1.00  0.00     0.074 A 
ATOM     29  C   UNL A   1      42.814  27.501  31.442  1.00  0.00     0.029 A 
ATOM     30  N   UNL A   1      41.735  29.126  32.508  1.00  0.00    -0.354 N 
ATOM     31  N   UNL A   1      41.272  30.996  34.738  1.00  0.00    -0.248 NA
ATOM     32  C   UNL A   1      41.786  31.778  36.879  1.00  0.00     0.031 C 
ATOM     33  C   UNL A   1      43.360  27.629  32.725  1.00  0.00     0.029 A 
ATOM     34  C   UNL A   1      42.716  28.668  33.377  1.00  0.00     0.049 A 
ATOM     35  H   UNL A   1      41.107  29.858  32.705  1.00  0.00     0.167 HD
ATOM     36  C   UNL A   1      42.316  30.240  35.259  1.00  0.00     0.074 A 
ATOM     37  C   UNL A   1      42.601  30.778  36.574  1.00  0.00     0.031 C 
ATOM     38  C   UNL A   1      42.987  29.206  34.692  1.00  0.00     0.034 A 
BRANCH  25  39
ATOM     39  C   UNL A   1      40.934  27.633  29.040  1.00  0.00     0.023 A 
ATOM     40  C   UNL A   1      41.906  27.779  28.033  1.00  0.00     0.031 A 
ATOM     41  C   UNL A   1      39.991  26.600  28.890  1.00  0.00     0.131 A 
ATOM     42  C   UNL A   1      41.852  26.979  26.883  1.00  0.00     0.055 A 
ATOM     43  C   UNL A   1      40.000  25.744  27.786  1.00  0.00     0.041 A 
ATOM     44  F   UNL A   1      39.026  26.417  29.806  1.00  0.00    -0.206 F 
ATOM     45  C   UNL A   1      40.922  25.945  26.763  1.00  0.00     0.022 A 
BRANCH  42  46
ATOM     46  S   UNL A   1      42.891  27.433  25.466  1.00  0.00     0.124 S 
ATOM     47  O   UNL A   1      42.082  28.465  24.822  1.00  0.00    -0.237 OA
ATOM     48  O   UNL A   1      44.117  27.890  26.109  1.00  0.00    -0.237 OA
ATOM     49  O   UNL A   1      43.008  26.185  24.713  1.00  0.00    -0.744 OA
ENDBRANCH  42  46
ENDBRANCH  25  39
BRANCH  26  50
ATOM     50  C   UNL A   1      39.691  33.850  36.797  1.00  0.00     0.023 A 
ATOM     51  C   UNL A   1      39.051  33.355  37.942  1.00  0.00     0.031 A 
ATOM     52  C   UNL A   1      40.110  35.194  36.801  1.00  0.00     0.131 A 
ATOM     53  C   UNL A   1      38.829  34.204  39.038  1.00  0.00     0.055 A 
ATOM     54  C   UNL A   1      39.930  36.021  37.909  1.00  0.00     0.041 A 
ATOM     55  F   UNL A   1      40.736  35.711  35.732  1.00  0.00    -0.206 F 
ATOM     56  C   UNL A   1      39.279  35.528  39.036  1.00  0.00     0.022 A 
BRANCH  53  57
ATOM     57  S   UNL A   1      37.905  33.565  40.460  1.00  0.00     0.124 S 
ATOM     58  O   UNL A   1      37.717  34.771  41.258  1.00  0.00    -0.237 OA
ATOM     59  O   UNL A   1      36.710  33.020  39.827  1.00  0.00    -0.237 OA
ATOM     60  O   UNL A   1      38.811  32.572  41.035  1.00  0.00    -0.744 OA
ENDBRANCH  53  57
ENDBRANCH  26  50
BRANCH  38  61
ATOM     61  C   UNL A   1      44.144  28.624  35.466  1.00  0.00     0.023 A 
ATOM     62  C   UNL A   1      43.971  27.613  36.427  1.00  0.00     0.031 A 
ATOM     63  C   UNL A   1      45.451  29.081  35.214  1.00  0.00     0.131 A 
ATOM     64  C   UNL A   1      45.084  27.115  37.124  1.00  0.00     0.055 A 
ATOM     65  C   UNL A   1      46.558  28.546  35.872  1.00  0.00     0.041 A 
ATOM     66  F   UNL A   1      45.672  30.048  34.309  1.00  0.00    -0.206 F 
ATOM     67  C   UNL A   1      46.378  27.562  36.839  1.00  0.00     0.022 A 
BRANCH  64  68
ATOM     68  S   UNL A   1      44.819  25.909  38.454  1.00  0.00     0.124 S 
ATOM     69  O   UNL A   1      43.758  26.544  39.231  1.00  0.00    -0.237 OA
ATOM     70  O   UNL A   1      44.439  24.708  37.717  1.00  0.00    -0.237 OA
ATOM     71  O   UNL A   1      46.119  25.841  39.119  1.00  0.00    -0.744 OA
ENDBRANCH  64  68
ENDBRANCH  38  61
ENDBRANCH  12  13
ENDBRANCH   5   7
ENDBRANCH   2   3
ENDBRANCH   1   2
BRANCH   1  72
ATOM     72  C   UNL A   1      31.448  30.713  25.939  1.00  0.00     0.023 C 
BRANCH  72  73
ATOM     73  C   UNL A   1      32.724  29.936  26.245  1.00  0.00     0.116 C 
BRANCH  73  74
ATOM     74  N   UNL A   1      33.565  29.694  25.086  1.00  0.00    -0.352 N 
ATOM     75  C   UNL A   1      33.267  28.972  23.953  1.00  0.00     0.255 C 
ATOM     76  H   UNL A   1      34.462  30.099  25.114  1.00  0.00     0.163 HD
ATOM     77  O   UNL A   1      34.076  28.884  23.034  1.00  0.00    -0.269 OA
BRANCH  75  78
ATOM     78  C   UNL A   1      32.028  28.168  23.903  1.00  0.00     0.083 A 
ATOM     79  C   UNL A   1      31.928  27.143  24.855  1.00  0.00     0.043 A 
ATOM     80  C   UNL A   1      30.973  28.420  23.029  1.00  0.00     0.128 A 
ATOM     81  C   UNL A   1      30.724  26.477  25.057  1.00  0.00     0.042 A 
ATOM     82  C   UNL A   1      29.789  27.702  23.161  1.00  0.00     0.049 A 
ATOM     83  C   UNL A   1      29.662  26.753  24.183  1.00  0.00     0.030 A 
BRANCH  80  84
ATOM     84  O   UNL A   1      31.092  29.370  22.056  1.00  0.00    -0.507 OA
ATOM     85  H   UNL A   1      31.080  29.120  21.154  1.00  0.00     0.293 HD
ENDBRANCH  80  84
BRANCH  81  86
ATOM     86  N   UNL A   1      30.479  25.544  26.084  1.00  0.00    -0.322 N 
ATOM     87  C   UNL A   1      30.964  24.286  26.363  1.00  0.00     0.257 C 
ATOM     88  H   UNL A   1      29.819  25.860  26.744  1.00  0.00     0.170 HD
ATOM     89  O   UNL A   1      30.447  23.629  27.267  1.00  0.00    -0.269 OA
BRANCH  87  90
ATOM     90  C   UNL A   1      32.092  23.688  25.642  1.00  0.00     0.059 A 
ATOM     91  C   UNL A   1      31.822  22.906  24.527  1.00  0.00     0.124 A 
ATOM     92  C   UNL A   1      33.420  23.873  26.030  1.00  0.00     0.032 A 
ATOM     93  N   UNL A   1      32.785  22.370  23.738  1.00  0.00    -0.263 NA
ATOM     94  C   UNL A   1      34.426  23.357  25.218  1.00  0.00     0.037 A 
ATOM     95  C   UNL A   1      34.069  22.630  24.091  1.00  0.00     0.126 A 
ATOM     96  Br  UNL A   1      36.237  23.694  25.616  1.00  0.00    -0.049 Br
ENDBRANCH  87  90
ENDBRANCH  81  86
ENDBRANCH  75  78
ENDBRANCH  73  74
ENDBRANCH  72  73
ENDBRANCH   1  72
TORSDOF 17
ENDMDL
MODEL 2
REMARK VINA RESULT:     -12.3      1.468      1.762
REMARK SMILES O=C(NCCCCNC(=O)c1cc(NC(=O)c2cncc(Br)c2)ccc1O)c1ccc(-c2c3nc(c(-c4cc(S(=O)(=O)[O-])ccc4F)c4ccc([nH]4)c(-c4cc(S(=O)(=O)[O-])ccc4F)c4nc(c(-c5cc(S(=O)(=O)[O-])ccc5F)c5ccc2[nH]5)C=C4)C=C3)cc1
REMARK SMILES IDX 5 1 4 2 3 3 1 4 2 5 28 7 29 8 90 9 30 10 89 11 31 12 32 13
REMARK SMILES IDX 33 14 83 15 34 16 88 17 82 18 84 19 35 20 87 21 81 22 80 23
REMARK SMILES IDX 36 25 68 26 48 27 67 28 49 29 52 30 66 31 85 32 50 33 51 34
REMARK SMILES IDX 65 36 86 37 53 38 37 39 38 40 46 41 39 42 45 43 47 44 44 45
REMARK SMILES IDX 40 46 41 47 42 48 43 49 69 50 70 51 78 52 71 53 77 54 79 55
REMARK SMILES IDX 76 56 72 57 73 58 74 59 75 60 54 61 55 62 63 63 56 64 62 65
REMARK SMILES IDX 64 66 61 67 57 68 58 69 59 70 60 71 6 72 7 73 8 74 9 75
REMARK SMILES IDX 10 77 11 78 12 79 26 80 13 81 25 82 24 83 27 84 14 86 15 87
REMARK SMILES IDX 16 89 17 90 18 91 23 92 19 93 21 94 20 95 22 96
REMARK H PARENT 3 6 84 24 52 35 8 76 27 85 14 88
REMARK Flexibility Score: inf
ROOT
ATOM      1  C   UNL A   1      31.326  31.948  26.506  1.00  0.00     0.023 C 
ENDROOT
BRANCH   1   2
ATOM      2  C   UNL A   1      32.663  32.521  26.963  1.00  0.00     0.116 C 
BRANCH   2   3
ATOM      3  N   UNL A   1      32.538  33.840  27.566  1.00  0.00    -0.352 N 
ATOM      4  O   UNL A   1      32.898  35.492  29.050  1.00  0.00    -0.269 OA
ATOM      5  C   UNL A   1      33.255  34.410  28.590  1.00  0.00     0.251 C 
ATOM      6  H   UNL A   1      31.833  34.410  27.182  1.00  0.00     0.163 HD
BRANCH   5   7
ATOM      7  C   UNL A   1      34.435  33.717  29.152  1.00  0.00     0.039 A 
ATOM      8  C   UNL A   1      34.295  32.717  30.118  1.00  0.00     0.014 A 
ATOM      9  C   UNL A   1      35.706  34.066  28.687  1.00  0.00     0.014 A 
ATOM     10  C   UNL A   1      35.425  32.163  30.715  1.00  0.00     0.010 A 
ATOM     11  C   UNL A   1      36.838  33.456  29.235  1.00  0.00     0.010 A 
ATOM     12  C   UNL A   1      36.708  32.522  30.276  1.00  0.00    -0.014 A 
BRANCH  12  13
ATOM     13  C   UNL A   1      37.914  31.903  30.886  1.00  0.00     0.031 A 
ATOM     14  C   UNL A   1      38.695  30.857  30.140  1.00  0.00     0.074 A 
ATOM     15  C   UNL A   1      38.286  32.265  32.128  1.00  0.00     0.049 A 
ATOM     16  N   UNL A   1      39.702  30.126  30.547  1.00  0.00    -0.248 NA
ATOM     17  C   UNL A   1      38.275  30.589  28.758  1.00  0.00     0.031 C 
ATOM     18  C   UNL A   1      37.614  33.276  32.945  1.00  0.00     0.029 A 
ATOM     19  N   UNL A   1      39.307  31.816  32.927  1.00  0.00    -0.354 N 
ATOM     20  C   UNL A   1      40.025  29.295  29.480  1.00  0.00     0.074 A 
ATOM     21  C   UNL A   1      39.078  29.590  28.424  1.00  0.00     0.031 C 
ATOM     22  C   UNL A   1      38.240  33.372  34.127  1.00  0.00     0.029 A 
ATOM     23  C   UNL A   1      39.312  32.384  34.179  1.00  0.00     0.049 A 
ATOM     24  H   UNL A   1      39.973  31.152  32.631  1.00  0.00     0.167 HD
ATOM     25  C   UNL A   1      41.022  28.376  29.393  1.00  0.00     0.034 A 
ATOM     26  C   UNL A   1      40.061  32.110  35.265  1.00  0.00     0.034 A 
ATOM     27  C   UNL A   1      41.948  28.094  30.465  1.00  0.00     0.049 A 
ATOM     28  C   UNL A   1      41.117  31.042  35.175  1.00  0.00     0.074 A 
ATOM     29  C   UNL A   1      43.014  27.211  30.475  1.00  0.00     0.029 A 
ATOM     30  N   UNL A   1      41.908  28.678  31.726  1.00  0.00    -0.354 N 
ATOM     31  N   UNL A   1      41.421  30.269  34.158  1.00  0.00    -0.248 NA
ATOM     32  C   UNL A   1      41.933  30.813  36.372  1.00  0.00     0.031 C 
ATOM     33  C   UNL A   1      43.567  27.203  31.762  1.00  0.00     0.029 A 
ATOM     34  C   UNL A   1      42.906  28.146  32.532  1.00  0.00     0.049 A 
ATOM     35  H   UNL A   1      41.265  29.368  32.009  1.00  0.00     0.167 HD
ATOM     36  C   UNL A   1      42.485  29.483  34.583  1.00  0.00     0.074 A 
ATOM     37  C   UNL A   1      42.768  29.872  35.950  1.00  0.00     0.031 C 
ATOM     38  C   UNL A   1      43.175  28.536  33.898  1.00  0.00     0.034 A 
BRANCH  25  39
ATOM     39  C   UNL A   1      41.114  27.574  28.113  1.00  0.00     0.023 A 
ATOM     40  C   UNL A   1      40.737  26.220  28.055  1.00  0.00     0.031 A 
ATOM     41  C   UNL A   1      41.636  28.157  26.944  1.00  0.00     0.131 A 
ATOM     42  C   UNL A   1      40.981  25.472  26.893  1.00  0.00     0.055 A 
ATOM     43  C   UNL A   1      41.788  27.432  25.760  1.00  0.00     0.041 A 
ATOM     44  F   UNL A   1      42.030  29.441  26.937  1.00  0.00    -0.206 F 
ATOM     45  C   UNL A   1      41.480  26.074  25.736  1.00  0.00     0.022 A 
BRANCH  42  46
ATOM     46  S   UNL A   1      40.815  23.667  26.977  1.00  0.00     0.124 S 
ATOM     47  O   UNL A   1      39.380  23.491  26.770  1.00  0.00    -0.237 OA
ATOM     48  O   UNL A   1      41.678  23.222  25.889  1.00  0.00    -0.237 OA
ATOM     49  O   UNL A   1      41.286  23.341  28.322  1.00  0.00    -0.744 OA
ENDBRANCH  42  46
ENDBRANCH  25  39
BRANCH  26  50
ATOM     50  C   UNL A   1      39.793  32.832  36.538  1.00  0.00     0.023 A 
ATOM     51  C   UNL A   1      38.798  32.401  37.426  1.00  0.00     0.031 A 
ATOM     52  C   UNL A   1      40.556  33.961  36.895  1.00  0.00     0.131 A 
ATOM     53  C   UNL A   1      38.577  33.105  38.621  1.00  0.00     0.055 A 
ATOM     54  C   UNL A   1      40.365  34.629  38.103  1.00  0.00     0.041 A 
ATOM     55  F   UNL A   1      41.527  34.407  36.082  1.00  0.00    -0.206 F 
ATOM     56  C   UNL A   1      39.364  34.205  38.973  1.00  0.00     0.022 A 
BRANCH  53  57
ATOM     57  S   UNL A   1      37.214  32.586  39.698  1.00  0.00     0.124 S 
ATOM     58  O   UNL A   1      36.068  32.708  38.805  1.00  0.00    -0.237 OA
ATOM     59  O   UNL A   1      37.610  31.228  40.055  1.00  0.00    -0.237 OA
ATOM     60  O   UNL A   1      37.258  33.553  40.792  1.00  0.00    -0.744 OA
ENDBRANCH  53  57
ENDBRANCH  26  50
BRANCH  38  61
ATOM     61  C   UNL A   1      44.350  27.895  34.595  1.00  0.00     0.023 A 
ATOM     62  C   UNL A   1      44.229  26.702  35.327  1.00  0.00     0.031 A 
ATOM     63  C   UNL A   1      45.623  28.487  34.499  1.00  0.00     0.131 A 
ATOM     64  C   UNL A   1      45.356  26.156  35.962  1.00  0.00     0.055 A 
ATOM     65  C   UNL A   1      46.748  27.913  35.089  1.00  0.00     0.041 A 
ATOM     66  F   UNL A   1      45.793  29.630  33.815  1.00  0.00    -0.206 F 
ATOM     67  C   UNL A   1      46.618  26.744  35.832  1.00  0.00     0.022 A 
BRANCH  64  68
ATOM     68  S   UNL A   1      45.147  24.692  37.013  1.00  0.00     0.124 S 
ATOM     69  O   UNL A   1      45.076  23.618  36.026  1.00  0.00    -0.237 OA
ATOM     70  O   UNL A   1      46.351  24.723  37.837  1.00  0.00    -0.237 OA
ATOM     71  O   UNL A   1      43.900  24.958  37.730  1.00  0.00    -0.744 OA
ENDBRANCH  64  68
ENDBRANCH  38  61
ENDBRANCH  12  13
ENDBRANCH   5   7
ENDBRANCH   2   3
ENDBRANCH   1   2
BRANCH   1  72
ATOM     72  C   UNL A   1      31.404  30.645  25.713  1.00  0.00     0.023 C 
BRANCH  72  73
ATOM     73  C   UNL A   1      32.680  29.829  25.889  1.00  0.00     0.116 C 
BRANCH  73  74
ATOM     74  N   UNL A   1      33.395  29.570  24.651  1.00  0.00    -0.352 N 
ATOM     75  C   UNL A   1      32.979  28.835  23.566  1.00  0.00     0.255 C 
ATOM     76  H   UNL A   1      34.291  29.972  24.580  1.00  0.00     0.163 HD
ATOM     77  O   UNL A   1      33.687  28.732  22.568  1.00  0.00    -0.269 OA
BRANCH  75  78
ATOM     78  C   UNL A   1      31.739  28.035  23.655  1.00  0.00     0.083 A 
ATOM     79  C   UNL A   1      31.722  27.049  24.653  1.00  0.00     0.043 A 
ATOM     80  C   UNL A   1      30.612  28.256  22.867  1.00  0.00     0.128 A 
ATOM     81  C   UNL A   1      30.539  26.397  24.986  1.00  0.00     0.042 A 
ATOM     82  C   UNL A   1      29.444  27.549  23.130  1.00  0.00     0.049 A 
ATOM     83  C   UNL A   1      29.405  26.642  24.197  1.00  0.00     0.030 A 
BRANCH  80  84
ATOM     84  O   UNL A   1      30.647  29.166  21.850  1.00  0.00    -0.507 OA
ATOM     85  H   UNL A   1      29.854  29.567  21.553  1.00  0.00     0.293 HD
ENDBRANCH  80  84
BRANCH  81  86
ATOM     86  N   UNL A   1      30.384  25.507  26.066  1.00  0.00    -0.322 N 
ATOM     87  C   UNL A   1      30.715  24.186  26.267  1.00  0.00     0.257 C 
ATOM     88  H   UNL A   1      29.942  25.918  26.845  1.00  0.00     0.170 HD
ATOM     89  O   UNL A   1      30.314  23.612  27.280  1.00  0.00    -0.269 OA
BRANCH  87  90
ATOM     90  C   UNL A   1      31.551  23.423  25.335  1.00  0.00     0.059 A 
ATOM     91  C   UNL A   1      31.123  23.295  24.020  1.00  0.00     0.124 A 
ATOM     92  C   UNL A   1      32.753  22.822  25.714  1.00  0.00     0.032 A 
ATOM     93  N   UNL A   1      31.850  22.684  23.053  1.00  0.00    -0.263 NA
ATOM     94  C   UNL A   1      33.529  22.215  24.732  1.00  0.00     0.037 A 
ATOM     95  C   UNL A   1      33.051  22.177  23.429  1.00  0.00     0.126 A 
ATOM     96  Br  UNL A   1      35.224  21.510  25.158  1.00  0.00    -0.049 Br
ENDBRANCH  87  90
ENDBRANCH  81  86
ENDBRANCH  75  78
ENDBRANCH  73  74
ENDBRANCH  72  73
ENDBRANCH   1  72
TORSDOF 17
ENDMDL
MODEL 3
REMARK VINA RESULT:     -12.2      1.911      2.291
REMARK SMILES O=C(NCCCCNC(=O)c1cc(NC(=O)c2cncc(Br)c2)ccc1O)c1ccc(-c2c3nc(c(-c4cc(S(=O)(=O)[O-])ccc4F)c4ccc([nH]4)c(-c4cc(S(=O)(=O)[O-])ccc4F)c4nc(c(-c5cc(S(=O)(=O)[O-])ccc5F)c5ccc2[nH]5)C=C4)C=C3)cc1
REMARK SMILES IDX 5 1 4 2 3 3 1 4 2 5 28 7 29 8 90 9 30 10 89 11 31 12 32 13
REMARK SMILES IDX 33 14 83 15 34 16 88 17 82 18 84 19 35 20 87 21 81 22 80 23
REMARK SMILES IDX 36 25 68 26 48 27 67 28 49 29 52 30 66 31 85 32 50 33 51 34
REMARK SMILES IDX 65 36 86 37 53 38 37 39 38 40 46 41 39 42 45 43 47 44 44 45
REMARK SMILES IDX 40 46 41 47 42 48 43 49 69 50 70 51 78 52 71 53 77 54 79 55
REMARK SMILES IDX 76 56 72 57 73 58 74 59 75 60 54 61 55 62 63 63 56 64 62 65
REMARK SMILES IDX 64 66 61 67 57 68 58 69 59 70 60 71 6 72 7 73 8 74 9 75
REMARK SMILES IDX 10 77 11 78 12 79 26 80 13 81 25 82 24 83 27 84 14 86 15 87
REMARK SMILES IDX 16 89 17 90 18 91 23 92 19 93 21 94 20 95 22 96
REMARK H PARENT 3 6 84 24 52 35 8 76 27 85 14 88
REMARK Flexibility Score: inf
ROOT
ATOM      1  C   UNL A   1      31.307  31.880  26.482  1.00  0.00     0.023 C 
ENDROOT
BRANCH   1   2
ATOM      2  C   UNL A   1      32.561  32.494  27.095  1.00  0.00     0.116 C 
BRANCH   2   3
ATOM      3  N   UNL A   1      32.368  33.873  27.519  1.00  0.00    -0.352 N 
ATOM      4  O   UNL A   1      32.632  35.720  28.778  1.00  0.00    -0.269 OA
ATOM      5  C   UNL A   1      33.044  34.604  28.466  1.00  0.00     0.251 C 
ATOM      6  H   UNL A   1      31.644  34.355  27.058  1.00  0.00     0.163 HD
BRANCH   5   7
ATOM      7  C   UNL A   1      34.245  34.046  29.124  1.00  0.00     0.039 A 
ATOM      8  C   UNL A   1      35.527  34.489  28.787  1.00  0.00     0.014 A 
ATOM      9  C   UNL A   1      34.081  33.072  30.113  1.00  0.00     0.014 A 
ATOM     10  C   UNL A   1      36.646  33.867  29.336  1.00  0.00     0.010 A 
ATOM     11  C   UNL A   1      35.203  32.499  30.717  1.00  0.00     0.010 A 
ATOM     12  C   UNL A   1      36.496  32.869  30.311  1.00  0.00    -0.014 A 
BRANCH  12  13
ATOM     13  C   UNL A   1      37.689  32.231  30.926  1.00  0.00     0.031 A 
ATOM     14  C   UNL A   1      38.465  31.184  30.178  1.00  0.00     0.074 A 
ATOM     15  C   UNL A   1      38.052  32.577  32.176  1.00  0.00     0.049 A 
ATOM     16  N   UNL A   1      39.460  30.438  30.587  1.00  0.00    -0.248 NA
ATOM     17  C   UNL A   1      38.057  30.934  28.789  1.00  0.00     0.031 C 
ATOM     18  C   UNL A   1      37.383  33.587  32.996  1.00  0.00     0.029 A 
ATOM     19  N   UNL A   1      39.061  32.109  32.980  1.00  0.00    -0.354 N 
ATOM     20  C   UNL A   1      39.785  29.614  29.516  1.00  0.00     0.074 A 
ATOM     21  C   UNL A   1      38.852  29.930  28.453  1.00  0.00     0.031 C 
ATOM     22  C   UNL A   1      37.999  33.664  34.185  1.00  0.00     0.029 A 
ATOM     23  C   UNL A   1      39.059  32.664  34.238  1.00  0.00     0.049 A 
ATOM     24  H   UNL A   1      39.722  31.441  32.685  1.00  0.00     0.167 HD
ATOM     25  C   UNL A   1      40.773  28.685  29.429  1.00  0.00     0.034 A 
ATOM     26  C   UNL A   1      39.794  32.371  35.329  1.00  0.00     0.034 A 
ATOM     27  C   UNL A   1      41.685  28.383  30.507  1.00  0.00     0.049 A 
ATOM     28  C   UNL A   1      40.839  31.293  35.238  1.00  0.00     0.074 A 
ATOM     29  C   UNL A   1      42.741  27.488  30.519  1.00  0.00     0.029 A 
ATOM     30  N   UNL A   1      41.639  28.955  31.774  1.00  0.00    -0.354 N 
ATOM     31  N   UNL A   1      41.145  30.527  34.216  1.00  0.00    -0.248 NA
ATOM     32  C   UNL A   1      41.641  31.043  36.441  1.00  0.00     0.031 C 
ATOM     33  C   UNL A   1      43.281  27.461  31.811  1.00  0.00     0.029 A 
ATOM     34  C   UNL A   1      42.623  28.404  32.584  1.00  0.00     0.049 A 
ATOM     35  H   UNL A   1      41.001  29.649  32.057  1.00  0.00     0.167 HD
ATOM     36  C   UNL A   1      42.196  29.725  34.644  1.00  0.00     0.074 A 
ATOM     37  C   UNL A   1      42.470  30.098  36.018  1.00  0.00     0.031 C 
ATOM     38  C   UNL A   1      42.882  28.777  33.956  1.00  0.00     0.034 A 
BRANCH  25  39
ATOM     39  C   UNL A   1      40.869  27.896  28.142  1.00  0.00     0.023 A 
ATOM     40  C   UNL A   1      40.263  26.634  27.997  1.00  0.00     0.031 A 
ATOM     41  C   UNL A   1      41.623  28.386  27.061  1.00  0.00     0.131 A 
ATOM     42  C   UNL A   1      40.503  25.868  26.846  1.00  0.00     0.055 A 
ATOM     43  C   UNL A   1      41.780  27.659  25.878  1.00  0.00     0.041 A 
ATOM     44  F   UNL A   1      42.241  29.575  27.141  1.00  0.00    -0.206 F 
ATOM     45  C   UNL A   1      41.236  26.382  25.774  1.00  0.00     0.022 A 
BRANCH  42  46
ATOM     46  S   UNL A   1      40.004  24.124  26.850  1.00  0.00     0.124 S 
ATOM     47  O   UNL A   1      38.760  24.169  26.086  1.00  0.00    -0.237 OA
ATOM     48  O   UNL A   1      41.133  23.472  26.197  1.00  0.00    -0.237 OA
ATOM     49  O   UNL A   1      39.841  23.817  28.270  1.00  0.00    -0.744 OA
ENDBRANCH  42  46
ENDBRANCH  25  39
BRANCH  26  50
ATOM     50  C   UNL A   1      39.522  33.084  36.606  1.00  0.00     0.023 A 
ATOM     51  C   UNL A   1      40.134  34.310  36.903  1.00  0.00     0.031 A 
ATOM     52  C   UNL A   1      38.616  32.552  37.543  1.00  0.00     0.131 A 
ATOM     53  C   UNL A   1      39.848  34.956  38.116  1.00  0.00     0.055 A 
ATOM     54  C   UNL A   1      38.299  33.220  38.725  1.00  0.00     0.041 A 
ATOM     55  F   UNL A   1      37.997  31.386  37.300  1.00  0.00    -0.206 F 
ATOM     56  C   UNL A   1      38.923  34.428  39.021  1.00  0.00     0.022 A 
BRANCH  53  57
ATOM     57  S   UNL A   1      40.735  36.485  38.518  1.00  0.00     0.124 S 
ATOM     58  O   UNL A   1      41.445  36.106  39.734  1.00  0.00    -0.237 OA
ATOM     59  O   UNL A   1      41.558  36.681  37.329  1.00  0.00    -0.237 OA
ATOM     60  O   UNL A   1      39.664  37.462  38.699  1.00  0.00    -0.744 OA
ENDBRANCH  53  57
ENDBRANCH  26  50
BRANCH  38  61
ATOM     61  C   UNL A   1      44.044  28.117  34.658  1.00  0.00     0.023 A 
ATOM     62  C   UNL A   1      43.914  26.890  35.331  1.00  0.00     0.031 A 
ATOM     63  C   UNL A   1      45.311  28.726  34.629  1.00  0.00     0.131 A 
ATOM     64  C   UNL A   1      45.028  26.326  35.974  1.00  0.00     0.055 A 
ATOM     65  C   UNL A   1      46.426  28.136  35.226  1.00  0.00     0.041 A 
ATOM     66  F   UNL A   1      45.489  29.901  34.005  1.00  0.00    -0.206 F 
ATOM     67  C   UNL A   1      46.286  26.932  35.910  1.00  0.00     0.022 A 
BRANCH  64  68
ATOM     68  S   UNL A   1      44.805  24.812  36.949  1.00  0.00     0.124 S 
ATOM     69  O   UNL A   1      43.930  24.023  36.087  1.00  0.00    -0.237 OA
ATOM     70  O   UNL A   1      46.173  24.324  37.089  1.00  0.00    -0.237 OA
ATOM     71  O   UNL A   1      44.189  25.289  38.187  1.00  0.00    -0.744 OA
ENDBRANCH  64  68
ENDBRANCH  38  61
ENDBRANCH  12  13
ENDBRANCH   5   7
ENDBRANCH   2   3
ENDBRANCH   1   2
BRANCH   1  72
ATOM     72  C   UNL A   1      31.506  30.542  25.773  1.00  0.00     0.023 C 
BRANCH  72  73
ATOM     73  C   UNL A   1      32.668  29.689  26.271  1.00  0.00     0.116 C 
BRANCH  73  74
ATOM     74  N   UNL A   1      33.593  29.279  25.228  1.00  0.00    -0.352 N 
ATOM     75  C   UNL A   1      33.353  28.452  24.154  1.00  0.00     0.255 C 
ATOM     76  H   UNL A   1      34.507  29.638  25.298  1.00  0.00     0.163 HD
ATOM     77  O   UNL A   1      34.234  28.223  23.330  1.00  0.00    -0.269 OA
BRANCH  75  78
ATOM     78  C   UNL A   1      32.077  27.712  24.071  1.00  0.00     0.083 A 
ATOM     79  C   UNL A   1      31.877  26.730  25.052  1.00  0.00     0.043 A 
ATOM     80  C   UNL A   1      31.079  27.984  23.137  1.00  0.00     0.128 A 
ATOM     81  C   UNL A   1      30.631  26.135  25.219  1.00  0.00     0.042 A 
ATOM     82  C   UNL A   1      29.854  27.334  23.235  1.00  0.00     0.049 A 
ATOM     83  C   UNL A   1      29.627  26.432  24.283  1.00  0.00     0.030 A 
BRANCH  80  84
ATOM     84  O   UNL A   1      31.295  28.889  22.139  1.00  0.00    -0.507 OA
ATOM     85  H   UNL A   1      31.145  28.647  21.246  1.00  0.00     0.293 HD
ENDBRANCH  80  84
BRANCH  81  86
ATOM     86  N   UNL A   1      30.288  25.256  26.264  1.00  0.00    -0.322 N 
ATOM     87  C   UNL A   1      30.589  23.941  26.540  1.00  0.00     0.257 C 
ATOM     88  H   UNL A   1      29.708  25.671  26.943  1.00  0.00     0.170 HD
ATOM     89  O   UNL A   1      30.014  23.375  27.470  1.00  0.00    -0.269 OA
BRANCH  87  90
ATOM     90  C   UNL A   1      31.588  23.177  25.786  1.00  0.00     0.059 A 
ATOM     91  C   UNL A   1      32.794  22.878  26.405  1.00  0.00     0.124 A 
ATOM     92  C   UNL A   1      31.375  22.741  24.476  1.00  0.00     0.032 A 
ATOM     93  N   UNL A   1      33.757  22.113  25.837  1.00  0.00    -0.263 NA
ATOM     94  C   UNL A   1      32.338  21.929  23.885  1.00  0.00     0.037 A 
ATOM     95  C   UNL A   1      33.494  21.634  24.595  1.00  0.00     0.126 A 
ATOM     96  Br  UNL A   1      32.043  21.196  22.174  1.00  0.00    -0.049 Br
ENDBRANCH  87  90
ENDBRANCH  81  86
ENDBRANCH  75  78
ENDBRANCH  73  74
ENDBRANCH  72  73
ENDBRANCH   1  72
TORSDOF 17
ENDMDL
