MODEL 1
REMARK VINA RESULT:     -13.1      0.000      0.000
REMARK SMILES Cc1cc(Cl)c(C)c2c1O[C@H](C(F)(F)F)C(C(=O)NCCCCNC(=O)c1ccc(-c3c4nc(c(-c5cc(S(=O)(=O)[O-])ccc5F)c5ccc([nH]5)c(-c5cc(S(=O)(=O)[O-])ccc5F)c5nc(c(-c6cc(S(=O)(=O)[O-])ccc6F)c6ccc3[nH]6)C=C5)C=C4)cc1)=C2
REMARK SMILES IDX 22 1 21 2 20 3 19 4 17 5 18 6 16 8 1 9 2 10 3 11 9 12 4 13
REMARK SMILES IDX 8 14 10 15 5 16 6 17 90 18 11 19 7 20 12 21 13 22 14 23
REMARK SMILES IDX 15 24 23 25 24 26 25 27 26 29 27 30 28 31 89 32 29 33 88 34
REMARK SMILES IDX 30 35 31 36 32 37 82 38 33 39 87 40 81 41 83 42 34 43 86 44
REMARK SMILES IDX 80 45 79 46 35 48 67 49 47 50 66 51 48 52 51 53 65 54 84 55
REMARK SMILES IDX 49 56 50 57 64 59 85 60 52 61 36 62 37 63 45 64 38 65 44 66
REMARK SMILES IDX 46 67 43 68 39 69 40 70 41 71 42 72 68 73 69 74 77 75 70 76
REMARK SMILES IDX 76 77 78 78 75 79 71 80 72 81 73 82 74 83 53 84 54 85 62 86
REMARK SMILES IDX 55 87 61 88 63 89 60 90 56 91 57 92 58 93 59 94
REMARK H PARENT 19 7 24 28 83 47 51 58
REMARK Flexibility Score: inf
ROOT
ATOM      1  C   UNL A   1      31.846  28.362  25.058  1.00  0.00     0.023 C 
ENDROOT
BRANCH   1   2
ATOM      2  C   UNL A   1      31.218  28.700  23.704  1.00  0.00     0.023 C 
BRANCH   2   3
ATOM      3  C   UNL A   1      30.694  27.487  22.942  1.00  0.00     0.116 C 
BRANCH   3   4
ATOM      4  N   UNL A   1      31.675  26.971  22.004  1.00  0.00    -0.352 N 
ATOM      5  C   UNL A   1      32.635  26.018  22.007  1.00  0.00     0.251 C 
ATOM      6  O   UNL A   1      33.280  25.916  20.958  1.00  0.00    -0.270 OA
ATOM      7  H   UNL A   1      31.630  27.438  21.139  1.00  0.00     0.163 HD
BRANCH   5   8
ATOM      8  C   UNL A   1      32.949  25.111  23.152  1.00  0.00     0.067 C 
ATOM      9  C   UNL A   1      33.188  22.580  27.618  1.00  0.00     0.048 C 
ATOM     10  C   UNL A   1      34.051  22.673  26.392  1.00  0.00    -0.007 A 
ATOM     11  C   UNL A   1      35.226  21.921  26.321  1.00  0.00     0.028 A 
ATOM     12  C   UNL A   1      33.743  23.531  25.329  1.00  0.00     0.131 A 
ATOM     13  C   UNL A   1      36.067  22.006  25.205  1.00  0.00     0.045 A 
ATOM     14  C   UNL A   1      34.578  23.632  24.203  1.00  0.00     0.022 A 
ATOM     15  O   UNL A   1      32.618  24.300  25.465  1.00  0.00    -0.475 OA
ATOM     16  Cl  UNL A   1      37.494  21.027  25.243  1.00  0.00    -0.084 Cl
ATOM     17  C   UNL A   1      35.758  22.854  24.124  1.00  0.00    -0.021 A 
ATOM     18  C   UNL A   1      34.190  24.586  23.156  1.00  0.00     0.026 C 
ATOM     19  C   UNL A   1      31.984  24.734  24.233  1.00  0.00     0.314 C 
ATOM     20  C   UNL A   1      36.652  22.954  22.913  1.00  0.00     0.047 C 
BRANCH  19  21
ATOM     21  C   UNL A   1      30.954  23.682  23.779  1.00  0.00     0.429 C 
ATOM     22  F   UNL A   1      30.442  23.028  24.851  1.00  0.00    -0.167 F 
ATOM     23  F   UNL A   1      29.903  24.233  23.126  1.00  0.00    -0.167 F 
ATOM     24  F   UNL A   1      31.485  22.751  22.954  1.00  0.00    -0.167 F 
ENDBRANCH  19  21
ENDBRANCH   5   8
ENDBRANCH   3   4
ENDBRANCH   2   3
ENDBRANCH   1   2
BRANCH   1  25
ATOM     25  C   UNL A   1      32.950  29.310  25.524  1.00  0.00     0.116 C 
BRANCH  25  26
ATOM     26  N   UNL A   1      32.458  30.592  26.009  1.00  0.00    -0.352 N 
ATOM     27  C   UNL A   1      33.032  31.416  26.948  1.00  0.00     0.251 C 
ATOM     28  H   UNL A   1      31.611  30.906  25.617  1.00  0.00     0.163 HD
ATOM     29  O   UNL A   1      32.462  32.439  27.310  1.00  0.00    -0.269 OA
BRANCH  27  30
ATOM     30  C   UNL A   1      34.320  31.013  27.539  1.00  0.00     0.039 A 
ATOM     31  C   UNL A   1      35.234  32.004  27.896  1.00  0.00     0.014 A 
ATOM     32  C   UNL A   1      34.570  29.667  27.825  1.00  0.00     0.014 A 
ATOM     33  C   UNL A   1      36.376  31.651  28.615  1.00  0.00     0.010 A 
ATOM     34  C   UNL A   1      35.679  29.326  28.593  1.00  0.00     0.010 A 
ATOM     35  C   UNL A   1      36.584  30.317  29.002  1.00  0.00    -0.014 A 
BRANCH  35  36
ATOM     36  C   UNL A   1      37.753  29.946  29.834  1.00  0.00     0.031 A 
ATOM     37  C   UNL A   1      38.797  29.018  29.283  1.00  0.00     0.074 A 
ATOM     38  C   UNL A   1      37.853  30.420  31.091  1.00  0.00     0.049 A 
ATOM     39  N   UNL A   1      39.879  28.562  29.857  1.00  0.00    -0.248 NA
ATOM     40  C   UNL A   1      38.583  28.519  27.916  1.00  0.00     0.031 C 
ATOM     41  C   UNL A   1      36.877  31.296  31.745  1.00  0.00     0.029 A 
ATOM     42  N   UNL A   1      38.826  30.242  32.041  1.00  0.00    -0.354 N 
ATOM     43  C   UNL A   1      40.474  27.721  28.924  1.00  0.00     0.074 A 
ATOM     44  C   UNL A   1      39.599  27.682  27.773  1.00  0.00     0.031 C 
ATOM     45  C   UNL A   1      37.322  31.611  32.972  1.00  0.00     0.029 A 
ATOM     46  C   UNL A   1      38.597  30.939  33.204  1.00  0.00     0.049 A 
ATOM     47  H   UNL A   1      39.614  29.669  31.903  1.00  0.00     0.167 HD
ATOM     48  C   UNL A   1      41.657  27.068  29.009  1.00  0.00     0.034 A 
ATOM     49  C   UNL A   1      39.336  31.030  34.327  1.00  0.00     0.034 A 
ATOM     50  C   UNL A   1      42.533  27.139  30.147  1.00  0.00     0.049 A 
ATOM     51  C   UNL A   1      40.634  30.274  34.408  1.00  0.00     0.074 A 
ATOM     52  C   UNL A   1      43.784  26.572  30.310  1.00  0.00     0.029 A 
ATOM     53  N   UNL A   1      42.247  27.822  31.321  1.00  0.00    -0.354 N 
ATOM     54  N   UNL A   1      41.196  29.506  33.504  1.00  0.00    -0.248 NA
ATOM     55  C   UNL A   1      41.394  30.389  35.660  1.00  0.00     0.031 C 
ATOM     56  C   UNL A   1      44.235  26.874  31.599  1.00  0.00     0.029 A 
ATOM     57  C   UNL A   1      43.285  27.668  32.223  1.00  0.00     0.049 A 
ATOM     58  H   UNL A   1      41.426  28.340  31.488  1.00  0.00     0.167 HD
ATOM     59  C   UNL A   1      42.382  29.056  34.074  1.00  0.00     0.074 A 
ATOM     60  C   UNL A   1      42.457  29.639  35.398  1.00  0.00     0.031 C 
ATOM     61  C   UNL A   1      43.326  28.240  33.546  1.00  0.00     0.034 A 
BRANCH  48  62
ATOM     62  C   UNL A   1      42.062  26.226  27.830  1.00  0.00     0.023 A 
ATOM     63  C   UNL A   1      41.653  24.885  27.719  1.00  0.00     0.031 A 
ATOM     64  C   UNL A   1      42.882  26.756  26.820  1.00  0.00     0.131 A 
ATOM     65  C   UNL A   1      42.118  24.101  26.656  1.00  0.00     0.055 A 
ATOM     66  C   UNL A   1      43.287  25.988  25.728  1.00  0.00     0.041 A 
ATOM     67  F   UNL A   1      43.315  28.025  26.888  1.00  0.00    -0.206 F 
ATOM     68  C   UNL A   1      42.915  24.649  25.647  1.00  0.00     0.022 A 
BRANCH  65  69
ATOM     69  S   UNL A   1      41.750  22.326  26.663  1.00  0.00     0.124 S 
ATOM     70  O   UNL A   1      42.506  21.875  27.829  1.00  0.00    -0.237 OA
ATOM     71  O   UNL A   1      40.298  22.302  26.797  1.00  0.00    -0.237 OA
ATOM     72  O   UNL A   1      42.265  21.864  25.376  1.00  0.00    -0.744 OA
ENDBRANCH  65  69
ENDBRANCH  48  62
BRANCH  49  73
ATOM     73  C   UNL A   1      38.870  31.870  35.461  1.00  0.00     0.023 A 
ATOM     74  C   UNL A   1      38.204  31.295  36.554  1.00  0.00     0.031 A 
ATOM     75  C   UNL A   1      39.086  33.259  35.469  1.00  0.00     0.131 A 
ATOM     76  C   UNL A   1      37.755  32.110  37.604  1.00  0.00     0.055 A 
ATOM     77  C   UNL A   1      38.663  34.062  36.530  1.00  0.00     0.041 A 
ATOM     78  F   UNL A   1      39.731  33.850  34.451  1.00  0.00    -0.206 F 
ATOM     79  C   UNL A   1      37.988  33.488  37.604  1.00  0.00     0.022 A 
BRANCH  76  80
ATOM     80  S   UNL A   1      36.845  31.345  38.974  1.00  0.00     0.124 S 
ATOM     81  O   UNL A   1      37.799  31.466  40.069  1.00  0.00    -0.237 OA
ATOM     82  O   UNL A   1      35.657  32.188  39.060  1.00  0.00    -0.237 OA
ATOM     83  O   UNL A   1      36.603  29.983  38.502  1.00  0.00    -0.744 OA
ENDBRANCH  76  80
ENDBRANCH  49  73
BRANCH  61  84
ATOM     84  C   UNL A   1      44.525  27.933  34.396  1.00  0.00     0.023 A 
ATOM     85  C   UNL A   1      44.551  26.803  35.229  1.00  0.00     0.031 A 
ATOM     86  C   UNL A   1      45.671  28.743  34.322  1.00  0.00     0.131 A 
ATOM     87  C   UNL A   1      45.705  26.519  35.974  1.00  0.00     0.055 A 
ATOM     88  C   UNL A   1      46.826  28.436  35.039  1.00  0.00     0.041 A 
ATOM     89  F   UNL A   1      45.689  29.829  33.533  1.00  0.00    -0.206 F 
ATOM     90  C   UNL A   1      46.848  27.319  35.871  1.00  0.00     0.022 A 
BRANCH  87  91
ATOM     91  S   UNL A   1      45.703  25.080  37.077  1.00  0.00     0.124 S 
ATOM     92  O   UNL A   1      44.521  24.355  36.622  1.00  0.00    -0.237 OA
ATOM     93  O   UNL A   1      46.987  24.451  36.785  1.00  0.00    -0.237 OA
ATOM     94  O   UNL A   1      45.596  25.672  38.409  1.00  0.00    -0.744 OA
ENDBRANCH  87  91
ENDBRANCH  61  84
ENDBRANCH  35  36
ENDBRANCH  27  30
ENDBRANCH  25  26
ENDBRANCH   1  25
TORSDOF 15
ENDMDL
MODEL 2
REMARK VINA RESULT:     -12.9      5.266     10.182
REMARK SMILES Cc1cc(Cl)c(C)c2c1O[C@H](C(F)(F)F)C(C(=O)NCCCCNC(=O)c1ccc(-c3c4nc(c(-c5cc(S(=O)(=O)[O-])ccc5F)c5ccc([nH]5)c(-c5cc(S(=O)(=O)[O-])ccc5F)c5nc(c(-c6cc(S(=O)(=O)[O-])ccc6F)c6ccc3[nH]6)C=C5)C=C4)cc1)=C2
REMARK SMILES IDX 22 1 21 2 20 3 19 4 17 5 18 6 16 8 1 9 2 10 3 11 9 12 4 13
REMARK SMILES IDX 8 14 10 15 5 16 6 17 90 18 11 19 7 20 12 21 13 22 14 23
REMARK SMILES IDX 15 24 23 25 24 26 25 27 26 29 27 30 28 31 89 32 29 33 88 34
REMARK SMILES IDX 30 35 31 36 32 37 82 38 33 39 87 40 81 41 83 42 34 43 86 44
REMARK SMILES IDX 80 45 79 46 35 48 67 49 47 50 66 51 48 52 51 53 65 54 84 55
REMARK SMILES IDX 49 56 50 57 64 59 85 60 52 61 36 62 37 63 45 64 38 65 44 66
REMARK SMILES IDX 46 67 43 68 39 69 40 70 41 71 42 72 68 73 69 74 77 75 70 76
REMARK SMILES IDX 76 77 78 78 75 79 71 80 72 81 73 82 74 83 53 84 54 85 62 86
REMARK SMILES IDX 55 87 61 88 63 89 60 90 56 91 57 92 58 93 59 94
REMARK H PARENT 19 7 24 28 83 47 51 58
REMARK Flexibility Score: inf
ROOT
ATOM      1  C   UNL A   1      35.264  21.494  24.704  1.00  0.00     0.023 C 
ENDROOT
BRANCH   1   2
ATOM      2  C   UNL A   1      34.094  21.106  25.612  1.00  0.00     0.023 C 
BRANCH   2   3
ATOM      3  C   UNL A   1      33.963  21.972  26.861  1.00  0.00     0.116 C 
BRANCH   3   4
ATOM      4  N   UNL A   1      32.579  22.306  27.146  1.00  0.00    -0.352 N 
ATOM      5  C   UNL A   1      31.731  23.319  26.857  1.00  0.00     0.251 C 
ATOM      6  O   UNL A   1      30.596  23.208  27.333  1.00  0.00    -0.270 OA
ATOM      7  H   UNL A   1      32.145  21.614  27.694  1.00  0.00     0.163 HD
BRANCH   5   8
ATOM      8  C   UNL A   1      32.063  24.515  26.026  1.00  0.00     0.067 C 
ATOM      9  C   UNL A   1      33.773  27.858  22.517  1.00  0.00     0.048 C 
ATOM     10  C   UNL A   1      33.136  27.961  23.874  1.00  0.00    -0.007 A 
ATOM     11  C   UNL A   1      32.877  29.221  24.417  1.00  0.00     0.028 A 
ATOM     12  C   UNL A   1      32.833  26.829  24.641  1.00  0.00     0.131 A 
ATOM     13  C   UNL A   1      32.310  29.352  25.690  1.00  0.00     0.045 A 
ATOM     14  C   UNL A   1      32.268  26.942  25.923  1.00  0.00     0.022 A 
ATOM     15  O   UNL A   1      33.162  25.614  24.101  1.00  0.00    -0.475 OA
ATOM     16  Cl  UNL A   1      32.046  30.969  26.251  1.00  0.00    -0.084 Cl
ATOM     17  C   UNL A   1      31.988  28.220  26.463  1.00  0.00    -0.021 A 
ATOM     18  C   UNL A   1      32.020  25.700  26.665  1.00  0.00     0.026 C 
ATOM     19  C   UNL A   1      32.388  24.476  24.564  1.00  0.00     0.314 C 
ATOM     20  C   UNL A   1      31.374  28.345  27.835  1.00  0.00     0.047 C 
BRANCH  19  21
ATOM     21  C   UNL A   1      31.143  24.296  23.676  1.00  0.00     0.429 C 
ATOM     22  F   UNL A   1      31.390  24.742  22.419  1.00  0.00    -0.167 F 
ATOM     23  F   UNL A   1      30.771  23.000  23.558  1.00  0.00    -0.167 F 
ATOM     24  F   UNL A   1      30.067  24.973  24.140  1.00  0.00    -0.167 F 
ENDBRANCH  19  21
ENDBRANCH   5   8
ENDBRANCH   3   4
ENDBRANCH   2   3
ENDBRANCH   1   2
BRANCH   1  25
ATOM     25  C   UNL A   1      36.559  21.864  25.424  1.00  0.00     0.116 C 
BRANCH  25  26
ATOM     26  N   UNL A   1      37.534  20.783  25.471  1.00  0.00    -0.352 N 
ATOM     27  C   UNL A   1      38.843  20.844  25.887  1.00  0.00     0.251 C 
ATOM     28  H   UNL A   1      37.217  19.901  25.169  1.00  0.00     0.163 HD
ATOM     29  O   UNL A   1      39.570  19.861  25.803  1.00  0.00    -0.269 OA
BRANCH  27  30
ATOM     30  C   UNL A   1      39.359  22.131  26.387  1.00  0.00     0.039 A 
ATOM     31  C   UNL A   1      40.412  22.122  27.301  1.00  0.00     0.014 A 
ATOM     32  C   UNL A   1      38.864  23.333  25.871  1.00  0.00     0.014 A 
ATOM     33  C   UNL A   1      41.025  23.327  27.646  1.00  0.00     0.010 A 
ATOM     34  C   UNL A   1      39.516  24.525  26.170  1.00  0.00     0.010 A 
ATOM     35  C   UNL A   1      40.607  24.529  27.052  1.00  0.00    -0.014 A 
BRANCH  35  36
ATOM     36  C   UNL A   1      41.305  25.801  27.352  1.00  0.00     0.031 A 
ATOM     37  C   UNL A   1      40.633  26.839  28.205  1.00  0.00     0.074 A 
ATOM     38  C   UNL A   1      42.525  26.030  26.830  1.00  0.00     0.049 A 
ATOM     39  N   UNL A   1      41.068  28.017  28.564  1.00  0.00    -0.248 NA
ATOM     40  C   UNL A   1      39.285  26.517  28.697  1.00  0.00     0.031 C 
ATOM     41  C   UNL A   1      43.257  25.111  25.954  1.00  0.00     0.029 A 
ATOM     42  N   UNL A   1      43.372  27.101  26.966  1.00  0.00    -0.354 N 
ATOM     43  C   UNL A   1      40.049  28.579  29.323  1.00  0.00     0.074 A 
ATOM     44  C   UNL A   1      38.950  27.639  29.317  1.00  0.00     0.031 C 
ATOM     45  C   UNL A   1      44.458  25.640  25.667  1.00  0.00     0.029 A 
ATOM     46  C   UNL A   1      44.571  26.945  26.311  1.00  0.00     0.049 A 
ATOM     47  H   UNL A   1      43.143  27.906  27.484  1.00  0.00     0.167 HD
ATOM     48  C   UNL A   1      40.043  29.758  29.989  1.00  0.00     0.034 A 
ATOM     49  C   UNL A   1      45.642  27.759  26.246  1.00  0.00     0.034 A 
ATOM     50  C   UNL A   1      41.153  30.672  30.013  1.00  0.00     0.049 A 
ATOM     51  C   UNL A   1      45.602  29.076  26.972  1.00  0.00     0.074 A 
ATOM     52  C   UNL A   1      41.278  31.860  30.709  1.00  0.00     0.029 A 
ATOM     53  N   UNL A   1      42.333  30.497  29.304  1.00  0.00    -0.354 N 
ATOM     54  N   UNL A   1      44.640  29.578  27.709  1.00  0.00    -0.248 NA
ATOM     55  C   UNL A   1      46.786  29.938  26.853  1.00  0.00     0.031 C 
ATOM     56  C   UNL A   1      42.516  32.426  30.387  1.00  0.00     0.029 A 
ATOM     57  C   UNL A   1      43.181  31.569  29.525  1.00  0.00     0.049 A 
ATOM     58  H   UNL A   1      42.538  29.724  28.728  1.00  0.00     0.167 HD
ATOM     59  C   UNL A   1      45.107  30.811  28.152  1.00  0.00     0.074 A 
ATOM     60  C   UNL A   1      46.438  30.975  27.603  1.00  0.00     0.031 C 
ATOM     61  C   UNL A   1      44.493  31.720  28.947  1.00  0.00     0.034 A 
BRANCH  48  62
ATOM     62  C   UNL A   1      38.792  30.113  30.745  1.00  0.00     0.023 A 
ATOM     63  C   UNL A   1      37.783  30.895  30.157  1.00  0.00     0.031 A 
ATOM     64  C   UNL A   1      38.614  29.688  32.072  1.00  0.00     0.131 A 
ATOM     65  C   UNL A   1      36.670  31.283  30.915  1.00  0.00     0.055 A 
ATOM     66  C   UNL A   1      37.471  30.021  32.801  1.00  0.00     0.041 A 
ATOM     67  F   UNL A   1      39.556  28.955  32.687  1.00  0.00    -0.206 F 
ATOM     68  C   UNL A   1      36.496  30.833  32.226  1.00  0.00     0.022 A 
BRANCH  65  69
ATOM     69  S   UNL A   1      35.501  32.467  30.196  1.00  0.00     0.124 S 
ATOM     70  O   UNL A   1      35.188  31.828  28.919  1.00  0.00    -0.237 OA
ATOM     71  O   UNL A   1      34.424  32.489  31.178  1.00  0.00    -0.237 OA
ATOM     72  O   UNL A   1      36.280  33.699  30.096  1.00  0.00    -0.744 OA
ENDBRANCH  65  69
ENDBRANCH  48  62
BRANCH  49  73
ATOM     73  C   UNL A   1      46.842  27.353  25.468  1.00  0.00     0.023 A 
ATOM     74  C   UNL A   1      47.003  27.757  24.133  1.00  0.00     0.031 A 
ATOM     75  C   UNL A   1      47.845  26.557  26.048  1.00  0.00     0.131 A 
ATOM     76  C   UNL A   1      48.133  27.344  23.412  1.00  0.00     0.055 A 
ATOM     77  C   UNL A   1      48.982  26.173  25.335  1.00  0.00     0.041 A 
ATOM     78  F   UNL A   1      47.739  26.159  27.326  1.00  0.00    -0.206 F 
ATOM     79  C   UNL A   1      49.129  26.564  24.007  1.00  0.00     0.022 A 
BRANCH  76  80
ATOM     80  S   UNL A   1      48.284  27.834  21.672  1.00  0.00     0.124 S 
ATOM     81  O   UNL A   1      49.377  28.797  21.728  1.00  0.00    -0.237 OA
ATOM     82  O   UNL A   1      48.581  26.562  21.022  1.00  0.00    -0.237 OA
ATOM     83  O   UNL A   1      46.971  28.395  21.363  1.00  0.00    -0.744 OA
ENDBRANCH  76  80
ENDBRANCH  49  73
BRANCH  61  84
ATOM     84  C   UNL A   1      45.254  32.972  29.277  1.00  0.00     0.023 A 
ATOM     85  C   UNL A   1      45.072  34.147  28.532  1.00  0.00     0.031 A 
ATOM     86  C   UNL A   1      46.119  33.003  30.384  1.00  0.00     0.131 A 
ATOM     87  C   UNL A   1      45.762  35.312  28.897  1.00  0.00     0.055 A 
ATOM     88  C   UNL A   1      46.776  34.173  30.762  1.00  0.00     0.041 A 
ATOM     89  F   UNL A   1      46.316  31.902  31.127  1.00  0.00    -0.206 F 
ATOM     90  C   UNL A   1      46.600  35.336  30.017  1.00  0.00     0.022 A 
BRANCH  87  91
ATOM     91  S   UNL A   1      45.547  36.808  27.895  1.00  0.00     0.124 S 
ATOM     92  O   UNL A   1      46.831  37.478  28.076  1.00  0.00    -0.237 OA
ATOM     93  O   UNL A   1      45.293  36.268  26.563  1.00  0.00    -0.237 OA
ATOM     94  O   UNL A   1      44.405  37.474  28.517  1.00  0.00    -0.744 OA
ENDBRANCH  87  91
ENDBRANCH  61  84
ENDBRANCH  35  36
ENDBRANCH  27  30
ENDBRANCH  25  26
ENDBRANCH   1  25
TORSDOF 15
ENDMDL
MODEL 3
REMARK VINA RESULT:     -12.9      1.465      7.589
REMARK SMILES Cc1cc(Cl)c(C)c2c1O[C@H](C(F)(F)F)C(C(=O)NCCCCNC(=O)c1ccc(-c3c4nc(c(-c5cc(S(=O)(=O)[O-])ccc5F)c5ccc([nH]5)c(-c5cc(S(=O)(=O)[O-])ccc5F)c5nc(c(-c6cc(S(=O)(=O)[O-])ccc6F)c6ccc3[nH]6)C=C5)C=C4)cc1)=C2
REMARK SMILES IDX 22 1 21 2 20 3 19 4 17 5 18 6 16 8 1 9 2 10 3 11 9 12 4 13
REMARK SMILES IDX 8 14 10 15 5 16 6 17 90 18 11 19 7 20 12 21 13 22 14 23
REMARK SMILES IDX 15 24 23 25 24 26 25 27 26 29 27 30 28 31 89 32 29 33 88 34
REMARK SMILES IDX 30 35 31 36 32 37 82 38 33 39 87 40 81 41 83 42 34 43 86 44
REMARK SMILES IDX 80 45 79 46 35 48 67 49 47 50 66 51 48 52 51 53 65 54 84 55
REMARK SMILES IDX 49 56 50 57 64 59 85 60 52 61 36 62 37 63 45 64 38 65 44 66
REMARK SMILES IDX 46 67 43 68 39 69 40 70 41 71 42 72 68 73 69 74 77 75 70 76
REMARK SMILES IDX 76 77 78 78 75 79 71 80 72 81 73 82 74 83 53 84 54 85 62 86
REMARK SMILES IDX 55 87 61 88 63 89 60 90 56 91 57 92 58 93 59 94
REMARK H PARENT 19 7 24 28 83 47 51 58
REMARK Flexibility Score: inf
ROOT
ATOM      1  C   UNL A   1      32.696  29.428  24.835  1.00  0.00     0.023 C 
ENDROOT
BRANCH   1   2
ATOM      2  C   UNL A   1      31.331  29.285  24.157  1.00  0.00     0.023 C 
BRANCH   2   3
ATOM      3  C   UNL A   1      31.039  27.881  23.637  1.00  0.00     0.116 C 
BRANCH   3   4
ATOM      4  N   UNL A   1      32.022  27.451  22.658  1.00  0.00    -0.352 N 
ATOM      5  C   UNL A   1      32.931  26.455  22.547  1.00  0.00     0.251 C 
ATOM      6  O   UNL A   1      33.604  26.469  21.510  1.00  0.00    -0.270 OA
ATOM      7  H   UNL A   1      32.029  28.039  21.869  1.00  0.00     0.163 HD
BRANCH   5   8
ATOM      8  C   UNL A   1      33.161  25.378  23.555  1.00  0.00     0.067 C 
ATOM      9  C   UNL A   1      33.162  22.253  27.635  1.00  0.00     0.048 C 
ATOM     10  C   UNL A   1      34.034  22.435  26.425  1.00  0.00    -0.007 A 
ATOM     11  C   UNL A   1      35.138  21.599  26.241  1.00  0.00     0.028 A 
ATOM     12  C   UNL A   1      33.806  23.452  25.491  1.00  0.00     0.131 A 
ATOM     13  C   UNL A   1      35.985  21.760  25.139  1.00  0.00     0.045 A 
ATOM     14  C   UNL A   1      34.649  23.632  24.381  1.00  0.00     0.022 A 
ATOM     15  O   UNL A   1      32.752  24.292  25.740  1.00  0.00    -0.475 OA
ATOM     16  Cl  UNL A   1      37.320  20.663  25.031  1.00  0.00    -0.084 Cl
ATOM     17  C   UNL A   1      35.756  22.771  24.186  1.00  0.00    -0.021 A 
ATOM     18  C   UNL A   1      34.349  24.749  23.476  1.00  0.00     0.026 C 
ATOM     19  C   UNL A   1      32.163  24.943  24.584  1.00  0.00     0.314 C 
ATOM     20  C   UNL A   1      36.658  22.955  22.992  1.00  0.00     0.047 C 
BRANCH  19  21
ATOM     21  C   UNL A   1      31.045  24.058  24.002  1.00  0.00     0.429 C 
ATOM     22  F   UNL A   1      29.953  24.807  23.708  1.00  0.00    -0.167 F 
ATOM     23  F   UNL A   1      31.413  23.447  22.851  1.00  0.00    -0.167 F 
ATOM     24  F   UNL A   1      30.649  23.086  24.855  1.00  0.00    -0.167 F 
ENDBRANCH  19  21
ENDBRANCH   5   8
ENDBRANCH   3   4
ENDBRANCH   2   3
ENDBRANCH   1   2
BRANCH   1  25
ATOM     25  C   UNL A   1      32.656  29.728  26.333  1.00  0.00     0.116 C 
BRANCH  25  26
ATOM     26  N   UNL A   1      32.438  31.133  26.645  1.00  0.00    -0.352 N 
ATOM     27  C   UNL A   1      33.258  31.978  27.355  1.00  0.00     0.251 C 
ATOM     28  H   UNL A   1      31.601  31.526  26.305  1.00  0.00     0.163 HD
ATOM     29  O   UNL A   1      32.907  33.126  27.600  1.00  0.00    -0.269 OA
BRANCH  27  30
ATOM     30  C   UNL A   1      34.541  31.451  27.854  1.00  0.00     0.039 A 
ATOM     31  C   UNL A   1      35.612  32.331  28.010  1.00  0.00     0.014 A 
ATOM     32  C   UNL A   1      34.642  30.115  28.256  1.00  0.00     0.014 A 
ATOM     33  C   UNL A   1      36.771  31.887  28.645  1.00  0.00     0.010 A 
ATOM     34  C   UNL A   1      35.777  29.693  28.941  1.00  0.00     0.010 A 
ATOM     35  C   UNL A   1      36.845  30.578  29.149  1.00  0.00    -0.014 A 
BRANCH  35  36
ATOM     36  C   UNL A   1      38.043  30.123  29.894  1.00  0.00     0.031 A 
ATOM     37  C   UNL A   1      38.291  30.627  31.286  1.00  0.00     0.074 A 
ATOM     38  C   UNL A   1      38.916  29.286  29.303  1.00  0.00     0.049 A 
ATOM     39  N   UNL A   1      39.286  30.365  32.092  1.00  0.00    -0.248 NA
ATOM     40  C   UNL A   1      37.304  31.571  31.833  1.00  0.00     0.031 C 
ATOM     41  C   UNL A   1      38.798  28.764  27.939  1.00  0.00     0.029 A 
ATOM     42  N   UNL A   1      40.072  28.716  29.775  1.00  0.00    -0.354 N 
ATOM     43  C   UNL A   1      39.046  31.110  33.240  1.00  0.00     0.074 A 
ATOM     44  C   UNL A   1      37.847  31.883  33.000  1.00  0.00     0.031 C 
ATOM     45  C   UNL A   1      39.815  27.919  27.702  1.00  0.00     0.029 A 
ATOM     46  C   UNL A   1      40.673  27.863  28.882  1.00  0.00     0.049 A 
ATOM     47  H   UNL A   1      40.436  28.902  30.671  1.00  0.00     0.167 HD
ATOM     48  C   UNL A   1      39.745  31.122  34.400  1.00  0.00     0.034 A 
ATOM     49  C   UNL A   1      41.786  27.113  29.004  1.00  0.00     0.034 A 
ATOM     50  C   UNL A   1      40.918  30.326  34.639  1.00  0.00     0.049 A 
ATOM     51  C   UNL A   1      42.561  27.164  30.292  1.00  0.00     0.074 A 
ATOM     52  C   UNL A   1      41.663  30.212  35.799  1.00  0.00     0.029 A 
ATOM     53  N   UNL A   1      41.519  29.505  33.694  1.00  0.00    -0.354 N 
ATOM     54  N   UNL A   1      42.303  27.853  31.379  1.00  0.00    -0.248 NA
ATOM     55  C   UNL A   1      43.778  26.345  30.370  1.00  0.00     0.031 C 
ATOM     56  C   UNL A   1      42.740  29.357  35.543  1.00  0.00     0.029 A 
ATOM     57  C   UNL A   1      42.641  28.902  34.237  1.00  0.00     0.049 A 
ATOM     58  H   UNL A   1      41.196  29.371  32.774  1.00  0.00     0.167 HD
ATOM     59  C   UNL A   1      43.320  27.540  32.275  1.00  0.00     0.074 A 
ATOM     60  C   UNL A   1      44.194  26.600  31.603  1.00  0.00     0.031 C 
ATOM     61  C   UNL A   1      43.509  27.987  33.540  1.00  0.00     0.034 A 
BRANCH  48  62
ATOM     62  C   UNL A   1      39.246  32.029  35.492  1.00  0.00     0.023 A 
ATOM     63  C   UNL A   1      39.690  33.358  35.595  1.00  0.00     0.031 A 
ATOM     64  C   UNL A   1      38.337  31.556  36.454  1.00  0.00     0.131 A 
ATOM     65  C   UNL A   1      39.276  34.150  36.673  1.00  0.00     0.055 A 
ATOM     66  C   UNL A   1      37.876  32.371  37.488  1.00  0.00     0.041 A 
ATOM     67  F   UNL A   1      37.896  30.289  36.412  1.00  0.00    -0.206 F 
ATOM     68  C   UNL A   1      38.354  33.674  37.609  1.00  0.00     0.022 A 
BRANCH  65  69
ATOM     69  S   UNL A   1      40.036  35.781  36.893  1.00  0.00     0.124 S 
ATOM     70  O   UNL A   1      39.652  36.452  35.653  1.00  0.00    -0.237 OA
ATOM     71  O   UNL A   1      39.394  36.271  38.108  1.00  0.00    -0.237 OA
ATOM     72  O   UNL A   1      41.460  35.480  37.018  1.00  0.00    -0.744 OA
ENDBRANCH  65  69
ENDBRANCH  48  62
BRANCH  49  73
ATOM     73  C   UNL A   1      42.231  26.249  27.879  1.00  0.00     0.023 A 
ATOM     74  C   UNL A   1      41.762  24.932  27.756  1.00  0.00     0.031 A 
ATOM     75  C   UNL A   1      43.129  26.729  26.910  1.00  0.00     0.131 A 
ATOM     76  C   UNL A   1      42.211  24.129  26.697  1.00  0.00     0.055 A 
ATOM     77  C   UNL A   1      43.551  25.935  25.842  1.00  0.00     0.041 A 
ATOM     78  F   UNL A   1      43.594  27.987  26.981  1.00  0.00    -0.206 F 
ATOM     79  C   UNL A   1      43.095  24.624  25.734  1.00  0.00     0.022 A 
BRANCH  76  80
ATOM     80  S   UNL A   1      41.632  22.413  26.599  1.00  0.00     0.124 S 
ATOM     81  O   UNL A   1      42.291  21.946  25.385  1.00  0.00    -0.237 OA
ATOM     82  O   UNL A   1      42.124  21.852  27.854  1.00  0.00    -0.237 OA
ATOM     83  O   UNL A   1      40.180  22.549  26.510  1.00  0.00    -0.744 OA
ENDBRANCH  76  80
ENDBRANCH  49  73
BRANCH  61  84
ATOM     84  C   UNL A   1      44.701  27.460  34.285  1.00  0.00     0.023 A 
ATOM     85  C   UNL A   1      44.611  26.293  35.061  1.00  0.00     0.031 A 
ATOM     86  C   UNL A   1      45.949  28.094  34.166  1.00  0.00     0.131 A 
ATOM     87  C   UNL A   1      45.755  25.800  35.706  1.00  0.00     0.055 A 
ATOM     88  C   UNL A   1      47.089  27.580  34.781  1.00  0.00     0.041 A 
ATOM     89  F   UNL A   1      46.079  29.208  33.428  1.00  0.00    -0.206 F 
ATOM     90  C   UNL A   1      46.996  26.427  35.556  1.00  0.00     0.022 A 
BRANCH  87  91
ATOM     91  S   UNL A   1      45.608  24.317  36.739  1.00  0.00     0.124 S 
ATOM     92  O   UNL A   1      45.253  23.299  35.755  1.00  0.00    -0.237 OA
ATOM     93  O   UNL A   1      46.940  24.201  37.324  1.00  0.00    -0.237 OA
ATOM     94  O   UNL A   1      44.549  24.664  37.684  1.00  0.00    -0.744 OA
ENDBRANCH  87  91
ENDBRANCH  61  84
ENDBRANCH  35  36
ENDBRANCH  27  30
ENDBRANCH  25  26
ENDBRANCH   1  25
TORSDOF 15
ENDMDL
