MODEL 1
REMARK VINA RESULT:     -11.2      0.000      0.000
REMARK SMILES CO[C@H]1C[C@@H](C(=O)NCCCCNC(=O)c2ccc(-c3c4nc(c(-c5cc(S(=O)(=O)[O-])ccc5F)c5ccc([nH]5)c(-c5cc(S(=O)(=O)[O-])ccc5F)c5nc(c(-c6cc(S(=O)(=O)[O-])ccc6F)c6ccc3[nH]6)C=C5)C=C4)cc2)N(C(=O)CSc2cccs2)C1
REMARK SMILES IDX 10 1 9 2 8 3 6 4 7 5 5 7 3 8 4 9 89 10 79 11 2 12 1 13 80 14
REMARK SMILES IDX 81 15 82 16 83 17 84 18 85 19 88 20 86 21 87 22 11 23 12 24
REMARK SMILES IDX 13 25 14 26 15 28 16 29 17 30 78 31 18 32 77 33 19 34 20 35
REMARK SMILES IDX 21 36 71 37 22 38 76 39 70 40 72 41 23 42 75 43 69 44 68 45
REMARK SMILES IDX 24 47 56 48 36 49 55 50 37 51 40 52 54 53 73 54 38 55 39 56
REMARK SMILES IDX 53 58 74 59 41 60 25 61 26 62 34 63 27 64 33 65 35 66 32 67
REMARK SMILES IDX 28 68 29 69 30 70 31 71 57 72 58 73 66 74 59 75 65 76 67 77
REMARK SMILES IDX 64 78 60 79 61 80 62 81 63 82 42 83 43 84 51 85 44 86 50 87
REMARK SMILES IDX 52 88 49 89 45 90 46 91 47 92 48 93
REMARK H PARENT 8 6 13 27 72 46 40 57
REMARK Flexibility Score: inf
ROOT
ATOM      1  C   UNL A   1      31.654  30.511  26.081  1.00  0.00     0.023 C 
ENDROOT
BRANCH   1   2
ATOM      2  C   UNL A   1      33.055  29.910  26.194  1.00  0.00     0.116 C 
BRANCH   2   3
ATOM      3  N   UNL A   1      33.555  29.421  24.921  1.00  0.00    -0.354 N 
ATOM      4  C   UNL A   1      33.628  28.168  24.395  1.00  0.00     0.242 C 
ATOM      5  O   UNL A   1      34.017  28.074  23.226  1.00  0.00    -0.273 OA
ATOM      6  H   UNL A   1      33.908  30.125  24.331  1.00  0.00     0.163 HD
BRANCH   4   7
ATOM      7  C   UNL A   1      33.090  26.917  25.116  1.00  0.00     0.177 C 
ATOM      8  C   UNL A   1      33.426  24.521  25.152  1.00  0.00     0.139 C 
ATOM      9  C   UNL A   1      34.183  25.843  25.036  1.00  0.00     0.069 C 
ATOM     10  C   UNL A   1      32.114  24.821  24.425  1.00  0.00     0.152 C 
ATOM     11  N   UNL A   1      31.888  26.250  24.613  1.00  0.00    -0.327 N 
BRANCH   8  12
ATOM     12  O   UNL A   1      34.030  23.334  24.650  1.00  0.00    -0.380 OA
ATOM     13  C   UNL A   1      34.116  23.190  23.243  1.00  0.00     0.195 C 
ENDBRANCH   8  12
BRANCH  11  14
ATOM     14  C   UNL A   1      30.608  26.765  24.565  1.00  0.00     0.233 C 
ATOM     15  O   UNL A   1      29.695  26.245  25.213  1.00  0.00    -0.274 OA
BRANCH  14  16
ATOM     16  C   UNL A   1      30.327  27.947  23.645  1.00  0.00     0.175 C 
BRANCH  16  17
ATOM     17  S   UNL A   1      28.577  28.007  23.178  1.00  0.00    -0.105 SA
BRANCH  17  18
ATOM     18  C   UNL A   1      28.457  29.722  22.851  1.00  0.00     0.060 A 
ATOM     19  C   UNL A   1      27.697  30.626  23.560  1.00  0.00     0.027 A 
ATOM     20  S   UNL A   1      29.342  30.467  21.598  1.00  0.00    -0.137 S 
ATOM     21  C   UNL A   1      27.895  31.961  23.103  1.00  0.00     0.013 A 
ATOM     22  C   UNL A   1      28.782  32.017  22.050  1.00  0.00     0.066 A 
ENDBRANCH  17  18
ENDBRANCH  16  17
ENDBRANCH  14  16
ENDBRANCH  11  14
ENDBRANCH   4   7
ENDBRANCH   2   3
ENDBRANCH   1   2
BRANCH   1  23
ATOM     23  C   UNL A   1      31.487  31.862  26.771  1.00  0.00     0.023 C 
BRANCH  23  24
ATOM     24  C   UNL A   1      32.800  32.565  27.072  1.00  0.00     0.116 C 
BRANCH  24  25
ATOM     25  N   UNL A   1      32.598  33.895  27.631  1.00  0.00    -0.352 N 
ATOM     26  C   UNL A   1      33.254  34.495  28.678  1.00  0.00     0.251 C 
ATOM     27  H   UNL A   1      31.897  34.436  27.200  1.00  0.00     0.163 HD
ATOM     28  O   UNL A   1      32.833  35.546  29.151  1.00  0.00    -0.269 OA
BRANCH  26  29
ATOM     29  C   UNL A   1      34.452  33.838  29.236  1.00  0.00     0.039 A 
ATOM     30  C   UNL A   1      35.716  34.346  28.940  1.00  0.00     0.014 A 
ATOM     31  C   UNL A   1      34.305  32.753  30.105  1.00  0.00     0.014 A 
ATOM     32  C   UNL A   1      36.836  33.807  29.576  1.00  0.00     0.010 A 
ATOM     33  C   UNL A   1      35.404  32.293  30.814  1.00  0.00     0.010 A 
ATOM     34  C   UNL A   1      36.683  32.804  30.548  1.00  0.00    -0.014 A 
BRANCH  34  35
ATOM     35  C   UNL A   1      37.845  32.243  31.283  1.00  0.00     0.031 A 
ATOM     36  C   UNL A   1      38.641  31.129  30.657  1.00  0.00     0.074 A 
ATOM     37  C   UNL A   1      38.123  32.669  32.531  1.00  0.00     0.049 A 
ATOM     38  N   UNL A   1      39.599  30.404  31.172  1.00  0.00    -0.248 NA
ATOM     39  C   UNL A   1      38.273  30.749  29.284  1.00  0.00     0.031 C 
ATOM     40  C   UNL A   1      37.385  33.705  33.257  1.00  0.00     0.029 A 
ATOM     41  N   UNL A   1      39.092  32.274  33.417  1.00  0.00    -0.354 N 
ATOM     42  C   UNL A   1      39.926  29.465  30.198  1.00  0.00     0.074 A 
ATOM     43  C   UNL A   1      39.010  29.667  29.097  1.00  0.00     0.031 C 
ATOM     44  C   UNL A   1      37.950  33.886  34.462  1.00  0.00     0.029 A 
ATOM     45  C   UNL A   1      39.053  32.945  34.617  1.00  0.00     0.049 A 
ATOM     46  H   UNL A   1      39.755  31.574  33.213  1.00  0.00     0.167 HD
ATOM     47  C   UNL A   1      40.919  28.543  30.208  1.00  0.00     0.034 A 
ATOM     48  C   UNL A   1      39.816  32.807  35.720  1.00  0.00     0.034 A 
ATOM     49  C   UNL A   1      41.842  28.387  31.304  1.00  0.00     0.049 A 
ATOM     50  C   UNL A   1      40.917  31.776  35.710  1.00  0.00     0.074 A 
ATOM     51  C   UNL A   1      42.929  27.536  31.403  1.00  0.00     0.029 A 
ATOM     52  N   UNL A   1      41.787  29.102  32.495  1.00  0.00    -0.354 N 
ATOM     53  N   UNL A   1      41.246  30.929  34.761  1.00  0.00    -0.248 NA
ATOM     54  C   UNL A   1      41.752  31.687  36.914  1.00  0.00     0.031 C 
ATOM     55  C   UNL A   1      43.491  27.692  32.674  1.00  0.00     0.029 A 
ATOM     56  C   UNL A   1      42.804  28.693  33.343  1.00  0.00     0.049 A 
ATOM     57  H   UNL A   1      41.123  29.797  32.705  1.00  0.00     0.167 HD
ATOM     58  C   UNL A   1      42.349  30.230  35.244  1.00  0.00     0.074 A 
ATOM     59  C   UNL A   1      42.635  30.765  36.560  1.00  0.00     0.031 C 
ATOM     60  C   UNL A   1      43.064  29.238  34.655  1.00  0.00     0.034 A 
BRANCH  47  61
ATOM     61  C   UNL A   1      41.036  27.633  29.009  1.00  0.00     0.023 A 
ATOM     62  C   UNL A   1      42.033  27.819  28.034  1.00  0.00     0.031 A 
ATOM     63  C   UNL A   1      40.113  26.591  28.809  1.00  0.00     0.131 A 
ATOM     64  C   UNL A   1      42.030  27.042  26.868  1.00  0.00     0.055 A 
ATOM     65  C   UNL A   1      40.171  25.759  27.689  1.00  0.00     0.041 A 
ATOM     66  F   UNL A   1      39.125  26.375  29.691  1.00  0.00    -0.206 F 
ATOM     67  C   UNL A   1      41.123  25.994  26.700  1.00  0.00     0.022 A 
BRANCH  64  68
ATOM     68  S   UNL A   1      43.125  27.525  25.505  1.00  0.00     0.124 S 
ATOM     69  O   UNL A   1      42.196  28.216  24.613  1.00  0.00    -0.237 OA
ATOM     70  O   UNL A   1      44.112  28.364  26.174  1.00  0.00    -0.237 OA
ATOM     71  O   UNL A   1      43.628  26.249  25.000  1.00  0.00    -0.744 OA
ENDBRANCH  64  68
ENDBRANCH  47  61
BRANCH  48  72
ATOM     72  C   UNL A   1      39.573  33.656  36.923  1.00  0.00     0.023 A 
ATOM     73  C   UNL A   1      38.919  33.137  38.051  1.00  0.00     0.031 A 
ATOM     74  C   UNL A   1      39.958  35.008  36.950  1.00  0.00     0.131 A 
ATOM     75  C   UNL A   1      38.625  33.975  39.139  1.00  0.00     0.055 A 
ATOM     76  C   UNL A   1      39.711  35.825  38.056  1.00  0.00     0.041 A 
ATOM     77  F   UNL A   1      40.594  35.555  35.901  1.00  0.00    -0.206 F 
ATOM     78  C   UNL A   1      39.028  35.311  39.154  1.00  0.00     0.022 A 
BRANCH  75  79
ATOM     79  S   UNL A   1      37.629  33.310  40.502  1.00  0.00     0.124 S 
ATOM     80  O   UNL A   1      36.437  32.849  39.800  1.00  0.00    -0.237 OA
ATOM     81  O   UNL A   1      38.503  32.271  41.036  1.00  0.00    -0.237 OA
ATOM     82  O   UNL A   1      37.433  34.466  41.374  1.00  0.00    -0.744 OA
ENDBRANCH  75  79
ENDBRANCH  48  72
BRANCH  60  83
ATOM     83  C   UNL A   1      44.252  28.705  35.416  1.00  0.00     0.023 A 
ATOM     84  C   UNL A   1      44.125  27.655  36.341  1.00  0.00     0.031 A 
ATOM     85  C   UNL A   1      45.528  29.256  35.207  1.00  0.00     0.131 A 
ATOM     86  C   UNL A   1      45.248  27.223  37.062  1.00  0.00     0.055 A 
ATOM     87  C   UNL A   1      46.652  28.781  35.883  1.00  0.00     0.041 A 
ATOM     88  F   UNL A   1      45.703  30.263  34.335  1.00  0.00    -0.206 F 
ATOM     89  C   UNL A   1      46.514  27.767  36.825  1.00  0.00     0.022 A 
BRANCH  86  90
ATOM     90  S   UNL A   1      45.018  25.994  38.376  1.00  0.00     0.124 S 
ATOM     91  O   UNL A   1      46.318  26.013  39.038  1.00  0.00    -0.237 OA
ATOM     92  O   UNL A   1      43.906  26.555  39.137  1.00  0.00    -0.237 OA
ATOM     93  O   UNL A   1      44.711  24.765  37.646  1.00  0.00    -0.744 OA
ENDBRANCH  86  90
ENDBRANCH  60  83
ENDBRANCH  34  35
ENDBRANCH  26  29
ENDBRANCH  24  25
ENDBRANCH  23  24
ENDBRANCH   1  23
TORSDOF 19
ENDMDL
MODEL 2
REMARK VINA RESULT:     -11.1      5.597     10.664
REMARK SMILES CO[C@H]1C[C@@H](C(=O)NCCCCNC(=O)c2ccc(-c3c4nc(c(-c5cc(S(=O)(=O)[O-])ccc5F)c5ccc([nH]5)c(-c5cc(S(=O)(=O)[O-])ccc5F)c5nc(c(-c6cc(S(=O)(=O)[O-])ccc6F)c6ccc3[nH]6)C=C5)C=C4)cc2)N(C(=O)CSc2cccs2)C1
REMARK SMILES IDX 10 1 9 2 8 3 6 4 7 5 5 7 3 8 4 9 89 10 79 11 2 12 1 13 80 14
REMARK SMILES IDX 81 15 82 16 83 17 84 18 85 19 88 20 86 21 87 22 11 23 12 24
REMARK SMILES IDX 13 25 14 26 15 28 16 29 17 30 78 31 18 32 77 33 19 34 20 35
REMARK SMILES IDX 21 36 71 37 22 38 76 39 70 40 72 41 23 42 75 43 69 44 68 45
REMARK SMILES IDX 24 47 56 48 36 49 55 50 37 51 40 52 54 53 73 54 38 55 39 56
REMARK SMILES IDX 53 58 74 59 41 60 25 61 26 62 34 63 27 64 33 65 35 66 32 67
REMARK SMILES IDX 28 68 29 69 30 70 31 71 57 72 58 73 66 74 59 75 65 76 67 77
REMARK SMILES IDX 64 78 60 79 61 80 62 81 63 82 42 83 43 84 51 85 44 86 50 87
REMARK SMILES IDX 52 88 49 89 45 90 46 91 47 92 48 93
REMARK H PARENT 8 6 13 27 72 46 40 57
REMARK Flexibility Score: inf
ROOT
ATOM      1  C   UNL A   1      35.469  22.957  23.505  1.00  0.00     0.023 C 
ENDROOT
BRANCH   1   2
ATOM      2  C   UNL A   1      34.433  24.060  23.291  1.00  0.00     0.116 C 
BRANCH   2   3
ATOM      3  N   UNL A   1      33.572  24.248  24.444  1.00  0.00    -0.354 N 
ATOM      4  C   UNL A   1      33.287  25.345  25.198  1.00  0.00     0.242 C 
ATOM      5  O   UNL A   1      32.421  25.215  26.070  1.00  0.00    -0.273 OA
ATOM      6  H   UNL A   1      33.110  23.429  24.737  1.00  0.00     0.163 HD
BRANCH   4   7
ATOM      7  C   UNL A   1      33.854  26.745  24.896  1.00  0.00     0.177 C 
ATOM      8  C   UNL A   1      33.811  28.988  25.803  1.00  0.00     0.139 C 
ATOM      9  C   UNL A   1      33.877  27.519  26.220  1.00  0.00     0.069 C 
ATOM     10  C   UNL A   1      32.916  28.944  24.564  1.00  0.00     0.152 C 
ATOM     11  N   UNL A   1      33.146  27.631  23.970  1.00  0.00    -0.327 N 
BRANCH   8  12
ATOM     12  O   UNL A   1      33.339  29.950  26.741  1.00  0.00    -0.380 OA
ATOM     13  C   UNL A   1      32.016  29.797  27.224  1.00  0.00     0.195 C 
ENDBRANCH   8  12
BRANCH  11  14
ATOM     14  C   UNL A   1      32.938  27.431  22.620  1.00  0.00     0.233 C 
ATOM     15  O   UNL A   1      33.813  27.720  21.798  1.00  0.00    -0.274 OA
BRANCH  14  16
ATOM     16  C   UNL A   1      31.584  26.909  22.155  1.00  0.00     0.175 C 
BRANCH  16  17
ATOM     17  S   UNL A   1      30.325  27.128  23.440  1.00  0.00    -0.105 SA
BRANCH  17  18
ATOM     18  C   UNL A   1      29.539  28.550  22.790  1.00  0.00     0.060 A 
ATOM     19  C   UNL A   1      30.160  29.569  22.100  1.00  0.00     0.027 A 
ATOM     20  S   UNL A   1      27.856  28.792  22.920  1.00  0.00    -0.137 S 
ATOM     21  C   UNL A   1      29.225  30.531  21.618  1.00  0.00     0.013 A 
ATOM     22  C   UNL A   1      27.933  30.217  21.980  1.00  0.00     0.066 A 
ENDBRANCH  17  18
ENDBRANCH  16  17
ENDBRANCH  14  16
ENDBRANCH  11  14
ENDBRANCH   4   7
ENDBRANCH   2   3
ENDBRANCH   1   2
BRANCH   1  23
ATOM     23  C   UNL A   1      35.152  22.007  24.657  1.00  0.00     0.023 C 
BRANCH  23  24
ATOM     24  C   UNL A   1      36.198  22.006  25.759  1.00  0.00     0.116 C 
BRANCH  24  25
ATOM     25  N   UNL A   1      37.148  20.911  25.617  1.00  0.00    -0.352 N 
ATOM     26  C   UNL A   1      38.515  20.938  25.751  1.00  0.00     0.251 C 
ATOM     27  H   UNL A   1      36.758  20.034  25.396  1.00  0.00     0.163 HD
ATOM     28  O   UNL A   1      39.189  19.971  25.408  1.00  0.00    -0.269 OA
BRANCH  26  29
ATOM     29  C   UNL A   1      39.153  22.157  26.284  1.00  0.00     0.039 A 
ATOM     30  C   UNL A   1      40.230  22.042  27.163  1.00  0.00     0.014 A 
ATOM     31  C   UNL A   1      38.715  23.413  25.856  1.00  0.00     0.014 A 
ATOM     32  C   UNL A   1      40.916  23.191  27.559  1.00  0.00     0.010 A 
ATOM     33  C   UNL A   1      39.463  24.539  26.164  1.00  0.00     0.010 A 
ATOM     34  C   UNL A   1      40.563  24.443  27.029  1.00  0.00    -0.014 A 
BRANCH  34  35
ATOM     35  C   UNL A   1      41.302  25.681  27.386  1.00  0.00     0.031 A 
ATOM     36  C   UNL A   1      40.617  26.731  28.220  1.00  0.00     0.074 A 
ATOM     37  C   UNL A   1      42.537  25.894  26.891  1.00  0.00     0.049 A 
ATOM     38  N   UNL A   1      41.019  27.935  28.531  1.00  0.00    -0.248 NA
ATOM     39  C   UNL A   1      39.278  26.395  28.729  1.00  0.00     0.031 C 
ATOM     40  C   UNL A   1      43.276  24.969  26.029  1.00  0.00     0.029 A 
ATOM     41  N   UNL A   1      43.385  26.963  27.032  1.00  0.00    -0.354 N 
ATOM     42  C   UNL A   1      39.972  28.509  29.245  1.00  0.00     0.074 A 
ATOM     43  C   UNL A   1      38.891  27.548  29.251  1.00  0.00     0.031 C 
ATOM     44  C   UNL A   1      44.478  25.498  25.745  1.00  0.00     0.029 A 
ATOM     45  C   UNL A   1      44.577  26.816  26.359  1.00  0.00     0.049 A 
ATOM     46  H   UNL A   1      43.162  27.761  27.564  1.00  0.00     0.167 HD
ATOM     47  C   UNL A   1      39.928  29.713  29.866  1.00  0.00     0.034 A 
ATOM     48  C   UNL A   1      45.623  27.658  26.244  1.00  0.00     0.034 A 
ATOM     49  C   UNL A   1      41.033  30.638  29.876  1.00  0.00     0.049 A 
ATOM     50  C   UNL A   1      45.555  28.993  26.944  1.00  0.00     0.074 A 
ATOM     51  C   UNL A   1      41.133  31.856  30.526  1.00  0.00     0.029 A 
ATOM     52  N   UNL A   1      42.234  30.446  29.204  1.00  0.00    -0.354 N 
ATOM     53  N   UNL A   1      44.577  29.501  27.659  1.00  0.00    -0.248 NA
ATOM     54  C   UNL A   1      46.733  29.862  26.830  1.00  0.00     0.031 C 
ATOM     55  C   UNL A   1      42.367  32.426  30.196  1.00  0.00     0.029 A 
ATOM     56  C   UNL A   1      43.070  31.533  29.402  1.00  0.00     0.049 A 
ATOM     57  H   UNL A   1      42.458  29.652  28.666  1.00  0.00     0.167 HD
ATOM     58  C   UNL A   1      45.036  30.737  28.105  1.00  0.00     0.074 A 
ATOM     59  C   UNL A   1      46.382  30.888  27.591  1.00  0.00     0.031 C 
ATOM     60  C   UNL A   1      44.407  31.663  28.872  1.00  0.00     0.034 A 
BRANCH  47  61
ATOM     61  C   UNL A   1      38.642  30.090  30.562  1.00  0.00     0.023 A 
ATOM     62  C   UNL A   1      37.683  30.915  29.948  1.00  0.00     0.031 A 
ATOM     63  C   UNL A   1      38.387  29.657  31.876  1.00  0.00     0.131 A 
ATOM     64  C   UNL A   1      36.566  31.354  30.672  1.00  0.00     0.055 A 
ATOM     65  C   UNL A   1      37.225  30.023  32.560  1.00  0.00     0.041 A 
ATOM     66  F   UNL A   1      39.272  28.886  32.525  1.00  0.00    -0.206 F 
ATOM     67  C   UNL A   1      36.315  30.892  31.965  1.00  0.00     0.022 A 
BRANCH  64  68
ATOM     68  S   UNL A   1      35.533  32.663  29.957  1.00  0.00     0.124 S 
ATOM     69  O   UNL A   1      36.402  33.830  30.091  1.00  0.00    -0.237 OA
ATOM     70  O   UNL A   1      35.312  32.184  28.597  1.00  0.00    -0.237 OA
ATOM     71  O   UNL A   1      34.350  32.674  30.815  1.00  0.00    -0.744 OA
ENDBRANCH  64  68
ENDBRANCH  47  61
BRANCH  48  72
ATOM     72  C   UNL A   1      46.821  27.276  25.440  1.00  0.00     0.023 A 
ATOM     73  C   UNL A   1      46.995  27.758  24.132  1.00  0.00     0.031 A 
ATOM     74  C   UNL A   1      47.791  26.396  25.950  1.00  0.00     0.131 A 
ATOM     75  C   UNL A   1      48.083  27.320  23.363  1.00  0.00     0.055 A 
ATOM     76  C   UNL A   1      48.901  26.004  25.199  1.00  0.00     0.041 A 
ATOM     77  F   UNL A   1      47.678  25.910  27.197  1.00  0.00    -0.206 F 
ATOM     78  C   UNL A   1      49.045  26.457  23.892  1.00  0.00     0.022 A 
BRANCH  75  79
ATOM     79  S   UNL A   1      48.179  27.830  21.624  1.00  0.00     0.124 S 
ATOM     80  O   UNL A   1      48.542  26.579  20.968  1.00  0.00    -0.237 OA
ATOM     81  O   UNL A   1      46.825  28.316  21.377  1.00  0.00    -0.237 OA
ATOM     82  O   UNL A   1      49.217  28.858  21.628  1.00  0.00    -0.744 OA
ENDBRANCH  75  79
ENDBRANCH  48  72
BRANCH  60  83
ATOM     83  C   UNL A   1      45.192  32.898  29.237  1.00  0.00     0.023 A 
ATOM     84  C   UNL A   1      45.081  34.087  28.498  1.00  0.00     0.031 A 
ATOM     85  C   UNL A   1      46.060  32.881  30.343  1.00  0.00     0.131 A 
ATOM     86  C   UNL A   1      45.866  35.198  28.844  1.00  0.00     0.055 A 
ATOM     87  C   UNL A   1      46.792  34.007  30.718  1.00  0.00     0.041 A 
ATOM     88  F   UNL A   1      46.203  31.768  31.082  1.00  0.00    -0.206 F 
ATOM     89  C   UNL A   1      46.707  35.170  29.961  1.00  0.00     0.022 A 
BRANCH  86  90
ATOM     90  S   UNL A   1      45.836  36.655  27.764  1.00  0.00     0.124 S 
ATOM     91  O   UNL A   1      45.547  37.727  28.711  1.00  0.00    -0.237 OA
ATOM     92  O   UNL A   1      47.182  36.651  27.198  1.00  0.00    -0.237 OA
ATOM     93  O   UNL A   1      44.764  36.357  26.817  1.00  0.00    -0.744 OA
ENDBRANCH  86  90
ENDBRANCH  60  83
ENDBRANCH  34  35
ENDBRANCH  26  29
ENDBRANCH  24  25
ENDBRANCH  23  24
ENDBRANCH   1  23
TORSDOF 19
ENDMDL
MODEL 3
REMARK VINA RESULT:     -10.9      1.605      3.329
REMARK SMILES CO[C@H]1C[C@@H](C(=O)NCCCCNC(=O)c2ccc(-c3c4nc(c(-c5cc(S(=O)(=O)[O-])ccc5F)c5ccc([nH]5)c(-c5cc(S(=O)(=O)[O-])ccc5F)c5nc(c(-c6cc(S(=O)(=O)[O-])ccc6F)c6ccc3[nH]6)C=C5)C=C4)cc2)N(C(=O)CSc2cccs2)C1
REMARK SMILES IDX 10 1 9 2 8 3 6 4 7 5 5 7 3 8 4 9 89 10 79 11 2 12 1 13 80 14
REMARK SMILES IDX 81 15 82 16 83 17 84 18 85 19 88 20 86 21 87 22 11 23 12 24
REMARK SMILES IDX 13 25 14 26 15 28 16 29 17 30 78 31 18 32 77 33 19 34 20 35
REMARK SMILES IDX 21 36 71 37 22 38 76 39 70 40 72 41 23 42 75 43 69 44 68 45
REMARK SMILES IDX 24 47 56 48 36 49 55 50 37 51 40 52 54 53 73 54 38 55 39 56
REMARK SMILES IDX 53 58 74 59 41 60 25 61 26 62 34 63 27 64 33 65 35 66 32 67
REMARK SMILES IDX 28 68 29 69 30 70 31 71 57 72 58 73 66 74 59 75 65 76 67 77
REMARK SMILES IDX 64 78 60 79 61 80 62 81 63 82 42 83 43 84 51 85 44 86 50 87
REMARK SMILES IDX 52 88 49 89 45 90 46 91 47 92 48 93
REMARK H PARENT 8 6 13 27 72 46 40 57
REMARK Flexibility Score: inf
ROOT
ATOM      1  C   UNL A   1      34.919  30.403  27.912  1.00  0.00     0.023 C 
ENDROOT
BRANCH   1   2
ATOM      2  C   UNL A   1      34.411  29.091  27.316  1.00  0.00     0.116 C 
BRANCH   2   3
ATOM      3  N   UNL A   1      33.122  28.697  27.856  1.00  0.00    -0.354 N 
ATOM      4  C   UNL A   1      31.974  28.279  27.255  1.00  0.00     0.242 C 
ATOM      5  O   UNL A   1      31.058  27.909  27.997  1.00  0.00    -0.273 OA
ATOM      6  H   UNL A   1      33.068  28.741  28.837  1.00  0.00     0.163 HD
BRANCH   4   7
ATOM      7  C   UNL A   1      31.841  28.085  25.732  1.00  0.00     0.177 C 
ATOM      8  C   UNL A   1      30.727  29.092  23.836  1.00  0.00     0.139 C 
ATOM      9  C   UNL A   1      31.448  29.443  25.136  1.00  0.00     0.069 C 
ATOM     10  C   UNL A   1      30.007  27.791  24.192  1.00  0.00     0.152 C 
ATOM     11  N   UNL A   1      30.843  27.154  25.204  1.00  0.00    -0.327 N 
BRANCH   8  12
ATOM     12  O   UNL A   1      29.826  30.038  23.270  1.00  0.00    -0.380 OA
ATOM     13  C   UNL A   1      28.573  29.555  22.815  1.00  0.00     0.195 C 
ENDBRANCH   8  12
BRANCH  11  14
ATOM     14  C   UNL A   1      30.808  25.785  25.375  1.00  0.00     0.233 C 
ATOM     15  O   UNL A   1      30.015  25.269  26.169  1.00  0.00    -0.274 OA
BRANCH  14  16
ATOM     16  C   UNL A   1      31.811  24.924  24.618  1.00  0.00     0.175 C 
BRANCH  16  17
ATOM     17  S   UNL A   1      31.350  23.174  24.684  1.00  0.00    -0.105 SA
BRANCH  17  18
ATOM     18  C   UNL A   1      32.505  22.649  25.890  1.00  0.00     0.060 A 
ATOM     19  C   UNL A   1      32.432  22.907  27.242  1.00  0.00     0.027 A 
ATOM     20  S   UNL A   1      33.860  21.694  25.489  1.00  0.00    -0.137 S 
ATOM     21  C   UNL A   1      33.473  22.256  27.965  1.00  0.00     0.013 A 
ATOM     22  C   UNL A   1      34.310  21.546  27.132  1.00  0.00     0.066 A 
ENDBRANCH  17  18
ENDBRANCH  16  17
ENDBRANCH  14  16
ENDBRANCH  11  14
ENDBRANCH   4   7
ENDBRANCH   2   3
ENDBRANCH   1   2
BRANCH   1  23
ATOM     23  C   UNL A   1      34.333  31.659  27.272  1.00  0.00     0.023 C 
BRANCH  23  24
ATOM     24  C   UNL A   1      33.018  32.107  27.888  1.00  0.00     0.116 C 
BRANCH  24  25
ATOM     25  N   UNL A   1      32.865  33.555  27.870  1.00  0.00    -0.352 N 
ATOM     26  C   UNL A   1      33.500  34.494  28.648  1.00  0.00     0.251 C 
ATOM     27  H   UNL A   1      32.222  33.909  27.214  1.00  0.00     0.163 HD
ATOM     28  O   UNL A   1      33.117  35.660  28.644  1.00  0.00    -0.269 OA
BRANCH  26  29
ATOM     29  C   UNL A   1      34.624  34.067  29.502  1.00  0.00     0.039 A 
ATOM     30  C   UNL A   1      34.371  33.298  30.638  1.00  0.00     0.014 A 
ATOM     31  C   UNL A   1      35.935  34.380  29.132  1.00  0.00     0.014 A 
ATOM     32  C   UNL A   1      35.443  32.782  31.368  1.00  0.00     0.010 A 
ATOM     33  C   UNL A   1      36.994  33.779  29.794  1.00  0.00     0.010 A 
ATOM     34  C   UNL A   1      36.762  32.985  30.927  1.00  0.00    -0.014 A 
BRANCH  34  35
ATOM     35  C   UNL A   1      37.925  32.409  31.647  1.00  0.00     0.031 A 
ATOM     36  C   UNL A   1      38.718  31.305  30.998  1.00  0.00     0.074 A 
ATOM     37  C   UNL A   1      38.207  32.811  32.902  1.00  0.00     0.049 A 
ATOM     38  N   UNL A   1      39.677  30.570  31.496  1.00  0.00    -0.248 NA
ATOM     39  C   UNL A   1      38.344  30.952  29.619  1.00  0.00     0.031 C 
ATOM     40  C   UNL A   1      37.474  33.835  33.649  1.00  0.00     0.029 A 
ATOM     41  N   UNL A   1      39.180  32.398  33.777  1.00  0.00    -0.354 N 
ATOM     42  C   UNL A   1      39.999  29.649  30.504  1.00  0.00     0.074 A 
ATOM     43  C   UNL A   1      39.080  29.872  29.410  1.00  0.00     0.031 C 
ATOM     44  C   UNL A   1      38.043  33.991  34.856  1.00  0.00     0.029 A 
ATOM     45  C   UNL A   1      39.146  33.047  34.990  1.00  0.00     0.049 A 
ATOM     46  H   UNL A   1      39.841  31.701  33.558  1.00  0.00     0.167 HD
ATOM     47  C   UNL A   1      40.991  28.725  30.493  1.00  0.00     0.034 A 
ATOM     48  C   UNL A   1      39.912  32.887  36.087  1.00  0.00     0.034 A 
ATOM     49  C   UNL A   1      41.917  28.547  31.583  1.00  0.00     0.049 A 
ATOM     50  C   UNL A   1      41.011  31.855  36.055  1.00  0.00     0.074 A 
ATOM     51  C   UNL A   1      43.004  27.694  31.662  1.00  0.00     0.029 A 
ATOM     52  N   UNL A   1      41.867  29.240  32.787  1.00  0.00    -0.354 N 
ATOM     53  N   UNL A   1      41.336  31.026  35.089  1.00  0.00    -0.248 NA
ATOM     54  C   UNL A   1      41.850  31.743  37.254  1.00  0.00     0.031 C 
ATOM     55  C   UNL A   1      43.570  27.825  32.934  1.00  0.00     0.029 A 
ATOM     56  C   UNL A   1      42.886  28.814  33.624  1.00  0.00     0.049 A 
ATOM     57  H   UNL A   1      41.204  29.932  33.012  1.00  0.00     0.167 HD
ATOM     58  C   UNL A   1      42.439  30.316  35.555  1.00  0.00     0.074 A 
ATOM     59  C   UNL A   1      42.730  30.826  36.879  1.00  0.00     0.031 C 
ATOM     60  C   UNL A   1      43.151  29.334  34.945  1.00  0.00     0.034 A 
BRANCH  47  61
ATOM     61  C   UNL A   1      41.102  27.838  29.277  1.00  0.00     0.023 A 
ATOM     62  C   UNL A   1      42.106  28.032  28.309  1.00  0.00     0.031 A 
ATOM     63  C   UNL A   1      40.169  26.810  29.053  1.00  0.00     0.131 A 
ATOM     64  C   UNL A   1      42.098  27.277  27.128  1.00  0.00     0.055 A 
ATOM     65  C   UNL A   1      40.223  26.000  27.917  1.00  0.00     0.041 A 
ATOM     66  F   UNL A   1      39.175  26.588  29.927  1.00  0.00    -0.206 F 
ATOM     67  C   UNL A   1      41.181  26.243  26.937  1.00  0.00     0.022 A 
BRANCH  64  68
ATOM     68  S   UNL A   1      43.204  27.775  25.779  1.00  0.00     0.124 S 
ATOM     69  O   UNL A   1      44.050  26.592  25.640  1.00  0.00    -0.237 OA
ATOM     70  O   UNL A   1      42.274  28.027  24.684  1.00  0.00    -0.237 OA
ATOM     71  O   UNL A   1      43.881  28.957  26.308  1.00  0.00    -0.744 OA
ENDBRANCH  64  68
ENDBRANCH  47  61
BRANCH  48  72
ATOM     72  C   UNL A   1      39.674  33.714  37.306  1.00  0.00     0.023 A 
ATOM     73  C   UNL A   1      38.917  33.216  38.379  1.00  0.00     0.031 A 
ATOM     74  C   UNL A   1      40.168  35.027  37.404  1.00  0.00     0.131 A 
ATOM     75  C   UNL A   1      38.634  34.039  39.479  1.00  0.00     0.055 A 
ATOM     76  C   UNL A   1      39.929  35.825  38.525  1.00  0.00     0.041 A 
ATOM     77  F   UNL A   1      40.904  35.552  36.411  1.00  0.00    -0.206 F 
ATOM     78  C   UNL A   1      39.146  35.335  39.566  1.00  0.00     0.022 A 
BRANCH  75  79
ATOM     79  S   UNL A   1      37.512  33.418  40.763  1.00  0.00     0.124 S 
ATOM     80  O   UNL A   1      36.433  32.848  39.963  1.00  0.00    -0.237 OA
ATOM     81  O   UNL A   1      38.360  32.465  41.470  1.00  0.00    -0.237 OA
ATOM     82  O   UNL A   1      37.162  34.619  41.519  1.00  0.00    -0.744 OA
ENDBRANCH  75  79
ENDBRANCH  48  72
BRANCH  60  83
ATOM     83  C   UNL A   1      44.341  28.786  35.692  1.00  0.00     0.023 A 
ATOM     84  C   UNL A   1      44.207  27.754  36.636  1.00  0.00     0.031 A 
ATOM     85  C   UNL A   1      45.625  29.304  35.451  1.00  0.00     0.131 A 
ATOM     86  C   UNL A   1      45.334  27.306  37.342  1.00  0.00     0.055 A 
ATOM     87  C   UNL A   1      46.751  28.813  36.112  1.00  0.00     0.041 A 
ATOM     88  F   UNL A   1      45.807  30.292  34.558  1.00  0.00    -0.206 F 
ATOM     89  C   UNL A   1      46.607  27.817  37.073  1.00  0.00     0.022 A 
BRANCH  86  90
ATOM     90  S   UNL A   1      45.101  26.104  38.680  1.00  0.00     0.124 S 
ATOM     91  O   UNL A   1      46.312  26.294  39.472  1.00  0.00    -0.237 OA
ATOM     92  O   UNL A   1      43.858  26.560  39.296  1.00  0.00    -0.237 OA
ATOM     93  O   UNL A   1      45.012  24.825  37.979  1.00  0.00    -0.744 OA
ENDBRANCH  86  90
ENDBRANCH  60  83
ENDBRANCH  34  35
ENDBRANCH  26  29
ENDBRANCH  24  25
ENDBRANCH  23  24
ENDBRANCH   1  23
TORSDOF 19
ENDMDL
