MODEL 1
REMARK VINA RESULT:     -11.0      0.000      0.000
REMARK SMILES CC1(C)OC(=O)C(/C=N/[C@@H](CCC(N)=O)C(=O)NCCCCNC(=O)c2ccc(-c3c4nc(c(-c5cc(S(=O)(=O)[O-])ccc5F)c5ccc([nH]5)c(-c5cc(S(=O)(=O)[O-])ccc5F)c5nc(c(-c6cc(S(=O)(=O)[O-])ccc6F)c6ccc3[nH]6)C=C5)C=C4)cc2)C(=O)O1
REMARK SMILES IDX 20 1 19 2 18 3 16 4 17 5 10 7 9 8 8 9 7 10 1 11 2 12 3 13
REMARK SMILES IDX 4 14 91 15 5 16 89 17 6 18 90 19 11 20 12 21 13 22 14 23
REMARK SMILES IDX 15 24 21 27 22 28 23 29 24 30 25 32 26 33 27 34 88 35 28 36
REMARK SMILES IDX 87 37 29 38 30 39 31 40 81 41 32 42 86 43 80 44 82 45 33 46
REMARK SMILES IDX 85 47 79 48 78 49 34 51 66 52 46 53 65 54 47 55 50 56 64 57
REMARK SMILES IDX 83 58 48 59 49 60 63 62 84 63 51 64 35 65 36 66 44 67 37 68
REMARK SMILES IDX 43 69 45 70 42 71 38 72 39 73 40 74 41 75 67 76 68 77 76 78
REMARK SMILES IDX 69 79 75 80 77 81 74 82 70 83 71 84 72 85 73 86 52 87 53 88
REMARK SMILES IDX 61 89 54 90 60 91 62 92 59 93 55 94 56 95 57 96 58 97
REMARK H PARENT 18 6 14 25 14 26 23 31 82 50 50 61
REMARK Flexibility Score: inf
ROOT
ATOM      1  C   UNL A   1      38.853  23.245  26.420  1.00  0.00     0.023 C 
ENDROOT
BRANCH   1   2
ATOM      2  C   UNL A   1      37.553  23.764  25.830  1.00  0.00     0.116 C 
BRANCH   2   3
ATOM      3  N   UNL A   1      37.417  23.505  24.423  1.00  0.00    -0.354 N 
ATOM      4  C   UNL A   1      36.330  23.076  23.721  1.00  0.00     0.244 C 
ATOM      5  O   UNL A   1      36.429  23.030  22.489  1.00  0.00    -0.273 OA
ATOM      6  H   UNL A   1      38.228  23.661  23.888  1.00  0.00     0.163 HD
BRANCH   4   7
ATOM      7  C   UNL A   1      35.025  22.641  24.417  1.00  0.00     0.194 C 
BRANCH   7   8
ATOM      8  N   UNL A   1      33.877  23.447  23.942  1.00  0.00    -0.283 NA
ATOM      9  C   UNL A   1      33.806  24.719  23.951  1.00  0.00     0.105 C 
BRANCH   9  10
ATOM     10  C   UNL A   1      32.596  25.426  23.389  1.00  0.00     0.250 C 
ATOM     11  C   UNL A   1      33.255  29.019  24.646  1.00  0.00     0.106 C 
ATOM     12  C   UNL A   1      32.199  28.174  23.937  1.00  0.00     0.252 C 
ATOM     13  C   UNL A   1      30.972  29.025  23.618  1.00  0.00     0.106 C 
ATOM     14  O   UNL A   1      31.786  27.159  24.846  1.00  0.00    -0.422 OA
ATOM     15  O   UNL A   1      32.744  27.746  22.688  1.00  0.00    -0.422 OA
ATOM     16  C   UNL A   1      31.647  25.893  24.428  1.00  0.00     0.329 C 
ATOM     17  C   UNL A   1      33.012  26.464  22.418  1.00  0.00     0.329 C 
ATOM     18  O   UNL A   1      30.836  25.151  24.972  1.00  0.00    -0.251 OA
ATOM     19  O   UNL A   1      33.629  26.167  21.398  1.00  0.00    -0.251 OA
ENDBRANCH   9  10
ENDBRANCH   7   8
BRANCH   7  20
ATOM     20  C   UNL A   1      34.806  21.151  24.735  1.00  0.00     0.047 C 
BRANCH  20  21
ATOM     21  C   UNL A   1      33.993  20.690  25.947  1.00  0.00     0.102 C 
BRANCH  21  22
ATOM     22  C   UNL A   1      32.895  19.696  25.641  1.00  0.00     0.217 C 
ATOM     23  N   UNL A   1      32.858  18.622  26.483  1.00  0.00    -0.370 N 
ATOM     24  O   UNL A   1      32.105  19.796  24.714  1.00  0.00    -0.275 OA
ATOM     25  H   UNL A   1      33.502  18.556  27.225  1.00  0.00     0.159 HD
ATOM     26  H   UNL A   1      32.188  17.912  26.348  1.00  0.00     0.159 HD
ENDBRANCH  21  22
ENDBRANCH  20  21
ENDBRANCH   7  20
ENDBRANCH   4   7
ENDBRANCH   2   3
ENDBRANCH   1   2
BRANCH   1  27
ATOM     27  C   UNL A   1      39.190  21.800  26.068  1.00  0.00     0.023 C 
BRANCH  27  28
ATOM     28  C   UNL A   1      40.203  21.119  26.984  1.00  0.00     0.116 C 
BRANCH  28  29
ATOM     29  N   UNL A   1      41.133  20.230  26.297  1.00  0.00    -0.352 N 
ATOM     30  C   UNL A   1      42.414  20.515  25.870  1.00  0.00     0.251 C 
ATOM     31  H   UNL A   1      40.809  19.317  26.117  1.00  0.00     0.163 HD
ATOM     32  O   UNL A   1      43.057  19.691  25.239  1.00  0.00    -0.269 OA
BRANCH  30  33
ATOM     33  C   UNL A   1      42.951  21.862  26.163  1.00  0.00     0.039 A 
ATOM     34  C   UNL A   1      42.860  22.859  25.190  1.00  0.00     0.014 A 
ATOM     35  C   UNL A   1      43.389  22.159  27.455  1.00  0.00     0.014 A 
ATOM     36  C   UNL A   1      43.112  24.185  25.548  1.00  0.00     0.010 A 
ATOM     37  C   UNL A   1      43.558  23.487  27.826  1.00  0.00     0.010 A 
ATOM     38  C   UNL A   1      43.404  24.516  26.882  1.00  0.00    -0.014 A 
BRANCH  38  39
ATOM     39  C   UNL A   1      43.541  25.928  27.328  1.00  0.00     0.031 A 
ATOM     40  C   UNL A   1      44.898  26.576  27.337  1.00  0.00     0.074 A 
ATOM     41  C   UNL A   1      42.472  26.583  27.823  1.00  0.00     0.049 A 
ATOM     42  N   UNL A   1      45.258  27.736  27.820  1.00  0.00    -0.248 NA
ATOM     43  C   UNL A   1      46.000  25.790  26.766  1.00  0.00     0.031 C 
ATOM     44  C   UNL A   1      41.114  26.041  27.925  1.00  0.00     0.029 A 
ATOM     45  N   UNL A   1      42.360  27.845  28.353  1.00  0.00    -0.354 N 
ATOM     46  C   UNL A   1      46.635  27.807  27.638  1.00  0.00     0.074 A 
ATOM     47  C   UNL A   1      47.047  26.545  27.060  1.00  0.00     0.031 C 
ATOM     48  C   UNL A   1      40.306  26.969  28.462  1.00  0.00     0.029 A 
ATOM     49  C   UNL A   1      41.091  28.157  28.783  1.00  0.00     0.049 A 
ATOM     50  H   UNL A   1      43.119  28.469  28.418  1.00  0.00     0.167 HD
ATOM     51  C   UNL A   1      47.476  28.838  27.905  1.00  0.00     0.034 A 
ATOM     52  C   UNL A   1      40.617  29.269  29.379  1.00  0.00     0.034 A 
ATOM     53  C   UNL A   1      47.044  30.099  28.452  1.00  0.00     0.049 A 
ATOM     54  C   UNL A   1      41.564  30.410  29.651  1.00  0.00     0.074 A 
ATOM     55  C   UNL A   1      47.795  31.236  28.701  1.00  0.00     0.029 A 
ATOM     56  N   UNL A   1      45.742  30.394  28.837  1.00  0.00    -0.354 N 
ATOM     57  N   UNL A   1      42.857  30.481  29.426  1.00  0.00    -0.248 NA
ATOM     58  C   UNL A   1      40.989  31.623  30.245  1.00  0.00     0.031 C 
ATOM     59  C   UNL A   1      46.960  32.197  29.280  1.00  0.00     0.029 A 
ATOM     60  C   UNL A   1      45.673  31.685  29.336  1.00  0.00     0.049 A 
ATOM     61  H   UNL A   1      44.980  29.776  28.765  1.00  0.00     0.167 HD
ATOM     62  C   UNL A   1      43.240  31.758  29.825  1.00  0.00     0.074 A 
ATOM     63  C   UNL A   1      42.042  32.425  30.293  1.00  0.00     0.031 C 
ATOM     64  C   UNL A   1      44.470  32.332  29.801  1.00  0.00     0.034 A 
BRANCH  51  65
ATOM     65  C   UNL A   1      48.942  28.623  27.619  1.00  0.00     0.023 A 
ATOM     66  C   UNL A   1      49.481  28.840  26.338  1.00  0.00     0.031 A 
ATOM     67  C   UNL A   1      49.804  28.147  28.622  1.00  0.00     0.131 A 
ATOM     68  C   UNL A   1      50.813  28.494  26.070  1.00  0.00     0.055 A 
ATOM     69  C   UNL A   1      51.153  27.888  28.371  1.00  0.00     0.041 A 
ATOM     70  F   UNL A   1      49.344  27.901  29.859  1.00  0.00    -0.206 F 
ATOM     71  C   UNL A   1      51.660  28.045  27.084  1.00  0.00     0.022 A 
BRANCH  68  72
ATOM     72  S   UNL A   1      51.370  28.489  24.344  1.00  0.00     0.124 S 
ATOM     73  O   UNL A   1      51.739  29.890  24.151  1.00  0.00    -0.237 OA
ATOM     74  O   UNL A   1      52.474  27.537  24.371  1.00  0.00    -0.237 OA
ATOM     75  O   UNL A   1      50.188  28.055  23.604  1.00  0.00    -0.744 OA
ENDBRANCH  68  72
ENDBRANCH  51  65
BRANCH  52  76
ATOM     76  C   UNL A   1      39.180  29.369  29.764  1.00  0.00     0.023 A 
ATOM     77  C   UNL A   1      38.270  30.081  28.968  1.00  0.00     0.031 A 
ATOM     78  C   UNL A   1      38.706  28.790  30.954  1.00  0.00     0.131 A 
ATOM     79  C   UNL A   1      36.941  30.236  29.393  1.00  0.00     0.055 A 
ATOM     80  C   UNL A   1      37.372  28.909  31.350  1.00  0.00     0.041 A 
ATOM     81  F   UNL A   1      39.535  28.090  31.745  1.00  0.00    -0.206 F 
ATOM     82  C   UNL A   1      36.484  29.646  30.573  1.00  0.00     0.022 A 
BRANCH  79  83
ATOM     83  S   UNL A   1      35.834  31.285  28.410  1.00  0.00     0.124 S 
ATOM     84  O   UNL A   1      35.446  30.382  27.333  1.00  0.00    -0.237 OA
ATOM     85  O   UNL A   1      34.793  31.615  29.378  1.00  0.00    -0.237 OA
ATOM     86  O   UNL A   1      36.689  32.402  28.012  1.00  0.00    -0.744 OA
ENDBRANCH  79  83
ENDBRANCH  52  76
BRANCH  64  87
ATOM     87  C   UNL A   1      44.562  33.767  30.249  1.00  0.00     0.023 A 
ATOM     88  C   UNL A   1      44.367  34.835  29.357  1.00  0.00     0.031 A 
ATOM     89  C   UNL A   1      44.856  34.066  31.591  1.00  0.00     0.131 A 
ATOM     90  C   UNL A   1      44.514  36.156  29.809  1.00  0.00     0.055 A 
ATOM     91  C   UNL A   1      44.951  35.383  32.045  1.00  0.00     0.041 A 
ATOM     92  F   UNL A   1      45.053  33.083  32.483  1.00  0.00    -0.206 F 
ATOM     93  C   UNL A   1      44.791  36.436  31.149  1.00  0.00     0.022 A 
BRANCH  90  94
ATOM     94  S   UNL A   1      44.412  37.506  28.601  1.00  0.00     0.124 S 
ATOM     95  O   UNL A   1      45.771  37.538  28.067  1.00  0.00    -0.237 OA
ATOM     96  O   UNL A   1      43.379  37.030  27.687  1.00  0.00    -0.237 OA
ATOM     97  O   UNL A   1      44.037  38.662  29.412  1.00  0.00    -0.744 OA
ENDBRANCH  90  94
ENDBRANCH  64  87
ENDBRANCH  38  39
ENDBRANCH  30  33
ENDBRANCH  28  29
ENDBRANCH  27  28
ENDBRANCH   1  27
TORSDOF 19
ENDMDL
MODEL 2
REMARK VINA RESULT:     -10.8      5.196      8.634
REMARK SMILES CC1(C)OC(=O)C(/C=N/[C@@H](CCC(N)=O)C(=O)NCCCCNC(=O)c2ccc(-c3c4nc(c(-c5cc(S(=O)(=O)[O-])ccc5F)c5ccc([nH]5)c(-c5cc(S(=O)(=O)[O-])ccc5F)c5nc(c(-c6cc(S(=O)(=O)[O-])ccc6F)c6ccc3[nH]6)C=C5)C=C4)cc2)C(=O)O1
REMARK SMILES IDX 20 1 19 2 18 3 16 4 17 5 10 7 9 8 8 9 7 10 1 11 2 12 3 13
REMARK SMILES IDX 4 14 91 15 5 16 89 17 6 18 90 19 11 20 12 21 13 22 14 23
REMARK SMILES IDX 15 24 21 27 22 28 23 29 24 30 25 32 26 33 27 34 88 35 28 36
REMARK SMILES IDX 87 37 29 38 30 39 31 40 81 41 32 42 86 43 80 44 82 45 33 46
REMARK SMILES IDX 85 47 79 48 78 49 34 51 66 52 46 53 65 54 47 55 50 56 64 57
REMARK SMILES IDX 83 58 48 59 49 60 63 62 84 63 51 64 35 65 36 66 44 67 37 68
REMARK SMILES IDX 43 69 45 70 42 71 38 72 39 73 40 74 41 75 67 76 68 77 76 78
REMARK SMILES IDX 69 79 75 80 77 81 74 82 70 83 71 84 72 85 73 86 52 87 53 88
REMARK SMILES IDX 61 89 54 90 60 91 62 92 59 93 55 94 56 95 57 96 58 97
REMARK H PARENT 18 6 14 25 14 26 23 31 82 50 50 61
REMARK Flexibility Score: inf
ROOT
ATOM      1  C   UNL A   1      33.990  28.330  23.879  1.00  0.00     0.023 C 
ENDROOT
BRANCH   1   2
ATOM      2  C   UNL A   1      33.529  26.917  23.560  1.00  0.00     0.116 C 
BRANCH   2   3
ATOM      3  N   UNL A   1      32.989  26.775  22.235  1.00  0.00    -0.354 N 
ATOM      4  C   UNL A   1      31.908  26.061  21.812  1.00  0.00     0.244 C 
ATOM      5  O   UNL A   1      31.574  26.182  20.627  1.00  0.00    -0.273 OA
ATOM      6  H   UNL A   1      33.471  27.266  21.532  1.00  0.00     0.163 HD
BRANCH   4   7
ATOM      7  C   UNL A   1      31.131  25.117  22.750  1.00  0.00     0.194 C 
BRANCH   7   8
ATOM      8  N   UNL A   1      32.048  24.174  23.431  1.00  0.00    -0.283 NA
ATOM      9  C   UNL A   1      32.684  23.221  22.873  1.00  0.00     0.105 C 
BRANCH   9  10
ATOM     10  C   UNL A   1      33.633  22.358  23.671  1.00  0.00     0.250 C 
ATOM     11  C   UNL A   1      32.239  22.917  27.229  1.00  0.00     0.106 C 
ATOM     12  C   UNL A   1      33.401  22.258  26.489  1.00  0.00     0.252 C 
ATOM     13  C   UNL A   1      34.353  21.598  27.484  1.00  0.00     0.106 C 
ATOM     14  O   UNL A   1      34.126  23.291  25.831  1.00  0.00    -0.422 OA
ATOM     15  O   UNL A   1      32.867  21.215  25.671  1.00  0.00    -0.422 OA
ATOM     16  C   UNL A   1      34.529  23.132  24.562  1.00  0.00     0.329 C 
ATOM     17  C   UNL A   1      32.894  21.260  24.335  1.00  0.00     0.329 C 
ATOM     18  O   UNL A   1      35.540  23.699  24.163  1.00  0.00    -0.251 OA
ATOM     19  O   UNL A   1      32.279  20.422  23.680  1.00  0.00    -0.251 OA
ENDBRANCH   9  10
ENDBRANCH   7   8
BRANCH   7  20
ATOM     20  C   UNL A   1      29.917  25.660  23.524  1.00  0.00     0.047 C 
BRANCH  20  21
ATOM     21  C   UNL A   1      30.070  26.631  24.698  1.00  0.00     0.102 C 
BRANCH  21  22
ATOM     22  C   UNL A   1      30.385  25.983  26.027  1.00  0.00     0.217 C 
ATOM     23  N   UNL A   1      29.404  25.160  26.499  1.00  0.00    -0.370 N 
ATOM     24  O   UNL A   1      31.409  26.175  26.668  1.00  0.00    -0.275 OA
ATOM     25  H   UNL A   1      28.586  25.017  25.970  1.00  0.00     0.159 HD
ATOM     26  H   UNL A   1      29.514  24.710  27.368  1.00  0.00     0.159 HD
ENDBRANCH  21  22
ENDBRANCH  20  21
ENDBRANCH   7  20
ENDBRANCH   4   7
ENDBRANCH   2   3
ENDBRANCH   1   2
BRANCH   1  27
ATOM     27  C   UNL A   1      32.908  29.254  24.423  1.00  0.00     0.023 C 
BRANCH  27  28
ATOM     28  C   UNL A   1      32.868  29.396  25.942  1.00  0.00     0.116 C 
BRANCH  28  29
ATOM     29  N   UNL A   1      32.434  30.707  26.413  1.00  0.00    -0.352 N 
ATOM     30  C   UNL A   1      33.130  31.588  27.216  1.00  0.00     0.251 C 
ATOM     31  H   UNL A   1      31.539  30.998  26.125  1.00  0.00     0.163 HD
ATOM     32  O   UNL A   1      32.612  32.627  27.594  1.00  0.00    -0.269 OA
BRANCH  30  33
ATOM     33  C   UNL A   1      34.496  31.204  27.632  1.00  0.00     0.039 A 
ATOM     34  C   UNL A   1      35.469  32.195  27.777  1.00  0.00     0.014 A 
ATOM     35  C   UNL A   1      34.749  29.889  28.030  1.00  0.00     0.014 A 
ATOM     36  C   UNL A   1      36.668  31.884  28.422  1.00  0.00     0.010 A 
ATOM     37  C   UNL A   1      35.906  29.605  28.742  1.00  0.00     0.010 A 
ATOM     38  C   UNL A   1      36.870  30.603  28.962  1.00  0.00    -0.014 A 
BRANCH  38  39
ATOM     39  C   UNL A   1      38.072  30.276  29.775  1.00  0.00     0.031 A 
ATOM     40  C   UNL A   1      39.077  29.288  29.251  1.00  0.00     0.074 A 
ATOM     41  C   UNL A   1      38.200  30.779  31.019  1.00  0.00     0.049 A 
ATOM     42  N   UNL A   1      40.109  28.756  29.853  1.00  0.00    -0.248 NA
ATOM     43  C   UNL A   1      38.862  28.803  27.880  1.00  0.00     0.031 C 
ATOM     44  C   UNL A   1      37.260  31.700  31.665  1.00  0.00     0.029 A 
ATOM     45  N   UNL A   1      39.165  30.575  31.974  1.00  0.00    -0.354 N 
ATOM     46  C   UNL A   1      40.648  27.851  28.946  1.00  0.00     0.074 A 
ATOM     47  C   UNL A   1      39.789  27.863  27.780  1.00  0.00     0.031 C 
ATOM     48  C   UNL A   1      37.705  31.995  32.897  1.00  0.00     0.029 A 
ATOM     49  C   UNL A   1      38.937  31.254  33.149  1.00  0.00     0.049 A 
ATOM     50  H   UNL A   1      39.948  29.995  31.830  1.00  0.00     0.167 HD
ATOM     51  C   UNL A   1      41.770  27.097  29.062  1.00  0.00     0.034 A 
ATOM     52  C   UNL A   1      39.636  31.269  34.301  1.00  0.00     0.034 A 
ATOM     53  C   UNL A   1      42.631  27.120  30.218  1.00  0.00     0.049 A 
ATOM     54  C   UNL A   1      40.890  30.438  34.404  1.00  0.00     0.074 A 
ATOM     55  C   UNL A   1      43.826  26.450  30.418  1.00  0.00     0.029 A 
ATOM     56  N   UNL A   1      42.391  27.853  31.373  1.00  0.00    -0.354 N 
ATOM     57  N   UNL A   1      41.415  29.624  33.516  1.00  0.00    -0.248 NA
ATOM     58  C   UNL A   1      41.649  30.535  35.657  1.00  0.00     0.031 C 
ATOM     59  C   UNL A   1      44.281  26.739  31.709  1.00  0.00     0.029 A 
ATOM     60  C   UNL A   1      43.403  27.639  32.294  1.00  0.00     0.049 A 
ATOM     61  H   UNL A   1      41.613  28.440  31.517  1.00  0.00     0.167 HD
ATOM     62  C   UNL A   1      42.583  29.137  34.096  1.00  0.00     0.074 A 
ATOM     63  C   UNL A   1      42.689  29.755  35.402  1.00  0.00     0.031 C 
ATOM     64  C   UNL A   1      43.490  28.262  33.593  1.00  0.00     0.034 A 
BRANCH  51  65
ATOM     65  C   UNL A   1      42.106  26.180  27.912  1.00  0.00     0.023 A 
ATOM     66  C   UNL A   1      41.643  24.853  27.870  1.00  0.00     0.031 A 
ATOM     67  C   UNL A   1      42.940  26.619  26.867  1.00  0.00     0.131 A 
ATOM     68  C   UNL A   1      42.091  23.986  26.863  1.00  0.00     0.055 A 
ATOM     69  C   UNL A   1      43.310  25.775  25.819  1.00  0.00     0.041 A 
ATOM     70  F   UNL A   1      43.429  27.869  26.862  1.00  0.00    -0.206 F 
ATOM     71  C   UNL A   1      42.899  24.444  25.822  1.00  0.00     0.022 A 
BRANCH  68  72
ATOM     72  S   UNL A   1      41.728  22.217  27.027  1.00  0.00     0.124 S 
ATOM     73  O   UNL A   1      41.217  21.896  25.696  1.00  0.00    -0.237 OA
ATOM     74  O   UNL A   1      43.032  21.657  27.362  1.00  0.00    -0.237 OA
ATOM     75  O   UNL A   1      40.734  22.169  28.097  1.00  0.00    -0.744 OA
ENDBRANCH  68  72
ENDBRANCH  51  65
BRANCH  52  76
ATOM     76  C   UNL A   1      39.177  32.093  35.455  1.00  0.00     0.023 A 
ATOM     77  C   UNL A   1      39.656  33.398  35.644  1.00  0.00     0.031 A 
ATOM     78  C   UNL A   1      38.284  31.572  36.409  1.00  0.00     0.131 A 
ATOM     79  C   UNL A   1      39.277  34.125  36.784  1.00  0.00     0.055 A 
ATOM     80  C   UNL A   1      37.876  32.316  37.518  1.00  0.00     0.041 A 
ATOM     81  F   UNL A   1      37.789  30.332  36.269  1.00  0.00    -0.206 F 
ATOM     82  C   UNL A   1      38.383  33.596  37.717  1.00  0.00     0.022 A 
BRANCH  79  83
ATOM     83  S   UNL A   1      40.033  35.750  37.066  1.00  0.00     0.124 S 
ATOM     84  O   UNL A   1      41.444  35.405  37.190  1.00  0.00    -0.237 OA
ATOM     85  O   UNL A   1      39.652  36.473  35.857  1.00  0.00    -0.237 OA
ATOM     86  O   UNL A   1      39.392  36.214  38.295  1.00  0.00    -0.744 OA
ENDBRANCH  79  83
ENDBRANCH  52  76
BRANCH  64  87
ATOM     87  C   UNL A   1      44.699  27.968  34.442  1.00  0.00     0.023 A 
ATOM     88  C   UNL A   1      44.781  26.813  35.238  1.00  0.00     0.031 A 
ATOM     89  C   UNL A   1      45.783  28.864  34.456  1.00  0.00     0.131 A 
ATOM     90  C   UNL A   1      45.905  26.606  36.053  1.00  0.00     0.055 A 
ATOM     91  C   UNL A   1      46.920  28.628  35.230  1.00  0.00     0.041 A 
ATOM     92  F   UNL A   1      45.753  29.982  33.715  1.00  0.00    -0.206 F 
ATOM     93  C   UNL A   1      46.980  27.499  36.043  1.00  0.00     0.022 A 
BRANCH  90  94
ATOM     94  S   UNL A   1      45.912  25.190  37.186  1.00  0.00     0.124 S 
ATOM     95  O   UNL A   1      44.614  25.319  37.842  1.00  0.00    -0.237 OA
ATOM     96  O   UNL A   1      46.054  24.060  36.273  1.00  0.00    -0.237 OA
ATOM     97  O   UNL A   1      47.069  25.443  38.043  1.00  0.00    -0.744 OA
ENDBRANCH  90  94
ENDBRANCH  64  87
ENDBRANCH  38  39
ENDBRANCH  30  33
ENDBRANCH  28  29
ENDBRANCH  27  28
ENDBRANCH   1  27
TORSDOF 19
ENDMDL
MODEL 3
REMARK VINA RESULT:     -10.7      5.578      8.938
REMARK SMILES CC1(C)OC(=O)C(/C=N/[C@@H](CCC(N)=O)C(=O)NCCCCNC(=O)c2ccc(-c3c4nc(c(-c5cc(S(=O)(=O)[O-])ccc5F)c5ccc([nH]5)c(-c5cc(S(=O)(=O)[O-])ccc5F)c5nc(c(-c6cc(S(=O)(=O)[O-])ccc6F)c6ccc3[nH]6)C=C5)C=C4)cc2)C(=O)O1
REMARK SMILES IDX 20 1 19 2 18 3 16 4 17 5 10 7 9 8 8 9 7 10 1 11 2 12 3 13
REMARK SMILES IDX 4 14 91 15 5 16 89 17 6 18 90 19 11 20 12 21 13 22 14 23
REMARK SMILES IDX 15 24 21 27 22 28 23 29 24 30 25 32 26 33 27 34 88 35 28 36
REMARK SMILES IDX 87 37 29 38 30 39 31 40 81 41 32 42 86 43 80 44 82 45 33 46
REMARK SMILES IDX 85 47 79 48 78 49 34 51 66 52 46 53 65 54 47 55 50 56 64 57
REMARK SMILES IDX 83 58 48 59 49 60 63 62 84 63 51 64 35 65 36 66 44 67 37 68
REMARK SMILES IDX 43 69 45 70 42 71 38 72 39 73 40 74 41 75 67 76 68 77 76 78
REMARK SMILES IDX 69 79 75 80 77 81 74 82 70 83 71 84 72 85 73 86 52 87 53 88
REMARK SMILES IDX 61 89 54 90 60 91 62 92 59 93 55 94 56 95 57 96 58 97
REMARK H PARENT 18 6 14 25 14 26 23 31 82 50 50 61
REMARK Flexibility Score: inf
ROOT
ATOM      1  C   UNL A   1      33.360  29.154  25.270  1.00  0.00     0.023 C 
ENDROOT
BRANCH   1   2
ATOM      2  C   UNL A   1      33.541  28.786  23.806  1.00  0.00     0.116 C 
BRANCH   2   3
ATOM      3  N   UNL A   1      32.523  29.330  22.949  1.00  0.00    -0.354 N 
ATOM      4  C   UNL A   1      31.290  28.834  22.645  1.00  0.00     0.244 C 
ATOM      5  O   UNL A   1      30.544  29.544  21.960  1.00  0.00    -0.273 OA
ATOM      6  H   UNL A   1      32.750  30.185  22.519  1.00  0.00     0.163 HD
BRANCH   4   7
ATOM      7  C   UNL A   1      30.831  27.437  23.109  1.00  0.00     0.194 C 
BRANCH   7   8
ATOM      8  N   UNL A   1      31.993  26.547  23.335  1.00  0.00    -0.283 NA
ATOM      9  C   UNL A   1      32.318  25.550  22.611  1.00  0.00     0.105 C 
BRANCH   9  10
ATOM     10  C   UNL A   1      33.560  24.748  22.919  1.00  0.00     0.250 C 
ATOM     11  C   UNL A   1      31.988  21.707  24.707  1.00  0.00     0.106 C 
ATOM     12  C   UNL A   1      33.341  22.327  24.366  1.00  0.00     0.252 C 
ATOM     13  C   UNL A   1      34.470  21.465  24.928  1.00  0.00     0.106 C 
ATOM     14  O   UNL A   1      33.407  23.589  25.020  1.00  0.00    -0.422 OA
ATOM     15  O   UNL A   1      33.482  22.322  22.945  1.00  0.00    -0.422 OA
ATOM     16  C   UNL A   1      33.867  24.666  24.367  1.00  0.00     0.329 C 
ATOM     17  C   UNL A   1      33.518  23.444  22.219  1.00  0.00     0.329 C 
ATOM     18  O   UNL A   1      34.419  25.570  24.985  1.00  0.00    -0.251 OA
ATOM     19  O   UNL A   1      33.475  23.384  20.992  1.00  0.00    -0.251 OA
ENDBRANCH   9  10
ENDBRANCH   7   8
BRANCH   7  20
ATOM     20  C   UNL A   1      29.612  27.320  24.041  1.00  0.00     0.047 C 
BRANCH  20  21
ATOM     21  C   UNL A   1      29.202  25.989  24.678  1.00  0.00     0.102 C 
BRANCH  21  22
ATOM     22  C   UNL A   1      29.939  25.636  25.951  1.00  0.00     0.217 C 
ATOM     23  N   UNL A   1      29.436  24.550  26.608  1.00  0.00    -0.370 N 
ATOM     24  O   UNL A   1      30.890  26.259  26.400  1.00  0.00    -0.275 OA
ATOM     25  H   UNL A   1      28.669  24.060  26.233  1.00  0.00     0.159 HD
ATOM     26  H   UNL A   1      29.840  24.257  27.457  1.00  0.00     0.159 HD
ENDBRANCH  21  22
ENDBRANCH  20  21
ENDBRANCH   7  20
ENDBRANCH   4   7
ENDBRANCH   2   3
ENDBRANCH   1   2
BRANCH   1  27
ATOM     27  C   UNL A   1      32.231  30.138  25.554  1.00  0.00     0.023 C 
BRANCH  27  28
ATOM     28  C   UNL A   1      32.131  30.624  26.997  1.00  0.00     0.116 C 
BRANCH  28  29
ATOM     29  N   UNL A   1      32.030  32.073  27.137  1.00  0.00    -0.352 N 
ATOM     30  C   UNL A   1      32.997  32.946  27.594  1.00  0.00     0.251 C 
ATOM     31  H   UNL A   1      31.170  32.476  26.876  1.00  0.00     0.163 HD
ATOM     32  O   UNL A   1      32.749  34.134  27.728  1.00  0.00    -0.269 OA
BRANCH  30  33
ATOM     33  C   UNL A   1      34.316  32.383  27.952  1.00  0.00     0.039 A 
ATOM     34  C   UNL A   1      35.430  33.223  27.986  1.00  0.00     0.014 A 
ATOM     35  C   UNL A   1      34.399  31.064  28.406  1.00  0.00     0.014 A 
ATOM     36  C   UNL A   1      36.611  32.767  28.578  1.00  0.00     0.010 A 
ATOM     37  C   UNL A   1      35.546  30.645  29.067  1.00  0.00     0.010 A 
ATOM     38  C   UNL A   1      36.658  31.496  29.175  1.00  0.00    -0.014 A 
BRANCH  38  39
ATOM     39  C   UNL A   1      37.848  31.032  29.936  1.00  0.00     0.031 A 
ATOM     40  C   UNL A   1      38.797  30.051  29.304  1.00  0.00     0.074 A 
ATOM     41  C   UNL A   1      38.013  31.404  31.221  1.00  0.00     0.049 A 
ATOM     42  N   UNL A   1      39.806  29.412  29.837  1.00  0.00    -0.248 NA
ATOM     43  C   UNL A   1      38.545  29.715  27.895  1.00  0.00     0.031 C 
ATOM     44  C   UNL A   1      37.127  32.302  31.967  1.00  0.00     0.029 A 
ATOM     45  N   UNL A   1      38.975  31.059  32.138  1.00  0.00    -0.354 N 
ATOM     46  C   UNL A   1      40.291  28.575  28.838  1.00  0.00     0.074 A 
ATOM     47  C   UNL A   1      39.423  28.745  27.691  1.00  0.00     0.031 C 
ATOM     48  C   UNL A   1      37.598  32.452  33.215  1.00  0.00     0.029 A 
ATOM     49  C   UNL A   1      38.793  31.630  33.377  1.00  0.00     0.049 A 
ATOM     50  H   UNL A   1      39.727  30.458  31.928  1.00  0.00     0.167 HD
ATOM     51  C   UNL A   1      41.374  27.759  28.864  1.00  0.00     0.034 A 
ATOM     52  C   UNL A   1      39.502  31.497  34.515  1.00  0.00     0.034 A 
ATOM     53  C   UNL A   1      42.245  27.625  30.004  1.00  0.00     0.049 A 
ATOM     54  C   UNL A   1      40.713  30.598  34.519  1.00  0.00     0.074 A 
ATOM     55  C   UNL A   1      43.407  26.880  30.122  1.00  0.00     0.029 A 
ATOM     56  N   UNL A   1      42.053  28.252  31.229  1.00  0.00    -0.354 N 
ATOM     57  N   UNL A   1      41.188  29.851  33.548  1.00  0.00    -0.248 NA
ATOM     58  C   UNL A   1      41.487  30.533  35.764  1.00  0.00     0.031 C 
ATOM     59  C   UNL A   1      43.887  27.018  31.428  1.00  0.00     0.029 A 
ATOM     60  C   UNL A   1      43.062  27.898  32.111  1.00  0.00     0.049 A 
ATOM     61  H   UNL A   1      41.307  28.860  31.440  1.00  0.00     0.167 HD
ATOM     62  C   UNL A   1      42.335  29.251  34.061  1.00  0.00     0.074 A 
ATOM     63  C   UNL A   1      42.484  29.732  35.420  1.00  0.00     0.031 C 
ATOM     64  C   UNL A   1      43.192  28.386  33.463  1.00  0.00     0.034 A 
BRANCH  51  65
ATOM     65  C   UNL A   1      41.652  26.944  27.625  1.00  0.00     0.023 A 
ATOM     66  C   UNL A   1      41.354  25.570  27.566  1.00  0.00     0.031 A 
ATOM     67  C   UNL A   1      42.269  27.531  26.506  1.00  0.00     0.131 A 
ATOM     68  C   UNL A   1      41.756  24.813  26.457  1.00  0.00     0.055 A 
ATOM     69  C   UNL A   1      42.587  26.788  25.368  1.00  0.00     0.041 A 
ATOM     70  F   UNL A   1      42.596  28.833  26.511  1.00  0.00    -0.206 F 
ATOM     71  C   UNL A   1      42.347  25.417  25.346  1.00  0.00     0.022 A 
BRANCH  68  72
ATOM     72  S   UNL A   1      41.640  23.006  26.561  1.00  0.00     0.124 S 
ATOM     73  O   UNL A   1      42.518  22.720  27.694  1.00  0.00    -0.237 OA
ATOM     74  O   UNL A   1      40.216  22.793  26.786  1.00  0.00    -0.237 OA
ATOM     75  O   UNL A   1      42.142  22.556  25.264  1.00  0.00    -0.744 OA
ENDBRANCH  68  72
ENDBRANCH  51  65
BRANCH  52  76
ATOM     76  C   UNL A   1      39.096  32.225  35.751  1.00  0.00     0.023 A 
ATOM     77  C   UNL A   1      38.371  31.576  36.762  1.00  0.00     0.031 A 
ATOM     78  C   UNL A   1      39.391  33.589  35.919  1.00  0.00     0.131 A 
ATOM     79  C   UNL A   1      37.924  32.301  37.878  1.00  0.00     0.055 A 
ATOM     80  C   UNL A   1      38.982  34.295  37.053  1.00  0.00     0.041 A 
ATOM     81  F   UNL A   1      40.090  34.253  34.986  1.00  0.00    -0.206 F 
ATOM     82  C   UNL A   1      38.233  33.654  38.035  1.00  0.00     0.022 A 
BRANCH  79  83
ATOM     83  S   UNL A   1      36.866  31.462  39.090  1.00  0.00     0.124 S 
ATOM     84  O   UNL A   1      35.663  32.285  39.055  1.00  0.00    -0.237 OA
ATOM     85  O   UNL A   1      36.748  30.127  38.513  1.00  0.00    -0.237 OA
ATOM     86  O   UNL A   1      37.640  31.538  40.327  1.00  0.00    -0.744 OA
ENDBRANCH  79  83
ENDBRANCH  52  76
BRANCH  64  87
ATOM     87  C   UNL A   1      44.392  27.950  34.262  1.00  0.00     0.023 A 
ATOM     88  C   UNL A   1      44.367  26.799  35.067  1.00  0.00     0.031 A 
ATOM     89  C   UNL A   1      45.577  28.705  34.219  1.00  0.00     0.131 A 
ATOM     90  C   UNL A   1      45.492  26.460  35.835  1.00  0.00     0.055 A 
ATOM     91  C   UNL A   1      46.710  28.335  34.945  1.00  0.00     0.041 A 
ATOM     92  F   UNL A   1      45.653  29.814  33.466  1.00  0.00    -0.206 F 
ATOM     93  C   UNL A   1      46.667  27.213  35.768  1.00  0.00     0.022 A 
BRANCH  90  94
ATOM     94  S   UNL A   1      45.374  25.061  36.983  1.00  0.00     0.124 S 
ATOM     95  O   UNL A   1      44.002  25.178  37.466  1.00  0.00    -0.237 OA
ATOM     96  O   UNL A   1      45.649  23.921  36.115  1.00  0.00    -0.237 OA
ATOM     97  O   UNL A   1      46.408  25.346  37.977  1.00  0.00    -0.744 OA
ENDBRANCH  90  94
ENDBRANCH  64  87
ENDBRANCH  38  39
ENDBRANCH  30  33
ENDBRANCH  28  29
ENDBRANCH  27  28
ENDBRANCH   1  27
TORSDOF 19
ENDMDL
