MODEL 1
REMARK VINA RESULT:     -11.1      0.000      0.000
REMARK SMILES COc1ccc([C@@H]2C(C#N)=C(N)N3C(=O)[C@H](CC(=O)NCCCCNC(=O)c4ccc(-c5c6nc(c(-c7cc(S(=O)(=O)[O-])ccc7F)c7ccc([nH]7)c(-c7cc(S(=O)(=O)[O-])ccc7F)c7nc(c(-c8cc(S(=O)(=O)[O-])ccc8F)c8ccc5[nH]8)C=C7)C=C6)cc4)SC3=C2C#N)cc1
REMARK SMILES IDX 22 1 21 2 20 3 18 4 19 5 17 7 16 8 7 9 8 10 93 11 11 12
REMARK SMILES IDX 92 13 13 14 91 15 14 16 15 17 6 18 3 19 4 20 97 21 5 22
REMARK SMILES IDX 96 23 2 24 1 25 9 26 10 27 94 28 95 29 12 30 23 33 24 34
REMARK SMILES IDX 25 35 26 36 27 38 28 39 29 40 90 41 30 42 89 43 31 44 32 45
REMARK SMILES IDX 33 46 83 47 34 48 88 49 82 50 84 51 35 52 87 53 81 54 80 55
REMARK SMILES IDX 36 57 68 58 48 59 67 60 49 61 52 62 66 63 85 64 50 65 51 66
REMARK SMILES IDX 65 68 86 69 53 70 37 71 38 72 46 73 39 74 45 75 47 76 44 77
REMARK SMILES IDX 40 78 41 79 42 80 43 81 69 82 70 83 78 84 71 85 77 86 79 87
REMARK SMILES IDX 76 88 72 89 73 90 74 91 75 92 54 93 55 94 63 95 56 96 62 97
REMARK SMILES IDX 64 98 61 99 57 100 58 101 59 102 60 103
REMARK H PARENT 20 6 12 31 12 32 25 37 84 56 52 67
REMARK Flexibility Score: inf
ROOT
ATOM      1  C   UNL A   1      41.022  23.283  26.492  1.00  0.00     0.023 C 
ENDROOT
BRANCH   1   2
ATOM      2  C   UNL A   1      39.658  22.683  26.816  1.00  0.00     0.116 C 
BRANCH   2   3
ATOM      3  N   UNL A   1      39.301  21.689  25.824  1.00  0.00    -0.356 N 
ATOM      4  C   UNL A   1      38.072  21.350  25.353  1.00  0.00     0.221 C 
ATOM      5  O   UNL A   1      37.951  20.344  24.654  1.00  0.00    -0.275 OA
ATOM      6  H   UNL A   1      40.055  21.188  25.438  1.00  0.00     0.163 HD
BRANCH   4   7
ATOM      7  C   UNL A   1      36.876  22.209  25.678  1.00  0.00     0.125 C 
BRANCH   7   8
ATOM      8  C   UNL A   1      35.754  21.963  24.681  1.00  0.00     0.152 C 
ATOM      9  C   UNL A   1      31.710  24.737  24.262  1.00  0.00     0.107 C 
ATOM     10  C   UNL A   1      31.561  24.114  25.633  1.00  0.00     0.083 C 
ATOM     11  C   UNL A   1      33.143  24.677  23.794  1.00  0.00     0.073 C 
ATOM     12  C   UNL A   1      32.489  23.237  26.094  1.00  0.00     0.126 C 
ATOM     13  C   UNL A   1      33.995  23.806  24.311  1.00  0.00     0.099 C 
ATOM     14  N   UNL A   1      33.630  22.959  25.315  1.00  0.00    -0.258 N 
ATOM     15  S   UNL A   1      35.561  23.472  23.669  1.00  0.00    -0.093 SA
ATOM     16  C   UNL A   1      34.386  21.798  25.346  1.00  0.00     0.247 C 
ATOM     17  O   UNL A   1      33.964  20.731  25.763  1.00  0.00    -0.273 OA
BRANCH   9  18
ATOM     18  C   UNL A   1      31.087  26.121  24.121  1.00  0.00    -0.034 A 
ATOM     19  C   UNL A   1      29.930  28.660  23.722  1.00  0.00     0.118 A 
ATOM     20  C   UNL A   1      29.316  27.519  23.209  1.00  0.00     0.047 A 
ATOM     21  C   UNL A   1      31.105  28.529  24.463  1.00  0.00     0.047 A 
ATOM     22  C   UNL A   1      29.889  26.262  23.398  1.00  0.00     0.008 A 
ATOM     23  C   UNL A   1      31.681  27.269  24.664  1.00  0.00     0.008 A 
BRANCH  19  24
ATOM     24  O   UNL A   1      29.280  29.831  23.451  1.00  0.00    -0.497 OA
ATOM     25  C   UNL A   1      29.341  30.281  22.104  1.00  0.00     0.278 C 
ENDBRANCH  19  24
ENDBRANCH   9  18
BRANCH  10  26
ATOM     26  C   UNL A   1      30.270  24.413  26.378  1.00  0.00     0.100 C 
ATOM     27  N   UNL A   1      29.199  24.660  26.997  1.00  0.00    -0.193 NA
ENDBRANCH  10  26
BRANCH  11  28
ATOM     28  C   UNL A   1      33.566  25.571  22.640  1.00  0.00     0.098 C 
ATOM     29  N   UNL A   1      33.917  26.312  21.681  1.00  0.00    -0.193 NA
ENDBRANCH  11  28
BRANCH  12  30
ATOM     30  N   UNL A   1      32.344  22.642  27.315  1.00  0.00    -0.384 N 
ATOM     31  H   UNL A   1      33.011  22.803  28.023  1.00  0.00     0.158 HD
ATOM     32  H   UNL A   1      31.575  22.053  27.488  1.00  0.00     0.158 HD
ENDBRANCH  12  30
ENDBRANCH   7   8
ENDBRANCH   4   7
ENDBRANCH   2   3
ENDBRANCH   1   2
BRANCH   1  33
ATOM     33  C   UNL A   1      42.036  22.370  25.857  1.00  0.00     0.023 C 
BRANCH  33  34
ATOM     34  C   UNL A   1      43.237  22.083  26.727  1.00  0.00     0.116 C 
BRANCH  34  35
ATOM     35  N   UNL A   1      44.338  21.398  26.055  1.00  0.00    -0.352 N 
ATOM     36  C   UNL A   1      45.546  21.928  25.626  1.00  0.00     0.251 C 
ATOM     37  H   UNL A   1      44.205  20.436  25.886  1.00  0.00     0.163 HD
ATOM     38  O   UNL A   1      46.351  21.246  25.034  1.00  0.00    -0.269 OA
BRANCH  36  39
ATOM     39  C   UNL A   1      45.768  23.371  25.869  1.00  0.00     0.039 A 
ATOM     40  C   UNL A   1      45.319  24.294  24.926  1.00  0.00     0.014 A 
ATOM     41  C   UNL A   1      46.215  23.785  27.123  1.00  0.00     0.014 A 
ATOM     42  C   UNL A   1      45.199  25.636  25.296  1.00  0.00     0.010 A 
ATOM     43  C   UNL A   1      45.949  25.081  27.530  1.00  0.00     0.010 A 
ATOM     44  C   UNL A   1      45.443  26.026  26.623  1.00  0.00    -0.014 A 
BRANCH  44  45
ATOM     45  C   UNL A   1      45.209  27.416  27.098  1.00  0.00     0.031 A 
ATOM     46  C   UNL A   1      46.362  28.386  27.105  1.00  0.00     0.074 A 
ATOM     47  C   UNL A   1      44.018  27.772  27.620  1.00  0.00     0.049 A 
ATOM     48  N   UNL A   1      46.445  29.575  27.641  1.00  0.00    -0.248 NA
ATOM     49  C   UNL A   1      47.614  27.920  26.486  1.00  0.00     0.031 C 
ATOM     50  C   UNL A   1      42.843  26.903  27.745  1.00  0.00     0.029 A 
ATOM     51  N   UNL A   1      43.599  28.964  28.157  1.00  0.00    -0.354 N 
ATOM     52  C   UNL A   1      47.768  29.970  27.471  1.00  0.00     0.074 A 
ATOM     53  C   UNL A   1      48.465  28.858  26.862  1.00  0.00     0.031 C 
ATOM     54  C   UNL A   1      41.831  27.603  28.282  1.00  0.00     0.029 A 
ATOM     55  C   UNL A   1      42.290  28.954  28.584  1.00  0.00     0.049 A 
ATOM     56  H   UNL A   1      44.182  29.755  28.229  1.00  0.00     0.167 HD
ATOM     57  C   UNL A   1      48.344  31.163  27.760  1.00  0.00     0.034 A 
ATOM     58  C   UNL A   1      41.551  29.924  29.157  1.00  0.00     0.034 A 
ATOM     59  C   UNL A   1      47.616  32.283  28.296  1.00  0.00     0.049 A 
ATOM     60  C   UNL A   1      42.189  31.267  29.406  1.00  0.00     0.074 A 
ATOM     61  C   UNL A   1      48.065  33.566  28.548  1.00  0.00     0.029 A 
ATOM     62  N   UNL A   1      46.273  32.254  28.651  1.00  0.00    -0.354 N 
ATOM     63  N   UNL A   1      43.430  31.643  29.196  1.00  0.00    -0.248 NA
ATOM     64  C   UNL A   1      41.326  32.319  29.956  1.00  0.00     0.031 C 
ATOM     65  C   UNL A   1      47.006  34.302  29.090  1.00  0.00     0.029 A 
ATOM     66  C   UNL A   1      45.880  33.494  29.126  1.00  0.00     0.049 A 
ATOM     67  H   UNL A   1      45.685  31.468  28.574  1.00  0.00     0.167 HD
ATOM     68  C   UNL A   1      43.488  32.983  29.566  1.00  0.00     0.074 A 
ATOM     69  C   UNL A   1      42.155  33.351  29.997  1.00  0.00     0.031 C 
ATOM     70  C   UNL A   1      44.545  33.834  29.551  1.00  0.00     0.034 A 
BRANCH  57  71
ATOM     71  C   UNL A   1      49.825  31.294  27.499  1.00  0.00     0.023 A 
ATOM     72  C   UNL A   1      50.316  31.912  26.334  1.00  0.00     0.031 A 
ATOM     73  C   UNL A   1      50.758  30.735  28.387  1.00  0.00     0.131 A 
ATOM     74  C   UNL A   1      51.685  31.858  26.036  1.00  0.00     0.055 A 
ATOM     75  C   UNL A   1      52.131  30.772  28.132  1.00  0.00     0.041 A 
ATOM     76  F   UNL A   1      50.352  30.116  29.506  1.00  0.00    -0.206 F 
ATOM     77  C   UNL A   1      52.600  31.317  26.939  1.00  0.00     0.022 A 
BRANCH  74  78
ATOM     78  S   UNL A   1      52.224  32.348  24.375  1.00  0.00     0.124 S 
ATOM     79  O   UNL A   1      53.671  32.443  24.554  1.00  0.00    -0.237 OA
ATOM     80  O   UNL A   1      51.755  31.240  23.550  1.00  0.00    -0.237 OA
ATOM     81  O   UNL A   1      51.544  33.622  24.156  1.00  0.00    -0.744 OA
ENDBRANCH  74  78
ENDBRANCH  57  71
BRANCH  58  82
ATOM     82  C   UNL A   1      40.129  29.679  29.526  1.00  0.00     0.023 A 
ATOM     83  C   UNL A   1      39.756  29.493  30.867  1.00  0.00     0.031 A 
ATOM     84  C   UNL A   1      39.128  29.589  28.544  1.00  0.00     0.131 A 
ATOM     85  C   UNL A   1      38.425  29.182  31.188  1.00  0.00     0.055 A 
ATOM     86  C   UNL A   1      37.797  29.321  28.871  1.00  0.00     0.041 A 
ATOM     87  F   UNL A   1      39.430  29.769  27.249  1.00  0.00    -0.206 F 
ATOM     88  C   UNL A   1      37.442  29.103  30.200  1.00  0.00     0.022 A 
BRANCH  85  89
ATOM     89  S   UNL A   1      38.014  28.810  32.915  1.00  0.00     0.124 S 
ATOM     90  O   UNL A   1      39.099  29.472  33.630  1.00  0.00    -0.237 OA
ATOM     91  O   UNL A   1      36.693  29.416  33.048  1.00  0.00    -0.237 OA
ATOM     92  O   UNL A   1      38.033  27.349  32.962  1.00  0.00    -0.744 OA
ENDBRANCH  85  89
ENDBRANCH  58  82
BRANCH  70  93
ATOM     93  C   UNL A   1      44.277  35.255  29.970  1.00  0.00     0.023 A 
ATOM     94  C   UNL A   1      44.234  35.627  31.325  1.00  0.00     0.031 A 
ATOM     95  C   UNL A   1      44.059  36.247  28.999  1.00  0.00     0.131 A 
ATOM     96  C   UNL A   1      43.930  36.951  31.672  1.00  0.00     0.055 A 
ATOM     97  C   UNL A   1      43.807  37.573  29.349  1.00  0.00     0.041 A 
ATOM     98  F   UNL A   1      44.091  35.941  27.691  1.00  0.00    -0.206 F 
ATOM     99  C   UNL A   1      43.730  37.928  30.693  1.00  0.00     0.022 A 
BRANCH  96 100
ATOM    100  S   UNL A   1      43.727  37.364  33.426  1.00  0.00     0.124 S 
ATOM    101  O   UNL A   1      43.067  38.664  33.357  1.00  0.00    -0.237 OA
ATOM    102  O   UNL A   1      42.909  36.258  33.914  1.00  0.00    -0.237 OA
ATOM    103  O   UNL A   1      45.097  37.390  33.934  1.00  0.00    -0.744 OA
ENDBRANCH  96 100
ENDBRANCH  70  93
ENDBRANCH  44  45
ENDBRANCH  36  39
ENDBRANCH  34  35
ENDBRANCH  33  34
ENDBRANCH   1  33
TORSDOF 20
ENDMDL
MODEL 2
REMARK VINA RESULT:     -10.9      5.925      9.937
REMARK SMILES COc1ccc([C@@H]2C(C#N)=C(N)N3C(=O)[C@H](CC(=O)NCCCCNC(=O)c4ccc(-c5c6nc(c(-c7cc(S(=O)(=O)[O-])ccc7F)c7ccc([nH]7)c(-c7cc(S(=O)(=O)[O-])ccc7F)c7nc(c(-c8cc(S(=O)(=O)[O-])ccc8F)c8ccc5[nH]8)C=C7)C=C6)cc4)SC3=C2C#N)cc1
REMARK SMILES IDX 22 1 21 2 20 3 18 4 19 5 17 7 16 8 7 9 8 10 93 11 11 12
REMARK SMILES IDX 92 13 13 14 91 15 14 16 15 17 6 18 3 19 4 20 97 21 5 22
REMARK SMILES IDX 96 23 2 24 1 25 9 26 10 27 94 28 95 29 12 30 23 33 24 34
REMARK SMILES IDX 25 35 26 36 27 38 28 39 29 40 90 41 30 42 89 43 31 44 32 45
REMARK SMILES IDX 33 46 83 47 34 48 88 49 82 50 84 51 35 52 87 53 81 54 80 55
REMARK SMILES IDX 36 57 68 58 48 59 67 60 49 61 52 62 66 63 85 64 50 65 51 66
REMARK SMILES IDX 65 68 86 69 53 70 37 71 38 72 46 73 39 74 45 75 47 76 44 77
REMARK SMILES IDX 40 78 41 79 42 80 43 81 69 82 70 83 78 84 71 85 77 86 79 87
REMARK SMILES IDX 76 88 72 89 73 90 74 91 75 92 54 93 55 94 63 95 56 96 62 97
REMARK SMILES IDX 64 98 61 99 57 100 58 101 59 102 60 103
REMARK H PARENT 20 6 12 31 12 32 25 37 84 56 52 67
REMARK Flexibility Score: inf
ROOT
ATOM      1  C   UNL A   1      31.817  30.951  26.884  1.00  0.00     0.023 C 
ENDROOT
BRANCH   1   2
ATOM      2  C   UNL A   1      31.517  31.115  25.398  1.00  0.00     0.116 C 
BRANCH   2   3
ATOM      3  N   UNL A   1      30.698  30.015  24.930  1.00  0.00    -0.356 N 
ATOM      4  C   UNL A   1      31.008  29.029  24.047  1.00  0.00     0.221 C 
ATOM      5  O   UNL A   1      30.116  28.295  23.624  1.00  0.00    -0.275 OA
ATOM      6  H   UNL A   1      29.789  29.976  25.303  1.00  0.00     0.163 HD
BRANCH   4   7
ATOM      7  C   UNL A   1      32.438  28.836  23.604  1.00  0.00     0.125 C 
BRANCH   7   8
ATOM      8  C   UNL A   1      33.204  28.001  24.617  1.00  0.00     0.152 C 
ATOM      9  C   UNL A   1      32.617  23.159  25.284  1.00  0.00     0.107 C 
ATOM     10  C   UNL A   1      31.288  23.733  25.728  1.00  0.00     0.083 C 
ATOM     11  C   UNL A   1      33.365  24.140  24.416  1.00  0.00     0.073 C 
ATOM     12  C   UNL A   1      31.083  25.075  25.723  1.00  0.00     0.126 C 
ATOM     13  C   UNL A   1      33.089  25.434  24.451  1.00  0.00     0.099 C 
ATOM     14  N   UNL A   1      32.091  25.931  25.236  1.00  0.00    -0.258 N 
ATOM     15  S   UNL A   1      34.053  26.659  23.712  1.00  0.00    -0.093 SA
ATOM     16  C   UNL A   1      32.291  27.255  25.593  1.00  0.00     0.247 C 
ATOM     17  O   UNL A   1      31.870  27.744  26.630  1.00  0.00    -0.273 OA
BRANCH   9  18
ATOM     18  C   UNL A   1      32.536  21.760  24.684  1.00  0.00    -0.034 A 
ATOM     19  C   UNL A   1      32.522  19.156  23.608  1.00  0.00     0.118 A 
ATOM     20  C   UNL A   1      32.931  19.371  24.923  1.00  0.00     0.047 A 
ATOM     21  C   UNL A   1      32.089  20.237  22.841  1.00  0.00     0.047 A 
ATOM     22  C   UNL A   1      32.946  20.659  25.456  1.00  0.00     0.008 A 
ATOM     23  C   UNL A   1      32.093  21.532  23.373  1.00  0.00     0.008 A 
BRANCH  19  24
ATOM     24  O   UNL A   1      32.572  17.852  23.199  1.00  0.00    -0.497 OA
ATOM     25  C   UNL A   1      33.828  17.202  23.341  1.00  0.00     0.278 C 
ENDBRANCH  19  24
ENDBRANCH   9  18
BRANCH  10  26
ATOM     26  C   UNL A   1      30.281  22.749  26.302  1.00  0.00     0.100 C 
ATOM     27  N   UNL A   1      29.445  21.933  26.777  1.00  0.00    -0.193 NA
ENDBRANCH  10  26
BRANCH  11  28
ATOM     28  C   UNL A   1      34.518  23.625  23.570  1.00  0.00     0.098 C 
ATOM     29  N   UNL A   1      35.475  23.197  22.867  1.00  0.00    -0.193 NA
ENDBRANCH  11  28
BRANCH  12  30
ATOM     30  N   UNL A   1      29.900  25.604  26.156  1.00  0.00    -0.384 N 
ATOM     31  H   UNL A   1      29.553  26.431  25.750  1.00  0.00     0.158 HD
ATOM     32  H   UNL A   1      29.395  25.158  26.873  1.00  0.00     0.158 HD
ENDBRANCH  12  30
ENDBRANCH   7   8
ENDBRANCH   4   7
ENDBRANCH   2   3
ENDBRANCH   1   2
BRANCH   1  33
ATOM     33  C   UNL A   1      33.236  30.618  27.261  1.00  0.00     0.023 C 
BRANCH  33  34
ATOM     34  C   UNL A   1      34.074  31.819  27.632  1.00  0.00     0.116 C 
BRANCH  34  35
ATOM     35  N   UNL A   1      33.340  33.078  27.730  1.00  0.00    -0.352 N 
ATOM     36  C   UNL A   1      33.513  34.103  28.649  1.00  0.00     0.251 C 
ATOM     37  H   UNL A   1      32.633  33.215  27.059  1.00  0.00     0.163 HD
ATOM     38  O   UNL A   1      32.793  35.075  28.641  1.00  0.00    -0.269 OA
BRANCH  36  39
ATOM     39  C   UNL A   1      34.570  33.918  29.668  1.00  0.00     0.039 A 
ATOM     40  C   UNL A   1      34.329  33.071  30.748  1.00  0.00     0.014 A 
ATOM     41  C   UNL A   1      35.850  34.411  29.414  1.00  0.00     0.014 A 
ATOM     42  C   UNL A   1      35.410  32.614  31.506  1.00  0.00     0.010 A 
ATOM     43  C   UNL A   1      36.927  33.835  30.067  1.00  0.00     0.010 A 
ATOM     44  C   UNL A   1      36.723  32.934  31.124  1.00  0.00    -0.014 A 
BRANCH  44  45
ATOM     45  C   UNL A   1      37.912  32.372  31.820  1.00  0.00     0.031 A 
ATOM     46  C   UNL A   1      38.729  31.314  31.124  1.00  0.00     0.074 A 
ATOM     47  C   UNL A   1      38.190  32.717  33.093  1.00  0.00     0.049 A 
ATOM     48  N   UNL A   1      39.680  30.553  31.596  1.00  0.00    -0.248 NA
ATOM     49  C   UNL A   1      38.370  31.025  29.725  1.00  0.00     0.031 C 
ATOM     50  C   UNL A   1      37.431  33.671  33.907  1.00  0.00     0.029 A 
ATOM     51  N   UNL A   1      39.188  32.293  33.935  1.00  0.00    -0.354 N 
ATOM     52  C   UNL A   1      39.992  29.664  30.572  1.00  0.00     0.074 A 
ATOM     53  C   UNL A   1      39.068  29.928  29.491  1.00  0.00     0.031 C 
ATOM     54  C   UNL A   1      38.014  33.787  35.112  1.00  0.00     0.029 A 
ATOM     55  C   UNL A   1      39.159  32.886  35.177  1.00  0.00     0.049 A 
ATOM     56  H   UNL A   1      39.863  31.625  33.675  1.00  0.00     0.167 HD
ATOM     57  C   UNL A   1      40.981  28.739  30.520  1.00  0.00     0.034 A 
ATOM     58  C   UNL A   1      39.964  32.717  36.245  1.00  0.00     0.034 A 
ATOM     59  C   UNL A   1      41.939  28.545  31.579  1.00  0.00     0.049 A 
ATOM     60  C   UNL A   1      41.102  31.734  36.143  1.00  0.00     0.074 A 
ATOM     61  C   UNL A   1      43.036  27.704  31.608  1.00  0.00     0.029 A 
ATOM     62  N   UNL A   1      41.917  29.216  32.794  1.00  0.00    -0.354 N 
ATOM     63  N   UNL A   1      41.415  30.934  35.150  1.00  0.00    -0.248 NA
ATOM     64  C   UNL A   1      42.001  31.641  37.300  1.00  0.00     0.031 C 
ATOM     65  C   UNL A   1      43.656  27.839  32.855  1.00  0.00     0.029 A 
ATOM     66  C   UNL A   1      42.977  28.803  33.583  1.00  0.00     0.049 A 
ATOM     67  H   UNL A   1      41.248  29.889  33.057  1.00  0.00     0.167 HD
ATOM     68  C   UNL A   1      42.564  30.260  35.554  1.00  0.00     0.074 A 
ATOM     69  C   UNL A   1      42.894  30.760  36.873  1.00  0.00     0.031 C 
ATOM     70  C   UNL A   1      43.283  29.316  34.897  1.00  0.00     0.034 A 
BRANCH  57  71
ATOM     71  C   UNL A   1      41.059  27.882  29.281  1.00  0.00     0.023 A 
ATOM     72  C   UNL A   1      42.073  28.062  28.322  1.00  0.00     0.031 A 
ATOM     73  C   UNL A   1      40.069  26.921  29.015  1.00  0.00     0.131 A 
ATOM     74  C   UNL A   1      42.013  27.376  27.101  1.00  0.00     0.055 A 
ATOM     75  C   UNL A   1      40.072  26.168  27.838  1.00  0.00     0.041 A 
ATOM     76  F   UNL A   1      39.065  26.715  29.881  1.00  0.00    -0.206 F 
ATOM     77  C   UNL A   1      41.036  26.410  26.862  1.00  0.00     0.022 A 
BRANCH  74  78
ATOM     78  S   UNL A   1      43.128  27.894  25.767  1.00  0.00     0.124 S 
ATOM     79  O   UNL A   1      44.139  26.838  25.805  1.00  0.00    -0.237 OA
ATOM     80  O   UNL A   1      42.250  27.893  24.602  1.00  0.00    -0.237 OA
ATOM     81  O   UNL A   1      43.593  29.209  26.200  1.00  0.00    -0.744 OA
ENDBRANCH  74  78
ENDBRANCH  57  71
BRANCH  58  82
ATOM     82  C   UNL A   1      39.740  33.493  37.496  1.00  0.00     0.023 A 
ATOM     83  C   UNL A   1      39.129  32.899  38.612  1.00  0.00     0.031 A 
ATOM     84  C   UNL A   1      40.097  34.850  37.584  1.00  0.00     0.131 A 
ATOM     85  C   UNL A   1      38.852  33.668  39.753  1.00  0.00     0.055 A 
ATOM     86  C   UNL A   1      39.859  35.601  38.737  1.00  0.00     0.041 A 
ATOM     87  F   UNL A   1      40.694  35.463  36.550  1.00  0.00    -0.206 F 
ATOM     88  C   UNL A   1      39.221  35.013  39.827  1.00  0.00     0.022 A 
BRANCH  85  89
ATOM     89  S   UNL A   1      37.935  32.899  41.116  1.00  0.00     0.124 S 
ATOM     90  O   UNL A   1      38.102  31.480  40.826  1.00  0.00    -0.237 OA
ATOM     91  O   UNL A   1      38.649  33.404  42.284  1.00  0.00    -0.237 OA
ATOM     92  O   UNL A   1      36.579  33.417  40.948  1.00  0.00    -0.744 OA
ENDBRANCH  85  89
ENDBRANCH  58  82
BRANCH  70  93
ATOM     93  C   UNL A   1      44.520  28.805  35.584  1.00  0.00     0.023 A 
ATOM     94  C   UNL A   1      44.493  27.655  36.391  1.00  0.00     0.031 A 
ATOM     95  C   UNL A   1      45.742  29.482  35.430  1.00  0.00     0.131 A 
ATOM     96  C   UNL A   1      45.657  27.243  37.055  1.00  0.00     0.055 A 
ATOM     97  C   UNL A   1      46.909  29.040  36.053  1.00  0.00     0.041 A 
ATOM     98  F   UNL A   1      45.820  30.586  34.669  1.00  0.00    -0.206 F 
ATOM     99  C   UNL A   1      46.867  27.921  36.880  1.00  0.00     0.022 A 
BRANCH  96 100
ATOM    100  S   UNL A   1      45.552  25.851  38.211  1.00  0.00     0.124 S 
ATOM    101  O   UNL A   1      45.965  26.467  39.467  1.00  0.00    -0.237 OA
ATOM    102  O   UNL A   1      44.145  25.474  38.118  1.00  0.00    -0.237 OA
ATOM    103  O   UNL A   1      46.491  24.875  37.660  1.00  0.00    -0.744 OA
ENDBRANCH  96 100
ENDBRANCH  70  93
ENDBRANCH  44  45
ENDBRANCH  36  39
ENDBRANCH  34  35
ENDBRANCH  33  34
ENDBRANCH   1  33
TORSDOF 20
ENDMDL
MODEL 3
REMARK VINA RESULT:     -10.7      2.496      3.132
REMARK SMILES COc1ccc([C@@H]2C(C#N)=C(N)N3C(=O)[C@H](CC(=O)NCCCCNC(=O)c4ccc(-c5c6nc(c(-c7cc(S(=O)(=O)[O-])ccc7F)c7ccc([nH]7)c(-c7cc(S(=O)(=O)[O-])ccc7F)c7nc(c(-c8cc(S(=O)(=O)[O-])ccc8F)c8ccc5[nH]8)C=C7)C=C6)cc4)SC3=C2C#N)cc1
REMARK SMILES IDX 22 1 21 2 20 3 18 4 19 5 17 7 16 8 7 9 8 10 93 11 11 12
REMARK SMILES IDX 92 13 13 14 91 15 14 16 15 17 6 18 3 19 4 20 97 21 5 22
REMARK SMILES IDX 96 23 2 24 1 25 9 26 10 27 94 28 95 29 12 30 23 33 24 34
REMARK SMILES IDX 25 35 26 36 27 38 28 39 29 40 90 41 30 42 89 43 31 44 32 45
REMARK SMILES IDX 33 46 83 47 34 48 88 49 82 50 84 51 35 52 87 53 81 54 80 55
REMARK SMILES IDX 36 57 68 58 48 59 67 60 49 61 52 62 66 63 85 64 50 65 51 66
REMARK SMILES IDX 65 68 86 69 53 70 37 71 38 72 46 73 39 74 45 75 47 76 44 77
REMARK SMILES IDX 40 78 41 79 42 80 43 81 69 82 70 83 78 84 71 85 77 86 79 87
REMARK SMILES IDX 76 88 72 89 73 90 74 91 75 92 54 93 55 94 63 95 56 96 62 97
REMARK SMILES IDX 64 98 61 99 57 100 58 101 59 102 60 103
REMARK H PARENT 20 6 12 31 12 32 25 37 84 56 52 67
REMARK Flexibility Score: inf
ROOT
ATOM      1  C   UNL A   1      40.635  21.747  26.350  1.00  0.00     0.023 C 
ENDROOT
BRANCH   1   2
ATOM      2  C   UNL A   1      39.166  22.081  26.115  1.00  0.00     0.116 C 
BRANCH   2   3
ATOM      3  N   UNL A   1      38.491  20.961  25.490  1.00  0.00    -0.356 N 
ATOM      4  C   UNL A   1      37.165  20.780  25.257  1.00  0.00     0.221 C 
ATOM      5  O   UNL A   1      36.763  19.676  24.891  1.00  0.00    -0.275 OA
ATOM      6  H   UNL A   1      39.077  20.229  25.192  1.00  0.00     0.163 HD
BRANCH   4   7
ATOM      7  C   UNL A   1      36.203  21.928  25.437  1.00  0.00     0.125 C 
BRANCH   7   8
ATOM      8  C   UNL A   1      35.051  21.819  24.450  1.00  0.00     0.152 C 
ATOM      9  C   UNL A   1      31.358  25.052  24.077  1.00  0.00     0.107 C 
ATOM     10  C   UNL A   1      31.149  24.446  25.449  1.00  0.00     0.083 C 
ATOM     11  C   UNL A   1      32.769  24.825  23.596  1.00  0.00     0.073 C 
ATOM     12  C   UNL A   1      31.972  23.463  25.898  1.00  0.00     0.126 C 
ATOM     13  C   UNL A   1      33.518  23.858  24.102  1.00  0.00     0.099 C 
ATOM     14  N   UNL A   1      33.065  23.056  25.108  1.00  0.00    -0.258 N 
ATOM     15  S   UNL A   1      35.028  23.345  23.444  1.00  0.00    -0.093 SA
ATOM     16  C   UNL A   1      33.679  21.814  25.127  1.00  0.00     0.247 C 
ATOM     17  O   UNL A   1      33.138  20.802  25.546  1.00  0.00    -0.273 OA
BRANCH   9  18
ATOM     18  C   UNL A   1      30.900  26.500  23.947  1.00  0.00    -0.034 A 
ATOM     19  C   UNL A   1      30.049  29.185  23.846  1.00  0.00     0.118 A 
ATOM     20  C   UNL A   1      31.162  28.828  24.605  1.00  0.00     0.047 A 
ATOM     21  C   UNL A   1      29.381  28.205  23.110  1.00  0.00     0.047 A 
ATOM     22  C   UNL A   1      31.582  27.500  24.664  1.00  0.00     0.008 A 
ATOM     23  C   UNL A   1      29.803  26.871  23.157  1.00  0.00     0.008 A 
BRANCH  19  24
ATOM     24  O   UNL A   1      29.728  30.513  23.888  1.00  0.00    -0.497 OA
ATOM     25  C   UNL A   1      30.337  31.268  24.926  1.00  0.00     0.278 C 
ENDBRANCH  19  24
ENDBRANCH   9  18
BRANCH  10  26
ATOM     26  C   UNL A   1      29.909  24.891  26.207  1.00  0.00     0.100 C 
ATOM     27  N   UNL A   1      28.881  25.261  26.837  1.00  0.00    -0.193 NA
ENDBRANCH  10  26
BRANCH  11  28
ATOM     28  C   UNL A   1      33.284  25.668  22.440  1.00  0.00     0.098 C 
ATOM     29  N   UNL A   1      33.711  26.367  21.480  1.00  0.00    -0.193 NA
ENDBRANCH  11  28
BRANCH  12  30
ATOM     30  N   UNL A   1      31.770  22.885  27.119  1.00  0.00    -0.384 N 
ATOM     31  H   UNL A   1      32.085  23.337  27.936  1.00  0.00     0.158 HD
ATOM     32  H   UNL A   1      31.309  22.018  27.183  1.00  0.00     0.158 HD
ENDBRANCH  12  30
ENDBRANCH   7   8
ENDBRANCH   4   7
ENDBRANCH   2   3
ENDBRANCH   1   2
BRANCH   1  33
ATOM     33  C   UNL A   1      40.940  20.706  27.393  1.00  0.00     0.023 C 
BRANCH  33  34
ATOM     34  C   UNL A   1      42.385  20.267  27.422  1.00  0.00     0.116 C 
BRANCH  34  35
ATOM     35  N   UNL A   1      42.827  19.517  26.249  1.00  0.00    -0.352 N 
ATOM     36  C   UNL A   1      43.664  19.937  25.226  1.00  0.00     0.251 C 
ATOM     37  H   UNL A   1      42.486  18.595  26.177  1.00  0.00     0.163 HD
ATOM     38  O   UNL A   1      43.906  19.218  24.283  1.00  0.00    -0.269 OA
BRANCH  36  39
ATOM     39  C   UNL A   1      44.189  21.318  25.314  1.00  0.00     0.039 A 
ATOM     40  C   UNL A   1      43.601  22.316  24.538  1.00  0.00     0.014 A 
ATOM     41  C   UNL A   1      45.098  21.634  26.322  1.00  0.00     0.014 A 
ATOM     42  C   UNL A   1      43.835  23.654  24.865  1.00  0.00     0.010 A 
ATOM     43  C   UNL A   1      45.203  22.951  26.735  1.00  0.00     0.010 A 
ATOM     44  C   UNL A   1      44.579  23.979  26.011  1.00  0.00    -0.014 A 
BRANCH  44  45
ATOM     45  C   UNL A   1      44.751  25.383  26.474  1.00  0.00     0.031 A 
ATOM     46  C   UNL A   1      46.127  25.997  26.438  1.00  0.00     0.074 A 
ATOM     47  C   UNL A   1      43.720  26.057  27.022  1.00  0.00     0.049 A 
ATOM     48  N   UNL A   1      46.551  27.119  26.955  1.00  0.00    -0.248 NA
ATOM     49  C   UNL A   1      47.183  25.199  25.792  1.00  0.00     0.031 C 
ATOM     50  C   UNL A   1      42.356  25.547  27.189  1.00  0.00     0.029 A 
ATOM     51  N   UNL A   1      43.663  27.321  27.554  1.00  0.00    -0.354 N 
ATOM     52  C   UNL A   1      47.926  27.132  26.745  1.00  0.00     0.074 A 
ATOM     53  C   UNL A   1      48.270  25.868  26.133  1.00  0.00     0.031 C 
ATOM     54  C   UNL A   1      41.591  26.503  27.743  1.00  0.00     0.029 A 
ATOM     55  C   UNL A   1      42.415  27.675  28.015  1.00  0.00     0.049 A 
ATOM     56  H   UNL A   1      44.443  27.920  27.601  1.00  0.00     0.167 HD
ATOM     57  C   UNL A   1      48.817  28.121  27.003  1.00  0.00     0.034 A 
ATOM     58  C   UNL A   1      41.989  28.816  28.594  1.00  0.00     0.034 A 
ATOM     59  C   UNL A   1      48.442  29.402  27.544  1.00  0.00     0.049 A 
ATOM     60  C   UNL A   1      42.980  29.931  28.808  1.00  0.00     0.074 A 
ATOM     61  C   UNL A   1      49.235  30.512  27.766  1.00  0.00     0.029 A 
ATOM     62  N   UNL A   1      47.154  29.747  27.933  1.00  0.00    -0.354 N 
ATOM     63  N   UNL A   1      44.270  29.948  28.561  1.00  0.00    -0.248 NA
ATOM     64  C   UNL A   1      42.457  31.184  29.367  1.00  0.00     0.031 C 
ATOM     65  C   UNL A   1      48.436  31.515  28.326  1.00  0.00     0.029 A 
ATOM     66  C   UNL A   1      47.133  31.050  28.402  1.00  0.00     0.049 A 
ATOM     67  H   UNL A   1      46.370  29.153  27.882  1.00  0.00     0.167 HD
ATOM     68  C   UNL A   1      44.707  31.222  28.912  1.00  0.00     0.074 A 
ATOM     69  C   UNL A   1      43.539  31.947  29.373  1.00  0.00     0.031 C 
ATOM     70  C   UNL A   1      45.956  31.748  28.858  1.00  0.00     0.034 A 
BRANCH  57  71
ATOM     71  C   UNL A   1      50.268  27.837  26.702  1.00  0.00     0.023 A 
ATOM     72  C   UNL A   1      51.190  27.550  27.726  1.00  0.00     0.031 A 
ATOM     73  C   UNL A   1      50.754  27.922  25.387  1.00  0.00     0.131 A 
ATOM     74  C   UNL A   1      52.559  27.469  27.433  1.00  0.00     0.055 A 
ATOM     75  C   UNL A   1      52.107  27.742  25.090  1.00  0.00     0.041 A 
ATOM     76  F   UNL A   1      49.928  28.211  24.370  1.00  0.00    -0.206 F 
ATOM     77  C   UNL A   1      53.022  27.536  26.119  1.00  0.00     0.022 A 
BRANCH  74  78
ATOM     78  S   UNL A   1      53.735  27.451  28.815  1.00  0.00     0.124 S 
ATOM     79  O   UNL A   1      54.985  27.128  28.130  1.00  0.00    -0.237 OA
ATOM     80  O   UNL A   1      53.627  28.808  29.339  1.00  0.00    -0.237 OA
ATOM     81  O   UNL A   1      53.221  26.400  29.689  1.00  0.00    -0.744 OA
ENDBRANCH  74  78
ENDBRANCH  57  71
BRANCH  58  82
ATOM     82  C   UNL A   1      40.566  28.975  29.004  1.00  0.00     0.023 A 
ATOM     83  C   UNL A   1      40.195  28.908  30.356  1.00  0.00     0.031 A 
ATOM     84  C   UNL A   1      39.551  29.158  28.049  1.00  0.00     0.131 A 
ATOM     85  C   UNL A   1      38.840  28.978  30.716  1.00  0.00     0.055 A 
ATOM     86  C   UNL A   1      38.208  29.271  28.415  1.00  0.00     0.041 A 
ATOM     87  F   UNL A   1      39.853  29.241  26.744  1.00  0.00    -0.206 F 
ATOM     88  C   UNL A   1      37.845  29.168  29.756  1.00  0.00     0.022 A 
BRANCH  85  89
ATOM     89  S   UNL A   1      38.392  28.745  32.459  1.00  0.00     0.124 S 
ATOM     90  O   UNL A   1      36.943  28.912  32.420  1.00  0.00    -0.237 OA
ATOM     91  O   UNL A   1      38.876  27.393  32.717  1.00  0.00    -0.237 OA
ATOM     92  O   UNL A   1      39.125  29.807  33.144  1.00  0.00    -0.744 OA
ENDBRANCH  85  89
ENDBRANCH  58  82
BRANCH  70  93
ATOM     93  C   UNL A   1      46.104  33.190  29.265  1.00  0.00     0.023 A 
ATOM     94  C   UNL A   1      45.912  34.237  28.348  1.00  0.00     0.031 A 
ATOM     95  C   UNL A   1      46.445  33.517  30.589  1.00  0.00     0.131 A 
ATOM     96  C   UNL A   1      46.111  35.563  28.756  1.00  0.00     0.055 A 
ATOM     97  C   UNL A   1      46.592  34.840  31.002  1.00  0.00     0.041 A 
ATOM     98  F   UNL A   1      46.638  32.551  31.503  1.00  0.00    -0.206 F 
ATOM     99  C   UNL A   1      46.436  35.872  30.080  1.00  0.00     0.022 A 
BRANCH  96 100
ATOM    100  S   UNL A   1      46.010  36.879  27.513  1.00  0.00     0.124 S 
ATOM    101  O   UNL A   1      47.291  36.747  26.826  1.00  0.00    -0.237 OA
ATOM    102  O   UNL A   1      44.832  36.492  26.744  1.00  0.00    -0.237 OA
ATOM    103  O   UNL A   1      45.856  38.094  28.310  1.00  0.00    -0.744 OA
ENDBRANCH  96 100
ENDBRANCH  70  93
ENDBRANCH  44  45
ENDBRANCH  36  39
ENDBRANCH  34  35
ENDBRANCH  33  34
ENDBRANCH   1  33
TORSDOF 20
ENDMDL
