MODEL 1
REMARK VINA RESULT:      -9.4      0.000      0.000
REMARK SMILES CN(C)C(=O)C[NH+]1CCN(c2cc(C(=O)NCCCCNC(=O)c3ccc(-c4c5nc(c(-c6cc(S(=O)(=O)[O-])ccc6F)c6ccc([nH]6)c(-c6cc(S(=O)(=O)[O-])ccc6F)c6nc(c(-c7cc(S(=O)(=O)[O-])ccc7F)c7ccc4[nH]7)C=C6)C=C5)cc3)c3cc(NC(=O)c4cccc(Cl)c4)ccc3n2)CC1
REMARK SMILES IDX 18 1 17 2 16 3 14 4 15 5 13 7 11 8 12 9 103 10 102 11 87 12
REMARK SMILES IDX 101 13 88 14 100 15 89 16 10 17 7 18 8 19 105 20 9 22 104 23
REMARK SMILES IDX 6 24 4 25 1 26 2 27 3 28 5 29 90 30 91 31 92 33 93 34 94 35
REMARK SMILES IDX 99 36 95 37 97 38 96 39 98 40 19 41 20 42 21 43 22 44 23 46
REMARK SMILES IDX 24 47 25 48 86 49 26 50 85 51 27 52 28 53 29 54 79 55 30 56
REMARK SMILES IDX 84 57 78 58 80 59 31 60 83 61 77 62 76 63 32 65 64 66 44 67
REMARK SMILES IDX 63 68 45 69 48 70 62 71 81 72 46 73 47 74 61 76 82 77 49 78
REMARK SMILES IDX 33 79 34 80 42 81 35 82 41 83 43 84 40 85 36 86 37 87 38 88
REMARK SMILES IDX 39 89 65 90 66 91 74 92 67 93 73 94 75 95 72 96 68 97 69 98
REMARK SMILES IDX 70 99 71 100 50 101 51 102 59 103 52 104 58 105 60 106
REMARK SMILES IDX 57 107 53 108 54 109 55 110 56 111
REMARK H PARENT 16 6 7 21 90 32 21 45 80 64 48 75
REMARK Flexibility Score: inf
ROOT
ATOM      1  C   UNL A   1      37.171  31.126  28.487  1.00  0.00     0.023 C 
ENDROOT
BRANCH   1   2
ATOM      2  C   UNL A   1      37.863  29.763  28.539  1.00  0.00     0.116 C 
BRANCH   2   3
ATOM      3  N   UNL A   1      37.663  28.957  29.742  1.00  0.00    -0.352 N 
ATOM      4  C   UNL A   1      38.481  28.140  30.512  1.00  0.00     0.252 C 
ATOM      5  O   UNL A   1      37.959  27.670  31.528  1.00  0.00    -0.269 OA
ATOM      6  H   UNL A   1      36.740  29.004  30.083  1.00  0.00     0.163 HD
BRANCH   4   7
ATOM      7  C   UNL A   1      39.906  27.722  30.218  1.00  0.00     0.052 A 
ATOM      8  C   UNL A   1      41.340  26.338  28.813  1.00  0.00     0.130 A 
ATOM      9  C   UNL A   1      40.079  26.844  29.131  1.00  0.00     0.061 A 
ATOM     10  N   UNL A   1      42.437  26.785  29.449  1.00  0.00    -0.231 NA
ATOM     11  C   UNL A   1      42.301  27.578  30.516  1.00  0.00     0.074 A 
ATOM     12  C   UNL A   1      41.047  27.986  30.996  1.00  0.00     0.015 A 
ATOM     13  C   UNL A   1      43.445  27.948  31.219  1.00  0.00     0.031 A 
ATOM     14  C   UNL A   1      41.004  28.524  32.284  1.00  0.00     0.037 A 
ATOM     15  C   UNL A   1      43.373  28.578  32.467  1.00  0.00     0.028 A 
ATOM     16  C   UNL A   1      42.133  28.776  33.052  1.00  0.00     0.042 A 
BRANCH   8  17
ATOM     17  N   UNL A   1      41.487  25.306  27.908  1.00  0.00    -0.345 N 
ATOM     18  N   UNL A   1      40.755  22.473  27.497  1.00  0.00    -0.324 N 
ATOM     19  C   UNL A   1      41.807  22.916  28.450  1.00  0.00     0.284 C 
ATOM     20  C   UNL A   1      39.767  23.581  27.374  1.00  0.00     0.284 C 
ATOM     21  H   UNL A   1      40.282  21.635  27.837  1.00  0.00     0.348 HD
ATOM     22  C   UNL A   1      42.492  24.269  28.120  1.00  0.00     0.179 C 
ATOM     23  C   UNL A   1      40.365  24.963  27.021  1.00  0.00     0.179 C 
BRANCH  18  24
ATOM     24  C   UNL A   1      41.355  22.110  26.191  1.00  0.00     0.363 C 
BRANCH  24  25
ATOM     25  C   UNL A   1      41.748  20.624  26.124  1.00  0.00     0.277 C 
ATOM     26  C   UNL A   1      43.406  18.891  25.755  1.00  0.00     0.146 C 
ATOM     27  N   UNL A   1      43.024  20.288  25.680  1.00  0.00    -0.344 N 
ATOM     28  C   UNL A   1      44.070  21.266  25.431  1.00  0.00     0.146 C 
ATOM     29  O   UNL A   1      40.931  19.760  26.461  1.00  0.00    -0.268 OA
ENDBRANCH  24  25
ENDBRANCH  18  24
ENDBRANCH   8  17
BRANCH  16  30
ATOM     30  N   UNL A   1      42.057  29.209  34.385  1.00  0.00    -0.322 N 
ATOM     31  C   UNL A   1      42.082  28.501  35.576  1.00  0.00     0.255 C 
ATOM     32  H   UNL A   1      41.971  30.184  34.493  1.00  0.00     0.170 HD
ATOM     33  O   UNL A   1      41.762  29.062  36.620  1.00  0.00    -0.269 OA
BRANCH  31  34
ATOM     34  C   UNL A   1      42.512  27.079  35.637  1.00  0.00     0.041 A 
ATOM     35  C   UNL A   1      41.520  26.095  35.658  1.00  0.00     0.014 A 
ATOM     36  C   UNL A   1      43.858  26.706  35.572  1.00  0.00     0.034 A 
ATOM     37  C   UNL A   1      41.858  24.748  35.500  1.00  0.00     0.002 A 
ATOM     38  C   UNL A   1      44.186  25.361  35.391  1.00  0.00     0.041 A 
ATOM     39  C   UNL A   1      43.192  24.384  35.336  1.00  0.00     0.020 A 
ATOM     40  Cl  UNL A   1      45.830  24.914  35.155  1.00  0.00    -0.084 Cl
ENDBRANCH  31  34
ENDBRANCH  16  30
ENDBRANCH   4   7
ENDBRANCH   2   3
ENDBRANCH   1   2
BRANCH   1  41
ATOM     41  C   UNL A   1      35.934  31.311  27.593  1.00  0.00     0.023 C 
BRANCH  41  42
ATOM     42  C   UNL A   1      34.508  31.100  28.129  1.00  0.00     0.116 C 
BRANCH  42  43
ATOM     43  N   UNL A   1      33.633  32.253  28.211  1.00  0.00    -0.352 N 
ATOM     44  C   UNL A   1      33.738  33.353  29.052  1.00  0.00     0.251 C 
ATOM     45  H   UNL A   1      32.868  32.257  27.592  1.00  0.00     0.163 HD
ATOM     46  O   UNL A   1      32.872  34.213  29.026  1.00  0.00    -0.269 OA
BRANCH  44  47
ATOM     47  C   UNL A   1      34.853  33.453  30.038  1.00  0.00     0.039 A 
ATOM     48  C   UNL A   1      34.927  32.488  31.047  1.00  0.00     0.014 A 
ATOM     49  C   UNL A   1      35.827  34.453  29.977  1.00  0.00     0.014 A 
ATOM     50  C   UNL A   1      36.033  32.455  31.906  1.00  0.00     0.010 A 
ATOM     51  C   UNL A   1      36.954  34.396  30.807  1.00  0.00     0.010 A 
ATOM     52  C   UNL A   1      37.089  33.370  31.751  1.00  0.00    -0.014 A 
BRANCH  52  53
ATOM     53  C   UNL A   1      38.371  33.167  32.486  1.00  0.00     0.031 A 
ATOM     54  C   UNL A   1      38.441  33.204  33.985  1.00  0.00     0.074 A 
ATOM     55  C   UNL A   1      39.498  32.980  31.768  1.00  0.00     0.049 A 
ATOM     56  N   UNL A   1      39.468  32.987  34.770  1.00  0.00    -0.248 NA
ATOM     57  C   UNL A   1      37.204  33.553  34.696  1.00  0.00     0.031 C 
ATOM     58  C   UNL A   1      39.570  32.989  30.304  1.00  0.00     0.029 A 
ATOM     59  N   UNL A   1      40.791  32.734  32.158  1.00  0.00    -0.354 N 
ATOM     60  C   UNL A   1      39.000  33.155  36.069  1.00  0.00     0.074 A 
ATOM     61  C   UNL A   1      37.614  33.565  35.957  1.00  0.00     0.031 C 
ATOM     62  C   UNL A   1      40.824  32.707  29.921  1.00  0.00     0.029 A 
ATOM     63  C   UNL A   1      41.658  32.535  31.106  1.00  0.00     0.049 A 
ATOM     64  H   UNL A   1      41.073  32.704  33.101  1.00  0.00     0.167 HD
ATOM     65  C   UNL A   1      39.658  32.962  37.243  1.00  0.00     0.034 A 
ATOM     66  C   UNL A   1      42.973  32.235  31.093  1.00  0.00     0.034 A 
ATOM     67  C   UNL A   1      41.049  32.575  37.333  1.00  0.00     0.049 A 
ATOM     68  C   UNL A   1      43.687  32.047  32.406  1.00  0.00     0.074 A 
ATOM     69  C   UNL A   1      41.806  32.325  38.465  1.00  0.00     0.029 A 
ATOM     70  N   UNL A   1      41.900  32.398  36.247  1.00  0.00    -0.354 N 
ATOM     71  N   UNL A   1      43.213  32.143  33.627  1.00  0.00    -0.248 NA
ATOM     72  C   UNL A   1      45.111  31.696  32.339  1.00  0.00     0.031 C 
ATOM     73  C   UNL A   1      43.124  32.064  38.070  1.00  0.00     0.029 A 
ATOM     74  C   UNL A   1      43.176  32.070  36.686  1.00  0.00     0.049 A 
ATOM     75  H   UNL A   1      41.636  32.491  35.304  1.00  0.00     0.167 HD
ATOM     76  C   UNL A   1      44.273  31.827  34.471  1.00  0.00     0.074 A 
ATOM     77  C   UNL A   1      45.405  31.526  33.619  1.00  0.00     0.031 C 
ATOM     78  C   UNL A   1      44.304  31.783  35.828  1.00  0.00     0.034 A 
BRANCH  65  79
ATOM     79  C   UNL A   1      38.878  33.191  38.518  1.00  0.00     0.023 A 
ATOM     80  C   UNL A   1      37.835  32.329  38.905  1.00  0.00     0.031 A 
ATOM     81  C   UNL A   1      39.150  34.297  39.343  1.00  0.00     0.131 A 
ATOM     82  C   UNL A   1      37.048  32.635  40.025  1.00  0.00     0.055 A 
ATOM     83  C   UNL A   1      38.418  34.547  40.507  1.00  0.00     0.041 A 
ATOM     84  F   UNL A   1      40.122  35.166  39.024  1.00  0.00    -0.206 F 
ATOM     85  C   UNL A   1      37.348  33.725  40.844  1.00  0.00     0.022 A 
BRANCH  82  86
ATOM     86  S   UNL A   1      35.528  31.682  40.300  1.00  0.00     0.124 S 
ATOM     87  O   UNL A   1      35.625  30.667  39.253  1.00  0.00    -0.237 OA
ATOM     88  O   UNL A   1      35.697  31.208  41.669  1.00  0.00    -0.237 OA
ATOM     89  O   UNL A   1      34.466  32.668  40.106  1.00  0.00    -0.744 OA
ENDBRANCH  82  86
ENDBRANCH  65  79
BRANCH  66  90
ATOM     90  C   UNL A   1      43.696  32.070  29.798  1.00  0.00     0.023 A 
ATOM     91  C   UNL A   1      43.655  30.856  29.095  1.00  0.00     0.031 A 
ATOM     92  C   UNL A   1      44.466  33.116  29.259  1.00  0.00     0.131 A 
ATOM     93  C   UNL A   1      44.404  30.701  27.918  1.00  0.00     0.055 A 
ATOM     94  C   UNL A   1      45.166  32.976  28.059  1.00  0.00     0.041 A 
ATOM     95  F   UNL A   1      44.534  34.302  29.886  1.00  0.00    -0.206 F 
ATOM     96  C   UNL A   1      45.147  31.758  27.388  1.00  0.00     0.022 A 
BRANCH  93  97
ATOM     97  S   UNL A   1      44.456  29.069  27.127  1.00  0.00     0.124 S 
ATOM     98  O   UNL A   1      45.122  28.266  28.146  1.00  0.00    -0.237 OA
ATOM     99  O   UNL A   1      43.039  28.791  26.914  1.00  0.00    -0.237 OA
ATOM    100  O   UNL A   1      45.232  29.305  25.912  1.00  0.00    -0.744 OA
ENDBRANCH  93  97
ENDBRANCH  66  90
BRANCH  78 101
ATOM    101  C   UNL A   1      45.601  31.346  36.468  1.00  0.00     0.023 A 
ATOM    102  C   UNL A   1      45.865  29.999  36.771  1.00  0.00     0.031 A 
ATOM    103  C   UNL A   1      46.580  32.301  36.800  1.00  0.00     0.131 A 
ATOM    104  C   UNL A   1      47.048  29.650  37.440  1.00  0.00     0.055 A 
ATOM    105  C   UNL A   1      47.783  31.940  37.409  1.00  0.00     0.041 A 
ATOM    106  F   UNL A   1      46.381  33.603  36.539  1.00  0.00    -0.206 F 
ATOM    107  C   UNL A   1      48.016  30.610  37.746  1.00  0.00     0.022 A 
BRANCH 104 108
ATOM    108  S   UNL A   1      47.262  27.938  38.000  1.00  0.00     0.124 S 
ATOM    109  O   UNL A   1      45.904  27.576  38.395  1.00  0.00    -0.237 OA
ATOM    110  O   UNL A   1      47.775  27.280  36.802  1.00  0.00    -0.237 OA
ATOM    111  O   UNL A   1      48.218  28.052  39.099  1.00  0.00    -0.744 OA
ENDBRANCH 104 108
ENDBRANCH  78 101
ENDBRANCH  52  53
ENDBRANCH  44  47
ENDBRANCH  42  43
ENDBRANCH  41  42
ENDBRANCH   1  41
TORSDOF 19
ENDMDL
MODEL 2
REMARK VINA RESULT:      -9.4      8.014     13.810
REMARK SMILES CN(C)C(=O)C[NH+]1CCN(c2cc(C(=O)NCCCCNC(=O)c3ccc(-c4c5nc(c(-c6cc(S(=O)(=O)[O-])ccc6F)c6ccc([nH]6)c(-c6cc(S(=O)(=O)[O-])ccc6F)c6nc(c(-c7cc(S(=O)(=O)[O-])ccc7F)c7ccc4[nH]7)C=C6)C=C5)cc3)c3cc(NC(=O)c4cccc(Cl)c4)ccc3n2)CC1
REMARK SMILES IDX 18 1 17 2 16 3 14 4 15 5 13 7 11 8 12 9 103 10 102 11 87 12
REMARK SMILES IDX 101 13 88 14 100 15 89 16 10 17 7 18 8 19 105 20 9 22 104 23
REMARK SMILES IDX 6 24 4 25 1 26 2 27 3 28 5 29 90 30 91 31 92 33 93 34 94 35
REMARK SMILES IDX 99 36 95 37 97 38 96 39 98 40 19 41 20 42 21 43 22 44 23 46
REMARK SMILES IDX 24 47 25 48 86 49 26 50 85 51 27 52 28 53 29 54 79 55 30 56
REMARK SMILES IDX 84 57 78 58 80 59 31 60 83 61 77 62 76 63 32 65 64 66 44 67
REMARK SMILES IDX 63 68 45 69 48 70 62 71 81 72 46 73 47 74 61 76 82 77 49 78
REMARK SMILES IDX 33 79 34 80 42 81 35 82 41 83 43 84 40 85 36 86 37 87 38 88
REMARK SMILES IDX 39 89 65 90 66 91 74 92 67 93 73 94 75 95 72 96 68 97 69 98
REMARK SMILES IDX 70 99 71 100 50 101 51 102 59 103 52 104 58 105 60 106
REMARK SMILES IDX 57 107 53 108 54 109 55 110 56 111
REMARK H PARENT 16 6 7 21 90 32 21 45 80 64 48 75
REMARK Flexibility Score: inf
ROOT
ATOM      1  C   UNL A   1      47.555  37.521  26.425  1.00  0.00     0.023 C 
ENDROOT
BRANCH   1   2
ATOM      2  C   UNL A   1      47.422  38.755  25.530  1.00  0.00     0.116 C 
BRANCH   2   3
ATOM      3  N   UNL A   1      47.511  40.063  26.177  1.00  0.00    -0.352 N 
ATOM      4  C   UNL A   1      46.615  41.102  26.394  1.00  0.00     0.252 C 
ATOM      5  O   UNL A   1      47.048  42.046  27.063  1.00  0.00    -0.269 OA
ATOM      6  H   UNL A   1      48.408  40.248  26.540  1.00  0.00     0.163 HD
BRANCH   4   7
ATOM      7  C   UNL A   1      45.203  41.230  25.863  1.00  0.00     0.052 A 
ATOM      8  C   UNL A   1      43.805  42.146  24.088  1.00  0.00     0.130 A 
ATOM      9  C   UNL A   1      45.065  41.908  24.637  1.00  0.00     0.061 A 
ATOM     10  N   UNL A   1      42.704  41.613  24.645  1.00  0.00    -0.231 NA
ATOM     11  C   UNL A   1      42.796  41.008  25.834  1.00  0.00     0.074 A 
ATOM     12  C   UNL A   1      44.012  40.887  26.525  1.00  0.00     0.015 A 
ATOM     13  C   UNL A   1      41.629  40.550  26.439  1.00  0.00     0.031 A 
ATOM     14  C   UNL A   1      43.943  40.546  27.878  1.00  0.00     0.037 A 
ATOM     15  C   UNL A   1      41.606  40.120  27.771  1.00  0.00     0.028 A 
ATOM     16  C   UNL A   1      42.762  40.216  28.530  1.00  0.00     0.042 A 
BRANCH   8  17
ATOM     17  N   UNL A   1      43.643  43.005  23.019  1.00  0.00    -0.345 N 
ATOM     18  N   UNL A   1      43.350  43.002  20.079  1.00  0.00    -0.324 N 
ATOM     19  C   UNL A   1      44.641  42.752  20.773  1.00  0.00     0.284 C 
ATOM     20  C   UNL A   1      42.259  42.562  20.994  1.00  0.00     0.284 C 
ATOM     21  H   UNL A   1      43.293  42.474  19.208  1.00  0.00     0.348 HD
ATOM     22  C   UNL A   1      44.782  43.378  22.186  1.00  0.00     0.179 C 
ATOM     23  C   UNL A   1      42.309  43.160  22.418  1.00  0.00     0.179 C 
BRANCH  18  24
ATOM     24  C   UNL A   1      43.226  44.432  19.708  1.00  0.00     0.363 C 
BRANCH  24  25
ATOM     25  C   UNL A   1      42.276  44.644  18.517  1.00  0.00     0.277 C 
ATOM     26  C   UNL A   1      41.855  45.442  16.264  1.00  0.00     0.146 C 
ATOM     27  N   UNL A   1      42.727  45.374  17.421  1.00  0.00    -0.344 N 
ATOM     28  C   UNL A   1      44.104  45.811  17.261  1.00  0.00     0.146 C 
ATOM     29  O   UNL A   1      41.135  44.167  18.553  1.00  0.00    -0.268 OA
ENDBRANCH  24  25
ENDBRANCH  18  24
ENDBRANCH   8  17
BRANCH  16  30
ATOM     30  N   UNL A   1      42.703  39.989  29.914  1.00  0.00    -0.322 N 
ATOM     31  C   UNL A   1      43.063  40.791  30.985  1.00  0.00     0.255 C 
ATOM     32  H   UNL A   1      42.343  39.108  30.167  1.00  0.00     0.170 HD
ATOM     33  O   UNL A   1      43.148  40.300  32.106  1.00  0.00    -0.269 OA
BRANCH  31  34
ATOM     34  C   UNL A   1      43.327  42.245  30.824  1.00  0.00     0.041 A 
ATOM     35  C   UNL A   1      42.951  43.099  31.864  1.00  0.00     0.014 A 
ATOM     36  C   UNL A   1      44.021  42.758  29.723  1.00  0.00     0.034 A 
ATOM     37  C   UNL A   1      43.361  44.434  31.866  1.00  0.00     0.002 A 
ATOM     38  C   UNL A   1      44.448  44.087  29.743  1.00  0.00     0.041 A 
ATOM     39  C   UNL A   1      44.137  44.921  30.817  1.00  0.00     0.020 A 
ATOM     40  Cl  UNL A   1      45.434  44.679  28.465  1.00  0.00    -0.084 Cl
ENDBRANCH  31  34
ENDBRANCH  16  30
ENDBRANCH   4   7
ENDBRANCH   2   3
ENDBRANCH   1   2
BRANCH   1  41
ATOM     41  C   UNL A   1      48.614  37.508  27.540  1.00  0.00     0.023 C 
BRANCH  41  42
ATOM     42  C   UNL A   1      48.251  37.178  28.998  1.00  0.00     0.116 C 
BRANCH  42  43
ATOM     43  N   UNL A   1      47.063  37.789  29.559  1.00  0.00    -0.352 N 
ATOM     44  C   UNL A   1      45.818  37.211  29.772  1.00  0.00     0.251 C 
ATOM     45  H   UNL A   1      47.148  38.735  29.820  1.00  0.00     0.163 HD
ATOM     46  O   UNL A   1      44.905  37.896  30.204  1.00  0.00    -0.269 OA
BRANCH  44  47
ATOM     47  C   UNL A   1      45.569  35.786  29.406  1.00  0.00     0.039 A 
ATOM     48  C   UNL A   1      45.907  34.800  30.337  1.00  0.00     0.014 A 
ATOM     49  C   UNL A   1      44.997  35.409  28.188  1.00  0.00     0.014 A 
ATOM     50  C   UNL A   1      45.560  33.464  30.099  1.00  0.00     0.010 A 
ATOM     51  C   UNL A   1      44.612  34.081  27.967  1.00  0.00     0.010 A 
ATOM     52  C   UNL A   1      44.851  33.102  28.941  1.00  0.00    -0.014 A 
BRANCH  52  53
ATOM     53  C   UNL A   1      44.257  31.739  28.820  1.00  0.00     0.031 A 
ATOM     54  C   UNL A   1      42.896  31.415  29.365  1.00  0.00     0.074 A 
ATOM     55  C   UNL A   1      44.990  30.771  28.231  1.00  0.00     0.049 A 
ATOM     56  N   UNL A   1      42.220  30.295  29.285  1.00  0.00    -0.248 NA
ATOM     57  C   UNL A   1      42.216  32.476  30.117  1.00  0.00     0.031 C 
ATOM     58  C   UNL A   1      46.353  30.946  27.721  1.00  0.00     0.029 A 
ATOM     59  N   UNL A   1      44.701  29.460  27.948  1.00  0.00    -0.354 N 
ATOM     60  C   UNL A   1      41.025  30.520  29.960  1.00  0.00     0.074 A 
ATOM     61  C   UNL A   1      41.107  31.861  30.505  1.00  0.00     0.031 C 
ATOM     62  C   UNL A   1      46.758  29.805  27.142  1.00  0.00     0.029 A 
ATOM     63  C   UNL A   1      45.705  28.804  27.271  1.00  0.00     0.049 A 
ATOM     64  H   UNL A   1      43.854  29.027  28.206  1.00  0.00     0.167 HD
ATOM     65  C   UNL A   1      39.953  29.695  30.092  1.00  0.00     0.034 A 
ATOM     66  C   UNL A   1      45.769  27.544  26.796  1.00  0.00     0.034 A 
ATOM     67  C   UNL A   1      39.900  28.350  29.561  1.00  0.00     0.049 A 
ATOM     68  C   UNL A   1      44.578  26.639  26.972  1.00  0.00     0.074 A 
ATOM     69  C   UNL A   1      38.857  27.440  29.611  1.00  0.00     0.029 A 
ATOM     70  N   UNL A   1      40.942  27.715  28.895  1.00  0.00    -0.354 N 
ATOM     71  N   UNL A   1      43.428  26.891  27.555  1.00  0.00    -0.248 NA
ATOM     72  C   UNL A   1      44.687  25.286  26.414  1.00  0.00     0.031 C 
ATOM     73  C   UNL A   1      39.289  26.238  29.038  1.00  0.00     0.029 A 
ATOM     74  C   UNL A   1      40.575  26.419  28.555  1.00  0.00     0.049 A 
ATOM     75  H   UNL A   1      41.813  28.124  28.692  1.00  0.00     0.167 HD
ATOM     76  C   UNL A   1      42.664  25.738  27.399  1.00  0.00     0.074 A 
ATOM     77  C   UNL A   1      43.480  24.798  26.658  1.00  0.00     0.031 C 
ATOM     78  C   UNL A   1      41.401  25.483  27.825  1.00  0.00     0.034 A 
BRANCH  65  79
ATOM     79  C   UNL A   1      38.763  30.225  30.862  1.00  0.00     0.023 A 
ATOM     80  C   UNL A   1      37.798  31.045  30.249  1.00  0.00     0.031 A 
ATOM     81  C   UNL A   1      38.603  29.940  32.230  1.00  0.00     0.131 A 
ATOM     82  C   UNL A   1      36.776  31.623  31.015  1.00  0.00     0.055 A 
ATOM     83  C   UNL A   1      37.531  30.448  32.970  1.00  0.00     0.041 A 
ATOM     84  F   UNL A   1      39.496  29.176  32.880  1.00  0.00    -0.206 F 
ATOM     85  C   UNL A   1      36.621  31.311  32.367  1.00  0.00     0.022 A 
BRANCH  82  86
ATOM     86  S   UNL A   1      35.754  32.916  30.258  1.00  0.00     0.124 S 
ATOM     87  O   UNL A   1      35.351  33.694  31.427  1.00  0.00    -0.237 OA
ATOM     88  O   UNL A   1      36.691  33.567  29.349  1.00  0.00    -0.237 OA
ATOM     89  O   UNL A   1      34.675  32.168  29.614  1.00  0.00    -0.744 OA
ENDBRANCH  82  86
ENDBRANCH  65  79
BRANCH  66  90
ATOM     90  C   UNL A   1      46.993  27.067  26.087  1.00  0.00     0.023 A 
ATOM     91  C   UNL A   1      48.021  26.407  26.780  1.00  0.00     0.031 A 
ATOM     92  C   UNL A   1      47.168  27.292  24.710  1.00  0.00     0.131 A 
ATOM     93  C   UNL A   1      49.194  26.034  26.106  1.00  0.00     0.055 A 
ATOM     94  C   UNL A   1      48.314  26.871  24.032  1.00  0.00     0.041 A 
ATOM     95  F   UNL A   1      46.213  27.911  23.997  1.00  0.00    -0.206 F 
ATOM     96  C   UNL A   1      49.341  26.249  24.734  1.00  0.00     0.022 A 
BRANCH  93  97
ATOM     97  S   UNL A   1      50.565  25.333  27.066  1.00  0.00     0.124 S 
ATOM     98  O   UNL A   1      51.476  24.903  26.012  1.00  0.00    -0.237 OA
ATOM     99  O   UNL A   1      50.994  26.479  27.860  1.00  0.00    -0.237 OA
ATOM    100  O   UNL A   1      49.931  24.256  27.824  1.00  0.00    -0.744 OA
ENDBRANCH  93  97
ENDBRANCH  66  90
BRANCH  78 101
ATOM    101  C   UNL A   1      40.811  24.143  27.452  1.00  0.00     0.023 A 
ATOM    102  C   UNL A   1      39.681  24.033  26.622  1.00  0.00     0.031 A 
ATOM    103  C   UNL A   1      41.377  22.958  27.956  1.00  0.00     0.131 A 
ATOM    104  C   UNL A   1      39.118  22.772  26.370  1.00  0.00     0.055 A 
ATOM    105  C   UNL A   1      40.851  21.703  27.650  1.00  0.00     0.041 A 
ATOM    106  F   UNL A   1      42.454  23.002  28.758  1.00  0.00    -0.206 F 
ATOM    107  C   UNL A   1      39.706  21.605  26.864  1.00  0.00     0.022 A 
BRANCH 104 108
ATOM    108  S   UNL A   1      37.547  22.683  25.469  1.00  0.00     0.124 S 
ATOM    109  O   UNL A   1      37.481  21.269  25.112  1.00  0.00    -0.237 OA
ATOM    110  O   UNL A   1      36.586  23.133  26.472  1.00  0.00    -0.237 OA
ATOM    111  O   UNL A   1      37.741  23.598  24.345  1.00  0.00    -0.744 OA
ENDBRANCH 104 108
ENDBRANCH  78 101
ENDBRANCH  52  53
ENDBRANCH  44  47
ENDBRANCH  42  43
ENDBRANCH  41  42
ENDBRANCH   1  41
TORSDOF 19
ENDMDL
MODEL 3
REMARK VINA RESULT:      -9.2      7.998     13.828
REMARK SMILES CN(C)C(=O)C[NH+]1CCN(c2cc(C(=O)NCCCCNC(=O)c3ccc(-c4c5nc(c(-c6cc(S(=O)(=O)[O-])ccc6F)c6ccc([nH]6)c(-c6cc(S(=O)(=O)[O-])ccc6F)c6nc(c(-c7cc(S(=O)(=O)[O-])ccc7F)c7ccc4[nH]7)C=C6)C=C5)cc3)c3cc(NC(=O)c4cccc(Cl)c4)ccc3n2)CC1
REMARK SMILES IDX 18 1 17 2 16 3 14 4 15 5 13 7 11 8 12 9 103 10 102 11 87 12
REMARK SMILES IDX 101 13 88 14 100 15 89 16 10 17 7 18 8 19 105 20 9 22 104 23
REMARK SMILES IDX 6 24 4 25 1 26 2 27 3 28 5 29 90 30 91 31 92 33 93 34 94 35
REMARK SMILES IDX 99 36 95 37 97 38 96 39 98 40 19 41 20 42 21 43 22 44 23 46
REMARK SMILES IDX 24 47 25 48 86 49 26 50 85 51 27 52 28 53 29 54 79 55 30 56
REMARK SMILES IDX 84 57 78 58 80 59 31 60 83 61 77 62 76 63 32 65 64 66 44 67
REMARK SMILES IDX 63 68 45 69 48 70 62 71 81 72 46 73 47 74 61 76 82 77 49 78
REMARK SMILES IDX 33 79 34 80 42 81 35 82 41 83 43 84 40 85 36 86 37 87 38 88
REMARK SMILES IDX 39 89 65 90 66 91 74 92 67 93 73 94 75 95 72 96 68 97 69 98
REMARK SMILES IDX 70 99 71 100 50 101 51 102 59 103 52 104 58 105 60 106
REMARK SMILES IDX 57 107 53 108 54 109 55 110 56 111
REMARK H PARENT 16 6 7 21 90 32 21 45 80 64 48 75
REMARK Flexibility Score: inf
ROOT
ATOM      1  C   UNL A   1      47.178  37.626  26.484  1.00  0.00     0.023 C 
ENDROOT
BRANCH   1   2
ATOM      2  C   UNL A   1      47.074  38.754  25.456  1.00  0.00     0.116 C 
BRANCH   2   3
ATOM      3  N   UNL A   1      47.267  40.120  25.941  1.00  0.00    -0.352 N 
ATOM      4  C   UNL A   1      46.455  41.243  26.029  1.00  0.00     0.252 C 
ATOM      5  O   UNL A   1      46.963  42.225  26.580  1.00  0.00    -0.269 OA
ATOM      6  H   UNL A   1      48.178  40.279  26.280  1.00  0.00     0.163 HD
BRANCH   4   7
ATOM      7  C   UNL A   1      45.053  41.413  25.483  1.00  0.00     0.052 A 
ATOM      8  C   UNL A   1      43.702  42.366  23.691  1.00  0.00     0.130 A 
ATOM      9  C   UNL A   1      44.948  42.091  24.253  1.00  0.00     0.061 A 
ATOM     10  N   UNL A   1      42.578  41.870  24.239  1.00  0.00    -0.231 NA
ATOM     11  C   UNL A   1      42.640  41.267  25.431  1.00  0.00     0.074 A 
ATOM     12  C   UNL A   1      43.844  41.110  26.135  1.00  0.00     0.015 A 
ATOM     13  C   UNL A   1      41.453  40.849  26.026  1.00  0.00     0.031 A 
ATOM     14  C   UNL A   1      43.751  40.778  27.488  1.00  0.00     0.037 A 
ATOM     15  C   UNL A   1      41.404  40.425  27.360  1.00  0.00     0.028 A 
ATOM     16  C   UNL A   1      42.554  40.488  28.129  1.00  0.00     0.042 A 
BRANCH   8  17
ATOM     17  N   UNL A   1      43.577  43.225  22.618  1.00  0.00    -0.345 N 
ATOM     18  N   UNL A   1      43.373  43.222  19.670  1.00  0.00    -0.324 N 
ATOM     19  C   UNL A   1      44.641  42.965  20.402  1.00  0.00     0.284 C 
ATOM     20  C   UNL A   1      42.252  42.790  20.551  1.00  0.00     0.284 C 
ATOM     21  H   UNL A   1      43.340  42.694  18.798  1.00  0.00     0.348 HD
ATOM     22  C   UNL A   1      44.743  43.590  21.819  1.00  0.00     0.179 C 
ATOM     23  C   UNL A   1      42.263  43.388  21.977  1.00  0.00     0.179 C 
BRANCH  18  24
ATOM     24  C   UNL A   1      43.270  44.653  19.294  1.00  0.00     0.363 C 
BRANCH  24  25
ATOM     25  C   UNL A   1      44.110  44.989  18.050  1.00  0.00     0.277 C 
ATOM     26  C   UNL A   1      45.907  46.224  16.985  1.00  0.00     0.146 C 
ATOM     27  N   UNL A   1      45.041  46.021  18.131  1.00  0.00    -0.344 N 
ATOM     28  C   UNL A   1      45.388  46.694  19.371  1.00  0.00     0.146 C 
ATOM     29  O   UNL A   1      43.944  44.345  17.008  1.00  0.00    -0.268 OA
ENDBRANCH  24  25
ENDBRANCH  18  24
ENDBRANCH   8  17
BRANCH  16  30
ATOM     30  N   UNL A   1      42.474  40.268  29.514  1.00  0.00    -0.322 N 
ATOM     31  C   UNL A   1      43.335  40.616  30.542  1.00  0.00     0.255 C 
ATOM     32  H   UNL A   1      41.668  39.784  29.804  1.00  0.00     0.170 HD
ATOM     33  O   UNL A   1      43.184  40.115  31.652  1.00  0.00    -0.269 OA
BRANCH  31  34
ATOM     34  C   UNL A   1      44.429  41.605  30.352  1.00  0.00     0.041 A 
ATOM     35  C   UNL A   1      45.747  41.146  30.425  1.00  0.00     0.014 A 
ATOM     36  C   UNL A   1      44.176  42.937  30.008  1.00  0.00     0.034 A 
ATOM     37  C   UNL A   1      46.805  41.976  30.047  1.00  0.00     0.002 A 
ATOM     38  C   UNL A   1      45.237  43.752  29.608  1.00  0.00     0.041 A 
ATOM     39  C   UNL A   1      46.546  43.272  29.608  1.00  0.00     0.020 A 
ATOM     40  Cl  UNL A   1      44.914  45.341  29.035  1.00  0.00    -0.084 Cl
ENDBRANCH  31  34
ENDBRANCH  16  30
ENDBRANCH   4   7
ENDBRANCH   2   3
ENDBRANCH   1   2
BRANCH   1  41
ATOM     41  C   UNL A   1      48.313  37.651  27.522  1.00  0.00     0.023 C 
BRANCH  41  42
ATOM     42  C   UNL A   1      48.105  37.155  28.962  1.00  0.00     0.116 C 
BRANCH  42  43
ATOM     43  N   UNL A   1      46.970  37.671  29.702  1.00  0.00    -0.352 N 
ATOM     44  C   UNL A   1      45.775  37.029  30.000  1.00  0.00     0.251 C 
ATOM     45  H   UNL A   1      47.057  38.593  30.036  1.00  0.00     0.163 HD
ATOM     46  O   UNL A   1      44.897  37.639  30.588  1.00  0.00    -0.269 OA
BRANCH  44  47
ATOM     47  C   UNL A   1      45.528  35.632  29.539  1.00  0.00     0.039 A 
ATOM     48  C   UNL A   1      45.972  34.583  30.350  1.00  0.00     0.014 A 
ATOM     49  C   UNL A   1      44.857  35.337  28.349  1.00  0.00     0.014 A 
ATOM     50  C   UNL A   1      45.636  33.261  30.033  1.00  0.00     0.010 A 
ATOM     51  C   UNL A   1      44.485  34.020  28.053  1.00  0.00     0.010 A 
ATOM     52  C   UNL A   1      44.834  32.973  28.916  1.00  0.00    -0.014 A 
BRANCH  52  53
ATOM     53  C   UNL A   1      44.264  31.607  28.734  1.00  0.00     0.031 A 
ATOM     54  C   UNL A   1      42.953  31.205  29.347  1.00  0.00     0.074 A 
ATOM     55  C   UNL A   1      44.974  30.705  28.024  1.00  0.00     0.049 A 
ATOM     56  N   UNL A   1      42.299  30.076  29.230  1.00  0.00    -0.248 NA
ATOM     57  C   UNL A   1      42.305  32.189  30.223  1.00  0.00     0.031 C 
ATOM     58  C   UNL A   1      46.292  30.955  27.433  1.00  0.00     0.029 A 
ATOM     59  N   UNL A   1      44.695  29.411  27.663  1.00  0.00    -0.354 N 
ATOM     60  C   UNL A   1      41.150  30.217  30.002  1.00  0.00     0.074 A 
ATOM     61  C   UNL A   1      41.241  31.516  30.640  1.00  0.00     0.031 C 
ATOM     62  C   UNL A   1      46.680  29.873  26.743  1.00  0.00     0.029 A 
ATOM     63  C   UNL A   1      45.662  28.836  26.870  1.00  0.00     0.049 A 
ATOM     64  H   UNL A   1      43.879  28.937  27.947  1.00  0.00     0.167 HD
ATOM     65  C   UNL A   1      40.109  29.355  30.146  1.00  0.00     0.034 A 
ATOM     66  C   UNL A   1      45.721  27.616  26.297  1.00  0.00     0.034 A 
ATOM     67  C   UNL A   1      40.048  28.052  29.520  1.00  0.00     0.049 A 
ATOM     68  C   UNL A   1      44.565  26.668  26.488  1.00  0.00     0.074 A 
ATOM     69  C   UNL A   1      39.033  27.112  29.574  1.00  0.00     0.029 A 
ATOM     70  N   UNL A   1      41.054  27.497  28.736  1.00  0.00    -0.354 N 
ATOM     71  N   UNL A   1      43.455  26.844  27.166  1.00  0.00    -0.248 NA
ATOM     72  C   UNL A   1      44.664  25.363  25.822  1.00  0.00     0.031 C 
ATOM     73  C   UNL A   1      39.450  25.968  28.882  1.00  0.00     0.029 A 
ATOM     74  C   UNL A   1      40.693  26.220  28.326  1.00  0.00     0.049 A 
ATOM     75  H   UNL A   1      41.899  27.944  28.504  1.00  0.00     0.167 HD
ATOM     76  C   UNL A   1      42.708  25.685  26.978  1.00  0.00     0.074 A 
ATOM     77  C   UNL A   1      43.490  24.825  26.112  1.00  0.00     0.031 C 
ATOM     78  C   UNL A   1      41.485  25.364  27.471  1.00  0.00     0.034 A 
BRANCH  65  79
ATOM     79  C   UNL A   1      38.967  29.793  31.036  1.00  0.00     0.023 A 
ATOM     80  C   UNL A   1      38.004  30.719  30.591  1.00  0.00     0.031 A 
ATOM     81  C   UNL A   1      38.850  29.312  32.352  1.00  0.00     0.131 A 
ATOM     82  C   UNL A   1      37.030  31.200  31.478  1.00  0.00     0.055 A 
ATOM     83  C   UNL A   1      37.823  29.730  33.203  1.00  0.00     0.041 A 
ATOM     84  F   UNL A   1      39.744  28.438  32.843  1.00  0.00    -0.206 F 
ATOM     85  C   UNL A   1      36.917  30.695  32.774  1.00  0.00     0.022 A 
BRANCH  82  86
ATOM     86  S   UNL A   1      36.020  32.617  30.963  1.00  0.00     0.124 S 
ATOM     87  O   UNL A   1      34.673  32.146  31.277  1.00  0.00    -0.237 OA
ATOM     88  O   UNL A   1      36.533  33.693  31.805  1.00  0.00    -0.237 OA
ATOM     89  O   UNL A   1      36.310  32.746  29.537  1.00  0.00    -0.744 OA
ENDBRANCH  82  86
ENDBRANCH  65  79
BRANCH  66  90
ATOM     90  C   UNL A   1      46.901  27.227  25.470  1.00  0.00     0.023 A 
ATOM     91  C   UNL A   1      47.056  27.707  24.159  1.00  0.00     0.031 A 
ATOM     92  C   UNL A   1      47.876  26.344  25.967  1.00  0.00     0.131 A 
ATOM     93  C   UNL A   1      48.135  27.269  23.375  1.00  0.00     0.055 A 
ATOM     94  C   UNL A   1      48.976  25.953  25.202  1.00  0.00     0.041 A 
ATOM     95  F   UNL A   1      47.780  25.862  27.217  1.00  0.00    -0.206 F 
ATOM     96  C   UNL A   1      49.103  26.406  23.893  1.00  0.00     0.022 A 
BRANCH  93  97
ATOM     97  S   UNL A   1      48.213  27.780  21.637  1.00  0.00     0.124 S 
ATOM     98  O   UNL A   1      46.961  28.513  21.486  1.00  0.00    -0.237 OA
ATOM     99  O   UNL A   1      49.433  28.580  21.612  1.00  0.00    -0.237 OA
ATOM    100  O   UNL A   1      48.287  26.513  20.913  1.00  0.00    -0.744 OA
ENDBRANCH  93  97
ENDBRANCH  66  90
BRANCH  78 101
ATOM    101  C   UNL A   1      40.900  24.039  27.040  1.00  0.00     0.023 A 
ATOM    102  C   UNL A   1      41.639  22.845  27.098  1.00  0.00     0.031 A 
ATOM    103  C   UNL A   1      39.586  23.978  26.541  1.00  0.00     0.131 A 
ATOM    104  C   UNL A   1      41.083  21.653  26.610  1.00  0.00     0.055 A 
ATOM    105  C   UNL A   1      39.016  22.778  26.116  1.00  0.00     0.041 A 
ATOM    106  F   UNL A   1      38.834  25.088  26.457  1.00  0.00    -0.206 F 
ATOM    107  C   UNL A   1      39.770  21.608  26.135  1.00  0.00     0.022 A 
BRANCH 104 108
ATOM    108  S   UNL A   1      42.134  20.177  26.508  1.00  0.00     0.124 S 
ATOM    109  O   UNL A   1      41.487  19.418  25.442  1.00  0.00    -0.237 OA
ATOM    110  O   UNL A   1      43.439  20.745  26.185  1.00  0.00    -0.237 OA
ATOM    111  O   UNL A   1      42.029  19.588  27.842  1.00  0.00    -0.744 OA
ENDBRANCH 104 108
ENDBRANCH  78 101
ENDBRANCH  52  53
ENDBRANCH  44  47
ENDBRANCH  42  43
ENDBRANCH  41  42
ENDBRANCH   1  41
TORSDOF 19
ENDMDL
