MODEL 1
REMARK VINA RESULT:     -13.3      0.000      0.000
REMARK SMILES O=C(NCCCCNC(=O)[C@H]1CC=CC[C@@H]1C(=O)N[C@@H]1CCCN(c2ccccc2F)C1=O)c1ccc(-c2c3nc(c(-c4cc(S(=O)(=O)[O-])ccc4F)c4ccc([nH]4)c(-c4cc(S(=O)(=O)[O-])ccc4F)c4nc(c(-c5cc(S(=O)(=O)[O-])ccc5F)c5ccc2[nH]5)C=C4)C=C3)cc1
REMARK SMILES IDX 5 1 4 2 3 3 1 4 2 5 34 7 35 8 96 9 36 10 95 11 37 12 38 13
REMARK SMILES IDX 39 14 89 15 40 16 94 17 88 18 90 19 41 20 93 21 87 22 86 23
REMARK SMILES IDX 42 25 74 26 54 27 73 28 55 29 58 30 72 31 91 32 56 33 57 34
REMARK SMILES IDX 71 36 92 37 59 38 43 39 44 40 52 41 45 42 51 43 53 44 50 45
REMARK SMILES IDX 46 46 47 47 48 48 49 49 75 50 76 51 84 52 77 53 83 54 85 55
REMARK SMILES IDX 82 56 78 57 79 58 80 59 81 60 60 61 61 62 69 63 62 64 68 65
REMARK SMILES IDX 70 66 67 67 63 68 64 69 65 70 66 71 6 72 7 73 8 74 9 75
REMARK SMILES IDX 10 77 11 78 12 79 16 80 13 81 15 82 14 83 17 84 18 85 19 86
REMARK SMILES IDX 20 88 21 89 32 90 22 91 24 92 33 93 23 94 25 95 26 96 30 97
REMARK SMILES IDX 27 98 29 99 31 100 28 101
REMARK H PARENT 3 6 90 24 58 35 8 76 19 87
REMARK Flexibility Score: inf
ROOT
ATOM      1  C   UNL A   1      31.861  29.433  27.377  1.00  0.00     0.023 C 
ENDROOT
BRANCH   1   2
ATOM      2  C   UNL A   1      32.629  30.293  26.381  1.00  0.00     0.116 C 
BRANCH   2   3
ATOM      3  N   UNL A   1      32.756  31.670  26.841  1.00  0.00    -0.352 N 
ATOM      4  O   UNL A   1      33.401  33.416  28.082  1.00  0.00    -0.269 OA
ATOM      5  C   UNL A   1      33.672  32.290  27.659  1.00  0.00     0.251 C 
ATOM      6  H   UNL A   1      32.053  32.270  26.502  1.00  0.00     0.163 HD
BRANCH   5   7
ATOM      7  C   UNL A   1      34.969  31.667  28.040  1.00  0.00     0.039 A 
ATOM      8  C   UNL A   1      36.109  32.432  28.275  1.00  0.00     0.014 A 
ATOM      9  C   UNL A   1      35.024  30.286  28.293  1.00  0.00     0.014 A 
ATOM     10  C   UNL A   1      37.311  31.828  28.628  1.00  0.00     0.010 A 
ATOM     11  C   UNL A   1      36.194  29.698  28.796  1.00  0.00     0.010 A 
ATOM     12  C   UNL A   1      37.347  30.471  28.983  1.00  0.00    -0.014 A 
BRANCH  12  13
ATOM     13  C   UNL A   1      38.541  29.966  29.717  1.00  0.00     0.031 A 
ATOM     14  C   UNL A   1      39.503  28.996  29.098  1.00  0.00     0.074 A 
ATOM     15  C   UNL A   1      38.762  30.444  30.963  1.00  0.00     0.049 A 
ATOM     16  N   UNL A   1      40.574  28.459  29.625  1.00  0.00    -0.248 NA
ATOM     17  C   UNL A   1      39.231  28.564  27.720  1.00  0.00     0.031 C 
ATOM     18  C   UNL A   1      37.885  31.391  31.665  1.00  0.00     0.029 A 
ATOM     19  N   UNL A   1      39.794  30.250  31.844  1.00  0.00    -0.354 N 
ATOM     20  C   UNL A   1      41.094  27.610  28.656  1.00  0.00     0.074 A 
ATOM     21  C   UNL A   1      40.210  27.692  27.511  1.00  0.00     0.031 C 
ATOM     22  C   UNL A   1      38.463  31.768  32.811  1.00  0.00     0.029 A 
ATOM     23  C   UNL A   1      39.687  31.003  32.992  1.00  0.00     0.049 A 
ATOM     24  H   UNL A   1      40.540  29.630  31.673  1.00  0.00     0.167 HD
ATOM     25  C   UNL A   1      42.204  26.836  28.726  1.00  0.00     0.034 A 
ATOM     26  C   UNL A   1      40.461  31.053  34.093  1.00  0.00     0.034 A 
ATOM     27  C   UNL A   1      43.074  26.779  29.877  1.00  0.00     0.049 A 
ATOM     28  C   UNL A   1      41.655  30.148  34.160  1.00  0.00     0.074 A 
ATOM     29  C   UNL A   1      44.225  26.031  30.050  1.00  0.00     0.029 A 
ATOM     30  N   UNL A   1      42.887  27.496  31.053  1.00  0.00    -0.354 N 
ATOM     31  N   UNL A   1      42.102  29.315  33.251  1.00  0.00    -0.248 NA
ATOM     32  C   UNL A   1      42.432  30.165  35.404  1.00  0.00     0.031 C 
ATOM     33  C   UNL A   1      44.700  26.249  31.346  1.00  0.00     0.029 A 
ATOM     34  C   UNL A   1      43.888  27.187  31.962  1.00  0.00     0.049 A 
ATOM     35  H   UNL A   1      42.152  28.129  31.218  1.00  0.00     0.167 HD
ATOM     36  C   UNL A   1      43.217  28.708  33.811  1.00  0.00     0.074 A 
ATOM     37  C   UNL A   1      43.385  29.284  35.131  1.00  0.00     0.031 C 
ATOM     38  C   UNL A   1      44.026  27.759  33.281  1.00  0.00     0.034 A 
BRANCH  25  39
ATOM     39  C   UNL A   1      42.526  25.955  27.545  1.00  0.00     0.023 A 
ATOM     40  C   UNL A   1      42.081  24.625  27.471  1.00  0.00     0.031 A 
ATOM     41  C   UNL A   1      43.262  26.467  26.461  1.00  0.00     0.131 A 
ATOM     42  C   UNL A   1      42.408  23.838  26.354  1.00  0.00     0.055 A 
ATOM     43  C   UNL A   1      43.530  25.700  25.326  1.00  0.00     0.041 A 
ATOM     44  F   UNL A   1      43.726  27.726  26.485  1.00  0.00    -0.206 F 
ATOM     45  C   UNL A   1      43.108  24.375  25.272  1.00  0.00     0.022 A 
BRANCH  42  46
ATOM     46  S   UNL A   1      41.960  22.082  26.371  1.00  0.00     0.124 S 
ATOM     47  O   UNL A   1      42.731  21.569  25.235  1.00  0.00    -0.237 OA
ATOM     48  O   UNL A   1      42.395  21.648  27.682  1.00  0.00    -0.237 OA
ATOM     49  O   UNL A   1      40.507  22.097  26.163  1.00  0.00    -0.744 OA
ENDBRANCH  42  46
ENDBRANCH  25  39
BRANCH  26  50
ATOM     50  C   UNL A   1      40.087  31.946  35.225  1.00  0.00     0.023 A 
ATOM     51  C   UNL A   1      39.123  31.560  36.167  1.00  0.00     0.031 A 
ATOM     52  C   UNL A   1      40.726  33.188  35.402  1.00  0.00     0.131 A 
ATOM     53  C   UNL A   1      38.820  32.412  37.243  1.00  0.00     0.055 A 
ATOM     54  C   UNL A   1      40.455  34.010  36.496  1.00  0.00     0.041 A 
ATOM     55  F   UNL A   1      41.664  33.600  34.532  1.00  0.00    -0.206 F 
ATOM     56  C   UNL A   1      39.492  33.624  37.422  1.00  0.00     0.022 A 
BRANCH  53  57
ATOM     57  S   UNL A   1      37.517  31.920  38.403  1.00  0.00     0.124 S 
ATOM     58  O   UNL A   1      38.210  32.011  39.683  1.00  0.00    -0.237 OA
ATOM     59  O   UNL A   1      36.490  32.924  38.153  1.00  0.00    -0.237 OA
ATOM     60  O   UNL A   1      37.175  30.564  37.973  1.00  0.00    -0.744 OA
ENDBRANCH  53  57
ENDBRANCH  26  50
BRANCH  38  61
ATOM     61  C   UNL A   1      45.185  27.303  34.123  1.00  0.00     0.023 A 
ATOM     62  C   UNL A   1      45.076  26.193  34.977  1.00  0.00     0.031 A 
ATOM     63  C   UNL A   1      46.420  27.969  34.044  1.00  0.00     0.131 A 
ATOM     64  C   UNL A   1      46.181  25.797  35.744  1.00  0.00     0.055 A 
ATOM     65  C   UNL A   1      47.529  27.540  34.772  1.00  0.00     0.041 A 
ATOM     66  F   UNL A   1      46.570  29.036  33.243  1.00  0.00    -0.206 F 
ATOM     67  C   UNL A   1      47.411  26.452  35.633  1.00  0.00     0.022 A 
BRANCH  64  68
ATOM     68  S   UNL A   1      45.980  24.434  36.922  1.00  0.00     0.124 S 
ATOM     69  O   UNL A   1      47.336  24.280  37.438  1.00  0.00    -0.237 OA
ATOM     70  O   UNL A   1      44.997  24.969  37.859  1.00  0.00    -0.237 OA
ATOM     71  O   UNL A   1      45.503  23.331  36.091  1.00  0.00    -0.744 OA
ENDBRANCH  64  68
ENDBRANCH  38  61
ENDBRANCH  12  13
ENDBRANCH   5   7
ENDBRANCH   2   3
ENDBRANCH   1   2
BRANCH   1  72
ATOM     72  C   UNL A   1      31.643  27.966  26.990  1.00  0.00     0.023 C 
BRANCH  72  73
ATOM     73  C   UNL A   1      32.838  27.172  26.440  1.00  0.00     0.116 C 
BRANCH  73  74
ATOM     74  N   UNL A   1      32.836  25.708  26.480  1.00  0.00    -0.356 N 
ATOM     75  C   UNL A   1      33.736  24.806  25.945  1.00  0.00     0.224 C 
ATOM     76  H   UNL A   1      32.078  25.305  26.962  1.00  0.00     0.163 HD
ATOM     77  O   UNL A   1      33.959  23.777  26.582  1.00  0.00    -0.275 OA
BRANCH  75  78
ATOM     78  C   UNL A   1      34.244  25.005  24.510  1.00  0.00     0.095 C 
ATOM     79  C   UNL A   1      35.260  23.926  24.053  1.00  0.00     0.041 C 
ATOM     80  C   UNL A   1      32.960  25.047  23.667  1.00  0.00     0.095 C 
ATOM     81  C   UNL A   1      34.836  22.991  22.951  1.00  0.00    -0.030 C 
ATOM     82  C   UNL A   1      32.490  23.705  23.110  1.00  0.00     0.041 C 
ATOM     83  C   UNL A   1      33.578  22.889  22.517  1.00  0.00    -0.030 C 
BRANCH  80  84
ATOM     84  C   UNL A   1      32.930  26.132  22.622  1.00  0.00     0.224 C 
ATOM     85  O   UNL A   1      33.794  26.227  21.750  1.00  0.00    -0.275 OA
ATOM     86  N   UNL A   1      31.966  27.098  22.721  1.00  0.00    -0.344 N 
ATOM     87  H   UNL A   1      32.163  27.893  22.174  1.00  0.00     0.164 HD
BRANCH  86  88
ATOM     88  C   UNL A   1      30.690  27.215  23.469  1.00  0.00     0.172 C 
ATOM     89  C   UNL A   1      29.508  26.324  23.085  1.00  0.00     0.037 C 
ATOM     90  C   UNL A   1      30.288  28.701  23.494  1.00  0.00     0.249 C 
ATOM     91  C   UNL A   1      28.340  26.648  23.979  1.00  0.00     0.025 C 
ATOM     92  N   UNL A   1      28.939  28.984  23.271  1.00  0.00    -0.308 N 
ATOM     93  O   UNL A   1      31.146  29.561  23.709  1.00  0.00    -0.272 OA
ATOM     94  C   UNL A   1      27.855  28.016  23.544  1.00  0.00     0.126 C 
BRANCH  92  95
ATOM     95  C   UNL A   1      28.562  30.192  22.597  1.00  0.00     0.080 A 
ATOM     96  C   UNL A   1      28.235  30.165  21.235  1.00  0.00     0.029 A 
ATOM     97  C   UNL A   1      28.637  31.449  23.227  1.00  0.00     0.146 A 
ATOM     98  C   UNL A   1      28.014  31.347  20.525  1.00  0.00     0.002 A 
ATOM     99  C   UNL A   1      28.430  32.630  22.518  1.00  0.00     0.041 A 
ATOM    100  F   UNL A   1      29.041  31.575  24.500  1.00  0.00    -0.205 F 
ATOM    101  C   UNL A   1      28.124  32.580  21.162  1.00  0.00     0.003 A 
ENDBRANCH  92  95
ENDBRANCH  86  88
ENDBRANCH  80  84
ENDBRANCH  75  78
ENDBRANCH  73  74
ENDBRANCH  72  73
ENDBRANCH   1  72
TORSDOF 17
ENDMDL
MODEL 2
REMARK VINA RESULT:     -13.2      2.692      5.054
REMARK SMILES O=C(NCCCCNC(=O)[C@H]1CC=CC[C@@H]1C(=O)N[C@@H]1CCCN(c2ccccc2F)C1=O)c1ccc(-c2c3nc(c(-c4cc(S(=O)(=O)[O-])ccc4F)c4ccc([nH]4)c(-c4cc(S(=O)(=O)[O-])ccc4F)c4nc(c(-c5cc(S(=O)(=O)[O-])ccc5F)c5ccc2[nH]5)C=C4)C=C3)cc1
REMARK SMILES IDX 5 1 4 2 3 3 1 4 2 5 34 7 35 8 96 9 36 10 95 11 37 12 38 13
REMARK SMILES IDX 39 14 89 15 40 16 94 17 88 18 90 19 41 20 93 21 87 22 86 23
REMARK SMILES IDX 42 25 74 26 54 27 73 28 55 29 58 30 72 31 91 32 56 33 57 34
REMARK SMILES IDX 71 36 92 37 59 38 43 39 44 40 52 41 45 42 51 43 53 44 50 45
REMARK SMILES IDX 46 46 47 47 48 48 49 49 75 50 76 51 84 52 77 53 83 54 85 55
REMARK SMILES IDX 82 56 78 57 79 58 80 59 81 60 60 61 61 62 69 63 62 64 68 65
REMARK SMILES IDX 70 66 67 67 63 68 64 69 65 70 66 71 6 72 7 73 8 74 9 75
REMARK SMILES IDX 10 77 11 78 12 79 16 80 13 81 15 82 14 83 17 84 18 85 19 86
REMARK SMILES IDX 20 88 21 89 32 90 22 91 24 92 33 93 23 94 25 95 26 96 30 97
REMARK SMILES IDX 27 98 29 99 31 100 28 101
REMARK H PARENT 3 6 90 24 58 35 8 76 19 87
REMARK Flexibility Score: inf
ROOT
ATOM      1  C   UNL A   1      32.118  29.803  25.373  1.00  0.00     0.023 C 
ENDROOT
BRANCH   1   2
ATOM      2  C   UNL A   1      32.028  30.247  26.828  1.00  0.00     0.116 C 
BRANCH   2   3
ATOM      3  N   UNL A   1      32.240  31.682  26.969  1.00  0.00    -0.352 N 
ATOM      4  O   UNL A   1      33.046  33.617  27.753  1.00  0.00    -0.269 OA
ATOM      5  C   UNL A   1      33.242  32.414  27.565  1.00  0.00     0.251 C 
ATOM      6  H   UNL A   1      31.534  32.231  26.561  1.00  0.00     0.163 HD
BRANCH   5   7
ATOM      7  C   UNL A   1      34.543  31.819  27.976  1.00  0.00     0.039 A 
ATOM      8  C   UNL A   1      35.667  32.607  28.214  1.00  0.00     0.014 A 
ATOM      9  C   UNL A   1      34.617  30.445  28.255  1.00  0.00     0.014 A 
ATOM     10  C   UNL A   1      36.873  32.030  28.596  1.00  0.00     0.010 A 
ATOM     11  C   UNL A   1      35.790  29.885  28.785  1.00  0.00     0.010 A 
ATOM     12  C   UNL A   1      36.926  30.680  28.975  1.00  0.00    -0.014 A 
BRANCH  12  13
ATOM     13  C   UNL A   1      38.118  30.209  29.735  1.00  0.00     0.031 A 
ATOM     14  C   UNL A   1      39.132  29.284  29.130  1.00  0.00     0.074 A 
ATOM     15  C   UNL A   1      38.286  30.676  30.993  1.00  0.00     0.049 A 
ATOM     16  N   UNL A   1      40.207  28.779  29.679  1.00  0.00    -0.248 NA
ATOM     17  C   UNL A   1      38.914  28.864  27.739  1.00  0.00     0.031 C 
ATOM     18  C   UNL A   1      37.355  31.579  31.684  1.00  0.00     0.029 A 
ATOM     19  N   UNL A   1      39.300  30.507  31.900  1.00  0.00    -0.354 N 
ATOM     20  C   UNL A   1      40.785  27.964  28.714  1.00  0.00     0.074 A 
ATOM     21  C   UNL A   1      39.930  28.031  27.546  1.00  0.00     0.031 C 
ATOM     22  C   UNL A   1      37.888  31.960  32.850  1.00  0.00     0.029 A 
ATOM     23  C   UNL A   1      39.134  31.238  33.056  1.00  0.00     0.049 A 
ATOM     24  H   UNL A   1      40.073  29.918  31.742  1.00  0.00     0.167 HD
ATOM     25  C   UNL A   1      41.921  27.231  28.804  1.00  0.00     0.034 A 
ATOM     26  C   UNL A   1      39.874  31.300  34.178  1.00  0.00     0.034 A 
ATOM     27  C   UNL A   1      42.759  27.189  29.979  1.00  0.00     0.049 A 
ATOM     28  C   UNL A   1      41.099  30.439  34.267  1.00  0.00     0.074 A 
ATOM     29  C   UNL A   1      43.933  26.481  30.173  1.00  0.00     0.029 A 
ATOM     30  N   UNL A   1      42.514  27.880  31.159  1.00  0.00    -0.354 N 
ATOM     31  N   UNL A   1      41.601  29.636  33.358  1.00  0.00    -0.248 NA
ATOM     32  C   UNL A   1      41.840  30.466  35.532  1.00  0.00     0.031 C 
ATOM     33  C   UNL A   1      44.363  26.697  31.485  1.00  0.00     0.029 A 
ATOM     34  C   UNL A   1      43.500  27.595  32.091  1.00  0.00     0.049 A 
ATOM     35  H   UNL A   1      41.751  28.483  31.311  1.00  0.00     0.167 HD
ATOM     36  C   UNL A   1      42.722  29.062  33.941  1.00  0.00     0.074 A 
ATOM     37  C   UNL A   1      42.832  29.624  35.274  1.00  0.00     0.031 C 
ATOM     38  C   UNL A   1      43.581  28.152  33.421  1.00  0.00     0.034 A 
BRANCH  25  39
ATOM     39  C   UNL A   1      42.307  26.380  27.620  1.00  0.00     0.023 A 
ATOM     40  C   UNL A   1      41.896  25.042  27.505  1.00  0.00     0.031 A 
ATOM     41  C   UNL A   1      43.072  26.928  26.576  1.00  0.00     0.131 A 
ATOM     42  C   UNL A   1      42.283  24.284  26.388  1.00  0.00     0.055 A 
ATOM     43  C   UNL A   1      43.402  26.190  25.437  1.00  0.00     0.041 A 
ATOM     44  F   UNL A   1      43.507  28.197  26.641  1.00  0.00    -0.206 F 
ATOM     45  C   UNL A   1      43.012  24.857  25.343  1.00  0.00     0.022 A 
BRANCH  42  46
ATOM     46  S   UNL A   1      41.875  22.518  26.355  1.00  0.00     0.124 S 
ATOM     47  O   UNL A   1      42.392  22.072  27.652  1.00  0.00    -0.237 OA
ATOM     48  O   UNL A   1      40.435  22.521  26.212  1.00  0.00    -0.237 OA
ATOM     49  O   UNL A   1      42.622  22.016  25.196  1.00  0.00    -0.744 OA
ENDBRANCH  42  46
ENDBRANCH  25  39
BRANCH  26  50
ATOM     50  C   UNL A   1      39.437  32.162  35.312  1.00  0.00     0.023 A 
ATOM     51  C   UNL A   1      39.896  33.481  35.441  1.00  0.00     0.031 A 
ATOM     52  C   UNL A   1      38.514  31.686  36.262  1.00  0.00     0.131 A 
ATOM     53  C   UNL A   1      39.436  34.278  36.502  1.00  0.00     0.055 A 
ATOM     54  C   UNL A   1      38.025  32.496  37.288  1.00  0.00     0.041 A 
ATOM     55  F   UNL A   1      38.037  30.434  36.177  1.00  0.00    -0.206 F 
ATOM     56  C   UNL A   1      38.491  33.800  37.414  1.00  0.00     0.022 A 
BRANCH  53  57
ATOM     57  S   UNL A   1      40.104  35.954  36.686  1.00  0.00     0.124 S 
ATOM     58  O   UNL A   1      39.427  36.411  37.895  1.00  0.00    -0.237 OA
ATOM     59  O   UNL A   1      41.534  35.701  36.805  1.00  0.00    -0.237 OA
ATOM     60  O   UNL A   1      39.693  36.620  35.450  1.00  0.00    -0.744 OA
ENDBRANCH  53  57
ENDBRANCH  26  50
BRANCH  38  61
ATOM     61  C   UNL A   1      44.731  27.726  34.289  1.00  0.00     0.023 A 
ATOM     62  C   UNL A   1      44.627  26.624  35.154  1.00  0.00     0.031 A 
ATOM     63  C   UNL A   1      45.956  28.413  34.224  1.00  0.00     0.131 A 
ATOM     64  C   UNL A   1      45.724  26.256  35.945  1.00  0.00     0.055 A 
ATOM     65  C   UNL A   1      47.059  28.013  34.977  1.00  0.00     0.041 A 
ATOM     66  F   UNL A   1      46.102  29.473  33.413  1.00  0.00    -0.206 F 
ATOM     67  C   UNL A   1      46.945  26.932  35.848  1.00  0.00     0.022 A 
BRANCH  64  68
ATOM     68  S   UNL A   1      45.526  24.904  37.135  1.00  0.00     0.124 S 
ATOM     69  O   UNL A   1      46.018  23.760  36.375  1.00  0.00    -0.237 OA
ATOM     70  O   UNL A   1      46.363  25.338  38.249  1.00  0.00    -0.237 OA
ATOM     71  O   UNL A   1      44.090  24.896  37.408  1.00  0.00    -0.744 OA
ENDBRANCH  64  68
ENDBRANCH  38  61
ENDBRANCH  12  13
ENDBRANCH   5   7
ENDBRANCH   2   3
ENDBRANCH   1   2
BRANCH   1  72
ATOM     72  C   UNL A   1      33.439  29.161  24.935  1.00  0.00     0.023 C 
BRANCH  72  73
ATOM     73  C   UNL A   1      33.657  28.890  23.439  1.00  0.00     0.116 C 
BRANCH  73  74
ATOM     74  N   UNL A   1      34.124  27.579  22.984  1.00  0.00    -0.356 N 
ATOM     75  C   UNL A   1      33.414  26.415  22.760  1.00  0.00     0.224 C 
ATOM     76  H   UNL A   1      35.091  27.517  22.811  1.00  0.00     0.163 HD
ATOM     77  O   UNL A   1      33.774  25.698  21.825  1.00  0.00    -0.275 OA
BRANCH  75  78
ATOM     78  C   UNL A   1      32.373  25.953  23.789  1.00  0.00     0.095 C 
ATOM     79  C   UNL A   1      30.956  25.745  23.193  1.00  0.00     0.041 C 
ATOM     80  C   UNL A   1      32.988  24.678  24.389  1.00  0.00     0.095 C 
ATOM     81  C   UNL A   1      30.412  24.342  23.160  1.00  0.00    -0.030 C 
ATOM     82  C   UNL A   1      32.604  23.371  23.700  1.00  0.00     0.041 C 
ATOM     83  C   UNL A   1      31.157  23.258  23.392  1.00  0.00    -0.030 C 
BRANCH  80  84
ATOM     84  C   UNL A   1      32.883  24.576  25.889  1.00  0.00     0.224 C 
ATOM     85  O   UNL A   1      31.894  24.971  26.506  1.00  0.00    -0.275 OA
ATOM     86  N   UNL A   1      33.972  24.125  26.583  1.00  0.00    -0.344 N 
ATOM     87  H   UNL A   1      33.923  24.327  27.546  1.00  0.00     0.164 HD
BRANCH  86  88
ATOM     88  C   UNL A   1      35.212  23.399  26.209  1.00  0.00     0.172 C 
ATOM     89  C   UNL A   1      35.952  23.785  24.928  1.00  0.00     0.037 C 
ATOM     90  C   UNL A   1      34.909  21.890  26.250  1.00  0.00     0.249 C 
ATOM     91  C   UNL A   1      37.157  22.895  24.773  1.00  0.00     0.025 C 
ATOM     92  N   UNL A   1      35.427  21.124  25.203  1.00  0.00    -0.308 N 
ATOM     93  O   UNL A   1      34.246  21.425  27.180  1.00  0.00    -0.272 OA
ATOM     94  C   UNL A   1      36.615  21.525  24.419  1.00  0.00     0.126 C 
BRANCH  92  95
ATOM     95  C   UNL A   1      34.708  19.976  24.731  1.00  0.00     0.080 A 
ATOM     96  C   UNL A   1      33.334  20.065  24.470  1.00  0.00     0.029 A 
ATOM     97  C   UNL A   1      35.309  18.706  24.646  1.00  0.00     0.146 A 
ATOM     98  C   UNL A   1      32.587  18.928  24.158  1.00  0.00     0.002 A 
ATOM     99  C   UNL A   1      34.563  17.569  24.347  1.00  0.00     0.041 A 
ATOM    100  F   UNL A   1      36.595  18.513  24.976  1.00  0.00    -0.205 F 
ATOM    101  C   UNL A   1      33.197  17.678  24.109  1.00  0.00     0.003 A 
ENDBRANCH  92  95
ENDBRANCH  86  88
ENDBRANCH  80  84
ENDBRANCH  75  78
ENDBRANCH  73  74
ENDBRANCH  72  73
ENDBRANCH   1  72
TORSDOF 17
ENDMDL
MODEL 3
REMARK VINA RESULT:     -13.1      1.284      7.373
REMARK SMILES O=C(NCCCCNC(=O)[C@H]1CC=CC[C@@H]1C(=O)N[C@@H]1CCCN(c2ccccc2F)C1=O)c1ccc(-c2c3nc(c(-c4cc(S(=O)(=O)[O-])ccc4F)c4ccc([nH]4)c(-c4cc(S(=O)(=O)[O-])ccc4F)c4nc(c(-c5cc(S(=O)(=O)[O-])ccc5F)c5ccc2[nH]5)C=C4)C=C3)cc1
REMARK SMILES IDX 5 1 4 2 3 3 1 4 2 5 34 7 35 8 96 9 36 10 95 11 37 12 38 13
REMARK SMILES IDX 39 14 89 15 40 16 94 17 88 18 90 19 41 20 93 21 87 22 86 23
REMARK SMILES IDX 42 25 74 26 54 27 73 28 55 29 58 30 72 31 91 32 56 33 57 34
REMARK SMILES IDX 71 36 92 37 59 38 43 39 44 40 52 41 45 42 51 43 53 44 50 45
REMARK SMILES IDX 46 46 47 47 48 48 49 49 75 50 76 51 84 52 77 53 83 54 85 55
REMARK SMILES IDX 82 56 78 57 79 58 80 59 81 60 60 61 61 62 69 63 62 64 68 65
REMARK SMILES IDX 70 66 67 67 63 68 64 69 65 70 66 71 6 72 7 73 8 74 9 75
REMARK SMILES IDX 10 77 11 78 12 79 16 80 13 81 15 82 14 83 17 84 18 85 19 86
REMARK SMILES IDX 20 88 21 89 32 90 22 91 24 92 33 93 23 94 25 95 26 96 30 97
REMARK SMILES IDX 27 98 29 99 31 100 28 101
REMARK H PARENT 3 6 90 24 58 35 8 76 19 87
REMARK Flexibility Score: inf
ROOT
ATOM      1  C   UNL A   1      31.460  29.562  27.259  1.00  0.00     0.023 C 
ENDROOT
BRANCH   1   2
ATOM      2  C   UNL A   1      32.451  30.314  26.380  1.00  0.00     0.116 C 
BRANCH   2   3
ATOM      3  N   UNL A   1      32.540  31.721  26.748  1.00  0.00    -0.352 N 
ATOM      4  O   UNL A   1      33.110  33.560  27.890  1.00  0.00    -0.269 OA
ATOM      5  C   UNL A   1      33.413  32.412  27.557  1.00  0.00     0.251 C 
ATOM      6  H   UNL A   1      31.844  32.285  26.340  1.00  0.00     0.163 HD
BRANCH   5   7
ATOM      7  C   UNL A   1      34.702  31.838  28.031  1.00  0.00     0.039 A 
ATOM      8  C   UNL A   1      35.804  32.643  28.314  1.00  0.00     0.014 A 
ATOM      9  C   UNL A   1      34.782  30.466  28.324  1.00  0.00     0.014 A 
ATOM     10  C   UNL A   1      36.998  32.085  28.755  1.00  0.00     0.010 A 
ATOM     11  C   UNL A   1      35.936  29.926  28.912  1.00  0.00     0.010 A 
ATOM     12  C   UNL A   1      37.052  30.739  29.147  1.00  0.00    -0.014 A 
BRANCH  12  13
ATOM     13  C   UNL A   1      38.214  30.289  29.965  1.00  0.00     0.031 A 
ATOM     14  C   UNL A   1      38.407  30.735  31.384  1.00  0.00     0.074 A 
ATOM     15  C   UNL A   1      39.083  29.422  29.398  1.00  0.00     0.049 A 
ATOM     16  N   UNL A   1      39.379  30.438  32.208  1.00  0.00    -0.248 NA
ATOM     17  C   UNL A   1      37.391  31.632  31.953  1.00  0.00     0.031 C 
ATOM     18  C   UNL A   1      38.992  28.925  28.019  1.00  0.00     0.029 A 
ATOM     19  N   UNL A   1      40.177  28.768  29.902  1.00  0.00    -0.354 N 
ATOM     20  C   UNL A   1      39.109  31.126  33.384  1.00  0.00     0.074 A 
ATOM     21  C   UNL A   1      37.885  31.869  33.161  1.00  0.00     0.031 C 
ATOM     22  C   UNL A   1      39.917  27.978  27.825  1.00  0.00     0.029 A 
ATOM     23  C   UNL A   1      40.749  27.884  29.014  1.00  0.00     0.049 A 
ATOM     24  H   UNL A   1      40.522  28.916  30.813  1.00  0.00     0.167 HD
ATOM     25  C   UNL A   1      39.822  31.132  34.537  1.00  0.00     0.034 A 
ATOM     26  C   UNL A   1      41.844  27.108  29.120  1.00  0.00     0.034 A 
ATOM     27  C   UNL A   1      41.036  30.375  34.735  1.00  0.00     0.049 A 
ATOM     28  C   UNL A   1      42.640  27.174  30.389  1.00  0.00     0.074 A 
ATOM     29  C   UNL A   1      41.833  30.308  35.864  1.00  0.00     0.029 A 
ATOM     30  N   UNL A   1      41.628  29.554  33.782  1.00  0.00    -0.354 N 
ATOM     31  N   UNL A   1      42.393  27.870  31.473  1.00  0.00    -0.248 NA
ATOM     32  C   UNL A   1      43.871  26.379  30.443  1.00  0.00     0.031 C 
ATOM     33  C   UNL A   1      42.935  29.498  35.576  1.00  0.00     0.029 A 
ATOM     34  C   UNL A   1      42.792  28.999  34.291  1.00  0.00     0.049 A 
ATOM     35  H   UNL A   1      41.274  29.392  32.879  1.00  0.00     0.167 HD
ATOM     36  C   UNL A   1      43.438  27.596  32.343  1.00  0.00     0.074 A 
ATOM     37  C   UNL A   1      44.309  26.656  31.664  1.00  0.00     0.031 C 
ATOM     38  C   UNL A   1      43.657  28.079  33.590  1.00  0.00     0.034 A 
BRANCH  25  39
ATOM     39  C   UNL A   1      39.340  32.013  35.661  1.00  0.00     0.023 A 
ATOM     40  C   UNL A   1      39.763  33.347  35.790  1.00  0.00     0.031 A 
ATOM     41  C   UNL A   1      38.415  31.519  36.599  1.00  0.00     0.131 A 
ATOM     42  C   UNL A   1      39.291  34.130  36.856  1.00  0.00     0.055 A 
ATOM     43  C   UNL A   1      37.902  32.322  37.620  1.00  0.00     0.041 A 
ATOM     44  F   UNL A   1      37.990  30.248  36.533  1.00  0.00    -0.206 F 
ATOM     45  C   UNL A   1      38.345  33.634  37.756  1.00  0.00     0.022 A 
BRANCH  42  46
ATOM     46  S   UNL A   1      39.986  35.789  37.085  1.00  0.00     0.124 S 
ATOM     47  O   UNL A   1      41.406  35.488  37.289  1.00  0.00    -0.237 OA
ATOM     48  O   UNL A   1      39.649  36.456  35.846  1.00  0.00    -0.237 OA
ATOM     49  O   UNL A   1      39.293  36.288  38.278  1.00  0.00    -0.744 OA
ENDBRANCH  42  46
ENDBRANCH  25  39
BRANCH  26  50
ATOM     50  C   UNL A   1      42.266  26.258  27.971  1.00  0.00     0.023 A 
ATOM     51  C   UNL A   1      41.810  24.939  27.836  1.00  0.00     0.031 A 
ATOM     52  C   UNL A   1      43.105  26.776  26.965  1.00  0.00     0.131 A 
ATOM     53  C   UNL A   1      42.200  24.178  26.721  1.00  0.00     0.055 A 
ATOM     54  C   UNL A   1      43.453  26.031  25.838  1.00  0.00     0.041 A 
ATOM     55  F   UNL A   1      43.562  28.036  27.043  1.00  0.00    -0.206 F 
ATOM     56  C   UNL A   1      43.003  24.721  25.714  1.00  0.00     0.022 A 
BRANCH  53  57
ATOM     57  S   UNL A   1      41.655  22.452  26.611  1.00  0.00     0.124 S 
ATOM     58  O   UNL A   1      42.299  22.016  25.378  1.00  0.00    -0.237 OA
ATOM     59  O   UNL A   1      42.180  21.887  27.847  1.00  0.00    -0.237 OA
ATOM     60  O   UNL A   1      40.197  22.561  26.549  1.00  0.00    -0.744 OA
ENDBRANCH  53  57
ENDBRANCH  26  50
BRANCH  38  61
ATOM     61  C   UNL A   1      44.877  27.578  34.311  1.00  0.00     0.023 A 
ATOM     62  C   UNL A   1      44.867  26.358  35.006  1.00  0.00     0.031 A 
ATOM     63  C   UNL A   1      46.072  28.318  34.274  1.00  0.00     0.131 A 
ATOM     64  C   UNL A   1      46.026  25.923  35.663  1.00  0.00     0.055 A 
ATOM     65  C   UNL A   1      47.236  27.857  34.889  1.00  0.00     0.041 A 
ATOM     66  F   UNL A   1      46.128  29.491  33.624  1.00  0.00    -0.206 F 
ATOM     67  C   UNL A   1      47.215  26.656  35.593  1.00  0.00     0.022 A 
BRANCH  64  68
ATOM     68  S   UNL A   1      45.952  24.403  36.647  1.00  0.00     0.124 S 
ATOM     69  O   UNL A   1      47.046  23.623  36.077  1.00  0.00    -0.237 OA
ATOM     70  O   UNL A   1      46.159  24.895  38.005  1.00  0.00    -0.237 OA
ATOM     71  O   UNL A   1      44.613  23.884  36.375  1.00  0.00    -0.744 OA
ENDBRANCH  64  68
ENDBRANCH  38  61
ENDBRANCH  12  13
ENDBRANCH   5   7
ENDBRANCH   2   3
ENDBRANCH   1   2
BRANCH   1  72
ATOM     72  C   UNL A   1      31.787  28.095  27.558  1.00  0.00     0.023 C 
BRANCH  72  73
ATOM     73  C   UNL A   1      32.568  27.293  26.506  1.00  0.00     0.116 C 
BRANCH  73  74
ATOM     74  N   UNL A   1      32.501  25.830  26.490  1.00  0.00    -0.356 N 
ATOM     75  C   UNL A   1      33.399  24.908  25.985  1.00  0.00     0.224 C 
ATOM     76  H   UNL A   1      31.694  25.444  26.901  1.00  0.00     0.163 HD
ATOM     77  O   UNL A   1      33.532  23.847  26.597  1.00  0.00    -0.275 OA
BRANCH  75  78
ATOM     78  C   UNL A   1      34.017  25.134  24.599  1.00  0.00     0.095 C 
ATOM     79  C   UNL A   1      35.162  24.145  24.258  1.00  0.00     0.041 C 
ATOM     80  C   UNL A   1      32.817  25.049  23.642  1.00  0.00     0.095 C 
ATOM     81  C   UNL A   1      34.926  23.162  23.141  1.00  0.00    -0.030 C 
ATOM     82  C   UNL A   1      32.522  23.664  23.072  1.00  0.00     0.041 C 
ATOM     83  C   UNL A   1      33.727  22.942  22.597  1.00  0.00    -0.030 C 
BRANCH  80  84
ATOM     84  C   UNL A   1      32.787  26.114  22.576  1.00  0.00     0.224 C 
ATOM     85  O   UNL A   1      33.648  26.190  21.700  1.00  0.00    -0.275 OA
ATOM     86  N   UNL A   1      31.827  27.085  22.660  1.00  0.00    -0.344 N 
ATOM     87  H   UNL A   1      32.025  27.869  22.097  1.00  0.00     0.164 HD
BRANCH  86  88
ATOM     88  C   UNL A   1      30.553  27.220  23.410  1.00  0.00     0.172 C 
ATOM     89  C   UNL A   1      29.348  26.369  23.007  1.00  0.00     0.037 C 
ATOM     90  C   UNL A   1      30.191  28.715  23.465  1.00  0.00     0.249 C 
ATOM     91  C   UNL A   1      28.189  26.705  23.907  1.00  0.00     0.025 C 
ATOM     92  N   UNL A   1      28.850  29.038  23.248  1.00  0.00    -0.308 N 
ATOM     93  O   UNL A   1      31.071  29.548  23.698  1.00  0.00    -0.272 OA
ATOM     94  C   UNL A   1      27.740  28.094  23.500  1.00  0.00     0.126 C 
BRANCH  92  95
ATOM     95  C   UNL A   1      28.505  30.270  22.598  1.00  0.00     0.080 A 
ATOM     96  C   UNL A   1      28.214  30.285  21.228  1.00  0.00     0.029 A 
ATOM     97  C   UNL A   1      28.580  31.508  23.265  1.00  0.00     0.146 A 
ATOM     98  C   UNL A   1      28.026  31.489  20.546  1.00  0.00     0.002 A 
ATOM     99  C   UNL A   1      28.406  32.710  22.585  1.00  0.00     0.041 A 
ATOM    100  F   UNL A   1      28.952  31.593  24.551  1.00  0.00    -0.205 F 
ATOM    101  C   UNL A   1      28.134  32.703  21.220  1.00  0.00     0.003 A 
ENDBRANCH  92  95
ENDBRANCH  86  88
ENDBRANCH  80  84
ENDBRANCH  75  78
ENDBRANCH  73  74
ENDBRANCH  72  73
ENDBRANCH   1  72
TORSDOF 17
ENDMDL
