MODEL 1
REMARK VINA RESULT:     -11.9      0.000      0.000
REMARK SMILES C[C@@H]1C[N@H+](Cc2ccccc2)CC[C@@H]1CC(=O)NCCCCNC(=O)c1ccc(-c2c3nc(c(-c4cc(S(=O)(=O)[O-])ccc4F)c4ccc([nH]4)c(-c4cc(S(=O)(=O)[O-])ccc4F)c4nc(c(-c5cc(S(=O)(=O)[O-])ccc5F)c5ccc2[nH]5)C=C4)C=C3)cc1
REMARK SMILES IDX 20 1 19 2 18 3 16 4 17 5 15 7 14 8 1 9 2 10 3 11 4 12 13 13
REMARK SMILES IDX 12 14 5 16 6 17 7 18 11 19 8 20 10 21 9 22 21 23 22 24 23 25
REMARK SMILES IDX 24 26 25 28 26 29 27 30 88 31 28 32 87 33 29 34 30 35 31 36
REMARK SMILES IDX 81 37 32 38 86 39 80 40 82 41 33 42 85 43 79 44 78 45 34 47
REMARK SMILES IDX 66 48 46 49 65 50 47 51 50 52 64 53 83 54 48 55 49 56 63 58
REMARK SMILES IDX 84 59 51 60 35 61 36 62 44 63 37 64 43 65 45 66 42 67 38 68
REMARK SMILES IDX 39 69 40 70 41 71 67 72 68 73 76 74 69 75 75 76 77 77 74 78
REMARK SMILES IDX 70 79 71 80 72 81 73 82 52 83 53 84 61 85 54 86 60 87 62 88
REMARK SMILES IDX 59 89 55 90 56 91 57 92 58 93
REMARK H PARENT 18 6 4 15 23 27 82 46 50 57
REMARK Flexibility Score: inf
ROOT
ATOM      1  C   UNL A   1      31.801  30.334  25.965  1.00  0.00     0.023 C 
ENDROOT
BRANCH   1   2
ATOM      2  C   UNL A   1      33.137  29.592  26.028  1.00  0.00     0.116 C 
BRANCH   2   3
ATOM      3  N   UNL A   1      33.755  29.298  24.754  1.00  0.00    -0.356 N 
ATOM      4  C   UNL A   1      33.820  28.138  24.056  1.00  0.00     0.220 C 
ATOM      5  O   UNL A   1      34.107  28.207  22.857  1.00  0.00    -0.275 OA
ATOM      6  H   UNL A   1      34.201  30.064  24.325  1.00  0.00     0.163 HD
BRANCH   4   7
ATOM      7  C   UNL A   1      33.537  26.800  24.704  1.00  0.00     0.104 C 
BRANCH   7   8
ATOM      8  C   UNL A   1      34.104  25.515  24.057  1.00  0.00     0.012 C 
ATOM      9  C   UNL A   1      31.807  25.169  22.803  1.00  0.00     0.014 C 
ATOM     10  C   UNL A   1      33.300  24.849  22.901  1.00  0.00     0.045 C 
ATOM     11  C   UNL A   1      33.609  23.355  22.652  1.00  0.00     0.265 C 
ATOM     12  N   UNL A   1      33.947  22.532  23.795  1.00  0.00    -0.331 N 
ATOM     13  C   UNL A   1      34.473  24.533  25.184  1.00  0.00     0.066 C 
ATOM     14  C   UNL A   1      34.904  23.156  24.687  1.00  0.00     0.262 C 
ATOM     15  H   UNL A   1      34.478  21.757  23.398  1.00  0.00     0.348 HD
BRANCH  12  16
ATOM     16  C   UNL A   1      32.888  21.705  24.375  1.00  0.00     0.299 C 
BRANCH  16  17
ATOM     17  C   UNL A   1      32.920  20.229  24.058  1.00  0.00     0.006 A 
ATOM     18  C   UNL A   1      32.182  19.712  22.982  1.00  0.00     0.009 A 
ATOM     19  C   UNL A   1      33.731  19.357  24.790  1.00  0.00     0.009 A 
ATOM     20  C   UNL A   1      32.341  18.384  22.584  1.00  0.00     0.001 A 
ATOM     21  C   UNL A   1      33.910  18.035  24.379  1.00  0.00     0.001 A 
ATOM     22  C   UNL A   1      33.228  17.555  23.265  1.00  0.00     0.000 A 
ENDBRANCH  16  17
ENDBRANCH  12  16
ENDBRANCH   7   8
ENDBRANCH   4   7
ENDBRANCH   2   3
ENDBRANCH   1   2
BRANCH   1  23
ATOM     23  C   UNL A   1      31.665  31.574  26.848  1.00  0.00     0.023 C 
BRANCH  23  24
ATOM     24  C   UNL A   1      32.964  32.251  27.228  1.00  0.00     0.116 C 
BRANCH  24  25
ATOM     25  N   UNL A   1      32.775  33.659  27.502  1.00  0.00    -0.352 N 
ATOM     26  C   UNL A   1      33.302  34.422  28.515  1.00  0.00     0.251 C 
ATOM     27  H   UNL A   1      32.183  34.137  26.877  1.00  0.00     0.163 HD
ATOM     28  O   UNL A   1      32.825  35.531  28.735  1.00  0.00    -0.269 OA
BRANCH  26  29
ATOM     29  C   UNL A   1      34.425  33.910  29.341  1.00  0.00     0.039 A 
ATOM     30  C   UNL A   1      35.724  34.331  29.045  1.00  0.00     0.014 A 
ATOM     31  C   UNL A   1      34.214  32.981  30.365  1.00  0.00     0.014 A 
ATOM     32  C   UNL A   1      36.803  33.836  29.783  1.00  0.00     0.010 A 
ATOM     33  C   UNL A   1      35.277  32.560  31.160  1.00  0.00     0.010 A 
ATOM     34  C   UNL A   1      36.587  32.955  30.854  1.00  0.00    -0.014 A 
BRANCH  34  35
ATOM     35  C   UNL A   1      37.720  32.347  31.598  1.00  0.00     0.031 A 
ATOM     36  C   UNL A   1      38.525  31.252  30.945  1.00  0.00     0.074 A 
ATOM     37  C   UNL A   1      38.002  32.746  32.853  1.00  0.00     0.049 A 
ATOM     38  N   UNL A   1      39.488  30.519  31.440  1.00  0.00    -0.248 NA
ATOM     39  C   UNL A   1      38.175  30.919  29.554  1.00  0.00     0.031 C 
ATOM     40  C   UNL A   1      37.278  33.781  33.595  1.00  0.00     0.029 A 
ATOM     41  N   UNL A   1      38.971  32.328  33.730  1.00  0.00    -0.354 N 
ATOM     42  C   UNL A   1      39.845  29.629  30.431  1.00  0.00     0.074 A 
ATOM     43  C   UNL A   1      38.948  29.870  29.322  1.00  0.00     0.031 C 
ATOM     44  C   UNL A   1      37.846  33.933  34.804  1.00  0.00     0.029 A 
ATOM     45  C   UNL A   1      38.944  32.981  34.939  1.00  0.00     0.049 A 
ATOM     46  H   UNL A   1      39.624  31.624  33.512  1.00  0.00     0.167 HD
ATOM     47  C   UNL A   1      40.849  28.718  30.416  1.00  0.00     0.034 A 
ATOM     48  C   UNL A   1      39.716  32.823  36.033  1.00  0.00     0.034 A 
ATOM     49  C   UNL A   1      41.751  28.509  31.520  1.00  0.00     0.049 A 
ATOM     50  C   UNL A   1      40.818  31.792  35.997  1.00  0.00     0.074 A 
ATOM     51  C   UNL A   1      42.813  27.626  31.616  1.00  0.00     0.029 A 
ATOM     52  N   UNL A   1      41.703  29.204  32.721  1.00  0.00    -0.354 N 
ATOM     53  N   UNL A   1      41.150  30.969  35.028  1.00  0.00    -0.248 NA
ATOM     54  C   UNL A   1      41.656  31.677  37.197  1.00  0.00     0.031 C 
ATOM     55  C   UNL A   1      43.379  27.757  32.888  1.00  0.00     0.029 A 
ATOM     56  C   UNL A   1      42.710  28.764  33.565  1.00  0.00     0.049 A 
ATOM     57  H   UNL A   1      41.050  29.906  32.941  1.00  0.00     0.167 HD
ATOM     58  C   UNL A   1      42.259  30.268  35.491  1.00  0.00     0.074 A 
ATOM     59  C   UNL A   1      42.548  30.774  36.817  1.00  0.00     0.031 C 
ATOM     60  C   UNL A   1      42.980  29.293  34.879  1.00  0.00     0.034 A 
BRANCH  47  61
ATOM     61  C   UNL A   1      41.005  27.881  29.170  1.00  0.00     0.023 A 
ATOM     62  C   UNL A   1      42.000  28.163  28.217  1.00  0.00     0.031 A 
ATOM     63  C   UNL A   1      40.133  26.808  28.913  1.00  0.00     0.131 A 
ATOM     64  C   UNL A   1      42.051  27.433  27.020  1.00  0.00     0.055 A 
ATOM     65  C   UNL A   1      40.241  26.034  27.756  1.00  0.00     0.041 A 
ATOM     66  F   UNL A   1      39.151  26.504  29.775  1.00  0.00    -0.206 F 
ATOM     67  C   UNL A   1      41.196  26.353  26.794  1.00  0.00     0.022 A 
BRANCH  64  68
ATOM     68  S   UNL A   1      43.168  27.998  25.708  1.00  0.00     0.124 S 
ATOM     69  O   UNL A   1      42.234  28.226  24.607  1.00  0.00    -0.237 OA
ATOM     70  O   UNL A   1      43.769  29.191  26.293  1.00  0.00    -0.237 OA
ATOM     71  O   UNL A   1      44.077  26.869  25.521  1.00  0.00    -0.744 OA
ENDBRANCH  64  68
ENDBRANCH  47  61
BRANCH  48  72
ATOM     72  C   UNL A   1      39.490  33.647  37.255  1.00  0.00     0.023 A 
ATOM     73  C   UNL A   1      38.807  33.119  38.363  1.00  0.00     0.031 A 
ATOM     74  C   UNL A   1      39.890  34.993  37.310  1.00  0.00     0.131 A 
ATOM     75  C   UNL A   1      38.490  33.947  39.451  1.00  0.00     0.055 A 
ATOM     76  C   UNL A   1      39.623  35.798  38.420  1.00  0.00     0.041 A 
ATOM     77  F   UNL A   1      40.551  35.548  36.281  1.00  0.00    -0.206 F 
ATOM     78  C   UNL A   1      38.903  35.280  39.492  1.00  0.00     0.022 A 
BRANCH  75  79
ATOM     79  S   UNL A   1      37.431  33.283  40.765  1.00  0.00     0.124 S 
ATOM     80  O   UNL A   1      38.180  32.104  41.185  1.00  0.00    -0.237 OA
ATOM     81  O   UNL A   1      37.396  34.392  41.713  1.00  0.00    -0.237 OA
ATOM     82  O   UNL A   1      36.170  33.010  40.080  1.00  0.00    -0.744 OA
ENDBRANCH  75  79
ENDBRANCH  48  72
BRANCH  60  83
ATOM     83  C   UNL A   1      44.179  28.766  35.624  1.00  0.00     0.023 A 
ATOM     84  C   UNL A   1      44.076  27.690  36.521  1.00  0.00     0.031 A 
ATOM     85  C   UNL A   1      45.439  29.361  35.439  1.00  0.00     0.131 A 
ATOM     86  C   UNL A   1      45.203  27.278  37.246  1.00  0.00     0.055 A 
ATOM     87  C   UNL A   1      46.569  28.912  36.123  1.00  0.00     0.041 A 
ATOM     88  F   UNL A   1      45.590  30.391  34.590  1.00  0.00    -0.206 F 
ATOM     89  C   UNL A   1      46.452  27.873  37.041  1.00  0.00     0.022 A 
BRANCH  86  90
ATOM     90  S   UNL A   1      45.000  26.006  38.522  1.00  0.00     0.124 S 
ATOM     91  O   UNL A   1      44.108  26.667  39.470  1.00  0.00    -0.237 OA
ATOM     92  O   UNL A   1      44.421  24.898  37.769  1.00  0.00    -0.237 OA
ATOM     93  O   UNL A   1      46.362  25.782  39.004  1.00  0.00    -0.744 OA
ENDBRANCH  86  90
ENDBRANCH  60  83
ENDBRANCH  34  35
ENDBRANCH  26  29
ENDBRANCH  24  25
ENDBRANCH  23  24
ENDBRANCH   1  23
TORSDOF 17
ENDMDL
MODEL 2
REMARK VINA RESULT:     -11.9      5.674      9.070
REMARK SMILES C[C@@H]1C[N@H+](Cc2ccccc2)CC[C@@H]1CC(=O)NCCCCNC(=O)c1ccc(-c2c3nc(c(-c4cc(S(=O)(=O)[O-])ccc4F)c4ccc([nH]4)c(-c4cc(S(=O)(=O)[O-])ccc4F)c4nc(c(-c5cc(S(=O)(=O)[O-])ccc5F)c5ccc2[nH]5)C=C4)C=C3)cc1
REMARK SMILES IDX 20 1 19 2 18 3 16 4 17 5 15 7 14 8 1 9 2 10 3 11 4 12 13 13
REMARK SMILES IDX 12 14 5 16 6 17 7 18 11 19 8 20 10 21 9 22 21 23 22 24 23 25
REMARK SMILES IDX 24 26 25 28 26 29 27 30 88 31 28 32 87 33 29 34 30 35 31 36
REMARK SMILES IDX 81 37 32 38 86 39 80 40 82 41 33 42 85 43 79 44 78 45 34 47
REMARK SMILES IDX 66 48 46 49 65 50 47 51 50 52 64 53 83 54 48 55 49 56 63 58
REMARK SMILES IDX 84 59 51 60 35 61 36 62 44 63 37 64 43 65 45 66 42 67 38 68
REMARK SMILES IDX 39 69 40 70 41 71 67 72 68 73 76 74 69 75 75 76 77 77 74 78
REMARK SMILES IDX 70 79 71 80 72 81 73 82 52 83 53 84 61 85 54 86 60 87 62 88
REMARK SMILES IDX 59 89 55 90 56 91 57 92 58 93
REMARK H PARENT 18 6 4 15 23 27 82 46 50 57
REMARK Flexibility Score: inf
ROOT
ATOM      1  C   UNL A   1      36.131  20.380  25.003  1.00  0.00     0.023 C 
ENDROOT
BRANCH   1   2
ATOM      2  C   UNL A   1      34.949  20.995  25.752  1.00  0.00     0.116 C 
BRANCH   2   3
ATOM      3  N   UNL A   1      33.805  20.132  25.945  1.00  0.00    -0.356 N 
ATOM      4  C   UNL A   1      32.816  19.779  25.087  1.00  0.00     0.220 C 
ATOM      5  O   UNL A   1      32.143  18.784  25.367  1.00  0.00    -0.275 OA
ATOM      6  H   UNL A   1      33.734  19.736  26.843  1.00  0.00     0.163 HD
BRANCH   4   7
ATOM      7  C   UNL A   1      32.544  20.560  23.820  1.00  0.00     0.104 C 
BRANCH   7   8
ATOM      8  C   UNL A   1      31.826  21.927  23.915  1.00  0.00     0.012 C 
ATOM      9  C   UNL A   1      33.994  23.097  22.969  1.00  0.00     0.014 C 
ATOM     10  C   UNL A   1      32.490  23.162  23.238  1.00  0.00     0.045 C 
ATOM     11  C   UNL A   1      32.038  24.538  23.777  1.00  0.00     0.265 C 
ATOM     12  N   UNL A   1      31.708  24.640  25.185  1.00  0.00    -0.331 N 
ATOM     13  C   UNL A   1      31.452  22.170  25.388  1.00  0.00     0.066 C 
ATOM     14  C   UNL A   1      30.871  23.555  25.657  1.00  0.00     0.262 C 
ATOM     15  H   UNL A   1      31.087  25.448  25.239  1.00  0.00     0.348 HD
BRANCH  12  16
ATOM     16  C   UNL A   1      32.729  25.178  26.085  1.00  0.00     0.299 C 
BRANCH  16  17
ATOM     17  C   UNL A   1      32.767  26.677  26.261  1.00  0.00     0.006 A 
ATOM     18  C   UNL A   1      31.685  27.358  26.840  1.00  0.00     0.009 A 
ATOM     19  C   UNL A   1      33.903  27.411  25.907  1.00  0.00     0.009 A 
ATOM     20  C   UNL A   1      31.785  28.713  27.158  1.00  0.00     0.001 A 
ATOM     21  C   UNL A   1      34.015  28.760  26.245  1.00  0.00     0.001 A 
ATOM     22  C   UNL A   1      32.963  29.406  26.887  1.00  0.00     0.000 A 
ENDBRANCH  16  17
ENDBRANCH  12  16
ENDBRANCH   7   8
ENDBRANCH   4   7
ENDBRANCH   2   3
ENDBRANCH   1   2
BRANCH   1  23
ATOM     23  C   UNL A   1      37.121  21.355  24.367  1.00  0.00     0.023 C 
BRANCH  23  24
ATOM     24  C   UNL A   1      38.037  22.077  25.332  1.00  0.00     0.116 C 
BRANCH  24  25
ATOM     25  N   UNL A   1      38.889  21.157  26.053  1.00  0.00    -0.352 N 
ATOM     26  C   UNL A   1      40.018  21.418  26.790  1.00  0.00     0.251 C 
ATOM     27  H   UNL A   1      38.622  20.210  26.009  1.00  0.00     0.163 HD
ATOM     28  O   UNL A   1      40.748  20.486  27.110  1.00  0.00    -0.269 OA
BRANCH  26  29
ATOM     29  C   UNL A   1      40.359  22.809  27.181  1.00  0.00     0.039 A 
ATOM     30  C   UNL A   1      39.687  23.866  26.562  1.00  0.00     0.014 A 
ATOM     31  C   UNL A   1      41.370  23.080  28.109  1.00  0.00     0.014 A 
ATOM     32  C   UNL A   1      40.013  25.186  26.886  1.00  0.00     0.010 A 
ATOM     33  C   UNL A   1      41.631  24.391  28.499  1.00  0.00     0.010 A 
ATOM     34  C   UNL A   1      40.981  25.459  27.864  1.00  0.00    -0.014 A 
BRANCH  34  35
ATOM     35  C   UNL A   1      41.410  26.850  28.164  1.00  0.00     0.031 A 
ATOM     36  C   UNL A   1      42.811  27.279  27.812  1.00  0.00     0.074 A 
ATOM     37  C   UNL A   1      40.566  27.705  28.774  1.00  0.00     0.049 A 
ATOM     38  N   UNL A   1      43.426  28.404  28.067  1.00  0.00    -0.248 NA
ATOM     39  C   UNL A   1      43.643  26.291  27.104  1.00  0.00     0.031 C 
ATOM     40  C   UNL A   1      39.194  27.395  29.180  1.00  0.00     0.029 A 
ATOM     41  N   UNL A   1      40.739  29.010  29.160  1.00  0.00    -0.354 N 
ATOM     42  C   UNL A   1      44.716  28.255  27.568  1.00  0.00     0.074 A 
ATOM     43  C   UNL A   1      44.815  26.904  27.058  1.00  0.00     0.031 C 
ATOM     44  C   UNL A   1      38.643  28.489  29.735  1.00  0.00     0.029 A 
ATOM     45  C   UNL A   1      39.632  29.561  29.762  1.00  0.00     0.049 A 
ATOM     46  H   UNL A   1      41.578  29.506  29.020  1.00  0.00     0.167 HD
ATOM     47  C   UNL A   1      45.717  29.167  27.509  1.00  0.00     0.034 A 
ATOM     48  C   UNL A   1      39.443  30.791  30.281  1.00  0.00     0.034 A 
ATOM     49  C   UNL A   1      45.594  30.517  27.997  1.00  0.00     0.049 A 
ATOM     50  C   UNL A   1      40.578  31.785  30.217  1.00  0.00     0.074 A 
ATOM     51  C   UNL A   1      46.533  31.534  27.980  1.00  0.00     0.029 A 
ATOM     52  N   UNL A   1      44.450  31.042  28.584  1.00  0.00    -0.354 N 
ATOM     53  N   UNL A   1      41.787  31.629  29.727  1.00  0.00    -0.248 NA
ATOM     54  C   UNL A   1      40.317  33.123  30.762  1.00  0.00     0.031 C 
ATOM     55  C   UNL A   1      45.973  32.659  28.593  1.00  0.00     0.029 A 
ATOM     56  C   UNL A   1      44.663  32.365  28.939  1.00  0.00     0.049 A 
ATOM     57  H   UNL A   1      43.611  30.549  28.727  1.00  0.00     0.167 HD
ATOM     58  C   UNL A   1      42.416  32.862  29.873  1.00  0.00     0.074 A 
ATOM     59  C   UNL A   1      41.449  33.753  30.481  1.00  0.00     0.031 C 
ATOM     60  C   UNL A   1      43.678  33.232  29.536  1.00  0.00     0.034 A 
BRANCH  47  61
ATOM     61  C   UNL A   1      47.026  28.720  26.905  1.00  0.00     0.023 A 
ATOM     62  C   UNL A   1      47.158  28.498  25.523  1.00  0.00     0.031 A 
ATOM     63  C   UNL A   1      48.148  28.484  27.719  1.00  0.00     0.131 A 
ATOM     64  C   UNL A   1      48.355  27.981  25.006  1.00  0.00     0.055 A 
ATOM     65  C   UNL A   1      49.363  28.047  27.188  1.00  0.00     0.041 A 
ATOM     66  F   UNL A   1      48.078  28.659  29.048  1.00  0.00    -0.206 F 
ATOM     67  C   UNL A   1      49.468  27.779  25.825  1.00  0.00     0.022 A 
BRANCH  64  68
ATOM     68  S   UNL A   1      48.396  27.457  23.271  1.00  0.00     0.124 S 
ATOM     69  O   UNL A   1      47.220  28.137  22.732  1.00  0.00    -0.237 OA
ATOM     70  O   UNL A   1      49.688  27.959  22.817  1.00  0.00    -0.237 OA
ATOM     71  O   UNL A   1      48.285  26.002  23.350  1.00  0.00    -0.744 OA
ENDBRANCH  64  68
ENDBRANCH  47  61
BRANCH  48  72
ATOM     72  C   UNL A   1      38.143  31.166  30.907  1.00  0.00     0.023 A 
ATOM     73  C   UNL A   1      37.132  31.783  30.151  1.00  0.00     0.031 A 
ATOM     74  C   UNL A   1      37.914  30.979  32.281  1.00  0.00     0.131 A 
ATOM     75  C   UNL A   1      35.968  32.246  30.783  1.00  0.00     0.055 A 
ATOM     76  C   UNL A   1      36.729  31.389  32.895  1.00  0.00     0.041 A 
ATOM     77  F   UNL A   1      38.844  30.389  33.050  1.00  0.00    -0.206 F 
ATOM     78  C   UNL A   1      35.754  32.043  32.148  1.00  0.00     0.022 A 
BRANCH  75  79
ATOM     79  S   UNL A   1      34.784  33.218  29.812  1.00  0.00     0.124 S 
ATOM     80  O   UNL A   1      35.659  34.172  29.142  1.00  0.00    -0.237 OA
ATOM     81  O   UNL A   1      34.179  32.196  28.963  1.00  0.00    -0.237 OA
ATOM     82  O   UNL A   1      33.899  33.787  30.826  1.00  0.00    -0.744 OA
ENDBRANCH  75  79
ENDBRANCH  48  72
BRANCH  60  83
ATOM     83  C   UNL A   1      44.048  34.674  29.767  1.00  0.00     0.023 A 
ATOM     84  C   UNL A   1      43.849  35.655  28.781  1.00  0.00     0.031 A 
ATOM     85  C   UNL A   1      44.622  35.066  30.989  1.00  0.00     0.131 A 
ATOM     86  C   UNL A   1      44.273  36.970  29.012  1.00  0.00     0.055 A 
ATOM     87  C   UNL A   1      44.992  36.388  31.234  1.00  0.00     0.041 A 
ATOM     88  F   UNL A   1      44.831  34.166  31.965  1.00  0.00    -0.206 F 
ATOM     89  C   UNL A   1      44.831  37.346  30.238  1.00  0.00     0.022 A 
BRANCH  86  90
ATOM     90  S   UNL A   1      44.163  38.171  27.657  1.00  0.00     0.124 S 
ATOM     91  O   UNL A   1      43.035  37.657  26.887  1.00  0.00    -0.237 OA
ATOM     92  O   UNL A   1      43.931  39.424  28.369  1.00  0.00    -0.237 OA
ATOM     93  O   UNL A   1      45.463  38.065  26.998  1.00  0.00    -0.744 OA
ENDBRANCH  86  90
ENDBRANCH  60  83
ENDBRANCH  34  35
ENDBRANCH  26  29
ENDBRANCH  24  25
ENDBRANCH  23  24
ENDBRANCH   1  23
TORSDOF 17
ENDMDL
MODEL 3
REMARK VINA RESULT:     -11.9      2.559      3.355
REMARK SMILES C[C@@H]1C[N@H+](Cc2ccccc2)CC[C@@H]1CC(=O)NCCCCNC(=O)c1ccc(-c2c3nc(c(-c4cc(S(=O)(=O)[O-])ccc4F)c4ccc([nH]4)c(-c4cc(S(=O)(=O)[O-])ccc4F)c4nc(c(-c5cc(S(=O)(=O)[O-])ccc5F)c5ccc2[nH]5)C=C4)C=C3)cc1
REMARK SMILES IDX 20 1 19 2 18 3 16 4 17 5 15 7 14 8 1 9 2 10 3 11 4 12 13 13
REMARK SMILES IDX 12 14 5 16 6 17 7 18 11 19 8 20 10 21 9 22 21 23 22 24 23 25
REMARK SMILES IDX 24 26 25 28 26 29 27 30 88 31 28 32 87 33 29 34 30 35 31 36
REMARK SMILES IDX 81 37 32 38 86 39 80 40 82 41 33 42 85 43 79 44 78 45 34 47
REMARK SMILES IDX 66 48 46 49 65 50 47 51 50 52 64 53 83 54 48 55 49 56 63 58
REMARK SMILES IDX 84 59 51 60 35 61 36 62 44 63 37 64 43 65 45 66 42 67 38 68
REMARK SMILES IDX 39 69 40 70 41 71 67 72 68 73 76 74 69 75 75 76 77 77 74 78
REMARK SMILES IDX 70 79 71 80 72 81 73 82 52 83 53 84 61 85 54 86 60 87 62 88
REMARK SMILES IDX 59 89 55 90 56 91 57 92 58 93
REMARK H PARENT 18 6 4 15 23 27 82 46 50 57
REMARK Flexibility Score: inf
ROOT
ATOM      1  C   UNL A   1      31.707  27.554  26.801  1.00  0.00     0.023 C 
ENDROOT
BRANCH   1   2
ATOM      2  C   UNL A   1      31.684  26.065  26.454  1.00  0.00     0.116 C 
BRANCH   2   3
ATOM      3  N   UNL A   1      31.969  25.734  25.076  1.00  0.00    -0.356 N 
ATOM      4  C   UNL A   1      33.038  25.110  24.524  1.00  0.00     0.220 C 
ATOM      5  O   UNL A   1      32.909  24.649  23.387  1.00  0.00    -0.275 OA
ATOM      6  H   UNL A   1      31.274  26.006  24.434  1.00  0.00     0.163 HD
BRANCH   4   7
ATOM      7  C   UNL A   1      34.347  24.962  25.270  1.00  0.00     0.104 C 
BRANCH   7   8
ATOM      8  C   UNL A   1      34.732  23.581  25.851  1.00  0.00     0.012 C 
ATOM      9  C   UNL A   1      35.852  22.956  23.544  1.00  0.00     0.014 C 
ATOM     10  C   UNL A   1      35.717  22.684  25.043  1.00  0.00     0.045 C 
ATOM     11  C   UNL A   1      35.666  21.176  25.376  1.00  0.00     0.265 C 
ATOM     12  N   UNL A   1      34.386  20.604  25.744  1.00  0.00    -0.331 N 
ATOM     13  C   UNL A   1      33.437  22.852  26.252  1.00  0.00     0.066 C 
ATOM     14  C   UNL A   1      33.654  21.410  26.701  1.00  0.00     0.262 C 
ATOM     15  H   UNL A   1      34.629  19.773  26.283  1.00  0.00     0.348 HD
BRANCH  12  16
ATOM     16  C   UNL A   1      33.635  19.895  24.708  1.00  0.00     0.299 C 
BRANCH  16  17
ATOM     17  C   UNL A   1      33.586  18.390  24.806  1.00  0.00     0.006 A 
ATOM     18  C   UNL A   1      34.637  17.605  24.305  1.00  0.00     0.009 A 
ATOM     19  C   UNL A   1      32.525  17.748  25.450  1.00  0.00     0.009 A 
ATOM     20  C   UNL A   1      34.675  16.231  24.545  1.00  0.00     0.001 A 
ATOM     21  C   UNL A   1      32.572  16.378  25.711  1.00  0.00     0.001 A 
ATOM     22  C   UNL A   1      33.656  15.623  25.274  1.00  0.00     0.000 A 
ENDBRANCH  16  17
ENDBRANCH  12  16
ENDBRANCH   7   8
ENDBRANCH   4   7
ENDBRANCH   2   3
ENDBRANCH   1   2
BRANCH   1  23
ATOM     23  C   UNL A   1      31.686  28.531  25.625  1.00  0.00     0.023 C 
BRANCH  23  24
ATOM     24  C   UNL A   1      32.861  29.481  25.545  1.00  0.00     0.116 C 
BRANCH  24  25
ATOM     25  N   UNL A   1      32.487  30.828  25.919  1.00  0.00    -0.352 N 
ATOM     26  C   UNL A   1      32.989  31.619  26.923  1.00  0.00     0.251 C 
ATOM     27  H   UNL A   1      31.771  31.234  25.378  1.00  0.00     0.163 HD
ATOM     28  O   UNL A   1      32.372  32.627  27.251  1.00  0.00    -0.269 OA
BRANCH  26  29
ATOM     29  C   UNL A   1      34.251  31.253  27.613  1.00  0.00     0.039 A 
ATOM     30  C   UNL A   1      34.403  29.948  28.091  1.00  0.00     0.014 A 
ATOM     31  C   UNL A   1      35.259  32.195  27.841  1.00  0.00     0.014 A 
ATOM     32  C   UNL A   1      35.567  29.587  28.776  1.00  0.00     0.010 A 
ATOM     33  C   UNL A   1      36.456  31.811  28.441  1.00  0.00     0.010 A 
ATOM     34  C   UNL A   1      36.607  30.513  28.947  1.00  0.00    -0.014 A 
BRANCH  34  35
ATOM     35  C   UNL A   1      37.815  30.182  29.746  1.00  0.00     0.031 A 
ATOM     36  C   UNL A   1      38.842  29.240  29.169  1.00  0.00     0.074 A 
ATOM     37  C   UNL A   1      37.974  30.692  30.983  1.00  0.00     0.049 A 
ATOM     38  N   UNL A   1      39.916  28.740  29.723  1.00  0.00    -0.248 NA
ATOM     39  C   UNL A   1      38.607  28.774  27.793  1.00  0.00     0.031 C 
ATOM     40  C   UNL A   1      37.037  31.597  31.652  1.00  0.00     0.029 A 
ATOM     41  N   UNL A   1      38.980  30.521  31.899  1.00  0.00    -0.354 N 
ATOM     42  C   UNL A   1      40.473  27.891  28.772  1.00  0.00     0.074 A 
ATOM     43  C   UNL A   1      39.580  27.892  27.633  1.00  0.00     0.031 C 
ATOM     44  C   UNL A   1      37.527  31.920  32.861  1.00  0.00     0.029 A 
ATOM     45  C   UNL A   1      38.788  31.215  33.071  1.00  0.00     0.049 A 
ATOM     46  H   UNL A   1      39.767  29.952  31.734  1.00  0.00     0.167 HD
ATOM     47  C   UNL A   1      41.638  27.200  28.826  1.00  0.00     0.034 A 
ATOM     48  C   UNL A   1      39.542  31.269  34.186  1.00  0.00     0.034 A 
ATOM     49  C   UNL A   1      42.531  27.232  29.957  1.00  0.00     0.049 A 
ATOM     50  C   UNL A   1      40.828  30.480  34.229  1.00  0.00     0.074 A 
ATOM     51  C   UNL A   1      43.743  26.585  30.122  1.00  0.00     0.029 A 
ATOM     52  N   UNL A   1      42.309  27.962  31.117  1.00  0.00    -0.354 N 
ATOM     53  N   UNL A   1      41.346  29.693  33.312  1.00  0.00    -0.248 NA
ATOM     54  C   UNL A   1      41.636  30.595  35.449  1.00  0.00     0.031 C 
ATOM     55  C   UNL A   1      44.233  26.890  31.396  1.00  0.00     0.029 A 
ATOM     56  C   UNL A   1      43.357  27.776  32.004  1.00  0.00     0.049 A 
ATOM     57  H   UNL A   1      41.523  28.529  31.286  1.00  0.00     0.167 HD
ATOM     58  C   UNL A   1      42.559  29.252  33.835  1.00  0.00     0.074 A 
ATOM     59  C   UNL A   1      42.701  29.871  35.136  1.00  0.00     0.031 C 
ATOM     60  C   UNL A   1      43.477  28.412  33.291  1.00  0.00     0.034 A 
BRANCH  47  61
ATOM     61  C   UNL A   1      41.995  26.350  27.631  1.00  0.00     0.023 A 
ATOM     62  C   UNL A   1      41.608  25.001  27.549  1.00  0.00     0.031 A 
ATOM     63  C   UNL A   1      42.757  26.882  26.576  1.00  0.00     0.131 A 
ATOM     64  C   UNL A   1      42.046  24.210  26.477  1.00  0.00     0.055 A 
ATOM     65  C   UNL A   1      43.121  26.109  25.471  1.00  0.00     0.041 A 
ATOM     66  F   UNL A   1      43.173  28.157  26.607  1.00  0.00    -0.206 F 
ATOM     67  C   UNL A   1      42.778  24.760  25.423  1.00  0.00     0.022 A 
BRANCH  64  68
ATOM     68  S   UNL A   1      41.754  22.421  26.544  1.00  0.00     0.124 S 
ATOM     69  O   UNL A   1      40.300  22.356  26.410  1.00  0.00    -0.237 OA
ATOM     70  O   UNL A   1      42.522  21.931  25.405  1.00  0.00    -0.237 OA
ATOM     71  O   UNL A   1      42.270  22.038  27.856  1.00  0.00    -0.744 OA
ENDBRANCH  64  68
ENDBRANCH  47  61
BRANCH  48  72
ATOM     72  C   UNL A   1      39.120  32.092  35.356  1.00  0.00     0.023 A 
ATOM     73  C   UNL A   1      39.580  33.410  35.513  1.00  0.00     0.031 A 
ATOM     74  C   UNL A   1      38.309  31.553  36.370  1.00  0.00     0.131 A 
ATOM     75  C   UNL A   1      39.277  34.124  36.683  1.00  0.00     0.055 A 
ATOM     76  C   UNL A   1      37.963  32.288  37.506  1.00  0.00     0.041 A 
ATOM     77  F   UNL A   1      37.838  30.300  36.270  1.00  0.00    -0.206 F 
ATOM     78  C   UNL A   1      38.463  33.576  37.676  1.00  0.00     0.022 A 
BRANCH  75  79
ATOM     79  S   UNL A   1      40.058  35.741  36.937  1.00  0.00     0.124 S 
ATOM     80  O   UNL A   1      41.468  35.380  37.026  1.00  0.00    -0.237 OA
ATOM     81  O   UNL A   1      39.655  36.463  35.735  1.00  0.00    -0.237 OA
ATOM     82  O   UNL A   1      39.456  36.217  38.180  1.00  0.00    -0.744 OA
ENDBRANCH  75  79
ENDBRANCH  48  72
BRANCH  60  83
ATOM     83  C   UNL A   1      44.734  28.174  34.087  1.00  0.00     0.023 A 
ATOM     84  C   UNL A   1      44.837  27.115  35.005  1.00  0.00     0.031 A 
ATOM     85  C   UNL A   1      45.838  29.031  33.931  1.00  0.00     0.131 A 
ATOM     86  C   UNL A   1      46.000  26.973  35.775  1.00  0.00     0.055 A 
ATOM     87  C   UNL A   1      47.013  28.852  34.662  1.00  0.00     0.041 A 
ATOM     88  F   UNL A   1      45.790  30.056  33.065  1.00  0.00    -0.206 F 
ATOM     89  C   UNL A   1      47.093  27.826  35.599  1.00  0.00     0.022 A 
BRANCH  86  90
ATOM     90  S   UNL A   1      46.034  25.707  37.073  1.00  0.00     0.124 S 
ATOM     91  O   UNL A   1      44.727  25.879  37.699  1.00  0.00    -0.237 OA
ATOM     92  O   UNL A   1      46.216  24.479  36.305  1.00  0.00    -0.237 OA
ATOM     93  O   UNL A   1      47.175  26.094  37.900  1.00  0.00    -0.744 OA
ENDBRANCH  86  90
ENDBRANCH  60  83
ENDBRANCH  34  35
ENDBRANCH  26  29
ENDBRANCH  24  25
ENDBRANCH  23  24
ENDBRANCH   1  23
TORSDOF 17
ENDMDL
