MODEL 1
REMARK VINA RESULT:     -11.3      0.000      0.000
REMARK SMILES CN1CC[N@H+](CC(=O)NCCCCNC(=O)c2ccc(-c3c4nc(c(-c5cc(S(=O)(=O)[O-])ccc5F)c5ccc([nH]5)c(-c5cc(S(=O)(=O)[O-])ccc5F)c5nc(c(-c6cc(S(=O)(=O)[O-])ccc6F)c6ccc3[nH]6)C=C5)C=C4)cc2)C(C)(C)C1=O
REMARK SMILES IDX 12 1 11 2 10 3 9 4 7 5 8 6 6 8 5 9 1 10 2 11 3 12 83 13 4 14
REMARK SMILES IDX 80 15 84 16 81 17 82 18 13 20 14 21 15 22 16 24 17 25 18 26
REMARK SMILES IDX 79 27 19 28 78 29 20 30 21 31 22 32 72 33 23 34 77 35 71 36
REMARK SMILES IDX 73 37 24 38 76 39 70 40 69 41 25 43 57 44 37 45 56 46 38 47
REMARK SMILES IDX 41 48 55 49 74 50 39 51 40 52 54 54 75 55 42 56 26 57 27 58
REMARK SMILES IDX 35 59 28 60 34 61 36 62 33 63 29 64 30 65 31 66 32 67 58 68
REMARK SMILES IDX 59 69 67 70 60 71 66 72 68 73 65 74 61 75 62 76 63 77 64 78
REMARK SMILES IDX 43 79 44 80 52 81 45 82 51 83 53 84 50 85 46 86 47 87 48 88
REMARK SMILES IDX 49 89
REMARK H PARENT 9 7 5 19 14 23 73 42 41 53
REMARK Flexibility Score: inf
ROOT
ATOM      1  C   UNL A   1      32.027  28.774  25.086  1.00  0.00     0.023 C 
ENDROOT
BRANCH   1   2
ATOM      2  C   UNL A   1      32.099  28.790  23.565  1.00  0.00     0.023 C 
BRANCH   2   3
ATOM      3  C   UNL A   1      31.276  27.731  22.832  1.00  0.00     0.116 C 
BRANCH   3   4
ATOM      4  N   UNL A   1      31.993  27.036  21.771  1.00  0.00    -0.351 N 
ATOM      5  C   UNL A   1      32.915  26.034  21.738  1.00  0.00     0.275 C 
ATOM      6  O   UNL A   1      33.181  25.574  20.620  1.00  0.00    -0.269 OA
ATOM      7  H   UNL A   1      31.756  27.365  20.875  1.00  0.00     0.163 HD
BRANCH   5   8
ATOM      8  C   UNL A   1      33.572  25.429  22.986  1.00  0.00     0.364 C 
BRANCH   8   9
ATOM      9  N   UNL A   1      32.693  24.697  23.952  1.00  0.00    -0.314 N 
ATOM     10  C   UNL A   1      34.455  20.823  24.788  1.00  0.00     0.147 C 
ATOM     11  N   UNL A   1      33.779  22.090  24.575  1.00  0.00    -0.335 N 
ATOM     12  C   UNL A   1      32.911  22.218  23.412  1.00  0.00     0.180 C 
ATOM     13  C   UNL A   1      34.248  23.218  25.258  1.00  0.00     0.283 C 
ATOM     14  C   UNL A   1      32.059  23.494  23.396  1.00  0.00     0.285 C 
ATOM     15  C   UNL A   1      33.262  24.440  25.300  1.00  0.00     0.172 C 
ATOM     16  O   UNL A   1      35.258  23.146  25.950  1.00  0.00    -0.268 OA
ATOM     17  C   UNL A   1      32.252  23.942  26.374  1.00  0.00     0.090 C 
ATOM     18  C   UNL A   1      33.692  25.796  25.900  1.00  0.00     0.090 C 
ATOM     19  H   UNL A   1      31.956  25.384  24.110  1.00  0.00     0.349 HD
ENDBRANCH   8   9
ENDBRANCH   5   8
ENDBRANCH   3   4
ENDBRANCH   2   3
ENDBRANCH   1   2
BRANCH   1  20
ATOM     20  C   UNL A   1      33.140  29.572  25.704  1.00  0.00     0.116 C 
BRANCH  20  21
ATOM     21  N   UNL A   1      32.692  30.913  26.075  1.00  0.00    -0.352 N 
ATOM     22  C   UNL A   1      33.204  31.734  27.043  1.00  0.00     0.251 C 
ATOM     23  H   UNL A   1      31.930  31.270  25.565  1.00  0.00     0.163 HD
ATOM     24  O   UNL A   1      32.606  32.757  27.375  1.00  0.00    -0.269 OA
BRANCH  22  25
ATOM     25  C   UNL A   1      34.457  31.333  27.700  1.00  0.00     0.039 A 
ATOM     26  C   UNL A   1      35.464  32.277  27.890  1.00  0.00     0.014 A 
ATOM     27  C   UNL A   1      34.590  30.033  28.194  1.00  0.00     0.014 A 
ATOM     28  C   UNL A   1      36.604  31.908  28.596  1.00  0.00     0.010 A 
ATOM     29  C   UNL A   1      35.638  29.724  29.036  1.00  0.00     0.010 A 
ATOM     30  C   UNL A   1      36.688  30.635  29.184  1.00  0.00    -0.014 A 
BRANCH  30  31
ATOM     31  C   UNL A   1      37.921  30.180  29.858  1.00  0.00     0.031 A 
ATOM     32  C   UNL A   1      38.182  30.637  31.271  1.00  0.00     0.074 A 
ATOM     33  C   UNL A   1      38.793  29.402  29.191  1.00  0.00     0.049 A 
ATOM     34  N   UNL A   1      39.212  30.401  32.036  1.00  0.00    -0.248 NA
ATOM     35  C   UNL A   1      37.172  31.515  31.892  1.00  0.00     0.031 C 
ATOM     36  C   UNL A   1      38.646  28.964  27.799  1.00  0.00     0.029 A 
ATOM     37  N   UNL A   1      39.972  28.835  29.595  1.00  0.00    -0.354 N 
ATOM     38  C   UNL A   1      38.984  31.118  33.206  1.00  0.00     0.074 A 
ATOM     39  C   UNL A   1      37.763  31.864  33.022  1.00  0.00     0.031 C 
ATOM     40  C   UNL A   1      39.673  28.159  27.482  1.00  0.00     0.029 A 
ATOM     41  C   UNL A   1      40.572  28.065  28.627  1.00  0.00     0.049 A 
ATOM     42  H   UNL A   1      40.352  28.966  30.493  1.00  0.00     0.167 HD
ATOM     43  C   UNL A   1      39.712  31.121  34.346  1.00  0.00     0.034 A 
ATOM     44  C   UNL A   1      41.724  27.369  28.669  1.00  0.00     0.034 A 
ATOM     45  C   UNL A   1      40.900  30.327  34.514  1.00  0.00     0.049 A 
ATOM     46  C   UNL A   1      42.501  27.369  29.963  1.00  0.00     0.074 A 
ATOM     47  C   UNL A   1      41.689  30.188  35.639  1.00  0.00     0.029 A 
ATOM     48  N   UNL A   1      41.465  29.532  33.524  1.00  0.00    -0.354 N 
ATOM     49  N   UNL A   1      42.238  28.001  31.087  1.00  0.00    -0.248 NA
ATOM     50  C   UNL A   1      43.712  26.544  30.007  1.00  0.00     0.031 C 
ATOM     51  C   UNL A   1      42.773  29.370  35.308  1.00  0.00     0.029 A 
ATOM     52  C   UNL A   1      42.609  28.921  34.006  1.00  0.00     0.049 A 
ATOM     53  H   UNL A   1      41.105  29.420  32.615  1.00  0.00     0.167 HD
ATOM     54  C   UNL A   1      43.231  27.612  31.982  1.00  0.00     0.074 A 
ATOM     55  C   UNL A   1      44.080  26.676  31.272  1.00  0.00     0.031 C 
ATOM     56  C   UNL A   1      43.428  27.986  33.273  1.00  0.00     0.034 A 
BRANCH  43  57
ATOM     57  C   UNL A   1      39.259  32.015  35.474  1.00  0.00     0.023 A 
ATOM     58  C   UNL A   1      39.685  33.350  35.590  1.00  0.00     0.031 A 
ATOM     59  C   UNL A   1      38.384  31.517  36.455  1.00  0.00     0.131 A 
ATOM     60  C   UNL A   1      39.277  34.124  36.687  1.00  0.00     0.055 A 
ATOM     61  C   UNL A   1      37.919  32.315  37.501  1.00  0.00     0.041 A 
ATOM     62  F   UNL A   1      37.969  30.241  36.417  1.00  0.00    -0.206 F 
ATOM     63  C   UNL A   1      38.373  33.625  37.627  1.00  0.00     0.022 A 
BRANCH  60  64
ATOM     64  S   UNL A   1      40.033  35.754  36.934  1.00  0.00     0.124 S 
ATOM     65  O   UNL A   1      39.615  36.459  35.725  1.00  0.00    -0.237 OA
ATOM     66  O   UNL A   1      39.420  36.203  38.179  1.00  0.00    -0.237 OA
ATOM     67  O   UNL A   1      41.462  35.461  37.012  1.00  0.00    -0.744 OA
ENDBRANCH  60  64
ENDBRANCH  43  57
BRANCH  44  68
ATOM     68  C   UNL A   1      42.213  26.621  27.474  1.00  0.00     0.023 A 
ATOM     69  C   UNL A   1      41.897  25.267  27.284  1.00  0.00     0.031 A 
ATOM     70  C   UNL A   1      43.069  27.231  26.539  1.00  0.00     0.131 A 
ATOM     71  C   UNL A   1      42.492  24.547  26.237  1.00  0.00     0.055 A 
ATOM     72  C   UNL A   1      43.601  26.530  25.455  1.00  0.00     0.041 A 
ATOM     73  F   UNL A   1      43.401  28.526  26.664  1.00  0.00    -0.206 F 
ATOM     74  C   UNL A   1      43.331  25.173  25.312  1.00  0.00     0.022 A 
BRANCH  71  75
ATOM     75  S   UNL A   1      42.265  22.748  26.184  1.00  0.00     0.124 S 
ATOM     76  O   UNL A   1      40.818  22.630  26.320  1.00  0.00    -0.237 OA
ATOM     77  O   UNL A   1      42.817  22.413  24.876  1.00  0.00    -0.237 OA
ATOM     78  O   UNL A   1      43.041  22.275  27.328  1.00  0.00    -0.744 OA
ENDBRANCH  71  75
ENDBRANCH  44  68
BRANCH  56  79
ATOM     79  C   UNL A   1      44.564  27.324  34.009  1.00  0.00     0.023 A 
ATOM     80  C   UNL A   1      44.383  26.145  34.750  1.00  0.00     0.031 A 
ATOM     81  C   UNL A   1      45.848  27.900  33.981  1.00  0.00     0.131 A 
ATOM     82  C   UNL A   1      45.446  25.623  35.499  1.00  0.00     0.055 A 
ATOM     83  C   UNL A   1      46.923  27.330  34.662  1.00  0.00     0.041 A 
ATOM     84  F   UNL A   1      46.078  29.026  33.288  1.00  0.00    -0.206 F 
ATOM     85  C   UNL A   1      46.721  26.196  35.443  1.00  0.00     0.022 A 
BRANCH  82  86
ATOM     86  S   UNL A   1      45.110  24.265  36.650  1.00  0.00     0.124 S 
ATOM     87  O   UNL A   1      44.528  23.258  35.768  1.00  0.00    -0.237 OA
ATOM     88  O   UNL A   1      46.439  23.963  37.173  1.00  0.00    -0.237 OA
ATOM     89  O   UNL A   1      44.183  24.855  37.614  1.00  0.00    -0.744 OA
ENDBRANCH  82  86
ENDBRANCH  56  79
ENDBRANCH  30  31
ENDBRANCH  22  25
ENDBRANCH  20  21
ENDBRANCH   1  20
TORSDOF 15
ENDMDL
MODEL 2
REMARK VINA RESULT:     -11.3      4.965     10.185
REMARK SMILES CN1CC[N@H+](CC(=O)NCCCCNC(=O)c2ccc(-c3c4nc(c(-c5cc(S(=O)(=O)[O-])ccc5F)c5ccc([nH]5)c(-c5cc(S(=O)(=O)[O-])ccc5F)c5nc(c(-c6cc(S(=O)(=O)[O-])ccc6F)c6ccc3[nH]6)C=C5)C=C4)cc2)C(C)(C)C1=O
REMARK SMILES IDX 12 1 11 2 10 3 9 4 7 5 8 6 6 8 5 9 1 10 2 11 3 12 83 13 4 14
REMARK SMILES IDX 80 15 84 16 81 17 82 18 13 20 14 21 15 22 16 24 17 25 18 26
REMARK SMILES IDX 79 27 19 28 78 29 20 30 21 31 22 32 72 33 23 34 77 35 71 36
REMARK SMILES IDX 73 37 24 38 76 39 70 40 69 41 25 43 57 44 37 45 56 46 38 47
REMARK SMILES IDX 41 48 55 49 74 50 39 51 40 52 54 54 75 55 42 56 26 57 27 58
REMARK SMILES IDX 35 59 28 60 34 61 36 62 33 63 29 64 30 65 31 66 32 67 58 68
REMARK SMILES IDX 59 69 67 70 60 71 66 72 68 73 65 74 61 75 62 76 63 77 64 78
REMARK SMILES IDX 43 79 44 80 52 81 45 82 51 83 53 84 50 85 46 86 47 87 48 88
REMARK SMILES IDX 49 89
REMARK H PARENT 9 7 5 19 14 23 73 42 41 53
REMARK Flexibility Score: inf
ROOT
ATOM      1  C   UNL A   1      35.024  22.297  26.547  1.00  0.00     0.023 C 
ENDROOT
BRANCH   1   2
ATOM      2  C   UNL A   1      34.333  21.067  25.972  1.00  0.00     0.023 C 
BRANCH   2   3
ATOM      3  C   UNL A   1      32.840  21.199  25.676  1.00  0.00     0.116 C 
BRANCH   3   4
ATOM      4  N   UNL A   1      32.129  22.122  26.551  1.00  0.00    -0.351 N 
ATOM      5  C   UNL A   1      31.455  23.290  26.364  1.00  0.00     0.275 C 
ATOM      6  O   UNL A   1      30.821  23.717  27.337  1.00  0.00    -0.269 OA
ATOM      7  H   UNL A   1      32.138  21.835  27.493  1.00  0.00     0.163 HD
BRANCH   5   8
ATOM      8  C   UNL A   1      31.400  24.045  25.028  1.00  0.00     0.364 C 
BRANCH   8   9
ATOM      9  N   UNL A   1      32.568  24.909  24.665  1.00  0.00    -0.314 N 
ATOM     10  C   UNL A   1      32.518  25.601  20.384  1.00  0.00     0.147 C 
ATOM     11  N   UNL A   1      32.630  25.429  21.821  1.00  0.00    -0.335 N 
ATOM     12  C   UNL A   1      33.285  24.227  22.319  1.00  0.00     0.180 C 
ATOM     13  C   UNL A   1      31.817  26.209  22.651  1.00  0.00     0.283 C 
ATOM     14  C   UNL A   1      33.572  24.241  23.826  1.00  0.00     0.285 C 
ATOM     15  C   UNL A   1      32.251  26.269  24.158  1.00  0.00     0.172 C 
ATOM     16  O   UNL A   1      30.971  26.954  22.165  1.00  0.00    -0.268 OA
ATOM     17  C   UNL A   1      33.457  27.247  24.058  1.00  0.00     0.090 C 
ATOM     18  C   UNL A   1      31.379  26.978  25.216  1.00  0.00     0.090 C 
ATOM     19  H   UNL A   1      32.991  25.065  25.579  1.00  0.00     0.349 HD
ENDBRANCH   8   9
ENDBRANCH   5   8
ENDBRANCH   3   4
ENDBRANCH   2   3
ENDBRANCH   1   2
BRANCH   1  20
ATOM     20  C   UNL A   1      36.308  22.600  25.829  1.00  0.00     0.116 C 
BRANCH  20  21
ATOM     21  N   UNL A   1      37.202  21.444  25.825  1.00  0.00    -0.352 N 
ATOM     22  C   UNL A   1      38.554  21.424  26.035  1.00  0.00     0.251 C 
ATOM     23  H   UNL A   1      36.779  20.572  25.651  1.00  0.00     0.163 HD
ATOM     24  O   UNL A   1      39.207  20.405  25.812  1.00  0.00    -0.269 OA
BRANCH  22  25
ATOM     25  C   UNL A   1      39.203  22.663  26.487  1.00  0.00     0.039 A 
ATOM     26  C   UNL A   1      40.256  22.594  27.396  1.00  0.00     0.014 A 
ATOM     27  C   UNL A   1      38.807  23.888  25.941  1.00  0.00     0.014 A 
ATOM     28  C   UNL A   1      40.922  23.765  27.742  1.00  0.00     0.010 A 
ATOM     29  C   UNL A   1      39.575  25.014  26.154  1.00  0.00     0.010 A 
ATOM     30  C   UNL A   1      40.593  24.976  27.111  1.00  0.00    -0.014 A 
BRANCH  30  31
ATOM     31  C   UNL A   1      41.214  26.251  27.523  1.00  0.00     0.031 A 
ATOM     32  C   UNL A   1      42.603  26.570  27.031  1.00  0.00     0.074 A 
ATOM     33  C   UNL A   1      40.546  27.077  28.349  1.00  0.00     0.049 A 
ATOM     34  N   UNL A   1      43.356  27.601  27.300  1.00  0.00    -0.248 NA
ATOM     35  C   UNL A   1      43.252  25.575  26.156  1.00  0.00     0.031 C 
ATOM     36  C   UNL A   1      39.222  26.816  28.922  1.00  0.00     0.029 A 
ATOM     37  N   UNL A   1      40.886  28.307  28.846  1.00  0.00    -0.354 N 
ATOM     38  C   UNL A   1      44.564  27.364  26.652  1.00  0.00     0.074 A 
ATOM     39  C   UNL A   1      44.479  26.057  26.048  1.00  0.00     0.031 C 
ATOM     40  C   UNL A   1      38.844  27.876  29.654  1.00  0.00     0.029 A 
ATOM     41  C   UNL A   1      39.915  28.866  29.643  1.00  0.00     0.049 A 
ATOM     42  H   UNL A   1      41.743  28.749  28.649  1.00  0.00     0.167 HD
ATOM     43  C   UNL A   1      45.634  28.183  26.542  1.00  0.00     0.034 A 
ATOM     44  C   UNL A   1      39.905  30.046  30.292  1.00  0.00     0.034 A 
ATOM     45  C   UNL A   1      45.668  29.502  27.117  1.00  0.00     0.049 A 
ATOM     46  C   UNL A   1      41.102  30.951  30.129  1.00  0.00     0.074 A 
ATOM     47  C   UNL A   1      46.663  30.456  27.021  1.00  0.00     0.029 A 
ATOM     48  N   UNL A   1      44.655  30.051  27.893  1.00  0.00    -0.354 N 
ATOM     49  N   UNL A   1      42.214  30.740  29.457  1.00  0.00    -0.248 NA
ATOM     50  C   UNL A   1      41.035  32.260  30.785  1.00  0.00     0.031 C 
ATOM     51  C   UNL A   1      46.285  31.553  27.801  1.00  0.00     0.029 A 
ATOM     52  C   UNL A   1      45.013  31.322  28.304  1.00  0.00     0.049 A 
ATOM     53  H   UNL A   1      43.808  29.603  28.117  1.00  0.00     0.167 HD
ATOM     54  C   UNL A   1      42.957  31.912  29.577  1.00  0.00     0.074 A 
ATOM     55  C   UNL A   1      42.156  32.827  30.365  1.00  0.00     0.031 C 
ATOM     56  C   UNL A   1      44.186  32.212  29.084  1.00  0.00     0.034 A 
BRANCH  43  57
ATOM     57  C   UNL A   1      46.845  27.673  25.799  1.00  0.00     0.023 A 
ATOM     58  C   UNL A   1      47.085  27.992  24.451  1.00  0.00     0.031 A 
ATOM     59  C   UNL A   1      47.774  26.848  26.455  1.00  0.00     0.131 A 
ATOM     60  C   UNL A   1      48.198  27.449  23.789  1.00  0.00     0.055 A 
ATOM     61  C   UNL A   1      48.921  26.375  25.814  1.00  0.00     0.041 A 
ATOM     62  F   UNL A   1      47.582  26.481  27.732  1.00  0.00    -0.206 F 
ATOM     63  C   UNL A   1      49.133  26.668  24.470  1.00  0.00     0.022 A 
BRANCH  60  64
ATOM     64  S   UNL A   1      48.346  27.684  21.997  1.00  0.00     0.124 S 
ATOM     65  O   UNL A   1      48.588  26.318  21.540  1.00  0.00    -0.237 OA
ATOM     66  O   UNL A   1      47.053  28.256  21.644  1.00  0.00    -0.237 OA
ATOM     67  O   UNL A   1      49.486  28.588  21.862  1.00  0.00    -0.744 OA
ENDBRANCH  60  64
ENDBRANCH  43  57
BRANCH  44  68
ATOM     68  C   UNL A   1      38.747  30.443  31.143  1.00  0.00     0.023 A 
ATOM     69  C   UNL A   1      37.622  31.076  30.591  1.00  0.00     0.031 A 
ATOM     70  C   UNL A   1      38.777  30.263  32.538  1.00  0.00     0.131 A 
ATOM     71  C   UNL A   1      36.615  31.576  31.431  1.00  0.00     0.055 A 
ATOM     72  C   UNL A   1      37.738  30.696  33.364  1.00  0.00     0.041 A 
ATOM     73  F   UNL A   1      39.824  29.657  33.123  1.00  0.00    -0.206 F 
ATOM     74  C   UNL A   1      36.658  31.378  32.813  1.00  0.00     0.022 A 
BRANCH  71  75
ATOM     75  S   UNL A   1      35.317  32.614  30.703  1.00  0.00     0.124 S 
ATOM     76  O   UNL A   1      34.296  32.583  31.745  1.00  0.00    -0.237 OA
ATOM     77  O   UNL A   1      36.011  33.883  30.521  1.00  0.00    -0.237 OA
ATOM     78  O   UNL A   1      34.971  31.909  29.471  1.00  0.00    -0.744 OA
ENDBRANCH  71  75
ENDBRANCH  44  68
BRANCH  56  79
ATOM     79  C   UNL A   1      44.696  33.609  29.327  1.00  0.00     0.023 A 
ATOM     80  C   UNL A   1      44.443  34.659  28.429  1.00  0.00     0.031 A 
ATOM     81  C   UNL A   1      45.466  33.885  30.471  1.00  0.00     0.131 A 
ATOM     82  C   UNL A   1      45.023  35.916  28.647  1.00  0.00     0.055 A 
ATOM     83  C   UNL A   1      45.972  35.159  30.726  1.00  0.00     0.041 A 
ATOM     84  F   UNL A   1      45.738  32.920  31.363  1.00  0.00    -0.206 F 
ATOM     85  C   UNL A   1      45.768  36.179  29.800  1.00  0.00     0.022 A 
BRANCH  82  86
ATOM     86  S   UNL A   1      44.901  37.164  27.339  1.00  0.00     0.124 S 
ATOM     87  O   UNL A   1      45.993  36.777  26.449  1.00  0.00    -0.237 OA
ATOM     88  O   UNL A   1      43.553  36.946  26.825  1.00  0.00    -0.237 OA
ATOM     89  O   UNL A   1      45.098  38.426  28.049  1.00  0.00    -0.744 OA
ENDBRANCH  82  86
ENDBRANCH  56  79
ENDBRANCH  30  31
ENDBRANCH  22  25
ENDBRANCH  20  21
ENDBRANCH   1  20
TORSDOF 15
ENDMDL
MODEL 3
REMARK VINA RESULT:     -11.2      2.185      2.944
REMARK SMILES CN1CC[N@H+](CC(=O)NCCCCNC(=O)c2ccc(-c3c4nc(c(-c5cc(S(=O)(=O)[O-])ccc5F)c5ccc([nH]5)c(-c5cc(S(=O)(=O)[O-])ccc5F)c5nc(c(-c6cc(S(=O)(=O)[O-])ccc6F)c6ccc3[nH]6)C=C5)C=C4)cc2)C(C)(C)C1=O
REMARK SMILES IDX 12 1 11 2 10 3 9 4 7 5 8 6 6 8 5 9 1 10 2 11 3 12 83 13 4 14
REMARK SMILES IDX 80 15 84 16 81 17 82 18 13 20 14 21 15 22 16 24 17 25 18 26
REMARK SMILES IDX 79 27 19 28 78 29 20 30 21 31 22 32 72 33 23 34 77 35 71 36
REMARK SMILES IDX 73 37 24 38 76 39 70 40 69 41 25 43 57 44 37 45 56 46 38 47
REMARK SMILES IDX 41 48 55 49 74 50 39 51 40 52 54 54 75 55 42 56 26 57 27 58
REMARK SMILES IDX 35 59 28 60 34 61 36 62 33 63 29 64 30 65 31 66 32 67 58 68
REMARK SMILES IDX 59 69 67 70 60 71 66 72 68 73 65 74 61 75 62 76 63 77 64 78
REMARK SMILES IDX 43 79 44 80 52 81 45 82 51 83 53 84 50 85 46 86 47 87 48 88
REMARK SMILES IDX 49 89
REMARK H PARENT 9 7 5 19 14 23 73 42 41 53
REMARK Flexibility Score: inf
ROOT
ATOM      1  C   UNL A   1      33.092  27.783  26.989  1.00  0.00     0.023 C 
ENDROOT
BRANCH   1   2
ATOM      2  C   UNL A   1      31.616  27.937  26.642  1.00  0.00     0.023 C 
BRANCH   2   3
ATOM      3  C   UNL A   1      31.028  26.896  25.690  1.00  0.00     0.116 C 
BRANCH   3   4
ATOM      4  N   UNL A   1      30.394  25.762  26.351  1.00  0.00    -0.351 N 
ATOM      5  C   UNL A   1      30.673  24.433  26.447  1.00  0.00     0.275 C 
ATOM      6  O   UNL A   1      29.989  23.788  27.251  1.00  0.00    -0.269 OA
ATOM      7  H   UNL A   1      29.578  26.016  26.839  1.00  0.00     0.163 HD
BRANCH   5   8
ATOM      8  C   UNL A   1      31.800  23.734  25.673  1.00  0.00     0.364 C 
BRANCH   8   9
ATOM      9  N   UNL A   1      33.196  23.869  26.199  1.00  0.00    -0.314 N 
ATOM     10  C   UNL A   1      35.480  20.378  25.015  1.00  0.00     0.147 C 
ATOM     11  N   UNL A   1      34.807  21.582  25.466  1.00  0.00    -0.335 N 
ATOM     12  C   UNL A   1      34.026  21.513  26.693  1.00  0.00     0.180 C 
ATOM     13  C   UNL A   1      34.635  22.631  24.555  1.00  0.00     0.283 C 
ATOM     14  C   UNL A   1      33.552  22.874  27.220  1.00  0.00     0.285 C 
ATOM     15  C   UNL A   1      34.272  24.021  25.187  1.00  0.00     0.172 C 
ATOM     16  O   UNL A   1      34.971  22.493  23.383  1.00  0.00    -0.268 OA
ATOM     17  C   UNL A   1      35.663  24.444  25.742  1.00  0.00     0.090 C 
ATOM     18  C   UNL A   1      33.922  25.237  24.302  1.00  0.00     0.090 C 
ATOM     19  H   UNL A   1      33.146  24.776  26.663  1.00  0.00     0.349 HD
ENDBRANCH   8   9
ENDBRANCH   5   8
ENDBRANCH   3   4
ENDBRANCH   2   3
ENDBRANCH   1   2
BRANCH   1  20
ATOM     20  C   UNL A   1      33.951  28.719  26.189  1.00  0.00     0.116 C 
BRANCH  20  21
ATOM     21  N   UNL A   1      33.754  30.108  26.601  1.00  0.00    -0.352 N 
ATOM     22  C   UNL A   1      34.501  30.839  27.485  1.00  0.00     0.251 C 
ATOM     23  H   UNL A   1      32.991  30.575  26.191  1.00  0.00     0.163 HD
ATOM     24  O   UNL A   1      34.105  31.934  27.882  1.00  0.00    -0.269 OA
BRANCH  22  25
ATOM     25  C   UNL A   1      35.758  30.256  27.976  1.00  0.00     0.039 A 
ATOM     26  C   UNL A   1      36.939  30.478  27.271  1.00  0.00     0.014 A 
ATOM     27  C   UNL A   1      35.767  29.553  29.184  1.00  0.00     0.014 A 
ATOM     28  C   UNL A   1      38.134  30.001  27.798  1.00  0.00     0.010 A 
ATOM     29  C   UNL A   1      36.967  29.234  29.784  1.00  0.00     0.010 A 
ATOM     30  C   UNL A   1      38.154  29.391  29.062  1.00  0.00    -0.014 A 
BRANCH  30  31
ATOM     31  C   UNL A   1      39.389  28.790  29.607  1.00  0.00     0.031 A 
ATOM     32  C   UNL A   1      39.975  29.365  30.871  1.00  0.00     0.074 A 
ATOM     33  C   UNL A   1      39.978  27.775  28.949  1.00  0.00     0.049 A 
ATOM     34  N   UNL A   1      41.068  29.030  31.500  1.00  0.00    -0.248 NA
ATOM     35  C   UNL A   1      39.261  30.500  31.488  1.00  0.00     0.031 C 
ATOM     36  C   UNL A   1      39.510  27.198  27.684  1.00  0.00     0.029 A 
ATOM     37  N   UNL A   1      41.092  27.041  29.256  1.00  0.00    -0.354 N 
ATOM     38  C   UNL A   1      41.182  29.923  32.560  1.00  0.00     0.074 A 
ATOM     39  C   UNL A   1      40.098  30.867  32.445  1.00  0.00     0.031 C 
ATOM     40  C   UNL A   1      40.307  26.171  27.349  1.00  0.00     0.029 A 
ATOM     41  C   UNL A   1      41.366  26.048  28.345  1.00  0.00     0.049 A 
ATOM     42  H   UNL A   1      41.644  27.209  30.053  1.00  0.00     0.167 HD
ATOM     43  C   UNL A   1      42.091  29.929  33.561  1.00  0.00     0.034 A 
ATOM     44  C   UNL A   1      42.368  25.148  28.324  1.00  0.00     0.034 A 
ATOM     45  C   UNL A   1      43.133  28.942  33.673  1.00  0.00     0.049 A 
ATOM     46  C   UNL A   1      43.352  25.161  29.469  1.00  0.00     0.074 A 
ATOM     47  C   UNL A   1      44.074  28.796  34.673  1.00  0.00     0.029 A 
ATOM     48  N   UNL A   1      43.364  27.930  32.750  1.00  0.00    -0.354 N 
ATOM     49  N   UNL A   1      43.408  25.973  30.502  1.00  0.00    -0.248 NA
ATOM     50  C   UNL A   1      44.388  24.125  29.460  1.00  0.00     0.031 C 
ATOM     51  C   UNL A   1      44.921  27.743  34.318  1.00  0.00     0.029 A 
ATOM     52  C   UNL A   1      44.451  27.171  33.145  1.00  0.00     0.049 A 
ATOM     53  H   UNL A   1      42.833  27.775  31.936  1.00  0.00     0.167 HD
ATOM     54  C   UNL A   1      44.462  25.513  31.288  1.00  0.00     0.074 A 
ATOM     55  C   UNL A   1      44.993  24.344  30.618  1.00  0.00     0.031 C 
ATOM     56  C   UNL A   1      44.949  26.004  32.456  1.00  0.00     0.034 A 
BRANCH  43  57
ATOM     57  C   UNL A   1      42.011  31.033  34.586  1.00  0.00     0.023 A 
ATOM     58  C   UNL A   1      42.677  32.261  34.419  1.00  0.00     0.031 A 
ATOM     59  C   UNL A   1      41.253  30.851  35.755  1.00  0.00     0.131 A 
ATOM     60  C   UNL A   1      42.613  33.236  35.426  1.00  0.00     0.055 A 
ATOM     61  C   UNL A   1      41.130  31.854  36.718  1.00  0.00     0.041 A 
ATOM     62  F   UNL A   1      40.622  29.689  35.987  1.00  0.00    -0.206 F 
ATOM     63  C   UNL A   1      41.820  33.053  36.560  1.00  0.00     0.022 A 
BRANCH  60  64
ATOM     64  S   UNL A   1      43.674  34.701  35.289  1.00  0.00     0.124 S 
ATOM     65  O   UNL A   1      44.400  34.659  36.556  1.00  0.00    -0.237 OA
ATOM     66  O   UNL A   1      44.457  34.415  34.094  1.00  0.00    -0.237 OA
ATOM     67  O   UNL A   1      42.722  35.803  35.163  1.00  0.00    -0.744 OA
ENDBRANCH  60  64
ENDBRANCH  43  57
BRANCH  44  68
ATOM     68  C   UNL A   1      42.496  24.170  27.205  1.00  0.00     0.023 A 
ATOM     69  C   UNL A   1      41.833  22.934  27.240  1.00  0.00     0.031 A 
ATOM     70  C   UNL A   1      43.346  24.426  26.114  1.00  0.00     0.131 A 
ATOM     71  C   UNL A   1      42.091  21.971  26.252  1.00  0.00     0.055 A 
ATOM     72  C   UNL A   1      43.542  23.494  25.093  1.00  0.00     0.041 A 
ATOM     73  F   UNL A   1      44.002  25.595  26.021  1.00  0.00    -0.206 F 
ATOM     74  C   UNL A   1      42.930  22.248  25.171  1.00  0.00     0.022 A 
BRANCH  71  75
ATOM     75  S   UNL A   1      41.421  20.300  26.477  1.00  0.00     0.124 S 
ATOM     76  O   UNL A   1      39.987  20.538  26.359  1.00  0.00    -0.237 OA
ATOM     77  O   UNL A   1      42.044  19.574  25.376  1.00  0.00    -0.237 OA
ATOM     78  O   UNL A   1      41.884  19.926  27.812  1.00  0.00    -0.744 OA
ENDBRANCH  71  75
ENDBRANCH  44  68
BRANCH  56  79
ATOM     79  C   UNL A   1      46.066  25.230  33.109  1.00  0.00     0.023 A 
ATOM     80  C   UNL A   1      45.816  24.149  33.970  1.00  0.00     0.031 A 
ATOM     81  C   UNL A   1      47.404  25.599  32.877  1.00  0.00     0.131 A 
ATOM     82  C   UNL A   1      46.883  23.525  34.631  1.00  0.00     0.055 A 
ATOM     83  C   UNL A   1      48.466  24.921  33.474  1.00  0.00     0.041 A 
ATOM     84  F   UNL A   1      47.700  26.624  32.063  1.00  0.00    -0.206 F 
ATOM     85  C   UNL A   1      48.207  23.890  34.373  1.00  0.00     0.022 A 
BRANCH  82  86
ATOM     86  S   UNL A   1      46.509  22.321  35.932  1.00  0.00     0.124 S 
ATOM     87  O   UNL A   1      46.215  21.119  35.156  1.00  0.00    -0.237 OA
ATOM     88  O   UNL A   1      47.750  22.296  36.700  1.00  0.00    -0.237 OA
ATOM     89  O   UNL A   1      45.363  22.908  36.624  1.00  0.00    -0.744 OA
ENDBRANCH  82  86
ENDBRANCH  56  79
ENDBRANCH  30  31
ENDBRANCH  22  25
ENDBRANCH  20  21
ENDBRANCH   1  20
TORSDOF 15
ENDMDL
