MODEL 1
REMARK VINA RESULT:     -11.9      0.000      0.000
REMARK SMILES CC(C)[C@@H](C)[N@@H+]1[C@@H](C(=O)NCCCCNC(=O)c2ccc(-c3c4nc(c(-c5cc(S(=O)(=O)[O-])ccc5F)c5ccc([nH]5)c(-c5cc(S(=O)(=O)[O-])ccc5F)c5nc(c(-c6cc(S(=O)(=O)[O-])ccc6F)c6ccc3[nH]6)C=C5)C=C4)cc2)C[C@H]2CCCC[C@H]21
REMARK SMILES IDX 13 1 12 2 11 3 10 4 8 5 9 6 7 8 6 9 87 10 81 12 82 13 86 14
REMARK SMILES IDX 83 15 85 16 84 17 4 18 5 19 2 20 1 21 3 22 14 23 15 24 16 25
REMARK SMILES IDX 17 27 18 28 19 29 80 30 20 31 79 32 21 33 22 34 23 35 73 36
REMARK SMILES IDX 24 37 78 38 72 39 74 40 25 41 77 42 71 43 70 44 26 46 58 47
REMARK SMILES IDX 38 48 57 49 39 50 42 51 56 52 75 53 40 54 41 55 55 57 76 58
REMARK SMILES IDX 43 59 27 60 28 61 36 62 29 63 35 64 37 65 34 66 30 67 31 68
REMARK SMILES IDX 32 69 33 70 59 71 60 72 68 73 61 74 67 75 69 76 66 77 62 78
REMARK SMILES IDX 63 79 64 80 65 81 44 82 45 83 53 84 46 85 52 86 54 87 51 88
REMARK SMILES IDX 47 89 48 90 49 91 50 92
REMARK H PARENT 10 7 6 11 15 26 74 45 42 56
REMARK Flexibility Score: inf
ROOT
ATOM      1  C   UNL A   1      31.858  29.171  27.193  1.00  0.00     0.023 C 
ENDROOT
BRANCH   1   2
ATOM      2  C   UNL A   1      32.140  27.676  27.101  1.00  0.00     0.023 C 
BRANCH   2   3
ATOM      3  C   UNL A   1      31.171  26.885  26.227  1.00  0.00     0.116 C 
BRANCH   3   4
ATOM      4  N   UNL A   1      30.915  25.552  26.743  1.00  0.00    -0.351 N 
ATOM      5  C   UNL A   1      31.595  24.376  26.689  1.00  0.00     0.278 C 
ATOM      6  O   UNL A   1      31.058  23.427  27.281  1.00  0.00    -0.268 OA
ATOM      7  H   UNL A   1      30.069  25.486  27.241  1.00  0.00     0.163 HD
BRANCH   5   8
ATOM      8  C   UNL A   1      32.923  24.114  25.953  1.00  0.00     0.275 C 
ATOM      9  N   UNL A   1      32.846  23.922  24.495  1.00  0.00    -0.320 N 
ATOM     10  C   UNL A   1      33.408  22.609  24.155  1.00  0.00     0.188 C 
ATOM     11  H   UNL A   1      31.866  23.875  24.219  1.00  0.00     0.349 HD
ATOM     12  C   UNL A   1      33.609  22.856  26.508  1.00  0.00     0.085 C 
ATOM     13  C   UNL A   1      34.367  22.313  25.303  1.00  0.00     0.054 C 
ATOM     14  C   UNL A   1      32.257  21.583  24.102  1.00  0.00     0.065 C 
ATOM     15  C   UNL A   1      34.785  20.847  25.398  1.00  0.00     0.010 C 
ATOM     16  C   UNL A   1      32.726  20.134  24.135  1.00  0.00     0.006 C 
ATOM     17  C   UNL A   1      33.615  19.871  25.345  1.00  0.00     0.001 C 
BRANCH   9  18
ATOM     18  C   UNL A   1      33.030  25.090  23.606  1.00  0.00     0.184 C 
ATOM     19  C   UNL A   1      33.930  26.148  24.273  1.00  0.00     0.075 C 
BRANCH  18  20
ATOM     20  C   UNL A   1      31.739  25.686  22.941  1.00  0.00     0.041 C 
ATOM     21  C   UNL A   1      31.843  25.905  21.424  1.00  0.00     0.013 C 
ATOM     22  C   UNL A   1      30.513  24.770  23.155  1.00  0.00     0.013 C 
ENDBRANCH  18  20
ENDBRANCH   9  18
ENDBRANCH   5   8
ENDBRANCH   3   4
ENDBRANCH   2   3
ENDBRANCH   1   2
BRANCH   1  23
ATOM     23  C   UNL A   1      32.863  30.067  26.484  1.00  0.00     0.116 C 
BRANCH  23  24
ATOM     24  N   UNL A   1      32.772  31.464  26.876  1.00  0.00    -0.352 N 
ATOM     25  C   UNL A   1      33.661  32.214  27.624  1.00  0.00     0.251 C 
ATOM     26  H   UNL A   1      31.968  31.941  26.567  1.00  0.00     0.163 HD
ATOM     27  O   UNL A   1      33.381  33.353  27.954  1.00  0.00    -0.269 OA
BRANCH  25  28
ATOM     28  C   UNL A   1      34.933  31.588  28.050  1.00  0.00     0.039 A 
ATOM     29  C   UNL A   1      36.089  32.368  28.086  1.00  0.00     0.014 A 
ATOM     30  C   UNL A   1      34.959  30.260  28.478  1.00  0.00     0.014 A 
ATOM     31  C   UNL A   1      37.259  31.837  28.635  1.00  0.00     0.010 A 
ATOM     32  C   UNL A   1      36.097  29.762  29.103  1.00  0.00     0.010 A 
ATOM     33  C   UNL A   1      37.258  30.547  29.190  1.00  0.00    -0.014 A 
BRANCH  33  34
ATOM     34  C   UNL A   1      38.459  29.989  29.863  1.00  0.00     0.031 A 
ATOM     35  C   UNL A   1      38.830  30.469  31.240  1.00  0.00     0.074 A 
ATOM     36  C   UNL A   1      39.255  29.122  29.207  1.00  0.00     0.049 A 
ATOM     37  N   UNL A   1      39.893  30.200  31.954  1.00  0.00    -0.248 NA
ATOM     38  C   UNL A   1      37.900  31.411  31.878  1.00  0.00     0.031 C 
ATOM     39  C   UNL A   1      39.027  28.625  27.848  1.00  0.00     0.029 A 
ATOM     40  N   UNL A   1      40.425  28.515  29.588  1.00  0.00    -0.354 N 
ATOM     41  C   UNL A   1      39.769  30.956  33.115  1.00  0.00     0.074 A 
ATOM     42  C   UNL A   1      38.563  31.744  32.975  1.00  0.00     0.031 C 
ATOM     43  C   UNL A   1      40.013  27.773  27.520  1.00  0.00     0.029 A 
ATOM     44  C   UNL A   1      40.964  27.693  28.624  1.00  0.00     0.049 A 
ATOM     45  H   UNL A   1      40.841  28.653  30.469  1.00  0.00     0.167 HD
ATOM     46  C   UNL A   1      40.573  30.975  34.206  1.00  0.00     0.034 A 
ATOM     47  C   UNL A   1      42.099  26.968  28.627  1.00  0.00     0.034 A 
ATOM     48  C   UNL A   1      41.759  30.163  34.337  1.00  0.00     0.049 A 
ATOM     49  C   UNL A   1      42.975  26.997  29.853  1.00  0.00     0.074 A 
ATOM     50  C   UNL A   1      42.614  30.053  35.419  1.00  0.00     0.029 A 
ATOM     51  N   UNL A   1      42.257  29.321  33.351  1.00  0.00    -0.354 N 
ATOM     52  N   UNL A   1      42.820  27.681  30.963  1.00  0.00    -0.248 NA
ATOM     53  C   UNL A   1      44.172  26.147  29.831  1.00  0.00     0.031 C 
ATOM     54  C   UNL A   1      43.658  29.188  35.068  1.00  0.00     0.029 A 
ATOM     55  C   UNL A   1      43.418  28.705  33.791  1.00  0.00     0.049 A 
ATOM     56  H   UNL A   1      41.845  29.181  32.467  1.00  0.00     0.167 HD
ATOM     57  C   UNL A   1      43.885  27.319  31.783  1.00  0.00     0.074 A 
ATOM     58  C   UNL A   1      44.666  26.348  31.044  1.00  0.00     0.031 C 
ATOM     59  C   UNL A   1      44.188  27.745  33.036  1.00  0.00     0.034 A 
BRANCH  46  60
ATOM     60  C   UNL A   1      40.199  31.916  35.325  1.00  0.00     0.023 A 
ATOM     61  C   UNL A   1      39.321  31.528  36.353  1.00  0.00     0.031 A 
ATOM     62  C   UNL A   1      40.686  33.234  35.342  1.00  0.00     0.131 A 
ATOM     63  C   UNL A   1      38.889  32.468  37.300  1.00  0.00     0.055 A 
ATOM     64  C   UNL A   1      40.321  34.142  36.340  1.00  0.00     0.041 A 
ATOM     65  F   UNL A   1      41.512  33.671  34.378  1.00  0.00    -0.206 F 
ATOM     66  C   UNL A   1      39.403  33.765  37.316  1.00  0.00     0.022 A 
BRANCH  63  67
ATOM     67  S   UNL A   1      37.532  32.011  38.413  1.00  0.00     0.124 S 
ATOM     68  O   UNL A   1      37.270  30.632  38.007  1.00  0.00    -0.237 OA
ATOM     69  O   UNL A   1      38.131  32.187  39.731  1.00  0.00    -0.237 OA
ATOM     70  O   UNL A   1      36.477  32.964  38.075  1.00  0.00    -0.744 OA
ENDBRANCH  63  67
ENDBRANCH  46  60
BRANCH  47  71
ATOM     71  C   UNL A   1      42.482  26.156  27.437  1.00  0.00     0.023 A 
ATOM     72  C   UNL A   1      42.110  24.806  27.337  1.00  0.00     0.031 A 
ATOM     73  C   UNL A   1      43.255  26.706  26.401  1.00  0.00     0.131 A 
ATOM     74  C   UNL A   1      42.550  24.038  26.247  1.00  0.00     0.055 A 
ATOM     75  C   UNL A   1      43.650  25.952  25.295  1.00  0.00     0.041 A 
ATOM     76  F   UNL A   1      43.629  27.995  26.444  1.00  0.00    -0.206 F 
ATOM     77  C   UNL A   1      43.309  24.604  25.220  1.00  0.00     0.022 A 
BRANCH  74  78
ATOM     78  S   UNL A   1      42.178  22.263  26.229  1.00  0.00     0.124 S 
ATOM     79  O   UNL A   1      42.851  21.829  25.010  1.00  0.00    -0.237 OA
ATOM     80  O   UNL A   1      42.772  21.817  27.484  1.00  0.00    -0.237 OA
ATOM     81  O   UNL A   1      40.717  22.222  26.184  1.00  0.00    -0.744 OA
ENDBRANCH  74  78
ENDBRANCH  47  71
BRANCH  59  82
ATOM     82  C   UNL A   1      45.392  27.122  33.695  1.00  0.00     0.023 A 
ATOM     83  C   UNL A   1      45.301  25.920  34.417  1.00  0.00     0.031 A 
ATOM     84  C   UNL A   1      46.647  27.751  33.609  1.00  0.00     0.131 A 
ATOM     85  C   UNL A   1      46.434  25.408  35.066  1.00  0.00     0.055 A 
ATOM     86  C   UNL A   1      47.782  27.210  34.211  1.00  0.00     0.041 A 
ATOM     87  F   UNL A   1      46.788  28.902  32.932  1.00  0.00    -0.206 F 
ATOM     88  C   UNL A   1      47.677  26.038  34.955  1.00  0.00     0.022 A 
BRANCH  85  89
ATOM     89  S   UNL A   1      46.247  23.951  36.130  1.00  0.00     0.124 S 
ATOM     90  O   UNL A   1      47.293  23.069  35.622  1.00  0.00    -0.237 OA
ATOM     91  O   UNL A   1      46.470  24.504  37.461  1.00  0.00    -0.237 OA
ATOM     92  O   UNL A   1      44.879  23.507  35.865  1.00  0.00    -0.744 OA
ENDBRANCH  85  89
ENDBRANCH  59  82
ENDBRANCH  33  34
ENDBRANCH  25  28
ENDBRANCH  23  24
ENDBRANCH   1  23
TORSDOF 16
ENDMDL
MODEL 2
REMARK VINA RESULT:     -11.7      1.048      7.639
REMARK SMILES CC(C)[C@@H](C)[N@@H+]1[C@@H](C(=O)NCCCCNC(=O)c2ccc(-c3c4nc(c(-c5cc(S(=O)(=O)[O-])ccc5F)c5ccc([nH]5)c(-c5cc(S(=O)(=O)[O-])ccc5F)c5nc(c(-c6cc(S(=O)(=O)[O-])ccc6F)c6ccc3[nH]6)C=C5)C=C4)cc2)C[C@H]2CCCC[C@H]21
REMARK SMILES IDX 13 1 12 2 11 3 10 4 8 5 9 6 7 8 6 9 87 10 81 12 82 13 86 14
REMARK SMILES IDX 83 15 85 16 84 17 4 18 5 19 2 20 1 21 3 22 14 23 15 24 16 25
REMARK SMILES IDX 17 27 18 28 19 29 80 30 20 31 79 32 21 33 22 34 23 35 73 36
REMARK SMILES IDX 24 37 78 38 72 39 74 40 25 41 77 42 71 43 70 44 26 46 58 47
REMARK SMILES IDX 38 48 57 49 39 50 42 51 56 52 75 53 40 54 41 55 55 57 76 58
REMARK SMILES IDX 43 59 27 60 28 61 36 62 29 63 35 64 37 65 34 66 30 67 31 68
REMARK SMILES IDX 32 69 33 70 59 71 60 72 68 73 61 74 67 75 69 76 66 77 62 78
REMARK SMILES IDX 63 79 64 80 65 81 44 82 45 83 53 84 46 85 52 86 54 87 51 88
REMARK SMILES IDX 47 89 48 90 49 91 50 92
REMARK H PARENT 10 7 6 11 15 26 74 45 42 56
REMARK Flexibility Score: inf
ROOT
ATOM      1  C   UNL A   1      31.928  28.583  24.995  1.00  0.00     0.023 C 
ENDROOT
BRANCH   1   2
ATOM      2  C   UNL A   1      31.181  27.699  25.986  1.00  0.00     0.023 C 
BRANCH   2   3
ATOM      3  C   UNL A   1      32.047  26.688  26.736  1.00  0.00     0.116 C 
BRANCH   3   4
ATOM      4  N   UNL A   1      31.426  25.379  26.824  1.00  0.00    -0.351 N 
ATOM      5  C   UNL A   1      31.809  24.129  26.452  1.00  0.00     0.278 C 
ATOM      6  O   UNL A   1      30.997  23.228  26.713  1.00  0.00    -0.268 OA
ATOM      7  H   UNL A   1      30.536  25.401  27.243  1.00  0.00     0.163 HD
BRANCH   5   8
ATOM      8  C   UNL A   1      33.113  23.744  25.728  1.00  0.00     0.275 C 
ATOM      9  N   UNL A   1      33.069  23.709  24.257  1.00  0.00    -0.320 N 
ATOM     10  C   UNL A   1      33.446  22.366  23.799  1.00  0.00     0.188 C 
ATOM     11  H   UNL A   1      32.105  23.837  23.952  1.00  0.00     0.349 HD
ATOM     12  C   UNL A   1      33.584  22.350  26.169  1.00  0.00     0.085 C 
ATOM     13  C   UNL A   1      34.304  21.819  24.935  1.00  0.00     0.054 C 
ATOM     14  C   UNL A   1      32.160  21.534  23.611  1.00  0.00     0.065 C 
ATOM     15  C   UNL A   1      34.498  20.305  24.890  1.00  0.00     0.010 C 
ATOM     16  C   UNL A   1      32.411  20.035  23.507  1.00  0.00     0.006 C 
ATOM     17  C   UNL A   1      33.201  19.525  24.707  1.00  0.00     0.001 C 
BRANCH   9  18
ATOM     18  C   UNL A   1      33.459  24.917  23.498  1.00  0.00     0.184 C 
ATOM     19  C   UNL A   1      34.346  25.840  24.356  1.00  0.00     0.075 C 
BRANCH  18  20
ATOM     20  C   UNL A   1      32.316  25.672  22.730  1.00  0.00     0.041 C 
ATOM     21  C   UNL A   1      32.427  25.615  21.199  1.00  0.00     0.013 C 
ATOM     22  C   UNL A   1      30.924  25.101  23.077  1.00  0.00     0.013 C 
ENDBRANCH  18  20
ENDBRANCH   9  18
ENDBRANCH   5   8
ENDBRANCH   3   4
ENDBRANCH   2   3
ENDBRANCH   1   2
BRANCH   1  23
ATOM     23  C   UNL A   1      33.016  29.461  25.598  1.00  0.00     0.116 C 
BRANCH  23  24
ATOM     24  N   UNL A   1      32.525  30.737  26.089  1.00  0.00    -0.352 N 
ATOM     25  C   UNL A   1      33.083  31.573  27.039  1.00  0.00     0.251 C 
ATOM     26  H   UNL A   1      31.679  31.050  25.692  1.00  0.00     0.163 HD
ATOM     27  O   UNL A   1      32.484  32.565  27.415  1.00  0.00    -0.269 OA
BRANCH  25  28
ATOM     28  C   UNL A   1      34.397  31.211  27.617  1.00  0.00     0.039 A 
ATOM     29  C   UNL A   1      35.328  32.222  27.860  1.00  0.00     0.014 A 
ATOM     30  C   UNL A   1      34.671  29.892  27.979  1.00  0.00     0.014 A 
ATOM     31  C   UNL A   1      36.505  31.920  28.549  1.00  0.00     0.010 A 
ATOM     32  C   UNL A   1      35.800  29.609  28.740  1.00  0.00     0.010 A 
ATOM     33  C   UNL A   1      36.727  30.621  29.036  1.00  0.00    -0.014 A 
BRANCH  33  34
ATOM     34  C   UNL A   1      37.924  30.290  29.850  1.00  0.00     0.031 A 
ATOM     35  C   UNL A   1      38.957  29.343  29.303  1.00  0.00     0.074 A 
ATOM     36  C   UNL A   1      38.037  30.770  31.105  1.00  0.00     0.049 A 
ATOM     37  N   UNL A   1      40.010  28.835  29.890  1.00  0.00    -0.248 NA
ATOM     38  C   UNL A   1      38.751  28.875  27.925  1.00  0.00     0.031 C 
ATOM     39  C   UNL A   1      37.072  31.653  31.764  1.00  0.00     0.029 A 
ATOM     40  N   UNL A   1      39.005  30.572  32.056  1.00  0.00    -0.354 N 
ATOM     41  C   UNL A   1      40.579  27.970  28.960  1.00  0.00     0.074 A 
ATOM     42  C   UNL A   1      39.715  27.974  27.799  1.00  0.00     0.031 C 
ATOM     43  C   UNL A   1      37.509  31.937  33.002  1.00  0.00     0.029 A 
ATOM     44  C   UNL A   1      38.761  31.227  33.242  1.00  0.00     0.049 A 
ATOM     45  H   UNL A   1      39.802  30.013  31.905  1.00  0.00     0.167 HD
ATOM     46  C   UNL A   1      41.729  27.258  29.056  1.00  0.00     0.034 A 
ATOM     47  C   UNL A   1      39.461  31.243  34.393  1.00  0.00     0.034 A 
ATOM     48  C   UNL A   1      42.591  27.286  30.212  1.00  0.00     0.049 A 
ATOM     49  C   UNL A   1      40.740  30.450  34.475  1.00  0.00     0.074 A 
ATOM     50  C   UNL A   1      43.808  26.655  30.397  1.00  0.00     0.029 A 
ATOM     51  N   UNL A   1      42.325  27.984  31.384  1.00  0.00    -0.354 N 
ATOM     52  N   UNL A   1      41.291  29.674  33.570  1.00  0.00    -0.248 NA
ATOM     53  C   UNL A   1      41.497  30.543  35.730  1.00  0.00     0.031 C 
ATOM     54  C   UNL A   1      44.251  26.926  31.697  1.00  0.00     0.029 A 
ATOM     55  C   UNL A   1      43.343  27.782  32.301  1.00  0.00     0.049 A 
ATOM     56  H   UNL A   1      41.528  28.542  31.540  1.00  0.00     0.167 HD
ATOM     57  C   UNL A   1      42.476  29.212  34.137  1.00  0.00     0.074 A 
ATOM     58  C   UNL A   1      42.563  29.807  35.456  1.00  0.00     0.031 C 
ATOM     59  C   UNL A   1      43.409  28.377  33.615  1.00  0.00     0.034 A 
BRANCH  46  60
ATOM     60  C   UNL A   1      42.098  26.380  27.885  1.00  0.00     0.023 A 
ATOM     61  C   UNL A   1      41.655  25.048  27.793  1.00  0.00     0.031 A 
ATOM     62  C   UNL A   1      42.941  26.862  26.869  1.00  0.00     0.131 A 
ATOM     63  C   UNL A   1      42.126  24.221  26.763  1.00  0.00     0.055 A 
ATOM     64  C   UNL A   1      43.336  26.058  25.796  1.00  0.00     0.041 A 
ATOM     65  F   UNL A   1      43.413  28.118  26.909  1.00  0.00    -0.206 F 
ATOM     66  C   UNL A   1      42.943  24.724  25.749  1.00  0.00     0.022 A 
BRANCH  63  67
ATOM     67  S   UNL A   1      41.778  22.443  26.855  1.00  0.00     0.124 S 
ATOM     68  O   UNL A   1      40.418  22.437  27.389  1.00  0.00    -0.237 OA
ATOM     69  O   UNL A   1      41.923  22.020  25.467  1.00  0.00    -0.237 OA
ATOM     70  O   UNL A   1      42.801  21.941  27.771  1.00  0.00    -0.744 OA
ENDBRANCH  63  67
ENDBRANCH  46  60
BRANCH  47  71
ATOM     71  C   UNL A   1      38.976  32.029  35.563  1.00  0.00     0.023 A 
ATOM     72  C   UNL A   1      38.356  31.395  36.650  1.00  0.00     0.031 A 
ATOM     73  C   UNL A   1      39.092  33.430  35.594  1.00  0.00     0.131 A 
ATOM     74  C   UNL A   1      37.834  32.162  37.703  1.00  0.00     0.055 A 
ATOM     75  C   UNL A   1      38.614  34.185  36.666  1.00  0.00     0.041 A 
ATOM     76  F   UNL A   1      39.686  34.084  34.583  1.00  0.00    -0.206 F 
ATOM     77  C   UNL A   1      37.967  33.552  37.724  1.00  0.00     0.022 A 
BRANCH  74  78
ATOM     78  S   UNL A   1      36.906  31.319  39.014  1.00  0.00     0.124 S 
ATOM     79  O   UNL A   1      35.696  32.132  39.094  1.00  0.00    -0.237 OA
ATOM     80  O   UNL A   1      36.744  29.980  38.459  1.00  0.00    -0.237 OA
ATOM     81  O   UNL A   1      37.795  31.409  40.171  1.00  0.00    -0.744 OA
ENDBRANCH  74  78
ENDBRANCH  47  71
BRANCH  59  82
ATOM     82  C   UNL A   1      44.627  28.101  34.460  1.00  0.00     0.023 A 
ATOM     83  C   UNL A   1      44.678  27.015  35.351  1.00  0.00     0.031 A 
ATOM     84  C   UNL A   1      45.747  28.948  34.380  1.00  0.00     0.131 A 
ATOM     85  C   UNL A   1      45.807  26.832  36.163  1.00  0.00     0.055 A 
ATOM     86  C   UNL A   1      46.889  28.729  35.150  1.00  0.00     0.041 A 
ATOM     87  F   UNL A   1      45.749  30.000  33.546  1.00  0.00    -0.206 F 
ATOM     88  C   UNL A   1      46.918  27.674  36.058  1.00  0.00     0.022 A 
BRANCH  85  89
ATOM     89  S   UNL A   1      45.773  25.527  37.422  1.00  0.00     0.124 S 
ATOM     90  O   UNL A   1      47.136  25.572  37.942  1.00  0.00    -0.237 OA
ATOM     91  O   UNL A   1      44.730  25.994  38.329  1.00  0.00    -0.237 OA
ATOM     92  O   UNL A   1      45.439  24.325  36.661  1.00  0.00    -0.744 OA
ENDBRANCH  85  89
ENDBRANCH  59  82
ENDBRANCH  33  34
ENDBRANCH  25  28
ENDBRANCH  23  24
ENDBRANCH   1  23
TORSDOF 16
ENDMDL
MODEL 3
REMARK VINA RESULT:     -11.6      5.083      7.761
REMARK SMILES CC(C)[C@@H](C)[N@@H+]1[C@@H](C(=O)NCCCCNC(=O)c2ccc(-c3c4nc(c(-c5cc(S(=O)(=O)[O-])ccc5F)c5ccc([nH]5)c(-c5cc(S(=O)(=O)[O-])ccc5F)c5nc(c(-c6cc(S(=O)(=O)[O-])ccc6F)c6ccc3[nH]6)C=C5)C=C4)cc2)C[C@H]2CCCC[C@H]21
REMARK SMILES IDX 13 1 12 2 11 3 10 4 8 5 9 6 7 8 6 9 87 10 81 12 82 13 86 14
REMARK SMILES IDX 83 15 85 16 84 17 4 18 5 19 2 20 1 21 3 22 14 23 15 24 16 25
REMARK SMILES IDX 17 27 18 28 19 29 80 30 20 31 79 32 21 33 22 34 23 35 73 36
REMARK SMILES IDX 24 37 78 38 72 39 74 40 25 41 77 42 71 43 70 44 26 46 58 47
REMARK SMILES IDX 38 48 57 49 39 50 42 51 56 52 75 53 40 54 41 55 55 57 76 58
REMARK SMILES IDX 43 59 27 60 28 61 36 62 29 63 35 64 37 65 34 66 30 67 31 68
REMARK SMILES IDX 32 69 33 70 59 71 60 72 68 73 61 74 67 75 69 76 66 77 62 78
REMARK SMILES IDX 63 79 64 80 65 81 44 82 45 83 53 84 46 85 52 86 54 87 51 88
REMARK SMILES IDX 47 89 48 90 49 91 50 92
REMARK H PARENT 10 7 6 11 15 26 74 45 42 56
REMARK Flexibility Score: inf
ROOT
ATOM      1  C   UNL A   1      36.250  22.425  23.876  1.00  0.00     0.023 C 
ENDROOT
BRANCH   1   2
ATOM      2  C   UNL A   1      34.817  22.865  23.607  1.00  0.00     0.023 C 
BRANCH   2   3
ATOM      3  C   UNL A   1      34.617  24.372  23.457  1.00  0.00     0.116 C 
BRANCH   3   4
ATOM      4  N   UNL A   1      33.574  24.704  22.503  1.00  0.00    -0.351 N 
ATOM      5  C   UNL A   1      32.642  25.691  22.434  1.00  0.00     0.278 C 
ATOM      6  O   UNL A   1      31.913  25.660  21.431  1.00  0.00    -0.268 OA
ATOM      7  H   UNL A   1      33.532  24.080  21.744  1.00  0.00     0.163 HD
BRANCH   5   8
ATOM      8  C   UNL A   1      32.397  26.800  23.475  1.00  0.00     0.275 C 
ATOM      9  N   UNL A   1      31.480  26.479  24.581  1.00  0.00    -0.320 N 
ATOM     10  C   UNL A   1      30.373  27.444  24.581  1.00  0.00     0.188 C 
ATOM     11  H   UNL A   1      31.048  25.573  24.400  1.00  0.00     0.349 HD
ATOM     12  C   UNL A   1      31.823  28.056  22.803  1.00  0.00     0.085 C 
ATOM     13  C   UNL A   1      30.961  28.674  23.897  1.00  0.00     0.054 C 
ATOM     14  C   UNL A   1      29.206  26.849  23.767  1.00  0.00     0.065 C 
ATOM     15  C   UNL A   1      29.913  29.676  23.418  1.00  0.00     0.010 C 
ATOM     16  C   UNL A   1      28.153  27.875  23.368  1.00  0.00     0.006 C 
ATOM     17  C   UNL A   1      28.781  29.043  22.616  1.00  0.00     0.001 C 
BRANCH   9  18
ATOM     18  C   UNL A   1      32.036  25.949  25.845  1.00  0.00     0.184 C 
ATOM     19  C   UNL A   1      33.532  26.297  25.973  1.00  0.00     0.075 C 
BRANCH  18  20
ATOM     20  C   UNL A   1      31.703  24.456  26.197  1.00  0.00     0.041 C 
ATOM     21  C   UNL A   1      31.038  23.663  25.060  1.00  0.00     0.013 C 
ATOM     22  C   UNL A   1      32.972  23.664  26.582  1.00  0.00     0.013 C 
ENDBRANCH  18  20
ENDBRANCH   9  18
ENDBRANCH   5   8
ENDBRANCH   3   4
ENDBRANCH   2   3
ENDBRANCH   1   2
BRANCH   1  23
ATOM     23  C   UNL A   1      36.542  22.003  25.309  1.00  0.00     0.116 C 
BRANCH  23  24
ATOM     24  N   UNL A   1      37.468  20.888  25.408  1.00  0.00    -0.352 N 
ATOM     25  C   UNL A   1      38.770  20.880  25.875  1.00  0.00     0.251 C 
ATOM     26  H   UNL A   1      37.123  20.018  25.100  1.00  0.00     0.163 HD
ATOM     27  O   UNL A   1      39.449  19.872  25.792  1.00  0.00    -0.269 OA
BRANCH  25  28
ATOM     28  C   UNL A   1      39.329  22.132  26.435  1.00  0.00     0.039 A 
ATOM     29  C   UNL A   1      40.429  22.055  27.289  1.00  0.00     0.014 A 
ATOM     30  C   UNL A   1      38.809  23.370  26.056  1.00  0.00     0.014 A 
ATOM     31  C   UNL A   1      41.064  23.231  27.697  1.00  0.00     0.010 A 
ATOM     32  C   UNL A   1      39.493  24.534  26.391  1.00  0.00     0.010 A 
ATOM     33  C   UNL A   1      40.630  24.476  27.212  1.00  0.00    -0.014 A 
BRANCH  33  34
ATOM     34  C   UNL A   1      41.340  25.735  27.553  1.00  0.00     0.031 A 
ATOM     35  C   UNL A   1      40.627  26.800  28.341  1.00  0.00     0.074 A 
ATOM     36  C   UNL A   1      42.585  25.952  27.085  1.00  0.00     0.049 A 
ATOM     37  N   UNL A   1      41.022  28.010  28.645  1.00  0.00    -0.248 NA
ATOM     38  C   UNL A   1      39.275  26.472  28.813  1.00  0.00     0.031 C 
ATOM     39  C   UNL A   1      43.357  25.015  26.265  1.00  0.00     0.029 A 
ATOM     40  N   UNL A   1      43.417  27.035  27.219  1.00  0.00    -0.354 N 
ATOM     41  C   UNL A   1      39.956  28.594  29.323  1.00  0.00     0.074 A 
ATOM     42  C   UNL A   1      38.879  27.628  29.324  1.00  0.00     0.031 C 
ATOM     43  C   UNL A   1      44.556  25.556  25.990  1.00  0.00     0.029 A 
ATOM     44  C   UNL A   1      44.624  26.891  26.575  1.00  0.00     0.049 A 
ATOM     45  H   UNL A   1      43.173  27.841  27.729  1.00  0.00     0.167 HD
ATOM     46  C   UNL A   1      39.891  29.814  29.911  1.00  0.00     0.034 A 
ATOM     47  C   UNL A   1      45.663  27.742  26.461  1.00  0.00     0.034 A 
ATOM     48  C   UNL A   1      40.985  30.755  29.921  1.00  0.00     0.049 A 
ATOM     49  C   UNL A   1      45.572  29.090  27.129  1.00  0.00     0.074 A 
ATOM     50  C   UNL A   1      41.054  31.992  30.537  1.00  0.00     0.029 A 
ATOM     51  N   UNL A   1      42.204  30.561  29.283  1.00  0.00    -0.354 N 
ATOM     52  N   UNL A   1      44.576  29.610  27.808  1.00  0.00    -0.248 NA
ATOM     53  C   UNL A   1      46.750  29.960  27.025  1.00  0.00     0.031 C 
ATOM     54  C   UNL A   1      42.291  32.569  30.226  1.00  0.00     0.029 A 
ATOM     55  C   UNL A   1      43.022  31.664  29.472  1.00  0.00     0.049 A 
ATOM     56  H   UNL A   1      42.451  29.758  28.770  1.00  0.00     0.167 HD
ATOM     57  C   UNL A   1      45.020  30.857  28.238  1.00  0.00     0.074 A 
ATOM     58  C   UNL A   1      46.378  31.003  27.751  1.00  0.00     0.031 C 
ATOM     59  C   UNL A   1      44.370  31.795  28.972  1.00  0.00     0.034 A 
BRANCH  46  60
ATOM     60  C   UNL A   1      38.587  30.195  30.569  1.00  0.00     0.023 A 
ATOM     61  C   UNL A   1      37.572  30.864  29.862  1.00  0.00     0.031 A 
ATOM     62  C   UNL A   1      38.371  29.930  31.933  1.00  0.00     0.131 A 
ATOM     63  C   UNL A   1      36.431  31.323  30.538  1.00  0.00     0.055 A 
ATOM     64  C   UNL A   1      37.194  30.312  32.580  1.00  0.00     0.041 A 
ATOM     65  F   UNL A   1      39.310  29.312  32.667  1.00  0.00    -0.206 F 
ATOM     66  C   UNL A   1      36.223  31.029  31.886  1.00  0.00     0.022 A 
BRANCH  63  67
ATOM     67  S   UNL A   1      35.301  32.440  29.663  1.00  0.00     0.124 S 
ATOM     68  O   UNL A   1      34.699  31.539  28.683  1.00  0.00    -0.237 OA
ATOM     69  O   UNL A   1      34.423  32.901  30.732  1.00  0.00    -0.237 OA
ATOM     70  O   UNL A   1      36.189  33.456  29.102  1.00  0.00    -0.744 OA
ENDBRANCH  63  67
ENDBRANCH  46  60
BRANCH  47  71
ATOM     71  C   UNL A   1      46.876  27.356  25.686  1.00  0.00     0.023 A 
ATOM     72  C   UNL A   1      47.050  27.784  24.361  1.00  0.00     0.031 A 
ATOM     73  C   UNL A   1      47.861  26.524  26.246  1.00  0.00     0.131 A 
ATOM     74  C   UNL A   1      48.160  27.342  23.623  1.00  0.00     0.055 A 
ATOM     75  C   UNL A   1      48.987  26.126  25.524  1.00  0.00     0.041 A 
ATOM     76  F   UNL A   1      47.746  26.095  27.513  1.00  0.00    -0.206 F 
ATOM     77  C   UNL A   1      49.134  26.524  24.199  1.00  0.00     0.022 A 
BRANCH  74  78
ATOM     78  S   UNL A   1      48.271  27.792  21.869  1.00  0.00     0.124 S 
ATOM     79  O   UNL A   1      48.436  26.487  21.236  1.00  0.00    -0.237 OA
ATOM     80  O   UNL A   1      46.992  28.457  21.645  1.00  0.00    -0.237 OA
ATOM     81  O   UNL A   1      49.443  28.664  21.815  1.00  0.00    -0.744 OA
ENDBRANCH  74  78
ENDBRANCH  47  71
BRANCH  59  82
ATOM     82  C   UNL A   1      45.143  33.039  29.330  1.00  0.00     0.023 A 
ATOM     83  C   UNL A   1      45.121  34.183  28.514  1.00  0.00     0.031 A 
ATOM     84  C   UNL A   1      45.922  33.073  30.499  1.00  0.00     0.131 A 
ATOM     85  C   UNL A   1      45.905  35.296  28.853  1.00  0.00     0.055 A 
ATOM     86  C   UNL A   1      46.656  34.202  30.860  1.00  0.00     0.041 A 
ATOM     87  F   UNL A   1      45.978  32.006  31.313  1.00  0.00    -0.206 F 
ATOM     88  C   UNL A   1      46.660  35.318  30.028  1.00  0.00     0.022 A 
BRANCH  85  89
ATOM     89  S   UNL A   1      45.990  36.688  27.693  1.00  0.00     0.124 S 
ATOM     90  O   UNL A   1      44.627  36.734  27.173  1.00  0.00    -0.237 OA
ATOM     91  O   UNL A   1      46.378  37.795  28.561  1.00  0.00    -0.237 OA
ATOM     92  O   UNL A   1      47.007  36.271  26.730  1.00  0.00    -0.744 OA
ENDBRANCH  85  89
ENDBRANCH  59  82
ENDBRANCH  33  34
ENDBRANCH  25  28
ENDBRANCH  23  24
ENDBRANCH   1  23
TORSDOF 16
ENDMDL
