MODEL 1
REMARK VINA RESULT:     -12.3      0.000      0.000
REMARK SMILES CC(C)c1ccc(C(=O)NC[C@H]2CC[C@@H](C(=O)NCCCCNC(=O)c3ccc(-c4c5nc(c(-c6cc(S(=O)(=O)[O-])ccc6F)c6ccc([nH]6)c(-c6cc(S(=O)(=O)[O-])ccc6F)c6nc(c(-c7cc(S(=O)(=O)[O-])ccc7F)c7ccc4[nH]7)C=C6)C=C5)cc3)O2)cc1
REMARK SMILES IDX 20 1 19 2 18 3 16 4 17 5 15 7 12 8 13 9 89 10 14 11 11 12
REMARK SMILES IDX 10 13 8 14 9 15 7 17 4 18 5 19 91 20 6 21 90 22 2 23 1 24
REMARK SMILES IDX 3 25 21 26 22 27 23 28 24 29 25 31 26 32 27 33 88 34 28 35
REMARK SMILES IDX 87 36 29 37 30 38 31 39 81 40 32 41 86 42 80 43 82 44 33 45
REMARK SMILES IDX 85 46 79 47 78 48 34 50 66 51 46 52 65 53 47 54 50 55 64 56
REMARK SMILES IDX 83 57 48 58 49 59 63 61 84 62 51 63 35 64 36 65 44 66 37 67
REMARK SMILES IDX 43 68 45 69 42 70 38 71 39 72 40 73 41 74 67 75 68 76 76 77
REMARK SMILES IDX 69 78 75 79 77 80 74 81 70 82 71 83 72 84 73 85 52 86 53 87
REMARK SMILES IDX 61 88 54 89 60 90 62 91 59 92 55 93 56 94 57 95 58 96
REMARK H PARENT 18 6 10 16 23 30 82 49 50 60
REMARK Flexibility Score: inf
ROOT
ATOM      1  C   UNL A   1      33.744  28.595  25.320  1.00  0.00     0.023 C 
ENDROOT
BRANCH   1   2
ATOM      2  C   UNL A   1      33.174  27.251  24.859  1.00  0.00     0.116 C 
BRANCH   2   3
ATOM      3  N   UNL A   1      33.680  26.884  23.550  1.00  0.00    -0.354 N 
ATOM      4  C   UNL A   1      33.013  26.399  22.462  1.00  0.00     0.249 C 
ATOM      5  O   UNL A   1      33.680  26.058  21.481  1.00  0.00    -0.272 OA
ATOM      6  H   UNL A   1      34.650  27.002  23.428  1.00  0.00     0.163 HD
BRANCH   4   7
ATOM      7  C   UNL A   1      31.478  26.329  22.467  1.00  0.00     0.207 C 
ATOM      8  C   UNL A   1      29.869  25.870  24.124  1.00  0.00     0.138 C 
ATOM      9  C   UNL A   1      29.508  27.176  23.430  1.00  0.00     0.037 C 
ATOM     10  O   UNL A   1      31.006  25.344  23.408  1.00  0.00    -0.363 OA
ATOM     11  C   UNL A   1      30.835  27.641  22.889  1.00  0.00     0.045 C 
BRANCH   8  12
ATOM     12  C   UNL A   1      30.179  26.068  25.625  1.00  0.00     0.148 C 
BRANCH  12  13
ATOM     13  N   UNL A   1      29.808  24.899  26.417  1.00  0.00    -0.349 N 
ATOM     14  C   UNL A   1      30.404  23.694  26.682  1.00  0.00     0.251 C 
ATOM     15  O   UNL A   1      29.853  22.987  27.533  1.00  0.00    -0.269 OA
ATOM     16  H   UNL A   1      28.935  24.999  26.860  1.00  0.00     0.163 HD
BRANCH  14  17
ATOM     17  C   UNL A   1      31.658  23.204  26.046  1.00  0.00     0.039 A 
ATOM     18  C   UNL A   1      34.156  22.352  24.988  1.00  0.00    -0.045 A 
ATOM     19  C   UNL A   1      34.080  23.467  25.829  1.00  0.00     0.005 A 
ATOM     20  C   UNL A   1      32.967  21.673  24.689  1.00  0.00     0.005 A 
ATOM     21  C   UNL A   1      32.848  23.885  26.350  1.00  0.00     0.014 A 
ATOM     22  C   UNL A   1      31.743  22.080  25.230  1.00  0.00     0.014 A 
BRANCH  18  23
ATOM     23  C   UNL A   1      35.455  21.856  24.376  1.00  0.00     0.013 C 
ATOM     24  C   UNL A   1      36.067  22.937  23.483  1.00  0.00     0.012 C 
ATOM     25  C   UNL A   1      36.485  21.359  25.394  1.00  0.00     0.012 C 
ENDBRANCH  18  23
ENDBRANCH  14  17
ENDBRANCH  12  13
ENDBRANCH   8  12
ENDBRANCH   4   7
ENDBRANCH   2   3
ENDBRANCH   1   2
BRANCH   1  26
ATOM     26  C   UNL A   1      32.732  29.747  25.353  1.00  0.00     0.023 C 
BRANCH  26  27
ATOM     27  C   UNL A   1      32.281  30.190  26.743  1.00  0.00     0.116 C 
BRANCH  27  28
ATOM     28  N   UNL A   1      32.131  31.632  26.859  1.00  0.00    -0.352 N 
ATOM     29  C   UNL A   1      32.975  32.545  27.452  1.00  0.00     0.251 C 
ATOM     30  H   UNL A   1      31.314  32.007  26.459  1.00  0.00     0.163 HD
ATOM     31  O   UNL A   1      32.624  33.710  27.573  1.00  0.00    -0.269 OA
BRANCH  29  32
ATOM     32  C   UNL A   1      34.287  32.096  27.974  1.00  0.00     0.039 A 
ATOM     33  C   UNL A   1      35.365  32.986  27.951  1.00  0.00     0.014 A 
ATOM     34  C   UNL A   1      34.448  30.813  28.504  1.00  0.00     0.014 A 
ATOM     35  C   UNL A   1      36.582  32.619  28.535  1.00  0.00     0.010 A 
ATOM     36  C   UNL A   1      35.641  30.472  29.136  1.00  0.00     0.010 A 
ATOM     37  C   UNL A   1      36.716  31.374  29.170  1.00  0.00    -0.014 A 
BRANCH  37  38
ATOM     38  C   UNL A   1      37.965  30.984  29.878  1.00  0.00     0.031 A 
ATOM     39  C   UNL A   1      38.892  29.977  29.253  1.00  0.00     0.074 A 
ATOM     40  C   UNL A   1      38.219  31.461  31.113  1.00  0.00     0.049 A 
ATOM     41  N   UNL A   1      39.925  29.366  29.773  1.00  0.00    -0.248 NA
ATOM     42  C   UNL A   1      38.595  29.589  27.866  1.00  0.00     0.031 C 
ATOM     43  C   UNL A   1      37.390  32.430  31.833  1.00  0.00     0.029 A 
ATOM     44  N   UNL A   1      39.233  31.175  31.995  1.00  0.00    -0.354 N 
ATOM     45  C   UNL A   1      40.395  28.509  28.782  1.00  0.00     0.074 A 
ATOM     46  C   UNL A   1      39.498  28.644  27.654  1.00  0.00     0.031 C 
ATOM     47  C   UNL A   1      37.929  32.658  33.042  1.00  0.00     0.029 A 
ATOM     48  C   UNL A   1      39.108  31.813  33.208  1.00  0.00     0.049 A 
ATOM     49  H   UNL A   1      39.979  30.570  31.779  1.00  0.00     0.167 HD
ATOM     50  C   UNL A   1      41.485  27.703  28.805  1.00  0.00     0.034 A 
ATOM     51  C   UNL A   1      39.841  31.708  34.336  1.00  0.00     0.034 A 
ATOM     52  C   UNL A   1      42.374  27.584  29.934  1.00  0.00     0.049 A 
ATOM     53  C   UNL A   1      41.023  30.769  34.354  1.00  0.00     0.074 A 
ATOM     54  C   UNL A   1      43.513  26.805  30.060  1.00  0.00     0.029 A 
ATOM     55  N   UNL A   1      42.226  28.263  31.136  1.00  0.00    -0.354 N 
ATOM     56  N   UNL A   1      41.458  29.971  33.405  1.00  0.00    -0.248 NA
ATOM     57  C   UNL A   1      41.814  30.718  35.591  1.00  0.00     0.031 C 
ATOM     58  C   UNL A   1      44.023  26.976  31.352  1.00  0.00     0.029 A 
ATOM     59  C   UNL A   1      43.242  27.911  32.011  1.00  0.00     0.049 A 
ATOM     60  H   UNL A   1      41.505  28.901  31.338  1.00  0.00     0.167 HD
ATOM     61  C   UNL A   1      42.597  29.358  33.920  1.00  0.00     0.074 A 
ATOM     62  C   UNL A   1      42.784  29.879  35.257  1.00  0.00     0.031 C 
ATOM     63  C   UNL A   1      43.419  28.449  33.338  1.00  0.00     0.034 A 
BRANCH  50  64
ATOM     64  C   UNL A   1      41.757  26.875  27.573  1.00  0.00     0.023 A 
ATOM     65  C   UNL A   1      41.420  25.511  27.519  1.00  0.00     0.031 A 
ATOM     66  C   UNL A   1      42.383  27.443  26.450  1.00  0.00     0.131 A 
ATOM     67  C   UNL A   1      41.778  24.744  26.401  1.00  0.00     0.055 A 
ATOM     68  C   UNL A   1      42.664  26.693  25.306  1.00  0.00     0.041 A 
ATOM     69  F   UNL A   1      42.746  28.735  26.451  1.00  0.00    -0.206 F 
ATOM     70  C   UNL A   1      42.375  25.332  25.283  1.00  0.00     0.022 A 
BRANCH  67  71
ATOM     71  S   UNL A   1      41.577  22.945  26.487  1.00  0.00     0.124 S 
ATOM     72  O   UNL A   1      42.327  22.510  25.311  1.00  0.00    -0.237 OA
ATOM     73  O   UNL A   1      42.171  22.621  27.779  1.00  0.00    -0.237 OA
ATOM     74  O   UNL A   1      40.130  22.758  26.399  1.00  0.00    -0.744 OA
ENDBRANCH  67  71
ENDBRANCH  50  64
BRANCH  51  75
ATOM     75  C   UNL A   1      39.472  32.479  35.557  1.00  0.00     0.023 A 
ATOM     76  C   UNL A   1      38.700  31.896  36.574  1.00  0.00     0.031 A 
ATOM     77  C   UNL A   1      39.830  33.832  35.698  1.00  0.00     0.131 A 
ATOM     78  C   UNL A   1      38.261  32.676  37.655  1.00  0.00     0.055 A 
ATOM     79  C   UNL A   1      39.440  34.589  36.803  1.00  0.00     0.041 A 
ATOM     80  F   UNL A   1      40.571  34.440  34.757  1.00  0.00    -0.206 F 
ATOM     81  C   UNL A   1      38.635  34.015  37.783  1.00  0.00     0.022 A 
BRANCH  78  82
ATOM     82  S   UNL A   1      37.097  31.942  38.838  1.00  0.00     0.124 S 
ATOM     83  O   UNL A   1      37.761  32.206  40.110  1.00  0.00    -0.237 OA
ATOM     84  O   UNL A   1      35.882  32.706  38.577  1.00  0.00    -0.237 OA
ATOM     85  O   UNL A   1      37.047  30.538  38.438  1.00  0.00    -0.744 OA
ENDBRANCH  78  82
ENDBRANCH  51  75
BRANCH  63  86
ATOM     86  C   UNL A   1      44.635  28.018  34.119  1.00  0.00     0.023 A 
ATOM     87  C   UNL A   1      44.625  26.879  34.941  1.00  0.00     0.031 A 
ATOM     88  C   UNL A   1      45.824  28.763  34.030  1.00  0.00     0.131 A 
ATOM     89  C   UNL A   1      45.772  26.538  35.674  1.00  0.00     0.055 A 
ATOM     90  C   UNL A   1      46.977  28.392  34.722  1.00  0.00     0.041 A 
ATOM     91  F   UNL A   1      45.886  29.861  33.259  1.00  0.00    -0.206 F 
ATOM     92  C   UNL A   1      46.953  27.279  35.558  1.00  0.00     0.022 A 
BRANCH  89  93
ATOM     93  S   UNL A   1      45.688  25.144  36.832  1.00  0.00     0.124 S 
ATOM     94  O   UNL A   1      44.272  25.126  37.182  1.00  0.00    -0.237 OA
ATOM     95  O   UNL A   1      46.157  24.029  36.015  1.00  0.00    -0.237 OA
ATOM     96  O   UNL A   1      46.590  25.539  37.911  1.00  0.00    -0.744 OA
ENDBRANCH  89  93
ENDBRANCH  63  86
ENDBRANCH  37  38
ENDBRANCH  29  32
ENDBRANCH  27  28
ENDBRANCH  26  27
ENDBRANCH   1  26
TORSDOF 18
ENDMDL
MODEL 2
REMARK VINA RESULT:     -12.1      5.860     10.573
REMARK SMILES CC(C)c1ccc(C(=O)NC[C@H]2CC[C@@H](C(=O)NCCCCNC(=O)c3ccc(-c4c5nc(c(-c6cc(S(=O)(=O)[O-])ccc6F)c6ccc([nH]6)c(-c6cc(S(=O)(=O)[O-])ccc6F)c6nc(c(-c7cc(S(=O)(=O)[O-])ccc7F)c7ccc4[nH]7)C=C6)C=C5)cc3)O2)cc1
REMARK SMILES IDX 20 1 19 2 18 3 16 4 17 5 15 7 12 8 13 9 89 10 14 11 11 12
REMARK SMILES IDX 10 13 8 14 9 15 7 17 4 18 5 19 91 20 6 21 90 22 2 23 1 24
REMARK SMILES IDX 3 25 21 26 22 27 23 28 24 29 25 31 26 32 27 33 88 34 28 35
REMARK SMILES IDX 87 36 29 37 30 38 31 39 81 40 32 41 86 42 80 43 82 44 33 45
REMARK SMILES IDX 85 46 79 47 78 48 34 50 66 51 46 52 65 53 47 54 50 55 64 56
REMARK SMILES IDX 83 57 48 58 49 59 63 61 84 62 51 63 35 64 36 65 44 66 37 67
REMARK SMILES IDX 43 68 45 69 42 70 38 71 39 72 40 73 41 74 67 75 68 76 76 77
REMARK SMILES IDX 69 78 75 79 77 80 74 81 70 82 71 83 72 84 73 85 52 86 53 87
REMARK SMILES IDX 61 88 54 89 60 90 62 91 59 92 55 93 56 94 57 95 58 96
REMARK H PARENT 18 6 10 16 23 30 82 49 50 60
REMARK Flexibility Score: inf
ROOT
ATOM      1  C   UNL A   1      37.659  21.782  24.612  1.00  0.00     0.023 C 
ENDROOT
BRANCH   1   2
ATOM      2  C   UNL A   1      36.977  22.790  25.541  1.00  0.00     0.116 C 
BRANCH   2   3
ATOM      3  N   UNL A   1      35.841  22.196  26.219  1.00  0.00    -0.354 N 
ATOM      4  C   UNL A   1      34.591  21.918  25.746  1.00  0.00     0.249 C 
ATOM      5  O   UNL A   1      33.749  21.503  26.547  1.00  0.00    -0.272 OA
ATOM      6  H   UNL A   1      35.994  21.958  27.163  1.00  0.00     0.163 HD
BRANCH   4   7
ATOM      7  C   UNL A   1      34.278  22.084  24.250  1.00  0.00     0.207 C 
ATOM      8  C   UNL A   1      32.328  22.597  23.035  1.00  0.00     0.138 C 
ATOM      9  C   UNL A   1      33.444  23.536  22.601  1.00  0.00     0.037 C 
ATOM     10  O   UNL A   1      32.934  21.660  23.950  1.00  0.00    -0.363 OA
ATOM     11  C   UNL A   1      34.364  23.532  23.794  1.00  0.00     0.045 C 
BRANCH   8  12
ATOM     12  C   UNL A   1      31.147  23.351  23.689  1.00  0.00     0.148 C 
BRANCH  12  13
ATOM     13  N   UNL A   1      31.092  23.134  25.131  1.00  0.00    -0.349 N 
ATOM     14  C   UNL A   1      31.316  23.925  26.227  1.00  0.00     0.251 C 
ATOM     15  O   UNL A   1      31.028  23.434  27.323  1.00  0.00    -0.269 OA
ATOM     16  H   UNL A   1      30.838  22.213  25.370  1.00  0.00     0.163 HD
BRANCH  14  17
ATOM     17  C   UNL A   1      31.844  25.317  26.181  1.00  0.00     0.039 A 
ATOM     18  C   UNL A   1      32.678  28.035  26.185  1.00  0.00    -0.045 A 
ATOM     19  C   UNL A   1      31.319  27.706  26.194  1.00  0.00     0.005 A 
ATOM     20  C   UNL A   1      33.608  26.987  26.176  1.00  0.00     0.005 A 
ATOM     21  C   UNL A   1      30.910  26.366  26.193  1.00  0.00     0.014 A 
ATOM     22  C   UNL A   1      33.195  25.650  26.199  1.00  0.00     0.014 A 
BRANCH  18  23
ATOM     23  C   UNL A   1      33.190  29.466  26.168  1.00  0.00     0.013 C 
ATOM     24  C   UNL A   1      32.088  30.427  26.615  1.00  0.00     0.012 C 
ATOM     25  C   UNL A   1      34.462  29.692  26.991  1.00  0.00     0.012 C 
ENDBRANCH  18  23
ENDBRANCH  14  17
ENDBRANCH  12  13
ENDBRANCH   8  12
ENDBRANCH   4   7
ENDBRANCH   2   3
ENDBRANCH   1   2
BRANCH   1  26
ATOM     26  C   UNL A   1      38.114  20.484  25.291  1.00  0.00     0.023 C 
BRANCH  26  27
ATOM     27  C   UNL A   1      39.340  20.606  26.194  1.00  0.00     0.116 C 
BRANCH  27  28
ATOM     28  N   UNL A   1      40.286  19.517  26.017  1.00  0.00    -0.352 N 
ATOM     29  C   UNL A   1      41.663  19.557  26.024  1.00  0.00     0.251 C 
ATOM     30  H   UNL A   1      39.888  18.628  25.870  1.00  0.00     0.163 HD
ATOM     31  O   UNL A   1      42.304  18.558  25.726  1.00  0.00    -0.269 OA
BRANCH  29  32
ATOM     32  C   UNL A   1      42.356  20.823  26.358  1.00  0.00     0.039 A 
ATOM     33  C   UNL A   1      42.748  21.674  25.321  1.00  0.00     0.014 A 
ATOM     34  C   UNL A   1      42.596  21.180  27.688  1.00  0.00     0.014 A 
ATOM     35  C   UNL A   1      43.308  22.921  25.619  1.00  0.00     0.010 A 
ATOM     36  C   UNL A   1      43.097  22.445  27.982  1.00  0.00     0.010 A 
ATOM     37  C   UNL A   1      43.447  23.335  26.953  1.00  0.00    -0.014 A 
BRANCH  37  38
ATOM     38  C   UNL A   1      43.954  24.687  27.307  1.00  0.00     0.031 A 
ATOM     39  C   UNL A   1      42.999  25.732  27.815  1.00  0.00     0.074 A 
ATOM     40  C   UNL A   1      45.246  25.004  27.086  1.00  0.00     0.049 A 
ATOM     41  N   UNL A   1      43.193  27.012  28.005  1.00  0.00    -0.248 NA
ATOM     42  C   UNL A   1      41.636  25.275  28.124  1.00  0.00     0.031 C 
ATOM     43  C   UNL A   1      46.268  24.084  26.581  1.00  0.00     0.029 A 
ATOM     44  N   UNL A   1      45.917  26.194  27.231  1.00  0.00    -0.354 N 
ATOM     45  C   UNL A   1      41.972  27.518  28.442  1.00  0.00     0.074 A 
ATOM     46  C   UNL A   1      41.035  26.414  28.434  1.00  0.00     0.031 C 
ATOM     47  C   UNL A   1      47.433  24.743  26.461  1.00  0.00     0.029 A 
ATOM     48  C   UNL A   1      47.231  26.142  26.826  1.00  0.00     0.049 A 
ATOM     49  H   UNL A   1      45.496  27.008  27.592  1.00  0.00     0.167 HD
ATOM     50  C   UNL A   1      41.669  28.781  28.834  1.00  0.00     0.034 A 
ATOM     51  C   UNL A   1      48.160  27.116  26.729  1.00  0.00     0.034 A 
ATOM     52  C   UNL A   1      42.614  29.869  28.842  1.00  0.00     0.049 A 
ATOM     53  C   UNL A   1      47.786  28.524  27.126  1.00  0.00     0.074 A 
ATOM     54  C   UNL A   1      42.415  31.184  29.229  1.00  0.00     0.029 A 
ATOM     55  N   UNL A   1      43.941  29.772  28.445  1.00  0.00    -0.354 N 
ATOM     56  N   UNL A   1      46.629  28.984  27.545  1.00  0.00    -0.248 NA
ATOM     57  C   UNL A   1      48.841  29.543  27.042  1.00  0.00     0.031 C 
ATOM     58  C   UNL A   1      43.604  31.891  29.019  1.00  0.00     0.029 A 
ATOM     59  C   UNL A   1      44.566  31.003  28.564  1.00  0.00     0.049 A 
ATOM     60  H   UNL A   1      44.375  28.948  28.125  1.00  0.00     0.167 HD
ATOM     61  C   UNL A   1      46.834  30.335  27.813  1.00  0.00     0.074 A 
ATOM     62  C   UNL A   1      48.222  30.614  27.513  1.00  0.00     0.031 C 
ATOM     63  C   UNL A   1      45.955  31.261  28.270  1.00  0.00     0.034 A 
BRANCH  50  64
ATOM     64  C   UNL A   1      40.247  29.046  29.265  1.00  0.00     0.023 A 
ATOM     65  C   UNL A   1      39.868  28.981  30.617  1.00  0.00     0.031 A 
ATOM     66  C   UNL A   1      39.253  29.340  28.316  1.00  0.00     0.131 A 
ATOM     67  C   UNL A   1      38.521  29.131  30.976  1.00  0.00     0.055 A 
ATOM     68  C   UNL A   1      37.926  29.569  28.688  1.00  0.00     0.041 A 
ATOM     69  F   UNL A   1      39.550  29.395  27.008  1.00  0.00    -0.206 F 
ATOM     70  C   UNL A   1      37.551  29.450  30.022  1.00  0.00     0.022 A 
BRANCH  67  71
ATOM     71  S   UNL A   1      38.036  28.767  32.683  1.00  0.00     0.124 S 
ATOM     72  O   UNL A   1      39.066  29.478  33.438  1.00  0.00    -0.237 OA
ATOM     73  O   UNL A   1      36.691  29.325  32.757  1.00  0.00    -0.237 OA
ATOM     74  O   UNL A   1      38.114  27.309  32.758  1.00  0.00    -0.744 OA
ENDBRANCH  67  71
ENDBRANCH  50  64
BRANCH  51  75
ATOM     75  C   UNL A   1      49.524  26.817  26.207  1.00  0.00     0.023 A 
ATOM     76  C   UNL A   1      50.607  26.632  27.079  1.00  0.00     0.031 A 
ATOM     77  C   UNL A   1      49.779  26.776  24.824  1.00  0.00     0.131 A 
ATOM     78  C   UNL A   1      51.903  26.474  26.564  1.00  0.00     0.055 A 
ATOM     79  C   UNL A   1      51.061  26.561  24.315  1.00  0.00     0.041 A 
ATOM     80  F   UNL A   1      48.779  26.942  23.943  1.00  0.00    -0.206 F 
ATOM     81  C   UNL A   1      52.136  26.425  25.188  1.00  0.00     0.022 A 
BRANCH  78  82
ATOM     82  S   UNL A   1      53.299  26.445  27.722  1.00  0.00     0.124 S 
ATOM     83  O   UNL A   1      52.625  26.211  28.995  1.00  0.00    -0.237 OA
ATOM     84  O   UNL A   1      54.097  25.338  27.205  1.00  0.00    -0.237 OA
ATOM     85  O   UNL A   1      53.898  27.769  27.566  1.00  0.00    -0.744 OA
ENDBRANCH  78  82
ENDBRANCH  51  75
BRANCH  63  86
ATOM     86  C   UNL A   1      46.490  32.644  28.543  1.00  0.00     0.023 A 
ATOM     87  C   UNL A   1      46.627  33.603  27.525  1.00  0.00     0.031 A 
ATOM     88  C   UNL A   1      46.862  33.005  29.850  1.00  0.00     0.131 A 
ATOM     89  C   UNL A   1      47.160  34.865  27.824  1.00  0.00     0.055 A 
ATOM     90  C   UNL A   1      47.346  34.278  30.151  1.00  0.00     0.041 A 
ATOM     91  F   UNL A   1      46.751  32.126  30.859  1.00  0.00    -0.206 F 
ATOM     92  C   UNL A   1      47.507  35.215  29.133  1.00  0.00     0.022 A 
BRANCH  89  93
ATOM     93  S   UNL A   1      47.455  36.034  26.468  1.00  0.00     0.124 S 
ATOM     94  O   UNL A   1      48.554  36.837  26.993  1.00  0.00    -0.237 OA
ATOM     95  O   UNL A   1      47.787  35.148  25.357  1.00  0.00    -0.237 OA
ATOM     96  O   UNL A   1      46.180  36.737  26.337  1.00  0.00    -0.744 OA
ENDBRANCH  89  93
ENDBRANCH  63  86
ENDBRANCH  37  38
ENDBRANCH  29  32
ENDBRANCH  27  28
ENDBRANCH  26  27
ENDBRANCH   1  26
TORSDOF 18
ENDMDL
MODEL 3
REMARK VINA RESULT:     -12.1      1.526      2.190
REMARK SMILES CC(C)c1ccc(C(=O)NC[C@H]2CC[C@@H](C(=O)NCCCCNC(=O)c3ccc(-c4c5nc(c(-c6cc(S(=O)(=O)[O-])ccc6F)c6ccc([nH]6)c(-c6cc(S(=O)(=O)[O-])ccc6F)c6nc(c(-c7cc(S(=O)(=O)[O-])ccc7F)c7ccc4[nH]7)C=C6)C=C5)cc3)O2)cc1
REMARK SMILES IDX 20 1 19 2 18 3 16 4 17 5 15 7 12 8 13 9 89 10 14 11 11 12
REMARK SMILES IDX 10 13 8 14 9 15 7 17 4 18 5 19 91 20 6 21 90 22 2 23 1 24
REMARK SMILES IDX 3 25 21 26 22 27 23 28 24 29 25 31 26 32 27 33 88 34 28 35
REMARK SMILES IDX 87 36 29 37 30 38 31 39 81 40 32 41 86 42 80 43 82 44 33 45
REMARK SMILES IDX 85 46 79 47 78 48 34 50 66 51 46 52 65 53 47 54 50 55 64 56
REMARK SMILES IDX 83 57 48 58 49 59 63 61 84 62 51 63 35 64 36 65 44 66 37 67
REMARK SMILES IDX 43 68 45 69 42 70 38 71 39 72 40 73 41 74 67 75 68 76 76 77
REMARK SMILES IDX 69 78 75 79 77 80 74 81 70 82 71 83 72 84 73 85 52 86 53 87
REMARK SMILES IDX 61 88 54 89 60 90 62 91 59 92 55 93 56 94 57 95 58 96
REMARK H PARENT 18 6 10 16 23 30 82 49 50 60
REMARK Flexibility Score: inf
ROOT
ATOM      1  C   UNL A   1      31.478  30.392  25.723  1.00  0.00     0.023 C 
ENDROOT
BRANCH   1   2
ATOM      2  C   UNL A   1      32.772  29.658  26.084  1.00  0.00     0.116 C 
BRANCH   2   3
ATOM      3  N   UNL A   1      33.242  28.844  24.978  1.00  0.00    -0.354 N 
ATOM      4  C   UNL A   1      33.139  27.497  24.781  1.00  0.00     0.249 C 
ATOM      5  O   UNL A   1      33.713  27.011  23.803  1.00  0.00    -0.272 OA
ATOM      6  H   UNL A   1      33.706  29.338  24.263  1.00  0.00     0.163 HD
BRANCH   4   7
ATOM      7  C   UNL A   1      32.294  26.641  25.738  1.00  0.00     0.207 C 
ATOM      8  C   UNL A   1      30.640  24.994  25.429  1.00  0.00     0.138 C 
ATOM      9  C   UNL A   1      31.709  24.453  26.368  1.00  0.00     0.037 C 
ATOM     10  O   UNL A   1      30.992  26.371  25.181  1.00  0.00    -0.363 OA
ATOM     11  C   UNL A   1      32.916  25.280  26.007  1.00  0.00     0.045 C 
BRANCH   8  12
ATOM     12  C   UNL A   1      30.547  24.183  24.116  1.00  0.00     0.148 C 
BRANCH  12  13
ATOM     13  N   UNL A   1      31.713  24.389  23.263  1.00  0.00    -0.349 N 
ATOM     14  C   UNL A   1      32.709  23.576  22.789  1.00  0.00     0.251 C 
ATOM     15  O   UNL A   1      33.470  24.074  21.954  1.00  0.00    -0.269 OA
ATOM     16  H   UNL A   1      31.805  25.322  22.961  1.00  0.00     0.163 HD
BRANCH  14  17
ATOM     17  C   UNL A   1      32.910  22.154  23.186  1.00  0.00     0.039 A 
ATOM     18  C   UNL A   1      33.364  19.509  24.124  1.00  0.00    -0.045 A 
ATOM     19  C   UNL A   1      34.098  20.584  24.636  1.00  0.00     0.005 A 
ATOM     20  C   UNL A   1      32.401  19.780  23.142  1.00  0.00     0.005 A 
ATOM     21  C   UNL A   1      33.872  21.887  24.173  1.00  0.00     0.014 A 
ATOM     22  C   UNL A   1      32.163  21.086  22.699  1.00  0.00     0.014 A 
BRANCH  18  23
ATOM     23  C   UNL A   1      33.568  18.070  24.568  1.00  0.00     0.013 C 
ATOM     24  C   UNL A   1      32.635  17.739  25.735  1.00  0.00     0.012 C 
ATOM     25  C   UNL A   1      33.414  17.034  23.451  1.00  0.00     0.012 C 
ENDBRANCH  18  23
ENDBRANCH  14  17
ENDBRANCH  12  13
ENDBRANCH   8  12
ENDBRANCH   4   7
ENDBRANCH   2   3
ENDBRANCH   1   2
BRANCH   1  26
ATOM     26  C   UNL A   1      31.310  31.765  26.387  1.00  0.00     0.023 C 
BRANCH  26  27
ATOM     27  C   UNL A   1      32.604  32.457  26.809  1.00  0.00     0.116 C 
BRANCH  27  28
ATOM     28  N   UNL A   1      32.376  33.722  27.488  1.00  0.00    -0.352 N 
ATOM     29  C   UNL A   1      33.088  34.291  28.521  1.00  0.00     0.251 C 
ATOM     30  H   UNL A   1      31.606  34.244  27.165  1.00  0.00     0.163 HD
ATOM     31  O   UNL A   1      32.673  35.307  29.061  1.00  0.00    -0.269 OA
BRANCH  29  32
ATOM     32  C   UNL A   1      34.334  33.643  28.994  1.00  0.00     0.039 A 
ATOM     33  C   UNL A   1      35.551  34.310  28.821  1.00  0.00     0.014 A 
ATOM     34  C   UNL A   1      34.300  32.398  29.626  1.00  0.00     0.014 A 
ATOM     35  C   UNL A   1      36.724  33.764  29.354  1.00  0.00     0.010 A 
ATOM     36  C   UNL A   1      35.457  31.886  30.206  1.00  0.00     0.010 A 
ATOM     37  C   UNL A   1      36.679  32.568  30.089  1.00  0.00    -0.014 A 
BRANCH  37  38
ATOM     38  C   UNL A   1      37.889  32.005  30.746  1.00  0.00     0.031 A 
ATOM     39  C   UNL A   1      38.692  30.944  30.043  1.00  0.00     0.074 A 
ATOM     40  C   UNL A   1      38.210  32.374  32.002  1.00  0.00     0.049 A 
ATOM     41  N   UNL A   1      39.661  30.196  30.503  1.00  0.00    -0.248 NA
ATOM     42  C   UNL A   1      38.335  30.677  28.641  1.00  0.00     0.031 C 
ATOM     43  C   UNL A   1      37.501  33.379  32.796  1.00  0.00     0.029 A 
ATOM     44  N   UNL A   1      39.200  31.927  32.844  1.00  0.00    -0.354 N 
ATOM     45  C   UNL A   1      40.021  29.357  29.453  1.00  0.00     0.074 A 
ATOM     46  C   UNL A   1      39.127  29.655  28.354  1.00  0.00     0.031 C 
ATOM     47  C   UNL A   1      38.079  33.473  34.005  1.00  0.00     0.029 A 
ATOM     48  C   UNL A   1      39.162  32.499  34.095  1.00  0.00     0.049 A 
ATOM     49  H   UNL A   1      39.873  31.261  32.576  1.00  0.00     0.167 HD
ATOM     50  C   UNL A   1      41.018  28.438  29.405  1.00  0.00     0.034 A 
ATOM     51  C   UNL A   1      39.896  32.247  35.199  1.00  0.00     0.034 A 
ATOM     52  C   UNL A   1      41.905  28.156  30.506  1.00  0.00     0.049 A 
ATOM     53  C   UNL A   1      40.969  31.187  35.136  1.00  0.00     0.074 A 
ATOM     54  C   UNL A   1      42.956  27.254  30.561  1.00  0.00     0.029 A 
ATOM     55  N   UNL A   1      41.849  28.771  31.749  1.00  0.00    -0.354 N 
ATOM     56  N   UNL A   1      41.302  30.408  34.132  1.00  0.00    -0.248 NA
ATOM     57  C   UNL A   1      41.768  30.976  36.351  1.00  0.00     0.031 C 
ATOM     58  C   UNL A   1      43.499  27.288  31.850  1.00  0.00     0.029 A 
ATOM     59  C   UNL A   1      42.833  28.259  32.580  1.00  0.00     0.049 A 
ATOM     60  H   UNL A   1      41.203  29.469  32.004  1.00  0.00     0.167 HD
ATOM     61  C   UNL A   1      42.376  29.646  34.585  1.00  0.00     0.074 A 
ATOM     62  C   UNL A   1      42.637  30.061  35.947  1.00  0.00     0.031 C 
ATOM     63  C   UNL A   1      43.087  28.693  33.933  1.00  0.00     0.034 A 
BRANCH  50  64
ATOM     64  C   UNL A   1      41.181  27.664  28.120  1.00  0.00     0.023 A 
ATOM     65  C   UNL A   1      40.780  26.320  28.020  1.00  0.00     0.031 A 
ATOM     66  C   UNL A   1      41.768  28.262  26.991  1.00  0.00     0.131 A 
ATOM     67  C   UNL A   1      41.038  25.598  26.846  1.00  0.00     0.055 A 
ATOM     68  C   UNL A   1      41.949  27.560  25.797  1.00  0.00     0.041 A 
ATOM     69  F   UNL A   1      42.190  29.535  27.033  1.00  0.00    -0.206 F 
ATOM     70  C   UNL A   1      41.597  26.216  25.725  1.00  0.00     0.022 A 
BRANCH  67  71
ATOM     71  S   UNL A   1      40.760  23.807  26.856  1.00  0.00     0.124 S 
ATOM     72  O   UNL A   1      41.732  23.353  25.864  1.00  0.00    -0.237 OA
ATOM     73  O   UNL A   1      41.045  23.449  28.241  1.00  0.00    -0.237 OA
ATOM     74  O   UNL A   1      39.361  23.676  26.452  1.00  0.00    -0.744 OA
ENDBRANCH  67  71
ENDBRANCH  50  64
BRANCH  51  75
ATOM     75  C   UNL A   1      39.629  32.976  36.472  1.00  0.00     0.023 A 
ATOM     76  C   UNL A   1      38.744  32.458  37.430  1.00  0.00     0.031 A 
ATOM     77  C   UNL A   1      40.206  34.234  36.722  1.00  0.00     0.131 A 
ATOM     78  C   UNL A   1      38.414  33.218  38.563  1.00  0.00     0.055 A 
ATOM     79  C   UNL A   1      39.919  34.962  37.878  1.00  0.00     0.041 A 
ATOM     80  F   UNL A   1      41.063  34.776  35.842  1.00  0.00    -0.206 F 
ATOM     81  C   UNL A   1      39.005  34.461  38.799  1.00  0.00     0.022 A 
BRANCH  78  82
ATOM     82  S   UNL A   1      37.113  32.605  39.669  1.00  0.00     0.124 S 
ATOM     83  O   UNL A   1      37.186  33.559  40.770  1.00  0.00    -0.237 OA
ATOM     84  O   UNL A   1      35.930  32.695  38.820  1.00  0.00    -0.237 OA
ATOM     85  O   UNL A   1      37.548  31.248  39.987  1.00  0.00    -0.744 OA
ENDBRANCH  78  82
ENDBRANCH  51  75
BRANCH  63  86
ATOM     86  C   UNL A   1      44.259  28.087  34.661  1.00  0.00     0.023 A 
ATOM     87  C   UNL A   1      44.123  26.949  35.474  1.00  0.00     0.031 A 
ATOM     88  C   UNL A   1      45.537  28.660  34.530  1.00  0.00     0.131 A 
ATOM     89  C   UNL A   1      45.239  26.443  36.157  1.00  0.00     0.055 A 
ATOM     90  C   UNL A   1      46.652  28.123  35.172  1.00  0.00     0.041 A 
ATOM     91  F   UNL A   1      45.721  29.749  33.765  1.00  0.00    -0.206 F 
ATOM     92  C   UNL A   1      46.506  27.014  36.000  1.00  0.00     0.022 A 
BRANCH  89  93
ATOM     93  S   UNL A   1      45.007  25.059  37.307  1.00  0.00     0.124 S 
ATOM     94  O   UNL A   1      43.731  25.395  37.932  1.00  0.00    -0.237 OA
ATOM     95  O   UNL A   1      44.995  23.906  36.413  1.00  0.00    -0.237 OA
ATOM     96  O   UNL A   1      46.170  25.145  38.188  1.00  0.00    -0.744 OA
ENDBRANCH  89  93
ENDBRANCH  63  86
ENDBRANCH  37  38
ENDBRANCH  29  32
ENDBRANCH  27  28
ENDBRANCH  26  27
ENDBRANCH   1  26
TORSDOF 18
ENDMDL
