MODEL 1
REMARK VINA RESULT:     -13.2      0.000      0.000
REMARK SMILES O=C(NCCCCNC(=O)[C@@H]1[C@@H](C(=O)N2CCN(c3cccc(Cl)c3)CC2)[C@H]2CC[C@@H]1O2)c1ccc(-c2c3nc(c(-c4cc(S(=O)(=O)[O-])ccc4F)c4ccc([nH]4)c(-c4cc(S(=O)(=O)[O-])ccc4F)c4nc(c(-c5cc(S(=O)(=O)[O-])ccc5F)c5ccc2[nH]5)C=C4)C=C3)cc1
REMARK SMILES IDX 5 1 4 2 3 3 1 4 2 5 33 7 34 8 95 9 35 10 94 11 36 12 37 13
REMARK SMILES IDX 38 14 88 15 39 16 93 17 87 18 89 19 40 20 92 21 86 22 85 23
REMARK SMILES IDX 41 25 73 26 53 27 72 28 54 29 57 30 71 31 90 32 55 33 56 34
REMARK SMILES IDX 70 36 91 37 58 38 42 39 43 40 51 41 44 42 50 43 52 44 49 45
REMARK SMILES IDX 45 46 46 47 47 48 48 49 74 50 75 51 83 52 76 53 82 54 84 55
REMARK SMILES IDX 81 56 77 57 78 58 79 59 80 60 59 61 60 62 68 63 61 64 67 65
REMARK SMILES IDX 69 66 66 67 62 68 63 69 64 70 65 71 6 72 7 73 8 74 9 75
REMARK SMILES IDX 10 77 11 78 12 79 31 80 28 81 30 82 32 83 29 84 13 85 14 86
REMARK SMILES IDX 15 87 16 88 27 89 17 90 26 91 18 92 19 93 20 94 25 95 21 96
REMARK SMILES IDX 23 97 22 98 24 99
REMARK H PARENT 3 6 89 24 57 35 8 76
REMARK Flexibility Score: inf
ROOT
ATOM      1  C   UNL A   1      31.528  32.131  26.835  1.00  0.00     0.023 C 
ENDROOT
BRANCH   1   2
ATOM      2  C   UNL A   1      32.756  32.838  27.392  1.00  0.00     0.116 C 
BRANCH   2   3
ATOM      3  N   UNL A   1      32.509  34.221  27.786  1.00  0.00    -0.352 N 
ATOM      4  O   UNL A   1      32.726  36.111  29.001  1.00  0.00    -0.269 OA
ATOM      5  C   UNL A   1      33.131  34.978  28.753  1.00  0.00     0.251 C 
ATOM      6  H   UNL A   1      31.795  34.679  27.287  1.00  0.00     0.163 HD
BRANCH   5   7
ATOM      7  C   UNL A   1      34.259  34.401  29.508  1.00  0.00     0.039 A 
ATOM      8  C   UNL A   1      35.568  34.607  29.072  1.00  0.00     0.014 A 
ATOM      9  C   UNL A   1      34.003  33.605  30.627  1.00  0.00     0.014 A 
ATOM     10  C   UNL A   1      36.599  33.870  29.634  1.00  0.00     0.010 A 
ATOM     11  C   UNL A   1      35.061  32.950  31.264  1.00  0.00     0.010 A 
ATOM     12  C   UNL A   1      36.363  33.050  30.750  1.00  0.00    -0.014 A 
BRANCH  12  13
ATOM     13  C   UNL A   1      37.519  32.387  31.406  1.00  0.00     0.031 A 
ATOM     14  C   UNL A   1      38.277  31.279  30.730  1.00  0.00     0.074 A 
ATOM     15  C   UNL A   1      37.896  32.837  32.620  1.00  0.00     0.049 A 
ATOM     16  N   UNL A   1      39.309  30.606  31.170  1.00  0.00    -0.248 NA
ATOM     17  C   UNL A   1      37.818  30.865  29.395  1.00  0.00     0.031 C 
ATOM     18  C   UNL A   1      37.220  33.907  33.364  1.00  0.00     0.029 A 
ATOM     19  N   UNL A   1      38.936  32.478  33.435  1.00  0.00    -0.354 N 
ATOM     20  C   UNL A   1      39.610  29.673  30.183  1.00  0.00     0.074 A 
ATOM     21  C   UNL A   1      38.641  29.859  29.124  1.00  0.00     0.031 C 
ATOM     22  C   UNL A   1      37.892  34.148  34.497  1.00  0.00     0.029 A 
ATOM     23  C   UNL A   1      38.988  33.198  34.606  1.00  0.00     0.049 A 
ATOM     24  H   UNL A   1      39.583  31.773  33.205  1.00  0.00     0.167 HD
ATOM     25  C   UNL A   1      40.605  28.751  30.171  1.00  0.00     0.034 A 
ATOM     26  C   UNL A   1      39.806  33.084  35.669  1.00  0.00     0.034 A 
ATOM     27  C   UNL A   1      41.572  28.597  31.234  1.00  0.00     0.049 A 
ATOM     28  C   UNL A   1      40.879  32.032  35.635  1.00  0.00     0.074 A 
ATOM     29  C   UNL A   1      42.654  27.737  31.295  1.00  0.00     0.029 A 
ATOM     30  N   UNL A   1      41.566  29.311  32.426  1.00  0.00    -0.354 N 
ATOM     31  N   UNL A   1      41.165  31.179  34.678  1.00  0.00    -0.248 NA
ATOM     32  C   UNL A   1      41.734  31.923  36.821  1.00  0.00     0.031 C 
ATOM     33  C   UNL A   1      43.261  27.882  32.547  1.00  0.00     0.029 A 
ATOM     34  C   UNL A   1      42.602  28.881  33.244  1.00  0.00     0.049 A 
ATOM     35  H   UNL A   1      40.922  30.018  32.656  1.00  0.00     0.167 HD
ATOM     36  C   UNL A   1      42.242  30.437  35.147  1.00  0.00     0.074 A 
ATOM     37  C   UNL A   1      42.573  30.965  36.454  1.00  0.00     0.031 C 
ATOM     38  C   UNL A   1      42.896  29.405  34.556  1.00  0.00     0.034 A 
BRANCH  25  39
ATOM     39  C   UNL A   1      40.675  27.798  29.004  1.00  0.00     0.023 A 
ATOM     40  C   UNL A   1      41.586  27.973  27.948  1.00  0.00     0.031 A 
ATOM     41  C   UNL A   1      39.833  26.670  28.969  1.00  0.00     0.131 A 
ATOM     42  C   UNL A   1      41.609  27.054  26.885  1.00  0.00     0.055 A 
ATOM     43  C   UNL A   1      39.902  25.729  27.940  1.00  0.00     0.041 A 
ATOM     44  F   UNL A   1      38.932  26.462  29.942  1.00  0.00    -0.206 F 
ATOM     45  C   UNL A   1      40.790  25.922  26.886  1.00  0.00     0.022 A 
BRANCH  42  46
ATOM     46  S   UNL A   1      42.670  27.400  25.455  1.00  0.00     0.124 S 
ATOM     47  O   UNL A   1      43.990  27.473  26.076  1.00  0.00    -0.237 OA
ATOM     48  O   UNL A   1      42.430  26.245  24.597  1.00  0.00    -0.237 OA
ATOM     49  O   UNL A   1      42.158  28.671  24.946  1.00  0.00    -0.744 OA
ENDBRANCH  42  46
ENDBRANCH  25  39
BRANCH  26  50
ATOM     50  C   UNL A   1      39.602  33.941  36.871  1.00  0.00     0.023 A 
ATOM     51  C   UNL A   1      39.046  33.421  38.049  1.00  0.00     0.031 A 
ATOM     52  C   UNL A   1      39.928  35.310  36.842  1.00  0.00     0.131 A 
ATOM     53  C   UNL A   1      38.791  34.273  39.134  1.00  0.00     0.055 A 
ATOM     54  C   UNL A   1      39.730  36.140  37.946  1.00  0.00     0.041 A 
ATOM     55  F   UNL A   1      40.465  35.859  35.741  1.00  0.00    -0.206 F 
ATOM     56  C   UNL A   1      39.142  35.625  39.096  1.00  0.00     0.022 A 
BRANCH  53  57
ATOM     57  S   UNL A   1      37.894  33.610  40.563  1.00  0.00     0.124 S 
ATOM     58  O   UNL A   1      37.618  34.820  41.330  1.00  0.00    -0.237 OA
ATOM     59  O   UNL A   1      36.744  32.975  39.928  1.00  0.00    -0.237 OA
ATOM     60  O   UNL A   1      38.855  32.692  41.172  1.00  0.00    -0.744 OA
ENDBRANCH  53  57
ENDBRANCH  26  50
BRANCH  38  61
ATOM     61  C   UNL A   1      44.041  28.808  35.331  1.00  0.00     0.023 A 
ATOM     62  C   UNL A   1      43.854  27.692  36.166  1.00  0.00     0.031 A 
ATOM     63  C   UNL A   1      45.321  29.384  35.267  1.00  0.00     0.131 A 
ATOM     64  C   UNL A   1      44.916  27.227  36.955  1.00  0.00     0.055 A 
ATOM     65  C   UNL A   1      46.389  28.878  36.008  1.00  0.00     0.041 A 
ATOM     66  F   UNL A   1      45.551  30.452  34.487  1.00  0.00    -0.206 F 
ATOM     67  C   UNL A   1      46.186  27.803  36.870  1.00  0.00     0.022 A 
BRANCH  64  68
ATOM     68  S   UNL A   1      44.587  25.919  38.167  1.00  0.00     0.124 S 
ATOM     69  O   UNL A   1      43.804  26.629  39.174  1.00  0.00    -0.237 OA
ATOM     70  O   UNL A   1      43.863  24.932  37.374  1.00  0.00    -0.237 OA
ATOM     71  O   UNL A   1      45.923  25.509  38.598  1.00  0.00    -0.744 OA
ENDBRANCH  64  68
ENDBRANCH  38  61
ENDBRANCH  12  13
ENDBRANCH   5   7
ENDBRANCH   2   3
ENDBRANCH   1   2
BRANCH   1  72
ATOM     72  C   UNL A   1      31.788  30.776  26.198  1.00  0.00     0.023 C 
BRANCH  72  73
ATOM     73  C   UNL A   1      33.049  30.060  26.653  1.00  0.00     0.116 C 
BRANCH  73  74
ATOM     74  N   UNL A   1      33.818  29.405  25.610  1.00  0.00    -0.356 N 
ATOM     75  C   UNL A   1      33.523  28.343  24.805  1.00  0.00     0.226 C 
ATOM     76  H   UNL A   1      34.708  29.795  25.457  1.00  0.00     0.163 HD
ATOM     77  O   UNL A   1      34.305  28.130  23.870  1.00  0.00    -0.275 OA
BRANCH  75  78
ATOM     78  C   UNL A   1      32.371  27.360  25.035  1.00  0.00     0.122 C 
ATOM     79  C   UNL A   1      32.665  25.876  24.846  1.00  0.00     0.122 C 
ATOM     80  C   UNL A   1      31.295  27.622  23.974  1.00  0.00     0.132 C 
ATOM     81  C   UNL A   1      31.721  25.514  23.678  1.00  0.00     0.132 C 
ATOM     82  C   UNL A   1      29.969  26.962  24.361  1.00  0.00     0.035 C 
ATOM     83  O   UNL A   1      31.723  26.742  22.904  1.00  0.00    -0.373 OA
ATOM     84  C   UNL A   1      30.236  25.491  24.034  1.00  0.00     0.035 C 
BRANCH  79  85
ATOM     85  C   UNL A   1      32.418  24.942  26.015  1.00  0.00     0.229 C 
ATOM     86  O   UNL A   1      31.793  25.283  27.015  1.00  0.00    -0.274 OA
ATOM     87  N   UNL A   1      32.728  23.621  25.747  1.00  0.00    -0.339 N 
ATOM     88  C   UNL A   1      31.720  22.577  25.926  1.00  0.00     0.141 C 
ATOM     89  C   UNL A   1      34.013  23.154  25.205  1.00  0.00     0.141 C 
ATOM     90  C   UNL A   1      31.479  21.837  24.585  1.00  0.00     0.138 C 
ATOM     91  C   UNL A   1      33.825  22.393  23.882  1.00  0.00     0.138 C 
ATOM     92  N   UNL A   1      32.761  21.388  24.015  1.00  0.00    -0.368 N 
BRANCH  92  93
ATOM     93  C   UNL A   1      33.003  20.045  23.815  1.00  0.00     0.038 A 
ATOM     94  C   UNL A   1      32.207  19.274  22.955  1.00  0.00     0.026 A 
ATOM     95  C   UNL A   1      34.064  19.404  24.468  1.00  0.00     0.046 A 
ATOM     96  C   UNL A   1      32.468  17.917  22.741  1.00  0.00     0.004 A 
ATOM     97  C   UNL A   1      34.315  18.046  24.271  1.00  0.00     0.043 A 
ATOM     98  C   UNL A   1      33.524  17.299  23.404  1.00  0.00     0.020 A 
ATOM     99  Cl  UNL A   1      35.613  17.285  25.109  1.00  0.00    -0.084 Cl
ENDBRANCH  92  93
ENDBRANCH  79  85
ENDBRANCH  75  78
ENDBRANCH  73  74
ENDBRANCH  72  73
ENDBRANCH   1  72
TORSDOF 16
ENDMDL
MODEL 2
REMARK VINA RESULT:     -13.0      5.801     11.857
REMARK SMILES O=C(NCCCCNC(=O)[C@@H]1[C@@H](C(=O)N2CCN(c3cccc(Cl)c3)CC2)[C@H]2CC[C@@H]1O2)c1ccc(-c2c3nc(c(-c4cc(S(=O)(=O)[O-])ccc4F)c4ccc([nH]4)c(-c4cc(S(=O)(=O)[O-])ccc4F)c4nc(c(-c5cc(S(=O)(=O)[O-])ccc5F)c5ccc2[nH]5)C=C4)C=C3)cc1
REMARK SMILES IDX 5 1 4 2 3 3 1 4 2 5 33 7 34 8 95 9 35 10 94 11 36 12 37 13
REMARK SMILES IDX 38 14 88 15 39 16 93 17 87 18 89 19 40 20 92 21 86 22 85 23
REMARK SMILES IDX 41 25 73 26 53 27 72 28 54 29 57 30 71 31 90 32 55 33 56 34
REMARK SMILES IDX 70 36 91 37 58 38 42 39 43 40 51 41 44 42 50 43 52 44 49 45
REMARK SMILES IDX 45 46 46 47 47 48 48 49 74 50 75 51 83 52 76 53 82 54 84 55
REMARK SMILES IDX 81 56 77 57 78 58 79 59 80 60 59 61 60 62 68 63 61 64 67 65
REMARK SMILES IDX 69 66 66 67 62 68 63 69 64 70 65 71 6 72 7 73 8 74 9 75
REMARK SMILES IDX 10 77 11 78 12 79 31 80 28 81 30 82 32 83 29 84 13 85 14 86
REMARK SMILES IDX 15 87 16 88 27 89 17 90 26 91 18 92 19 93 20 94 25 95 21 96
REMARK SMILES IDX 23 97 22 98 24 99
REMARK H PARENT 3 6 89 24 57 35 8 76
REMARK Flexibility Score: inf
ROOT
ATOM      1  C   UNL A   1      38.261  19.907  25.056  1.00  0.00     0.023 C 
ENDROOT
BRANCH   1   2
ATOM      2  C   UNL A   1      39.397  20.194  26.028  1.00  0.00     0.116 C 
BRANCH   2   3
ATOM      3  N   UNL A   1      40.453  19.187  26.012  1.00  0.00    -0.352 N 
ATOM      4  O   UNL A   1      42.560  18.378  26.002  1.00  0.00    -0.269 OA
ATOM      5  C   UNL A   1      41.815  19.347  26.121  1.00  0.00     0.251 C 
ATOM      6  H   UNL A   1      40.145  18.257  25.909  1.00  0.00     0.163 HD
BRANCH   5   7
ATOM      7  C   UNL A   1      42.368  20.696  26.347  1.00  0.00     0.039 A 
ATOM      8  C   UNL A   1      42.553  21.165  27.649  1.00  0.00     0.014 A 
ATOM      9  C   UNL A   1      42.653  21.516  25.253  1.00  0.00     0.014 A 
ATOM     10  C   UNL A   1      42.837  22.506  27.857  1.00  0.00     0.010 A 
ATOM     11  C   UNL A   1      43.049  22.839  25.467  1.00  0.00     0.010 A 
ATOM     12  C   UNL A   1      43.111  23.354  26.771  1.00  0.00    -0.014 A 
BRANCH  12  13
ATOM     13  C   UNL A   1      43.547  24.747  27.045  1.00  0.00     0.031 A 
ATOM     14  C   UNL A   1      42.604  25.767  27.622  1.00  0.00     0.074 A 
ATOM     15  C   UNL A   1      44.833  25.064  26.795  1.00  0.00     0.049 A 
ATOM     16  N   UNL A   1      42.836  27.019  27.921  1.00  0.00    -0.248 NA
ATOM     17  C   UNL A   1      41.224  25.333  27.890  1.00  0.00     0.031 C 
ATOM     18  C   UNL A   1      45.828  24.145  26.230  1.00  0.00     0.029 A 
ATOM     19  N   UNL A   1      45.535  26.223  26.995  1.00  0.00    -0.354 N 
ATOM     20  C   UNL A   1      41.631  27.533  28.389  1.00  0.00     0.074 A 
ATOM     21  C   UNL A   1      40.665  26.457  28.321  1.00  0.00     0.031 C 
ATOM     22  C   UNL A   1      47.017  24.759  26.176  1.00  0.00     0.029 A 
ATOM     23  C   UNL A   1      46.855  26.137  26.617  1.00  0.00     0.049 A 
ATOM     24  H   UNL A   1      45.133  27.038  27.373  1.00  0.00     0.167 HD
ATOM     25  C   UNL A   1      41.365  28.787  28.831  1.00  0.00     0.034 A 
ATOM     26  C   UNL A   1      47.822  27.072  26.593  1.00  0.00     0.034 A 
ATOM     27  C   UNL A   1      42.353  29.839  28.906  1.00  0.00     0.049 A 
ATOM     28  C   UNL A   1      47.485  28.460  27.063  1.00  0.00     0.074 A 
ATOM     29  C   UNL A   1      42.204  31.126  29.394  1.00  0.00     0.029 A 
ATOM     30  N   UNL A   1      43.668  29.731  28.470  1.00  0.00    -0.354 N 
ATOM     31  N   UNL A   1      46.347  28.916  27.530  1.00  0.00    -0.248 NA
ATOM     32  C   UNL A   1      48.560  29.456  27.000  1.00  0.00     0.031 C 
ATOM     33  C   UNL A   1      43.406  31.815  29.192  1.00  0.00     0.029 A 
ATOM     34  C   UNL A   1      44.328  30.939  28.642  1.00  0.00     0.049 A 
ATOM     35  H   UNL A   1      44.072  28.916  28.095  1.00  0.00     0.167 HD
ATOM     36  C   UNL A   1      46.572  30.256  27.823  1.00  0.00     0.074 A 
ATOM     37  C   UNL A   1      47.962  30.521  27.513  1.00  0.00     0.031 C 
ATOM     38  C   UNL A   1      45.708  31.188  28.299  1.00  0.00     0.034 A 
BRANCH  25  39
ATOM     39  C   UNL A   1      39.945  29.117  29.220  1.00  0.00     0.023 A 
ATOM     40  C   UNL A   1      39.535  29.193  30.562  1.00  0.00     0.031 A 
ATOM     41  C   UNL A   1      38.992  29.396  28.222  1.00  0.00     0.131 A 
ATOM     42  C   UNL A   1      38.200  29.505  30.868  1.00  0.00     0.055 A 
ATOM     43  C   UNL A   1      37.683  29.763  28.534  1.00  0.00     0.041 A 
ATOM     44  F   UNL A   1      39.325  29.322  26.923  1.00  0.00    -0.206 F 
ATOM     45  C   UNL A   1      37.278  29.813  29.865  1.00  0.00     0.022 A 
BRANCH  42  46
ATOM     46  S   UNL A   1      37.659  29.423  32.598  1.00  0.00     0.124 S 
ATOM     47  O   UNL A   1      37.768  27.993  32.875  1.00  0.00    -0.237 OA
ATOM     48  O   UNL A   1      38.627  30.280  33.273  1.00  0.00    -0.237 OA
ATOM     49  O   UNL A   1      36.292  29.940  32.556  1.00  0.00    -0.744 OA
ENDBRANCH  42  46
ENDBRANCH  25  39
BRANCH  26  50
ATOM     50  C   UNL A   1      49.171  26.745  26.052  1.00  0.00     0.023 A 
ATOM     51  C   UNL A   1      49.574  27.191  24.785  1.00  0.00     0.031 A 
ATOM     52  C   UNL A   1      50.067  25.944  26.785  1.00  0.00     0.131 A 
ATOM     53  C   UNL A   1      50.818  26.798  24.270  1.00  0.00     0.055 A 
ATOM     54  C   UNL A   1      51.328  25.607  26.295  1.00  0.00     0.041 A 
ATOM     55  F   UNL A   1      49.733  25.493  28.005  1.00  0.00    -0.206 F 
ATOM     56  C   UNL A   1      51.704  26.021  25.022  1.00  0.00     0.022 A 
BRANCH  53  57
ATOM     57  S   UNL A   1      51.222  27.229  22.556  1.00  0.00     0.124 S 
ATOM     58  O   UNL A   1      51.443  28.668  22.653  1.00  0.00    -0.237 OA
ATOM     59  O   UNL A   1      52.407  26.412  22.312  1.00  0.00    -0.237 OA
ATOM     60  O   UNL A   1      50.027  26.830  21.815  1.00  0.00    -0.744 OA
ENDBRANCH  53  57
ENDBRANCH  26  50
BRANCH  38  61
ATOM     61  C   UNL A   1      46.269  32.569  28.520  1.00  0.00     0.023 A 
ATOM     62  C   UNL A   1      46.279  33.526  27.490  1.00  0.00     0.031 A 
ATOM     63  C   UNL A   1      46.836  32.916  29.757  1.00  0.00     0.131 A 
ATOM     64  C   UNL A   1      46.903  34.763  27.697  1.00  0.00     0.055 A 
ATOM     65  C   UNL A   1      47.403  34.172  29.975  1.00  0.00     0.041 A 
ATOM     66  F   UNL A   1      46.855  32.037  30.772  1.00  0.00    -0.206 F 
ATOM     67  C   UNL A   1      47.452  35.099  28.937  1.00  0.00     0.022 A 
BRANCH  64  68
ATOM     68  S   UNL A   1      47.076  35.893  26.289  1.00  0.00     0.124 S 
ATOM     69  O   UNL A   1      46.138  35.323  25.326  1.00  0.00    -0.237 OA
ATOM     70  O   UNL A   1      46.694  37.176  26.868  1.00  0.00    -0.237 OA
ATOM     71  O   UNL A   1      48.486  35.774  25.924  1.00  0.00    -0.744 OA
ENDBRANCH  64  68
ENDBRANCH  38  61
ENDBRANCH  12  13
ENDBRANCH   5   7
ENDBRANCH   2   3
ENDBRANCH   1   2
BRANCH   1  72
ATOM     72  C   UNL A   1      37.449  21.117  24.624  1.00  0.00     0.023 C 
BRANCH  72  73
ATOM     73  C   UNL A   1      37.044  22.074  25.734  1.00  0.00     0.116 C 
BRANCH  73  74
ATOM     74  N   UNL A   1      35.870  21.695  26.500  1.00  0.00    -0.356 N 
ATOM     75  C   UNL A   1      34.573  21.499  26.125  1.00  0.00     0.226 C 
ATOM     76  H   UNL A   1      36.040  21.556  27.459  1.00  0.00     0.163 HD
ATOM     77  O   UNL A   1      33.828  20.990  26.971  1.00  0.00    -0.275 OA
BRANCH  75  78
ATOM     78  C   UNL A   1      33.968  21.950  24.792  1.00  0.00     0.122 C 
ATOM     79  C   UNL A   1      33.424  23.372  24.710  1.00  0.00     0.122 C 
ATOM     80  C   UNL A   1      32.719  21.102  24.519  1.00  0.00     0.132 C 
ATOM     81  C   UNL A   1      31.927  23.121  24.425  1.00  0.00     0.132 C 
ATOM     82  C   UNL A   1      32.285  21.216  23.055  1.00  0.00     0.035 C 
ATOM     83  O   UNL A   1      31.687  21.893  25.160  1.00  0.00    -0.373 OA
ATOM     84  C   UNL A   1      31.618  22.593  23.026  1.00  0.00     0.035 C 
BRANCH  79  85
ATOM     85  C   UNL A   1      34.000  24.300  23.659  1.00  0.00     0.229 C 
ATOM     86  O   UNL A   1      34.747  23.909  22.767  1.00  0.00    -0.274 OA
ATOM     87  N   UNL A   1      33.412  25.552  23.640  1.00  0.00    -0.339 N 
ATOM     88  C   UNL A   1      32.818  26.068  22.407  1.00  0.00     0.141 C 
ATOM     89  C   UNL A   1      33.257  26.424  24.813  1.00  0.00     0.141 C 
ATOM     90  C   UNL A   1      31.315  26.374  22.631  1.00  0.00     0.138 C 
ATOM     91  C   UNL A   1      31.782  26.775  25.066  1.00  0.00     0.138 C 
ATOM     92  N   UNL A   1      31.141  27.224  23.821  1.00  0.00    -0.368 N 
BRANCH  92  93
ATOM     93  C   UNL A   1      30.579  28.478  23.707  1.00  0.00     0.038 A 
ATOM     94  C   UNL A   1      30.865  29.499  24.626  1.00  0.00     0.026 A 
ATOM     95  C   UNL A   1      29.698  28.775  22.659  1.00  0.00     0.046 A 
ATOM     96  C   UNL A   1      30.307  30.774  24.496  1.00  0.00     0.004 A 
ATOM     97  C   UNL A   1      29.125  30.042  22.538  1.00  0.00     0.043 A 
ATOM     98  C   UNL A   1      29.431  31.047  23.450  1.00  0.00     0.020 A 
ATOM     99  Cl  UNL A   1      28.028  30.364  21.250  1.00  0.00    -0.084 Cl
ENDBRANCH  92  93
ENDBRANCH  79  85
ENDBRANCH  75  78
ENDBRANCH  73  74
ENDBRANCH  72  73
ENDBRANCH   1  72
TORSDOF 16
ENDMDL
MODEL 3
REMARK VINA RESULT:     -12.8      2.514      8.057
REMARK SMILES O=C(NCCCCNC(=O)[C@@H]1[C@@H](C(=O)N2CCN(c3cccc(Cl)c3)CC2)[C@H]2CC[C@@H]1O2)c1ccc(-c2c3nc(c(-c4cc(S(=O)(=O)[O-])ccc4F)c4ccc([nH]4)c(-c4cc(S(=O)(=O)[O-])ccc4F)c4nc(c(-c5cc(S(=O)(=O)[O-])ccc5F)c5ccc2[nH]5)C=C4)C=C3)cc1
REMARK SMILES IDX 5 1 4 2 3 3 1 4 2 5 33 7 34 8 95 9 35 10 94 11 36 12 37 13
REMARK SMILES IDX 38 14 88 15 39 16 93 17 87 18 89 19 40 20 92 21 86 22 85 23
REMARK SMILES IDX 41 25 73 26 53 27 72 28 54 29 57 30 71 31 90 32 55 33 56 34
REMARK SMILES IDX 70 36 91 37 58 38 42 39 43 40 51 41 44 42 50 43 52 44 49 45
REMARK SMILES IDX 45 46 46 47 47 48 48 49 74 50 75 51 83 52 76 53 82 54 84 55
REMARK SMILES IDX 81 56 77 57 78 58 79 59 80 60 59 61 60 62 68 63 61 64 67 65
REMARK SMILES IDX 69 66 66 67 62 68 63 69 64 70 65 71 6 72 7 73 8 74 9 75
REMARK SMILES IDX 10 77 11 78 12 79 31 80 28 81 30 82 32 83 29 84 13 85 14 86
REMARK SMILES IDX 15 87 16 88 27 89 17 90 26 91 18 92 19 93 20 94 25 95 21 96
REMARK SMILES IDX 23 97 22 98 24 99
REMARK H PARENT 3 6 89 24 57 35 8 76
REMARK Flexibility Score: inf
ROOT
ATOM      1  C   UNL A   1      33.526  27.778  26.358  1.00  0.00     0.023 C 
ENDROOT
BRANCH   1   2
ATOM      2  C   UNL A   1      34.098  29.030  25.708  1.00  0.00     0.116 C 
BRANCH   2   3
ATOM      3  N   UNL A   1      33.504  30.270  26.197  1.00  0.00    -0.352 N 
ATOM      4  O   UNL A   1      33.234  32.057  27.548  1.00  0.00    -0.269 OA
ATOM      5  C   UNL A   1      33.916  31.089  27.223  1.00  0.00     0.251 C 
ATOM      6  H   UNL A   1      32.692  30.562  25.725  1.00  0.00     0.163 HD
BRANCH   5   7
ATOM      7  C   UNL A   1      35.161  30.771  27.947  1.00  0.00     0.039 A 
ATOM      8  C   UNL A   1      35.253  29.596  28.695  1.00  0.00     0.014 A 
ATOM      9  C   UNL A   1      36.224  31.678  27.922  1.00  0.00     0.014 A 
ATOM     10  C   UNL A   1      36.321  29.420  29.561  1.00  0.00     0.010 A 
ATOM     11  C   UNL A   1      37.351  31.441  28.713  1.00  0.00     0.010 A 
ATOM     12  C   UNL A   1      37.393  30.328  29.566  1.00  0.00    -0.014 A 
BRANCH  12  13
ATOM     13  C   UNL A   1      38.579  30.028  30.408  1.00  0.00     0.031 A 
ATOM     14  C   UNL A   1      38.728  30.602  31.789  1.00  0.00     0.074 A 
ATOM     15  C   UNL A   1      39.508  29.188  29.908  1.00  0.00     0.049 A 
ATOM     16  N   UNL A   1      39.701  30.430  32.647  1.00  0.00    -0.248 NA
ATOM     17  C   UNL A   1      37.656  31.489  32.269  1.00  0.00     0.031 C 
ATOM     18  C   UNL A   1      39.458  28.580  28.573  1.00  0.00     0.029 A 
ATOM     19  N   UNL A   1      40.658  28.683  30.455  1.00  0.00    -0.354 N 
ATOM     20  C   UNL A   1      39.377  31.203  33.757  1.00  0.00     0.074 A 
ATOM     21  C   UNL A   1      38.120  31.856  33.458  1.00  0.00     0.031 C 
ATOM     22  C   UNL A   1      40.498  27.750  28.427  1.00  0.00     0.029 A 
ATOM     23  C   UNL A   1      41.335  27.830  29.614  1.00  0.00     0.049 A 
ATOM     24  H   UNL A   1      40.968  28.908  31.361  1.00  0.00     0.167 HD
ATOM     25  C   UNL A   1      40.070  31.347  34.914  1.00  0.00     0.034 A 
ATOM     26  C   UNL A   1      42.519  27.208  29.766  1.00  0.00     0.034 A 
ATOM     27  C   UNL A   1      41.314  30.669  35.196  1.00  0.00     0.049 A 
ATOM     28  C   UNL A   1      43.274  27.413  31.049  1.00  0.00     0.074 A 
ATOM     29  C   UNL A   1      42.066  30.697  36.358  1.00  0.00     0.029 A 
ATOM     30  N   UNL A   1      41.996  29.850  34.304  1.00  0.00    -0.354 N 
ATOM     31  N   UNL A   1      42.935  28.124  32.098  1.00  0.00    -0.248 NA
ATOM     32  C   UNL A   1      44.571  26.737  31.166  1.00  0.00     0.031 C 
ATOM     33  C   UNL A   1      43.232  29.953  36.145  1.00  0.00     0.029 A 
ATOM     34  C   UNL A   1      43.178  29.402  34.876  1.00  0.00     0.049 A 
ATOM     35  H   UNL A   1      41.685  29.621  33.398  1.00  0.00     0.167 HD
ATOM     36  C   UNL A   1      43.976  27.974  33.007  1.00  0.00     0.074 A 
ATOM     37  C   UNL A   1      44.936  27.078  32.393  1.00  0.00     0.031 C 
ATOM     38  C   UNL A   1      44.133  28.531  34.234  1.00  0.00     0.034 A 
BRANCH  25  39
ATOM     39  C   UNL A   1      39.536  32.310  35.946  1.00  0.00     0.023 A 
ATOM     40  C   UNL A   1      39.961  33.648  36.013  1.00  0.00     0.031 A 
ATOM     41  C   UNL A   1      38.552  31.883  36.859  1.00  0.00     0.131 A 
ATOM     42  C   UNL A   1      39.430  34.501  36.995  1.00  0.00     0.055 A 
ATOM     43  C   UNL A   1      37.986  32.752  37.793  1.00  0.00     0.041 A 
ATOM     44  F   UNL A   1      38.122  30.611  36.851  1.00  0.00    -0.206 F 
ATOM     45  C   UNL A   1      38.429  34.069  37.869  1.00  0.00     0.022 A 
BRANCH  42  46
ATOM     46  S   UNL A   1      40.123  36.168  37.170  1.00  0.00     0.124 S 
ATOM     47  O   UNL A   1      39.260  36.741  38.200  1.00  0.00    -0.237 OA
ATOM     48  O   UNL A   1      41.500  35.898  37.569  1.00  0.00    -0.237 OA
ATOM     49  O   UNL A   1      39.963  36.750  35.839  1.00  0.00    -0.744 OA
ENDBRANCH  42  46
ENDBRANCH  25  39
BRANCH  26  50
ATOM     50  C   UNL A   1      43.086  26.390  28.656  1.00  0.00     0.023 A 
ATOM     51  C   UNL A   1      44.047  26.918  27.782  1.00  0.00     0.031 A 
ATOM     52  C   UNL A   1      42.643  25.073  28.433  1.00  0.00     0.131 A 
ATOM     53  C   UNL A   1      44.501  26.151  26.699  1.00  0.00     0.055 A 
ATOM     54  C   UNL A   1      43.143  24.292  27.391  1.00  0.00     0.041 A 
ATOM     55  F   UNL A   1      41.727  24.517  29.242  1.00  0.00    -0.206 F 
ATOM     56  C   UNL A   1      44.066  24.837  26.506  1.00  0.00     0.022 A 
BRANCH  53  57
ATOM     57  S   UNL A   1      45.591  26.933  25.479  1.00  0.00     0.124 S 
ATOM     58  O   UNL A   1      46.639  27.488  26.328  1.00  0.00    -0.237 OA
ATOM     59  O   UNL A   1      45.973  25.797  24.646  1.00  0.00    -0.237 OA
ATOM     60  O   UNL A   1      44.726  27.916  24.832  1.00  0.00    -0.744 OA
ENDBRANCH  53  57
ENDBRANCH  26  50
BRANCH  38  61
ATOM     61  C   UNL A   1      45.387  28.159  34.982  1.00  0.00     0.023 A 
ATOM     62  C   UNL A   1      45.408  27.075  35.878  1.00  0.00     0.031 A 
ATOM     63  C   UNL A   1      46.557  28.919  34.830  1.00  0.00     0.131 A 
ATOM     64  C   UNL A   1      46.558  26.822  36.636  1.00  0.00     0.055 A 
ATOM     65  C   UNL A   1      47.719  28.625  35.544  1.00  0.00     0.041 A 
ATOM     66  F   UNL A   1      46.589  29.967  33.990  1.00  0.00    -0.206 F 
ATOM     67  C   UNL A   1      47.719  27.580  36.464  1.00  0.00     0.022 A 
BRANCH  64  68
ATOM     68  S   UNL A   1      46.485  25.547  37.924  1.00  0.00     0.124 S 
ATOM     69  O   UNL A   1      47.696  25.821  38.692  1.00  0.00    -0.237 OA
ATOM     70  O   UNL A   1      45.224  25.848  38.592  1.00  0.00    -0.237 OA
ATOM     71  O   UNL A   1      46.502  24.295  37.168  1.00  0.00    -0.744 OA
ENDBRANCH  64  68
ENDBRANCH  38  61
ENDBRANCH  12  13
ENDBRANCH   5   7
ENDBRANCH   2   3
ENDBRANCH   1   2
BRANCH   1  72
ATOM     72  C   UNL A   1      32.035  27.817  26.651  1.00  0.00     0.023 C 
BRANCH  72  73
ATOM     73  C   UNL A   1      31.269  26.537  26.361  1.00  0.00     0.116 C 
BRANCH  73  74
ATOM     74  N   UNL A   1      30.087  26.680  25.528  1.00  0.00    -0.356 N 
ATOM     75  C   UNL A   1      29.774  26.151  24.310  1.00  0.00     0.226 C 
ATOM     76  H   UNL A   1      29.391  27.261  25.910  1.00  0.00     0.163 HD
ATOM     77  O   UNL A   1      28.605  26.299  23.933  1.00  0.00    -0.275 OA
BRANCH  75  78
ATOM     78  C   UNL A   1      30.773  25.491  23.356  1.00  0.00     0.122 C 
ATOM     79  C   UNL A   1      32.088  24.993  23.947  1.00  0.00     0.122 C 
ATOM     80  C   UNL A   1      31.242  26.545  22.345  1.00  0.00     0.132 C 
ATOM     81  C   UNL A   1      33.120  25.864  23.196  1.00  0.00     0.132 C 
ATOM     82  C   UNL A   1      31.928  25.888  21.144  1.00  0.00     0.035 C 
ATOM     83  O   UNL A   1      32.392  27.108  23.027  1.00  0.00    -0.373 OA
ATOM     84  C   UNL A   1      33.298  25.520  21.719  1.00  0.00     0.035 C 
BRANCH  79  85
ATOM     85  C   UNL A   1      32.437  23.527  23.786  1.00  0.00     0.229 C 
ATOM     86  O   UNL A   1      31.853  22.790  22.997  1.00  0.00    -0.274 OA
ATOM     87  N   UNL A   1      33.620  23.165  24.404  1.00  0.00    -0.339 N 
ATOM     88  C   UNL A   1      34.687  22.527  23.635  1.00  0.00     0.141 C 
ATOM     89  C   UNL A   1      33.950  23.440  25.810  1.00  0.00     0.141 C 
ATOM     90  C   UNL A   1      35.978  23.383  23.708  1.00  0.00     0.138 C 
ATOM     91  C   UNL A   1      35.237  24.270  25.937  1.00  0.00     0.138 C 
ATOM     92  N   UNL A   1      36.305  23.690  25.110  1.00  0.00    -0.368 N 
BRANCH  92  93
ATOM     93  C   UNL A   1      37.494  23.258  25.661  1.00  0.00     0.038 A 
ATOM     94  C   UNL A   1      38.304  24.111  26.425  1.00  0.00     0.026 A 
ATOM     95  C   UNL A   1      37.931  21.940  25.475  1.00  0.00     0.046 A 
ATOM     96  C   UNL A   1      39.499  23.663  26.996  1.00  0.00     0.004 A 
ATOM     97  C   UNL A   1      39.133  21.496  26.028  1.00  0.00     0.043 A 
ATOM     98  C   UNL A   1      39.918  22.352  26.795  1.00  0.00     0.020 A 
ATOM     99  Cl  UNL A   1      39.652  19.876  25.758  1.00  0.00    -0.084 Cl
ENDBRANCH  92  93
ENDBRANCH  79  85
ENDBRANCH  75  78
ENDBRANCH  73  74
ENDBRANCH  72  73
ENDBRANCH   1  72
TORSDOF 16
ENDMDL
