MODEL 1
REMARK VINA RESULT:     -10.6      0.000      0.000
REMARK SMILES Cc1ccc(NC(=O)c2cccn2CC(=O)NCCCCNC(=O)c2ccc(-c3c4nc(c(-c5cc(S(=O)(=O)[O-])ccc5F)c5ccc([nH]5)c(-c5cc(S(=O)(=O)[O-])ccc5F)c5nc(c(-c6cc(S(=O)(=O)[O-])ccc6F)c6ccc3[nH]6)C=C5)C=C4)cc2)cc1
REMARK SMILES IDX 19 1 18 2 17 3 15 4 16 5 14 7 13 8 9 9 10 10 11 11 12 12
REMARK SMILES IDX 7 13 6 14 8 16 5 17 1 18 2 19 3 20 89 21 4 22 88 23 20 24
REMARK SMILES IDX 21 25 22 26 23 27 24 29 25 30 26 31 87 32 27 33 86 34 28 35
REMARK SMILES IDX 29 36 30 37 80 38 31 39 85 40 79 41 81 42 32 43 84 44 78 45
REMARK SMILES IDX 77 46 33 48 65 49 45 50 64 51 46 52 49 53 63 54 82 55 47 56
REMARK SMILES IDX 48 57 62 59 83 60 50 61 34 62 35 63 43 64 36 65 42 66 44 67
REMARK SMILES IDX 41 68 37 69 38 70 39 71 40 72 66 73 67 74 75 75 68 76 74 77
REMARK SMILES IDX 76 78 73 79 69 80 70 81 71 82 72 83 51 84 52 85 60 86 53 87
REMARK SMILES IDX 59 88 61 89 58 90 54 91 55 92 56 93 57 94
REMARK H PARENT 17 6 6 15 22 28 81 47 49 58
REMARK Flexibility Score: inf
ROOT
ATOM      1  C   UNL A   1      45.696  26.043  25.077  1.00  0.00     0.023 C 
ENDROOT
BRANCH   1   2
ATOM      2  C   UNL A   1      44.791  24.803  25.022  1.00  0.00     0.116 C 
BRANCH   2   3
ATOM      3  N   UNL A   1      45.536  23.559  25.180  1.00  0.00    -0.355 N 
ATOM      4  C   UNL A   1      45.154  22.365  25.728  1.00  0.00     0.239 C 
ATOM      5  O   UNL A   1      45.972  21.440  25.724  1.00  0.00    -0.273 OA
ATOM      6  H   UNL A   1      46.460  23.583  24.840  1.00  0.00     0.163 HD
BRANCH   4   7
ATOM      7  C   UNL A   1      43.770  22.175  26.318  1.00  0.00     0.222 C 
BRANCH   7   8
ATOM      8  N   UNL A   1      43.655  22.660  27.693  1.00  0.00    -0.334 N 
ATOM      9  C   UNL A   1      42.494  22.703  28.441  1.00  0.00     0.107 A 
ATOM     10  C   UNL A   1      42.860  23.088  29.728  1.00  0.00     0.033 A 
ATOM     11  C   UNL A   1      44.243  23.372  29.724  1.00  0.00     0.020 A 
ATOM     12  C   UNL A   1      44.711  23.094  28.461  1.00  0.00     0.087 A 
BRANCH   9  13
ATOM     13  C   UNL A   1      41.188  22.366  27.960  1.00  0.00     0.272 C 
ATOM     14  N   UNL A   1      40.262  23.322  27.651  1.00  0.00    -0.321 N 
ATOM     15  H   UNL A   1      39.372  22.952  27.449  1.00  0.00     0.170 HD
ATOM     16  O   UNL A   1      40.856  21.168  27.788  1.00  0.00    -0.267 OA
BRANCH  14  17
ATOM     17  C   UNL A   1      40.314  24.731  27.560  1.00  0.00     0.041 A 
ATOM     18  C   UNL A   1      40.520  29.015  26.968  1.00  0.00     0.044 C 
ATOM     19  C   UNL A   1      40.478  27.530  27.166  1.00  0.00    -0.051 A 
ATOM     20  C   UNL A   1      39.981  27.004  28.357  1.00  0.00     0.005 A 
ATOM     21  C   UNL A   1      40.922  26.647  26.179  1.00  0.00     0.005 A 
ATOM     22  C   UNL A   1      39.922  25.622  28.556  1.00  0.00     0.026 A 
ATOM     23  C   UNL A   1      40.840  25.264  26.376  1.00  0.00     0.026 A 
ENDBRANCH  14  17
ENDBRANCH   9  13
ENDBRANCH   7   8
ENDBRANCH   4   7
ENDBRANCH   2   3
ENDBRANCH   1   2
BRANCH   1  24
ATOM     24  C   UNL A   1      44.975  27.409  25.058  1.00  0.00     0.023 C 
BRANCH  24  25
ATOM     25  C   UNL A   1      44.213  27.819  26.352  1.00  0.00     0.116 C 
BRANCH  25  26
ATOM     26  N   UNL A   1      45.114  27.954  27.498  1.00  0.00    -0.352 N 
ATOM     27  C   UNL A   1      45.008  28.479  28.775  1.00  0.00     0.251 C 
ATOM     28  H   UNL A   1      46.009  27.584  27.317  1.00  0.00     0.163 HD
ATOM     29  O   UNL A   1      46.088  28.726  29.327  1.00  0.00    -0.269 OA
BRANCH  27  30
ATOM     30  C   UNL A   1      43.749  28.747  29.559  1.00  0.00     0.039 A 
ATOM     31  C   UNL A   1      43.237  30.073  29.621  1.00  0.00     0.014 A 
ATOM     32  C   UNL A   1      43.112  27.813  30.350  1.00  0.00     0.014 A 
ATOM     33  C   UNL A   1      42.097  30.451  30.403  1.00  0.00     0.010 A 
ATOM     34  C   UNL A   1      42.010  28.202  31.155  1.00  0.00     0.010 A 
ATOM     35  C   UNL A   1      41.437  29.510  31.186  1.00  0.00    -0.014 A 
BRANCH  35  36
ATOM     36  C   UNL A   1      40.041  29.641  31.785  1.00  0.00     0.031 A 
ATOM     37  C   UNL A   1      40.111  30.007  33.197  1.00  0.00     0.074 A 
ATOM     38  C   UNL A   1      38.780  29.937  31.333  1.00  0.00     0.049 A 
ATOM     39  N   UNL A   1      40.257  31.248  33.480  1.00  0.00    -0.248 NA
ATOM     40  C   UNL A   1      40.068  29.114  34.331  1.00  0.00     0.031 C 
ATOM     41  C   UNL A   1      38.260  29.836  29.984  1.00  0.00     0.029 A 
ATOM     42  N   UNL A   1      37.714  30.589  32.049  1.00  0.00    -0.354 N 
ATOM     43  C   UNL A   1      40.302  31.376  34.827  1.00  0.00     0.074 A 
ATOM     44  C   UNL A   1      40.125  30.017  35.326  1.00  0.00     0.031 C 
ATOM     45  C   UNL A   1      37.051  30.437  29.927  1.00  0.00     0.029 A 
ATOM     46  C   UNL A   1      36.690  31.110  31.214  1.00  0.00     0.049 A 
ATOM     47  H   UNL A   1      37.697  30.667  33.031  1.00  0.00     0.167 HD
ATOM     48  C   UNL A   1      40.437  32.632  35.326  1.00  0.00     0.034 A 
ATOM     49  C   UNL A   1      36.256  32.424  31.160  1.00  0.00     0.034 A 
ATOM     50  C   UNL A   1      40.777  33.681  34.328  1.00  0.00     0.049 A 
ATOM     51  C   UNL A   1      37.417  33.120  30.532  1.00  0.00     0.074 A 
ATOM     52  C   UNL A   1      41.607  34.787  34.297  1.00  0.00     0.029 A 
ATOM     53  N   UNL A   1      40.230  33.647  33.048  1.00  0.00    -0.354 N 
ATOM     54  N   UNL A   1      38.495  33.401  31.191  1.00  0.00    -0.248 NA
ATOM     55  C   UNL A   1      37.461  33.392  29.107  1.00  0.00     0.031 C 
ATOM     56  C   UNL A   1      41.699  35.248  32.935  1.00  0.00     0.029 A 
ATOM     57  C   UNL A   1      40.895  34.452  32.135  1.00  0.00     0.049 A 
ATOM     58  H   UNL A   1      39.445  33.102  32.813  1.00  0.00     0.167 HD
ATOM     59  C   UNL A   1      39.399  33.889  30.290  1.00  0.00     0.074 A 
ATOM     60  C   UNL A   1      38.746  33.742  28.991  1.00  0.00     0.031 C 
ATOM     61  C   UNL A   1      40.627  34.329  30.688  1.00  0.00     0.034 A 
BRANCH  48  62
ATOM     62  C   UNL A   1      40.135  32.913  36.763  1.00  0.00     0.023 A 
ATOM     63  C   UNL A   1      41.119  32.580  37.706  1.00  0.00     0.031 A 
ATOM     64  C   UNL A   1      38.991  33.573  37.251  1.00  0.00     0.131 A 
ATOM     65  C   UNL A   1      40.980  32.955  39.050  1.00  0.00     0.055 A 
ATOM     66  C   UNL A   1      38.895  34.026  38.571  1.00  0.00     0.041 A 
ATOM     67  F   UNL A   1      37.917  33.782  36.473  1.00  0.00    -0.206 F 
ATOM     68  C   UNL A   1      39.900  33.725  39.478  1.00  0.00     0.022 A 
BRANCH  65  69
ATOM     69  S   UNL A   1      42.207  32.368  40.243  1.00  0.00     0.124 S 
ATOM     70  O   UNL A   1      42.767  33.624  40.734  1.00  0.00    -0.237 OA
ATOM     71  O   UNL A   1      41.395  31.610  41.185  1.00  0.00    -0.237 OA
ATOM     72  O   UNL A   1      43.118  31.573  39.421  1.00  0.00    -0.744 OA
ENDBRANCH  65  69
ENDBRANCH  48  62
BRANCH  49  73
ATOM     73  C   UNL A   1      35.425  33.373  32.038  1.00  0.00     0.023 A 
ATOM     74  C   UNL A   1      34.545  34.319  31.463  1.00  0.00     0.031 A 
ATOM     75  C   UNL A   1      35.736  33.613  33.409  1.00  0.00     0.131 A 
ATOM     76  C   UNL A   1      34.089  35.447  32.212  1.00  0.00     0.055 A 
ATOM     77  C   UNL A   1      35.297  34.730  34.133  1.00  0.00     0.041 A 
ATOM     78  F   UNL A   1      36.525  32.797  34.113  1.00  0.00    -0.206 F 
ATOM     79  C   UNL A   1      34.479  35.663  33.534  1.00  0.00     0.022 A 
BRANCH  76  80
ATOM     80  S   UNL A   1      33.014  36.702  31.439  1.00  0.00     0.124 S 
ATOM     81  O   UNL A   1      31.681  36.201  31.762  1.00  0.00    -0.237 OA
ATOM     82  O   UNL A   1      33.412  37.928  32.126  1.00  0.00    -0.237 OA
ATOM     83  O   UNL A   1      33.362  36.649  30.020  1.00  0.00    -0.744 OA
ENDBRANCH  76  80
ENDBRANCH  49  73
BRANCH  61  84
ATOM     84  C   UNL A   1      41.692  34.472  29.629  1.00  0.00     0.023 A 
ATOM     85  C   UNL A   1      42.833  33.652  29.564  1.00  0.00     0.031 A 
ATOM     86  C   UNL A   1      41.675  35.590  28.775  1.00  0.00     0.131 A 
ATOM     87  C   UNL A   1      43.973  34.068  28.857  1.00  0.00     0.055 A 
ATOM     88  C   UNL A   1      42.774  35.946  27.986  1.00  0.00     0.041 A 
ATOM     89  F   UNL A   1      40.608  36.399  28.714  1.00  0.00    -0.206 F 
ATOM     90  C   UNL A   1      43.947  35.206  28.055  1.00  0.00     0.022 A 
BRANCH  87  91
ATOM     91  S   UNL A   1      45.540  33.188  29.117  1.00  0.00     0.124 S 
ATOM     92  O   UNL A   1      46.517  34.247  28.883  1.00  0.00    -0.237 OA
ATOM     93  O   UNL A   1      45.424  32.724  30.497  1.00  0.00    -0.237 OA
ATOM     94  O   UNL A   1      45.508  32.134  28.105  1.00  0.00    -0.744 OA
ENDBRANCH  87  91
ENDBRANCH  61  84
ENDBRANCH  35  36
ENDBRANCH  27  30
ENDBRANCH  25  26
ENDBRANCH  24  25
ENDBRANCH   1  24
TORSDOF 17
ENDMDL
MODEL 2
REMARK VINA RESULT:     -10.0      3.803     12.087
REMARK SMILES Cc1ccc(NC(=O)c2cccn2CC(=O)NCCCCNC(=O)c2ccc(-c3c4nc(c(-c5cc(S(=O)(=O)[O-])ccc5F)c5ccc([nH]5)c(-c5cc(S(=O)(=O)[O-])ccc5F)c5nc(c(-c6cc(S(=O)(=O)[O-])ccc6F)c6ccc3[nH]6)C=C5)C=C4)cc2)cc1
REMARK SMILES IDX 19 1 18 2 17 3 15 4 16 5 14 7 13 8 9 9 10 10 11 11 12 12
REMARK SMILES IDX 7 13 6 14 8 16 5 17 1 18 2 19 3 20 89 21 4 22 88 23 20 24
REMARK SMILES IDX 21 25 22 26 23 27 24 29 25 30 26 31 87 32 27 33 86 34 28 35
REMARK SMILES IDX 29 36 30 37 80 38 31 39 85 40 79 41 81 42 32 43 84 44 78 45
REMARK SMILES IDX 77 46 33 48 65 49 45 50 64 51 46 52 49 53 63 54 82 55 47 56
REMARK SMILES IDX 48 57 62 59 83 60 50 61 34 62 35 63 43 64 36 65 42 66 44 67
REMARK SMILES IDX 41 68 37 69 38 70 39 71 40 72 66 73 67 74 75 75 68 76 74 77
REMARK SMILES IDX 76 78 73 79 69 80 70 81 71 82 72 83 51 84 52 85 60 86 53 87
REMARK SMILES IDX 59 88 61 89 58 90 54 91 55 92 56 93 57 94
REMARK H PARENT 17 6 6 15 22 28 81 47 49 58
REMARK Flexibility Score: inf
ROOT
ATOM      1  C   UNL A   1      40.642  33.539  34.319  1.00  0.00     0.023 C 
ENDROOT
BRANCH   1   2
ATOM      2  C   UNL A   1      39.217  33.775  33.795  1.00  0.00     0.116 C 
BRANCH   2   3
ATOM      3  N   UNL A   1      39.196  34.578  32.577  1.00  0.00    -0.355 N 
ATOM      4  C   UNL A   1      38.847  34.234  31.299  1.00  0.00     0.239 C 
ATOM      5  O   UNL A   1      38.892  35.113  30.432  1.00  0.00    -0.273 OA
ATOM      6  H   UNL A   1      39.476  35.515  32.693  1.00  0.00     0.163 HD
BRANCH   4   7
ATOM      7  C   UNL A   1      38.416  32.822  30.952  1.00  0.00     0.222 C 
BRANCH   7   8
ATOM      8  N   UNL A   1      36.981  32.699  30.703  1.00  0.00    -0.334 N 
ATOM      9  C   UNL A   1      36.029  32.311  31.627  1.00  0.00     0.107 A 
ATOM     10  C   UNL A   1      34.788  32.473  31.019  1.00  0.00     0.033 A 
ATOM     11  C   UNL A   1      35.004  32.870  29.681  1.00  0.00     0.020 A 
ATOM     12  C   UNL A   1      36.363  33.009  29.513  1.00  0.00     0.087 A 
BRANCH   9  13
ATOM     13  C   UNL A   1      36.305  31.873  32.963  1.00  0.00     0.272 C 
ATOM     14  N   UNL A   1      36.932  30.686  33.220  1.00  0.00    -0.321 N 
ATOM     15  H   UNL A   1      36.950  30.455  34.177  1.00  0.00     0.170 HD
ATOM     16  O   UNL A   1      35.992  32.583  33.949  1.00  0.00    -0.267 OA
BRANCH  14  17
ATOM     17  C   UNL A   1      37.560  29.722  32.401  1.00  0.00     0.041 A 
ATOM     18  C   UNL A   1      39.316  26.882  29.646  1.00  0.00     0.044 C 
ATOM     19  C   UNL A   1      38.682  27.851  30.596  1.00  0.00    -0.051 A 
ATOM     20  C   UNL A   1      39.249  28.061  31.852  1.00  0.00     0.005 A 
ATOM     21  C   UNL A   1      37.530  28.563  30.256  1.00  0.00     0.005 A 
ATOM     22  C   UNL A   1      38.679  28.970  32.749  1.00  0.00     0.026 A 
ATOM     23  C   UNL A   1      36.976  29.488  31.149  1.00  0.00     0.026 A 
ENDBRANCH  14  17
ENDBRANCH   9  13
ENDBRANCH   7   8
ENDBRANCH   4   7
ENDBRANCH   2   3
ENDBRANCH   1   2
BRANCH   1  24
ATOM     24  C   UNL A   1      41.253  32.153  34.016  1.00  0.00     0.023 C 
BRANCH  24  25
ATOM     25  C   UNL A   1      42.254  31.583  35.063  1.00  0.00     0.116 C 
BRANCH  25  26
ATOM     26  N   UNL A   1      41.702  30.432  35.779  1.00  0.00    -0.352 N 
ATOM     27  C   UNL A   1      41.629  29.070  35.543  1.00  0.00     0.251 C 
ATOM     28  H   UNL A   1      41.281  30.688  36.632  1.00  0.00     0.163 HD
ATOM     29  O   UNL A   1      40.776  28.470  36.209  1.00  0.00    -0.269 OA
BRANCH  27  30
ATOM     30  C   UNL A   1      42.478  28.252  34.604  1.00  0.00     0.039 A 
ATOM     31  C   UNL A   1      42.820  28.786  33.331  1.00  0.00     0.014 A 
ATOM     32  C   UNL A   1      42.848  26.941  34.831  1.00  0.00     0.014 A 
ATOM     33  C   UNL A   1      43.551  28.061  32.333  1.00  0.00     0.010 A 
ATOM     34  C   UNL A   1      43.533  26.215  33.823  1.00  0.00     0.010 A 
ATOM     35  C   UNL A   1      43.945  26.747  32.564  1.00  0.00    -0.014 A 
BRANCH  35  36
ATOM     36  C   UNL A   1      45.001  25.963  31.792  1.00  0.00     0.031 A 
ATOM     37  C   UNL A   1      44.389  24.890  31.013  1.00  0.00     0.074 A 
ATOM     38  C   UNL A   1      46.248  26.203  31.274  1.00  0.00     0.049 A 
ATOM     39  N   UNL A   1      43.899  25.195  29.869  1.00  0.00    -0.248 NA
ATOM     40  C   UNL A   1      44.237  23.508  31.403  1.00  0.00     0.031 C 
ATOM     41  C   UNL A   1      47.197  27.231  31.652  1.00  0.00     0.029 A 
ATOM     42  N   UNL A   1      46.852  25.609  30.110  1.00  0.00    -0.354 N 
ATOM     43  C   UNL A   1      43.382  24.074  29.314  1.00  0.00     0.074 A 
ATOM     44  C   UNL A   1      43.663  23.025  30.287  1.00  0.00     0.031 C 
ATOM     45  C   UNL A   1      48.202  27.263  30.748  1.00  0.00     0.029 A 
ATOM     46  C   UNL A   1      47.963  26.333  29.600  1.00  0.00     0.049 A 
ATOM     47  H   UNL A   1      46.524  24.774  29.703  1.00  0.00     0.167 HD
ATOM     48  C   UNL A   1      42.828  24.192  28.079  1.00  0.00     0.034 A 
ATOM     49  C   UNL A   1      48.104  26.836  28.317  1.00  0.00     0.034 A 
ATOM     50  C   UNL A   1      42.628  25.586  27.601  1.00  0.00     0.049 A 
ATOM     51  C   UNL A   1      47.100  27.939  28.293  1.00  0.00     0.074 A 
ATOM     52  C   UNL A   1      41.643  26.264  26.905  1.00  0.00     0.029 A 
ATOM     53  N   UNL A   1      43.565  26.577  27.888  1.00  0.00    -0.354 N 
ATOM     54  N   UNL A   1      45.831  27.719  28.171  1.00  0.00    -0.248 NA
ATOM     55  C   UNL A   1      47.479  29.317  28.549  1.00  0.00     0.031 C 
ATOM     56  C   UNL A   1      41.917  27.675  26.989  1.00  0.00     0.029 A 
ATOM     57  C   UNL A   1      43.090  27.866  27.702  1.00  0.00     0.049 A 
ATOM     58  H   UNL A   1      44.480  26.379  28.194  1.00  0.00     0.167 HD
ATOM     59  C   UNL A   1      45.198  28.918  28.339  1.00  0.00     0.074 A 
ATOM     60  C   UNL A   1      46.263  29.853  28.697  1.00  0.00     0.031 C 
ATOM     61  C   UNL A   1      43.844  29.028  28.214  1.00  0.00     0.034 A 
BRANCH  48  62
ATOM     62  C   UNL A   1      42.567  22.978  27.246  1.00  0.00     0.023 A 
ATOM     63  C   UNL A   1      43.607  22.529  26.417  1.00  0.00     0.031 A 
ATOM     64  C   UNL A   1      41.406  22.183  27.290  1.00  0.00     0.131 A 
ATOM     65  C   UNL A   1      43.499  21.312  25.729  1.00  0.00     0.055 A 
ATOM     66  C   UNL A   1      41.337  20.928  26.676  1.00  0.00     0.041 A 
ATOM     67  F   UNL A   1      40.292  22.603  27.909  1.00  0.00    -0.206 F 
ATOM     68  C   UNL A   1      42.394  20.481  25.896  1.00  0.00     0.022 A 
BRANCH  65  69
ATOM     69  S   UNL A   1      44.807  20.862  24.561  1.00  0.00     0.124 S 
ATOM     70  O   UNL A   1      44.443  19.488  24.226  1.00  0.00    -0.237 OA
ATOM     71  O   UNL A   1      44.641  21.851  23.505  1.00  0.00    -0.237 OA
ATOM     72  O   UNL A   1      46.026  20.995  25.357  1.00  0.00    -0.744 OA
ENDBRANCH  65  69
ENDBRANCH  48  62
BRANCH  49  73
ATOM     73  C   UNL A   1      48.375  26.276  26.912  1.00  0.00     0.023 A 
ATOM     74  C   UNL A   1      49.137  27.004  25.969  1.00  0.00     0.031 A 
ATOM     75  C   UNL A   1      47.613  25.207  26.355  1.00  0.00     0.131 A 
ATOM     76  C   UNL A   1      49.060  26.704  24.574  1.00  0.00     0.055 A 
ATOM     77  C   UNL A   1      47.530  24.928  24.985  1.00  0.00     0.041 A 
ATOM     78  F   UNL A   1      46.865  24.398  27.111  1.00  0.00    -0.206 F 
ATOM     79  C   UNL A   1      48.245  25.685  24.081  1.00  0.00     0.022 A 
BRANCH  76  80
ATOM     80  S   UNL A   1      49.988  27.697  23.358  1.00  0.00     0.124 S 
ATOM     81  O   UNL A   1      50.709  28.633  24.216  1.00  0.00    -0.237 OA
ATOM     82  O   UNL A   1      50.809  26.693  22.688  1.00  0.00    -0.237 OA
ATOM     83  O   UNL A   1      48.952  28.304  22.523  1.00  0.00    -0.744 OA
ENDBRANCH  76  80
ENDBRANCH  49  73
BRANCH  61  84
ATOM     84  C   UNL A   1      43.188  30.257  28.792  1.00  0.00     0.023 A 
ATOM     85  C   UNL A   1      43.618  31.566  28.513  1.00  0.00     0.031 A 
ATOM     86  C   UNL A   1      42.230  30.117  29.812  1.00  0.00     0.131 A 
ATOM     87  C   UNL A   1      43.278  32.629  29.366  1.00  0.00     0.055 A 
ATOM     88  C   UNL A   1      41.808  31.196  30.596  1.00  0.00     0.041 A 
ATOM     89  F   UNL A   1      41.708  28.919  30.113  1.00  0.00    -0.206 F 
ATOM     90  C   UNL A   1      42.362  32.454  30.401  1.00  0.00     0.022 A 
BRANCH  87  91
ATOM     91  S   UNL A   1      44.160  34.206  29.204  1.00  0.00     0.124 S 
ATOM     92  O   UNL A   1      44.341  34.590  30.602  1.00  0.00    -0.237 OA
ATOM     93  O   UNL A   1      45.375  33.825  28.489  1.00  0.00    -0.237 OA
ATOM     94  O   UNL A   1      43.229  35.038  28.445  1.00  0.00    -0.744 OA
ENDBRANCH  87  91
ENDBRANCH  61  84
ENDBRANCH  35  36
ENDBRANCH  27  30
ENDBRANCH  25  26
ENDBRANCH  24  25
ENDBRANCH   1  24
TORSDOF 17
ENDMDL
MODEL 3
REMARK VINA RESULT:     -10.0      2.843      6.794
REMARK SMILES Cc1ccc(NC(=O)c2cccn2CC(=O)NCCCCNC(=O)c2ccc(-c3c4nc(c(-c5cc(S(=O)(=O)[O-])ccc5F)c5ccc([nH]5)c(-c5cc(S(=O)(=O)[O-])ccc5F)c5nc(c(-c6cc(S(=O)(=O)[O-])ccc6F)c6ccc3[nH]6)C=C5)C=C4)cc2)cc1
REMARK SMILES IDX 19 1 18 2 17 3 15 4 16 5 14 7 13 8 9 9 10 10 11 11 12 12
REMARK SMILES IDX 7 13 6 14 8 16 5 17 1 18 2 19 3 20 89 21 4 22 88 23 20 24
REMARK SMILES IDX 21 25 22 26 23 27 24 29 25 30 26 31 87 32 27 33 86 34 28 35
REMARK SMILES IDX 29 36 30 37 80 38 31 39 85 40 79 41 81 42 32 43 84 44 78 45
REMARK SMILES IDX 77 46 33 48 65 49 45 50 64 51 46 52 49 53 63 54 82 55 47 56
REMARK SMILES IDX 48 57 62 59 83 60 50 61 34 62 35 63 43 64 36 65 42 66 44 67
REMARK SMILES IDX 41 68 37 69 38 70 39 71 40 72 66 73 67 74 75 75 68 76 74 77
REMARK SMILES IDX 76 78 73 79 69 80 70 81 71 82 72 83 51 84 52 85 60 86 53 87
REMARK SMILES IDX 59 88 61 89 58 90 54 91 55 92 56 93 57 94
REMARK H PARENT 17 6 6 15 22 28 81 47 49 58
REMARK Flexibility Score: inf
ROOT
ATOM      1  C   UNL A   1      48.112  26.683  26.925  1.00  0.00     0.023 C 
ENDROOT
BRANCH   1   2
ATOM      2  C   UNL A   1      47.578  25.269  27.199  1.00  0.00     0.116 C 
BRANCH   2   3
ATOM      3  N   UNL A   1      46.901  24.693  26.043  1.00  0.00    -0.355 N 
ATOM      4  C   UNL A   1      45.579  24.725  25.687  1.00  0.00     0.239 C 
ATOM      5  O   UNL A   1      45.252  24.173  24.632  1.00  0.00    -0.273 OA
ATOM      6  H   UNL A   1      47.486  24.205  25.419  1.00  0.00     0.163 HD
BRANCH   4   7
ATOM      7  C   UNL A   1      44.547  25.417  26.556  1.00  0.00     0.222 C 
BRANCH   7   8
ATOM      8  N   UNL A   1      43.979  24.549  27.586  1.00  0.00    -0.334 N 
ATOM      9  C   UNL A   1      42.918  23.680  27.418  1.00  0.00     0.107 A 
ATOM     10  C   UNL A   1      42.806  22.949  28.597  1.00  0.00     0.033 A 
ATOM     11  C   UNL A   1      43.750  23.454  29.517  1.00  0.00     0.020 A 
ATOM     12  C   UNL A   1      44.465  24.434  28.869  1.00  0.00     0.087 A 
BRANCH   9  13
ATOM     13  C   UNL A   1      42.134  23.555  26.225  1.00  0.00     0.272 C 
ATOM     14  N   UNL A   1      41.159  24.456  25.903  1.00  0.00    -0.321 N 
ATOM     15  H   UNL A   1      40.621  24.184  25.124  1.00  0.00     0.170 HD
ATOM     16  O   UNL A   1      42.335  22.612  25.422  1.00  0.00    -0.267 OA
BRANCH  14  17
ATOM     17  C   UNL A   1      40.761  25.695  26.452  1.00  0.00     0.041 A 
ATOM     18  C   UNL A   1      39.417  29.331  28.378  1.00  0.00     0.044 C 
ATOM     19  C   UNL A   1      39.853  28.065  27.706  1.00  0.00    -0.051 A 
ATOM     20  C   UNL A   1      40.774  28.117  26.662  1.00  0.00     0.005 A 
ATOM     21  C   UNL A   1      39.364  26.819  28.104  1.00  0.00     0.005 A 
ATOM     22  C   UNL A   1      41.204  26.946  26.030  1.00  0.00     0.026 A 
ATOM     23  C   UNL A   1      39.813  25.648  27.482  1.00  0.00     0.026 A 
ENDBRANCH  14  17
ENDBRANCH   9  13
ENDBRANCH   7   8
ENDBRANCH   4   7
ENDBRANCH   2   3
ENDBRANCH   1   2
BRANCH   1  24
ATOM     24  C   UNL A   1      48.421  27.543  28.170  1.00  0.00     0.023 C 
BRANCH  24  25
ATOM     25  C   UNL A   1      47.374  28.631  28.549  1.00  0.00     0.116 C 
BRANCH  25  26
ATOM     26  N   UNL A   1      46.376  28.821  27.494  1.00  0.00    -0.352 N 
ATOM     27  C   UNL A   1      45.081  29.308  27.441  1.00  0.00     0.251 C 
ATOM     28  H   UNL A   1      46.705  28.532  26.611  1.00  0.00     0.163 HD
ATOM     29  O   UNL A   1      44.443  28.981  26.433  1.00  0.00    -0.269 OA
BRANCH  27  30
ATOM     30  C   UNL A   1      44.391  30.197  28.443  1.00  0.00     0.039 A 
ATOM     31  C   UNL A   1      45.167  30.879  29.420  1.00  0.00     0.014 A 
ATOM     32  C   UNL A   1      43.021  30.301  28.576  1.00  0.00     0.014 A 
ATOM     33  C   UNL A   1      44.605  31.682  30.467  1.00  0.00     0.010 A 
ATOM     34  C   UNL A   1      42.470  31.062  29.639  1.00  0.00     0.010 A 
ATOM     35  C   UNL A   1      43.225  31.808  30.594  1.00  0.00    -0.014 A 
BRANCH  35  36
ATOM     36  C   UNL A   1      42.477  32.867  31.395  1.00  0.00     0.031 A 
ATOM     37  C   UNL A   1      41.134  33.074  30.860  1.00  0.00     0.074 A 
ATOM     38  C   UNL A   1      42.504  33.361  32.675  1.00  0.00     0.049 A 
ATOM     39  N   UNL A   1      40.216  32.263  31.235  1.00  0.00    -0.248 NA
ATOM     40  C   UNL A   1      40.719  34.084  29.915  1.00  0.00     0.031 C 
ATOM     41  C   UNL A   1      43.584  33.304  33.639  1.00  0.00     0.029 A 
ATOM     42  N   UNL A   1      41.408  33.899  33.438  1.00  0.00    -0.354 N 
ATOM     43  C   UNL A   1      39.059  32.620  30.632  1.00  0.00     0.074 A 
ATOM     44  C   UNL A   1      39.406  33.802  29.852  1.00  0.00     0.031 C 
ATOM     45  C   UNL A   1      43.124  33.701  34.846  1.00  0.00     0.029 A 
ATOM     46  C   UNL A   1      41.648  33.952  34.837  1.00  0.00     0.049 A 
ATOM     47  H   UNL A   1      40.566  34.202  33.027  1.00  0.00     0.167 HD
ATOM     48  C   UNL A   1      37.955  31.881  30.922  1.00  0.00     0.034 A 
ATOM     49  C   UNL A   1      40.884  33.364  35.831  1.00  0.00     0.034 A 
ATOM     50  C   UNL A   1      38.210  30.618  31.664  1.00  0.00     0.049 A 
ATOM     51  C   UNL A   1      41.152  31.911  35.624  1.00  0.00     0.074 A 
ATOM     52  C   UNL A   1      37.717  29.327  31.620  1.00  0.00     0.029 A 
ATOM     53  N   UNL A   1      39.193  30.559  32.648  1.00  0.00    -0.354 N 
ATOM     54  N   UNL A   1      40.603  31.235  34.667  1.00  0.00    -0.248 NA
ATOM     55  C   UNL A   1      42.156  31.205  36.399  1.00  0.00     0.031 C 
ATOM     56  C   UNL A   1      38.569  28.488  32.423  1.00  0.00     0.029 A 
ATOM     57  C   UNL A   1      39.563  29.268  32.992  1.00  0.00     0.049 A 
ATOM     58  H   UNL A   1      39.589  31.361  33.062  1.00  0.00     0.167 HD
ATOM     59  C   UNL A   1      41.177  29.994  34.674  1.00  0.00     0.074 A 
ATOM     60  C   UNL A   1      42.224  30.075  35.689  1.00  0.00     0.031 C 
ATOM     61  C   UNL A   1      40.769  29.022  33.808  1.00  0.00     0.034 A 
BRANCH  48  62
ATOM     62  C   UNL A   1      36.590  32.403  30.604  1.00  0.00     0.023 A 
ATOM     63  C   UNL A   1      36.022  33.316  31.506  1.00  0.00     0.031 A 
ATOM     64  C   UNL A   1      35.860  32.138  29.430  1.00  0.00     0.131 A 
ATOM     65  C   UNL A   1      34.820  33.970  31.202  1.00  0.00     0.055 A 
ATOM     66  C   UNL A   1      34.710  32.857  29.087  1.00  0.00     0.041 A 
ATOM     67  F   UNL A   1      36.221  31.159  28.586  1.00  0.00    -0.206 F 
ATOM     68  C   UNL A   1      34.188  33.788  29.973  1.00  0.00     0.022 A 
BRANCH  65  69
ATOM     69  S   UNL A   1      34.064  35.020  32.467  1.00  0.00     0.124 S 
ATOM     70  O   UNL A   1      33.787  36.239  31.713  1.00  0.00    -0.237 OA
ATOM     71  O   UNL A   1      32.906  34.236  32.876  1.00  0.00    -0.237 OA
ATOM     72  O   UNL A   1      35.119  35.148  33.471  1.00  0.00    -0.744 OA
ENDBRANCH  65  69
ENDBRANCH  48  62
BRANCH  49  73
ATOM     73  C   UNL A   1      39.519  33.607  36.494  1.00  0.00     0.023 A 
ATOM     74  C   UNL A   1      39.327  33.381  37.877  1.00  0.00     0.031 A 
ATOM     75  C   UNL A   1      38.313  33.717  35.741  1.00  0.00     0.131 A 
ATOM     76  C   UNL A   1      38.015  33.210  38.417  1.00  0.00     0.055 A 
ATOM     77  C   UNL A   1      37.030  33.533  36.274  1.00  0.00     0.041 A 
ATOM     78  F   UNL A   1      38.314  33.965  34.428  1.00  0.00    -0.206 F 
ATOM     79  C   UNL A   1      36.873  33.265  37.618  1.00  0.00     0.022 A 
BRANCH  76  80
ATOM     80  S   UNL A   1      37.781  32.844  40.189  1.00  0.00     0.124 S 
ATOM     81  O   UNL A   1      36.459  32.227  40.200  1.00  0.00    -0.237 OA
ATOM     82  O   UNL A   1      38.899  31.950  40.479  1.00  0.00    -0.237 OA
ATOM     83  O   UNL A   1      37.853  34.152  40.839  1.00  0.00    -0.744 OA
ENDBRANCH  76  80
ENDBRANCH  49  73
BRANCH  61  84
ATOM     84  C   UNL A   1      41.688  27.844  33.601  1.00  0.00     0.023 A 
ATOM     85  C   UNL A   1      41.668  26.695  34.411  1.00  0.00     0.031 A 
ATOM     86  C   UNL A   1      42.756  27.950  32.692  1.00  0.00     0.131 A 
ATOM     87  C   UNL A   1      42.777  25.835  34.461  1.00  0.00     0.055 A 
ATOM     88  C   UNL A   1      43.811  27.032  32.666  1.00  0.00     0.041 A 
ATOM     89  F   UNL A   1      42.833  28.975  31.830  1.00  0.00    -0.206 F 
ATOM     90  C   UNL A   1      43.846  25.989  33.582  1.00  0.00     0.022 A 
BRANCH  87  91
ATOM     91  S   UNL A   1      42.877  24.603  35.790  1.00  0.00     0.124 S 
ATOM     92  O   UNL A   1      43.869  23.672  35.258  1.00  0.00    -0.237 OA
ATOM     93  O   UNL A   1      43.306  25.399  36.937  1.00  0.00    -0.237 OA
ATOM     94  O   UNL A   1      41.515  24.082  35.872  1.00  0.00    -0.744 OA
ENDBRANCH  87  91
ENDBRANCH  61  84
ENDBRANCH  35  36
ENDBRANCH  27  30
ENDBRANCH  25  26
ENDBRANCH  24  25
ENDBRANCH   1  24
TORSDOF 17
ENDMDL
