MODEL 1
REMARK VINA RESULT:     -12.3      0.000      0.000
REMARK SMILES O=C(CCC(=O)N1N=C(c2ccc(F)cc2)C[C@@H]1c1ccc2nccnc2c1)NCCCCNC(=O)c1ccc(-c2c3nc(c(-c4cc(S(=O)(=O)[O-])ccc4F)c4ccc([nH]4)c(-c4cc(S(=O)(=O)[O-])ccc4F)c4nc(c(-c5cc(S(=O)(=O)[O-])ccc5F)c5ccc2[nH]5)C=C4)C=C3)cc1
REMARK SMILES IDX 31 1 30 2 29 3 1 4 2 5 3 7 4 8 5 9 6 10 7 11 8 12 18 13 9 14
REMARK SMILES IDX 17 15 19 16 20 17 28 18 21 19 27 20 22 21 26 22 23 23 25 24
REMARK SMILES IDX 24 25 10 26 11 27 16 28 12 29 15 30 13 31 14 32 32 33 33 34
REMARK SMILES IDX 34 35 35 36 36 38 37 39 38 40 99 41 39 42 98 43 40 44 41 45
REMARK SMILES IDX 42 46 92 47 43 48 97 49 91 50 93 51 44 52 96 53 90 54 89 55
REMARK SMILES IDX 45 57 77 58 57 59 76 60 58 61 61 62 75 63 94 64 59 65 60 66
REMARK SMILES IDX 74 68 95 69 62 70 46 71 47 72 55 73 48 74 54 75 56 76 53 77
REMARK SMILES IDX 49 78 50 79 51 80 52 81 78 82 79 83 87 84 80 85 86 86 88 87
REMARK SMILES IDX 85 88 81 89 82 90 83 91 84 92 63 93 64 94 72 95 65 96 71 97
REMARK SMILES IDX 73 98 70 99 66 100 67 101 68 102 69 103
REMARK H PARENT 29 6 34 37 93 56 61 67
REMARK Flexibility Score: inf
ROOT
ATOM      1  C   UNL A   1      35.425  32.126  27.935  1.00  0.00     0.023 C 
ENDROOT
BRANCH   1   2
ATOM      2  C   UNL A   1      35.118  30.587  27.683  1.00  0.00     0.116 C 
BRANCH   2   3
ATOM      3  N   UNL A   1      33.850  29.903  28.004  1.00  0.00    -0.356 N 
ATOM      4  O   UNL A   1      32.657  30.830  26.265  1.00  0.00    -0.275 OA
ATOM      5  C   UNL A   1      32.725  30.006  27.155  1.00  0.00     0.220 C 
ATOM      6  H   UNL A   1      33.787  29.364  28.825  1.00  0.00     0.163 HD
BRANCH   5   7
ATOM      7  C   UNL A   1      31.637  28.893  27.323  1.00  0.00     0.110 C 
BRANCH   7   8
ATOM      8  C   UNL A   1      32.179  27.452  27.071  1.00  0.00     0.112 C 
BRANCH   8   9
ATOM      9  C   UNL A   1      33.111  26.985  25.897  1.00  0.00     0.243 C 
ATOM     10  O   UNL A   1      34.266  27.423  25.856  1.00  0.00    -0.273 OA
BRANCH   9  11
ATOM     11  N   UNL A   1      32.706  25.940  25.076  1.00  0.00    -0.225 N 
ATOM     12  N   UNL A   1      33.549  24.804  24.973  1.00  0.00    -0.174 NA
ATOM     13  C   UNL A   1      31.332  25.584  24.879  1.00  0.00     0.147 C 
ATOM     14  C   UNL A   1      32.768  23.761  24.913  1.00  0.00     0.071 C 
ATOM     15  C   UNL A   1      31.325  24.093  25.077  1.00  0.00     0.091 C 
BRANCH  13  16
ATOM     16  C   UNL A   1      30.432  26.436  23.990  1.00  0.00    -0.021 A 
ATOM     17  C   UNL A   1      29.053  26.315  24.185  1.00  0.00     0.008 A 
ATOM     18  C   UNL A   1      30.824  27.532  23.215  1.00  0.00     0.036 A 
ATOM     19  C   UNL A   1      28.105  27.216  23.717  1.00  0.00     0.031 A 
ATOM     20  C   UNL A   1      29.886  28.464  22.706  1.00  0.00     0.089 A 
ATOM     21  C   UNL A   1      28.504  28.297  22.986  1.00  0.00     0.089 A 
ATOM     22  N   UNL A   1      30.278  29.538  21.995  1.00  0.00    -0.253 NA
ATOM     23  N   UNL A   1      27.548  29.159  22.595  1.00  0.00    -0.253 NA
ATOM     24  C   UNL A   1      29.308  30.391  21.577  1.00  0.00     0.132 A 
ATOM     25  C   UNL A   1      27.973  30.210  21.874  1.00  0.00     0.132 A 
ENDBRANCH  13  16
BRANCH  14  26
ATOM     26  C   UNL A   1      33.155  22.319  24.922  1.00  0.00    -0.002 A 
ATOM     27  C   UNL A   1      34.513  21.950  24.910  1.00  0.00     0.013 A 
ATOM     28  C   UNL A   1      32.194  21.314  24.810  1.00  0.00     0.013 A 
ATOM     29  C   UNL A   1      34.915  20.616  24.851  1.00  0.00     0.040 A 
ATOM     30  C   UNL A   1      32.596  19.971  24.712  1.00  0.00     0.040 A 
ATOM     31  C   UNL A   1      33.949  19.633  24.747  1.00  0.00     0.123 A 
ATOM     32  F   UNL A   1      34.321  18.351  24.653  1.00  0.00    -0.207 F 
ENDBRANCH  14  26
ENDBRANCH   9  11
ENDBRANCH   8   9
ENDBRANCH   7   8
ENDBRANCH   5   7
ENDBRANCH   2   3
ENDBRANCH   1   2
BRANCH   1  33
ATOM     33  C   UNL A   1      34.609  33.477  27.912  1.00  0.00     0.023 C 
BRANCH  33  34
ATOM     34  C   UNL A   1      33.126  33.750  28.319  1.00  0.00     0.116 C 
BRANCH  34  35
ATOM     35  N   UNL A   1      32.961  34.797  29.310  1.00  0.00    -0.352 N 
ATOM     36  C   UNL A   1      33.466  34.928  30.591  1.00  0.00     0.251 C 
ATOM     37  H   UNL A   1      32.388  35.544  29.021  1.00  0.00     0.163 HD
ATOM     38  O   UNL A   1      32.910  35.746  31.325  1.00  0.00    -0.269 OA
BRANCH  36  39
ATOM     39  C   UNL A   1      34.642  34.180  31.134  1.00  0.00     0.039 A 
ATOM     40  C   UNL A   1      35.926  34.631  30.781  1.00  0.00     0.014 A 
ATOM     41  C   UNL A   1      34.532  32.953  31.794  1.00  0.00     0.014 A 
ATOM     42  C   UNL A   1      37.072  33.887  31.109  1.00  0.00     0.010 A 
ATOM     43  C   UNL A   1      35.678  32.197  32.107  1.00  0.00     0.010 A 
ATOM     44  C   UNL A   1      36.961  32.661  31.780  1.00  0.00    -0.014 A 
BRANCH  44  45
ATOM     45  C   UNL A   1      38.172  31.938  32.263  1.00  0.00     0.031 A 
ATOM     46  C   UNL A   1      38.831  32.259  33.579  1.00  0.00     0.074 A 
ATOM     47  C   UNL A   1      38.707  30.995  31.460  1.00  0.00     0.049 A 
ATOM     48  N   UNL A   1      39.891  31.715  34.122  1.00  0.00    -0.248 NA
ATOM     49  C   UNL A   1      38.229  33.333  34.382  1.00  0.00     0.031 C 
ATOM     50  C   UNL A   1      38.170  30.617  30.151  1.00  0.00     0.029 A 
ATOM     51  N   UNL A   1      39.809  30.192  31.612  1.00  0.00    -0.354 N 
ATOM     52  C   UNL A   1      40.082  32.368  35.337  1.00  0.00     0.074 A 
ATOM     53  C   UNL A   1      39.045  33.375  35.430  1.00  0.00     0.031 C 
ATOM     54  C   UNL A   1      38.937  29.651  29.624  1.00  0.00     0.029 A 
ATOM     55  C   UNL A   1      40.033  29.357  30.542  1.00  0.00     0.049 A 
ATOM     56  H   UNL A   1      40.384  30.212  32.410  1.00  0.00     0.167 HD
ATOM     57  C   UNL A   1      41.027  32.137  36.285  1.00  0.00     0.034 A 
ATOM     58  C   UNL A   1      41.010  28.457  30.316  1.00  0.00     0.034 A 
ATOM     59  C   UNL A   1      42.065  31.138  36.169  1.00  0.00     0.049 A 
ATOM     60  C   UNL A   1      42.064  28.242  31.366  1.00  0.00     0.074 A 
ATOM     61  C   UNL A   1      43.042  30.799  37.091  1.00  0.00     0.029 A 
ATOM     62  N   UNL A   1      42.273  30.327  35.061  1.00  0.00    -0.354 N 
ATOM     63  N   UNL A   1      42.202  28.843  32.524  1.00  0.00    -0.248 NA
ATOM     64  C   UNL A   1      43.085  27.224  31.088  1.00  0.00     0.031 C 
ATOM     65  C   UNL A   1      43.873  29.830  36.518  1.00  0.00     0.029 A 
ATOM     66  C   UNL A   1      43.376  29.513  35.265  1.00  0.00     0.049 A 
ATOM     67  H   UNL A   1      41.717  30.331  34.248  1.00  0.00     0.167 HD
ATOM     68  C   UNL A   1      43.315  28.261  33.123  1.00  0.00     0.074 A 
ATOM     69  C   UNL A   1      43.807  27.258  32.200  1.00  0.00     0.031 C 
ATOM     70  C   UNL A   1      43.871  28.530  34.330  1.00  0.00     0.034 A 
BRANCH  57  71
ATOM     71  C   UNL A   1      41.000  32.982  37.537  1.00  0.00     0.023 A 
ATOM     72  C   UNL A   1      40.240  32.607  38.658  1.00  0.00     0.031 A 
ATOM     73  C   UNL A   1      41.794  34.140  37.635  1.00  0.00     0.131 A 
ATOM     74  C   UNL A   1      40.261  33.401  39.816  1.00  0.00     0.055 A 
ATOM     75  C   UNL A   1      41.853  34.895  38.808  1.00  0.00     0.041 A 
ATOM     76  F   UNL A   1      42.537  34.548  36.595  1.00  0.00    -0.206 F 
ATOM     77  C   UNL A   1      41.079  34.530  39.906  1.00  0.00     0.022 A 
BRANCH  74  78
ATOM     78  S   UNL A   1      39.160  32.968  41.191  1.00  0.00     0.124 S 
ATOM     79  O   UNL A   1      39.537  33.959  42.194  1.00  0.00    -0.237 OA
ATOM     80  O   UNL A   1      37.835  33.130  40.601  1.00  0.00    -0.237 OA
ATOM     81  O   UNL A   1      39.534  31.592  41.510  1.00  0.00    -0.744 OA
ENDBRANCH  74  78
ENDBRANCH  57  71
BRANCH  58  82
ATOM     82  C   UNL A   1      41.024  27.689  29.041  1.00  0.00     0.023 A 
ATOM     83  C   UNL A   1      42.000  27.933  28.063  1.00  0.00     0.031 A 
ATOM     84  C   UNL A   1      40.078  26.677  28.798  1.00  0.00     0.131 A 
ATOM     85  C   UNL A   1      41.999  27.182  26.877  1.00  0.00     0.055 A 
ATOM     86  C   UNL A   1      40.104  25.910  27.634  1.00  0.00     0.041 A 
ATOM     87  F   UNL A   1      39.135  26.397  29.712  1.00  0.00    -0.206 F 
ATOM     88  C   UNL A   1      41.067  26.164  26.662  1.00  0.00     0.022 A 
BRANCH  85  89
ATOM     89  S   UNL A   1      43.232  27.566  25.603  1.00  0.00     0.124 S 
ATOM     90  O   UNL A   1      43.954  28.676  26.212  1.00  0.00    -0.237 OA
ATOM     91  O   UNL A   1      43.960  26.306  25.495  1.00  0.00    -0.237 OA
ATOM     92  O   UNL A   1      42.420  27.912  24.438  1.00  0.00    -0.744 OA
ENDBRANCH  85  89
ENDBRANCH  58  82
BRANCH  70  93
ATOM     93  C   UNL A   1      45.066  27.709  34.738  1.00  0.00     0.023 A 
ATOM     94  C   UNL A   1      44.923  26.502  35.441  1.00  0.00     0.031 A 
ATOM     95  C   UNL A   1      46.362  28.126  34.383  1.00  0.00     0.131 A 
ATOM     96  C   UNL A   1      46.062  25.763  35.793  1.00  0.00     0.055 A 
ATOM     97  C   UNL A   1      47.487  27.362  34.696  1.00  0.00     0.041 A 
ATOM     98  F   UNL A   1      46.550  29.272  33.712  1.00  0.00    -0.206 F 
ATOM     99  C   UNL A   1      47.341  26.175  35.409  1.00  0.00     0.022 A 
BRANCH  96 100
ATOM    100  S   UNL A   1      45.856  24.263  36.793  1.00  0.00     0.124 S 
ATOM    101  O   UNL A   1      45.728  23.232  35.767  1.00  0.00    -0.237 OA
ATOM    102  O   UNL A   1      47.086  24.234  37.578  1.00  0.00    -0.237 OA
ATOM    103  O   UNL A   1      44.640  24.528  37.561  1.00  0.00    -0.744 OA
ENDBRANCH  96 100
ENDBRANCH  70  93
ENDBRANCH  44  45
ENDBRANCH  36  39
ENDBRANCH  34  35
ENDBRANCH  33  34
ENDBRANCH   1  33
TORSDOF 19
ENDMDL
MODEL 2
REMARK VINA RESULT:     -12.2      0.440      7.369
REMARK SMILES O=C(CCC(=O)N1N=C(c2ccc(F)cc2)C[C@@H]1c1ccc2nccnc2c1)NCCCCNC(=O)c1ccc(-c2c3nc(c(-c4cc(S(=O)(=O)[O-])ccc4F)c4ccc([nH]4)c(-c4cc(S(=O)(=O)[O-])ccc4F)c4nc(c(-c5cc(S(=O)(=O)[O-])ccc5F)c5ccc2[nH]5)C=C4)C=C3)cc1
REMARK SMILES IDX 31 1 30 2 29 3 1 4 2 5 3 7 4 8 5 9 6 10 7 11 8 12 18 13 9 14
REMARK SMILES IDX 17 15 19 16 20 17 28 18 21 19 27 20 22 21 26 22 23 23 25 24
REMARK SMILES IDX 24 25 10 26 11 27 16 28 12 29 15 30 13 31 14 32 32 33 33 34
REMARK SMILES IDX 34 35 35 36 36 38 37 39 38 40 99 41 39 42 98 43 40 44 41 45
REMARK SMILES IDX 42 46 92 47 43 48 97 49 91 50 93 51 44 52 96 53 90 54 89 55
REMARK SMILES IDX 45 57 77 58 57 59 76 60 58 61 61 62 75 63 94 64 59 65 60 66
REMARK SMILES IDX 74 68 95 69 62 70 46 71 47 72 55 73 48 74 54 75 56 76 53 77
REMARK SMILES IDX 49 78 50 79 51 80 52 81 78 82 79 83 87 84 80 85 86 86 88 87
REMARK SMILES IDX 85 88 81 89 82 90 83 91 84 92 63 93 64 94 72 95 65 96 71 97
REMARK SMILES IDX 73 98 70 99 66 100 67 101 68 102 69 103
REMARK H PARENT 29 6 34 37 93 56 61 67
REMARK Flexibility Score: inf
ROOT
ATOM      1  C   UNL A   1      35.400  32.051  27.801  1.00  0.00     0.023 C 
ENDROOT
BRANCH   1   2
ATOM      2  C   UNL A   1      34.979  30.539  27.556  1.00  0.00     0.116 C 
BRANCH   2   3
ATOM      3  N   UNL A   1      33.710  29.922  27.991  1.00  0.00    -0.356 N 
ATOM      4  O   UNL A   1      32.567  30.381  26.045  1.00  0.00    -0.275 OA
ATOM      5  C   UNL A   1      32.615  29.795  27.108  1.00  0.00     0.220 C 
ATOM      6  H   UNL A   1      33.626  29.593  28.915  1.00  0.00     0.163 HD
BRANCH   5   7
ATOM      7  C   UNL A   1      31.537  28.730  27.503  1.00  0.00     0.110 C 
BRANCH   7   8
ATOM      8  C   UNL A   1      31.886  27.287  27.023  1.00  0.00     0.112 C 
BRANCH   8   9
ATOM      9  C   UNL A   1      32.942  26.882  25.935  1.00  0.00     0.243 C 
ATOM     10  O   UNL A   1      34.097  27.303  26.055  1.00  0.00    -0.273 OA
BRANCH   9  11
ATOM     11  N   UNL A   1      32.625  25.898  25.006  1.00  0.00    -0.225 N 
ATOM     12  N   UNL A   1      33.530  24.819  24.838  1.00  0.00    -0.174 NA
ATOM     13  C   UNL A   1      31.280  25.496  24.718  1.00  0.00     0.147 C 
ATOM     14  C   UNL A   1      32.807  23.750  24.650  1.00  0.00     0.071 C 
ATOM     15  C   UNL A   1      31.343  23.995  24.780  1.00  0.00     0.091 C 
BRANCH  13  16
ATOM     16  C   UNL A   1      30.373  26.383  23.870  1.00  0.00    -0.021 A 
ATOM     17  C   UNL A   1      29.001  26.324  24.138  1.00  0.00     0.008 A 
ATOM     18  C   UNL A   1      30.770  27.456  23.067  1.00  0.00     0.036 A 
ATOM     19  C   UNL A   1      28.071  27.263  23.713  1.00  0.00     0.031 A 
ATOM     20  C   UNL A   1      29.849  28.426  22.601  1.00  0.00     0.089 A 
ATOM     21  C   UNL A   1      28.477  28.322  22.954  1.00  0.00     0.089 A 
ATOM     22  N   UNL A   1      30.250  29.478  21.862  1.00  0.00    -0.253 NA
ATOM     23  N   UNL A   1      27.541  29.222  22.607  1.00  0.00    -0.253 NA
ATOM     24  C   UNL A   1      29.297  30.370  21.489  1.00  0.00     0.132 A 
ATOM     25  C   UNL A   1      27.973  30.250  21.857  1.00  0.00     0.132 A 
ENDBRANCH  13  16
BRANCH  14  26
ATOM     26  C   UNL A   1      33.267  22.334  24.545  1.00  0.00    -0.002 A 
ATOM     27  C   UNL A   1      32.375  21.328  24.131  1.00  0.00     0.013 A 
ATOM     28  C   UNL A   1      34.539  21.955  24.976  1.00  0.00     0.013 A 
ATOM     29  C   UNL A   1      32.748  19.984  24.084  1.00  0.00     0.040 A 
ATOM     30  C   UNL A   1      34.905  20.599  24.966  1.00  0.00     0.040 A 
ATOM     31  C   UNL A   1      34.014  19.629  24.508  1.00  0.00     0.123 A 
ATOM     32  F   UNL A   1      34.373  18.339  24.503  1.00  0.00    -0.207 F 
ENDBRANCH  14  26
ENDBRANCH   9  11
ENDBRANCH   8   9
ENDBRANCH   7   8
ENDBRANCH   5   7
ENDBRANCH   2   3
ENDBRANCH   1   2
BRANCH   1  33
ATOM     33  C   UNL A   1      34.674  33.452  27.846  1.00  0.00     0.023 C 
BRANCH  33  34
ATOM     34  C   UNL A   1      33.163  33.781  28.063  1.00  0.00     0.116 C 
BRANCH  34  35
ATOM     35  N   UNL A   1      32.905  34.728  29.133  1.00  0.00    -0.352 N 
ATOM     36  C   UNL A   1      33.353  34.771  30.441  1.00  0.00     0.251 C 
ATOM     37  H   UNL A   1      32.306  35.469  28.883  1.00  0.00     0.163 HD
ATOM     38  O   UNL A   1      32.726  35.495  31.216  1.00  0.00    -0.269 OA
BRANCH  36  39
ATOM     39  C   UNL A   1      34.543  34.036  30.968  1.00  0.00     0.039 A 
ATOM     40  C   UNL A   1      35.817  34.544  30.659  1.00  0.00     0.014 A 
ATOM     41  C   UNL A   1      34.463  32.776  31.568  1.00  0.00     0.014 A 
ATOM     42  C   UNL A   1      36.982  33.823  30.972  1.00  0.00     0.010 A 
ATOM     43  C   UNL A   1      35.628  32.044  31.864  1.00  0.00     0.010 A 
ATOM     44  C   UNL A   1      36.900  32.563  31.582  1.00  0.00    -0.014 A 
BRANCH  44  45
ATOM     45  C   UNL A   1      38.126  31.857  32.052  1.00  0.00     0.031 A 
ATOM     46  C   UNL A   1      38.783  30.762  31.253  1.00  0.00     0.074 A 
ATOM     47  C   UNL A   1      38.627  32.197  33.258  1.00  0.00     0.049 A 
ATOM     48  N   UNL A   1      39.850  30.059  31.541  1.00  0.00    -0.248 NA
ATOM     49  C   UNL A   1      38.157  30.404  29.972  1.00  0.00     0.031 C 
ATOM     50  C   UNL A   1      38.060  33.225  34.133  1.00  0.00     0.029 A 
ATOM     51  N   UNL A   1      39.707  31.722  33.958  1.00  0.00    -0.354 N 
ATOM     52  C   UNL A   1      40.036  29.182  30.476  1.00  0.00     0.074 A 
ATOM     53  C   UNL A   1      38.945  29.419  29.553  1.00  0.00     0.031 C 
ATOM     54  C   UNL A   1      38.802  33.310  35.248  1.00  0.00     0.029 A 
ATOM     55  C   UNL A   1      39.880  32.328  35.181  1.00  0.00     0.049 A 
ATOM     56  H   UNL A   1      40.301  31.015  33.619  1.00  0.00     0.167 HD
ATOM     57  C   UNL A   1      41.029  28.276  30.287  1.00  0.00     0.034 A 
ATOM     58  C   UNL A   1      40.797  32.121  36.146  1.00  0.00     0.034 A 
ATOM     59  C   UNL A   1      42.101  28.040  31.227  1.00  0.00     0.049 A 
ATOM     60  C   UNL A   1      41.868  31.089  35.928  1.00  0.00     0.074 A 
ATOM     61  C   UNL A   1      43.177  27.175  31.108  1.00  0.00     0.029 A 
ATOM     62  N   UNL A   1      42.229  28.658  32.464  1.00  0.00    -0.354 N 
ATOM     63  N   UNL A   1      42.047  30.298  34.897  1.00  0.00    -0.248 NA
ATOM     64  C   UNL A   1      42.865  30.927  36.994  1.00  0.00     0.031 C 
ATOM     65  C   UNL A   1      43.918  27.225  32.294  1.00  0.00     0.029 A 
ATOM     66  C   UNL A   1      43.346  28.173  33.127  1.00  0.00     0.049 A 
ATOM     67  H   UNL A   1      41.615  29.341  32.819  1.00  0.00     0.167 HD
ATOM     68  C   UNL A   1      43.190  29.558  35.180  1.00  0.00     0.074 A 
ATOM     69  C   UNL A   1      43.661  30.000  36.477  1.00  0.00     0.031 C 
ATOM     70  C   UNL A   1      43.795  28.605  34.429  1.00  0.00     0.034 A 
BRANCH  57  71
ATOM     71  C   UNL A   1      41.010  27.453  29.021  1.00  0.00     0.023 A 
ATOM     72  C   UNL A   1      41.960  27.651  28.004  1.00  0.00     0.031 A 
ATOM     73  C   UNL A   1      40.073  26.416  28.856  1.00  0.00     0.131 A 
ATOM     74  C   UNL A   1      41.931  26.849  26.852  1.00  0.00     0.055 A 
ATOM     75  C   UNL A   1      40.083  25.585  27.732  1.00  0.00     0.041 A 
ATOM     76  F   UNL A   1      39.140  26.183  29.792  1.00  0.00    -0.206 F 
ATOM     77  C   UNL A   1      41.013  25.803  26.719  1.00  0.00     0.022 A 
BRANCH  74  78
ATOM     78  S   UNL A   1      43.078  27.224  25.498  1.00  0.00     0.124 S 
ATOM     79  O   UNL A   1      42.264  28.092  24.653  1.00  0.00    -0.237 OA
ATOM     80  O   UNL A   1      44.189  27.868  26.191  1.00  0.00    -0.237 OA
ATOM     81  O   UNL A   1      43.378  25.912  24.929  1.00  0.00    -0.744 OA
ENDBRANCH  74  78
ENDBRANCH  57  71
BRANCH  58  82
ATOM     82  C   UNL A   1      40.738  32.919  37.401  1.00  0.00     0.023 A 
ATOM     83  C   UNL A   1      39.906  32.534  38.463  1.00  0.00     0.031 A 
ATOM     84  C   UNL A   1      41.542  34.061  37.568  1.00  0.00     0.131 A 
ATOM     85  C   UNL A   1      39.884  33.296  39.642  1.00  0.00     0.055 A 
ATOM     86  C   UNL A   1      41.542  34.794  38.755  1.00  0.00     0.041 A 
ATOM     87  F   UNL A   1      42.367  34.459  36.585  1.00  0.00    -0.206 F 
ATOM     88  C   UNL A   1      40.706  34.414  39.800  1.00  0.00     0.022 A 
BRANCH  85  89
ATOM     89  S   UNL A   1      38.748  32.811  40.970  1.00  0.00     0.124 S 
ATOM     90  O   UNL A   1      37.756  33.879  40.919  1.00  0.00    -0.237 OA
ATOM     91  O   UNL A   1      38.301  31.496  40.524  1.00  0.00    -0.237 OA
ATOM     92  O   UNL A   1      39.599  32.805  42.158  1.00  0.00    -0.744 OA
ENDBRANCH  85  89
ENDBRANCH  58  82
BRANCH  70  93
ATOM     93  C   UNL A   1      45.054  27.989  34.980  1.00  0.00     0.023 A 
ATOM     94  C   UNL A   1      45.023  26.809  35.741  1.00  0.00     0.031 A 
ATOM     95  C   UNL A   1      46.304  28.572  34.705  1.00  0.00     0.131 A 
ATOM     96  C   UNL A   1      46.220  26.262  36.227  1.00  0.00     0.055 A 
ATOM     97  C   UNL A   1      47.495  27.998  35.152  1.00  0.00     0.041 A 
ATOM     98  F   UNL A   1      46.387  29.701  33.983  1.00  0.00    -0.206 F 
ATOM     99  C   UNL A   1      47.457  26.838  35.921  1.00  0.00     0.022 A 
BRANCH  96 100
ATOM    100  S   UNL A   1      46.142  24.799  37.296  1.00  0.00     0.124 S 
ATOM    101  O   UNL A   1      47.027  23.870  36.601  1.00  0.00    -0.237 OA
ATOM    102  O   UNL A   1      46.629  25.312  38.572  1.00  0.00    -0.237 OA
ATOM    103  O   UNL A   1      44.725  24.436  37.276  1.00  0.00    -0.744 OA
ENDBRANCH  96 100
ENDBRANCH  70  93
ENDBRANCH  44  45
ENDBRANCH  36  39
ENDBRANCH  34  35
ENDBRANCH  33  34
ENDBRANCH   1  33
TORSDOF 19
ENDMDL
MODEL 3
REMARK VINA RESULT:     -12.1      1.793      2.143
REMARK SMILES O=C(CCC(=O)N1N=C(c2ccc(F)cc2)C[C@@H]1c1ccc2nccnc2c1)NCCCCNC(=O)c1ccc(-c2c3nc(c(-c4cc(S(=O)(=O)[O-])ccc4F)c4ccc([nH]4)c(-c4cc(S(=O)(=O)[O-])ccc4F)c4nc(c(-c5cc(S(=O)(=O)[O-])ccc5F)c5ccc2[nH]5)C=C4)C=C3)cc1
REMARK SMILES IDX 31 1 30 2 29 3 1 4 2 5 3 7 4 8 5 9 6 10 7 11 8 12 18 13 9 14
REMARK SMILES IDX 17 15 19 16 20 17 28 18 21 19 27 20 22 21 26 22 23 23 25 24
REMARK SMILES IDX 24 25 10 26 11 27 16 28 12 29 15 30 13 31 14 32 32 33 33 34
REMARK SMILES IDX 34 35 35 36 36 38 37 39 38 40 99 41 39 42 98 43 40 44 41 45
REMARK SMILES IDX 42 46 92 47 43 48 97 49 91 50 93 51 44 52 96 53 90 54 89 55
REMARK SMILES IDX 45 57 77 58 57 59 76 60 58 61 61 62 75 63 94 64 59 65 60 66
REMARK SMILES IDX 74 68 95 69 62 70 46 71 47 72 55 73 48 74 54 75 56 76 53 77
REMARK SMILES IDX 49 78 50 79 51 80 52 81 78 82 79 83 87 84 80 85 86 86 88 87
REMARK SMILES IDX 85 88 81 89 82 90 83 91 84 92 63 93 64 94 72 95 65 96 71 97
REMARK SMILES IDX 73 98 70 99 66 100 67 101 68 102 69 103
REMARK H PARENT 29 6 34 37 93 56 61 67
REMARK Flexibility Score: inf
ROOT
ATOM      1  C   UNL A   1      34.446  33.487  29.282  1.00  0.00     0.023 C 
ENDROOT
BRANCH   1   2
ATOM      2  C   UNL A   1      34.712  31.987  28.831  1.00  0.00     0.116 C 
BRANCH   2   3
ATOM      3  N   UNL A   1      34.166  31.347  27.617  1.00  0.00    -0.356 N 
ATOM      4  O   UNL A   1      35.502  29.475  27.737  1.00  0.00    -0.275 OA
ATOM      5  C   UNL A   1      34.550  30.041  27.239  1.00  0.00     0.220 C 
ATOM      6  H   UNL A   1      33.521  31.841  27.060  1.00  0.00     0.163 HD
BRANCH   5   7
ATOM      7  C   UNL A   1      33.584  29.303  26.253  1.00  0.00     0.110 C 
BRANCH   7   8
ATOM      8  C   UNL A   1      33.580  27.752  26.433  1.00  0.00     0.112 C 
BRANCH   8   9
ATOM      9  C   UNL A   1      32.328  26.808  26.464  1.00  0.00     0.243 C 
ATOM     10  O   UNL A   1      31.418  27.066  27.260  1.00  0.00    -0.273 OA
BRANCH   9  11
ATOM     11  N   UNL A   1      32.163  25.855  25.465  1.00  0.00    -0.225 N 
ATOM     12  N   UNL A   1      33.104  24.797  25.388  1.00  0.00    -0.174 NA
ATOM     13  C   UNL A   1      30.880  25.445  24.977  1.00  0.00     0.147 C 
ATOM     14  C   UNL A   1      32.435  23.725  25.063  1.00  0.00     0.071 C 
ATOM     15  C   UNL A   1      30.963  23.943  24.994  1.00  0.00     0.091 C 
BRANCH  13  16
ATOM     16  C   UNL A   1      30.083  26.349  24.043  1.00  0.00    -0.021 A 
ATOM     17  C   UNL A   1      28.692  26.342  24.190  1.00  0.00     0.008 A 
ATOM     18  C   UNL A   1      30.587  27.395  23.264  1.00  0.00     0.036 A 
ATOM     19  C   UNL A   1      27.836  27.307  23.673  1.00  0.00     0.031 A 
ATOM     20  C   UNL A   1      29.745  28.389  22.707  1.00  0.00     0.089 A 
ATOM     21  C   UNL A   1      28.345  28.339  22.940  1.00  0.00     0.089 A 
ATOM     22  N   UNL A   1      30.247  29.415  21.993  1.00  0.00    -0.253 NA
ATOM     23  N   UNL A   1      27.476  29.266  22.502  1.00  0.00    -0.253 NA
ATOM     24  C   UNL A   1      29.363  30.335  21.527  1.00  0.00     0.132 A 
ATOM     25  C   UNL A   1      28.009  30.266  21.780  1.00  0.00     0.132 A 
ENDBRANCH  13  16
BRANCH  14  26
ATOM     26  C   UNL A   1      32.934  22.320  24.974  1.00  0.00    -0.002 A 
ATOM     27  C   UNL A   1      34.313  22.052  25.054  1.00  0.00     0.013 A 
ATOM     28  C   UNL A   1      32.070  21.265  24.681  1.00  0.00     0.013 A 
ATOM     29  C   UNL A   1      34.824  20.762  24.910  1.00  0.00     0.040 A 
ATOM     30  C   UNL A   1      32.585  19.971  24.497  1.00  0.00     0.040 A 
ATOM     31  C   UNL A   1      33.952  19.728  24.627  1.00  0.00     0.123 A 
ATOM     32  F   UNL A   1      34.433  18.491  24.449  1.00  0.00    -0.207 F 
ENDBRANCH  14  26
ENDBRANCH   9  11
ENDBRANCH   8   9
ENDBRANCH   7   8
ENDBRANCH   5   7
ENDBRANCH   2   3
ENDBRANCH   1   2
BRANCH   1  33
ATOM     33  C   UNL A   1      33.312  34.565  29.071  1.00  0.00     0.023 C 
BRANCH  33  34
ATOM     34  C   UNL A   1      33.265  36.058  29.526  1.00  0.00     0.116 C 
BRANCH  34  35
ATOM     35  N   UNL A   1      32.535  36.285  30.760  1.00  0.00    -0.352 N 
ATOM     36  C   UNL A   1      32.662  35.713  32.013  1.00  0.00     0.251 C 
ATOM     37  H   UNL A   1      31.824  36.964  30.693  1.00  0.00     0.163 HD
ATOM     38  O   UNL A   1      31.711  35.851  32.783  1.00  0.00    -0.269 OA
BRANCH  36  39
ATOM     39  C   UNL A   1      33.866  34.976  32.505  1.00  0.00     0.039 A 
ATOM     40  C   UNL A   1      35.126  35.562  32.295  1.00  0.00     0.014 A 
ATOM     41  C   UNL A   1      33.821  33.658  32.970  1.00  0.00     0.014 A 
ATOM     42  C   UNL A   1      36.310  34.859  32.574  1.00  0.00     0.010 A 
ATOM     43  C   UNL A   1      35.007  32.946  33.232  1.00  0.00     0.010 A 
ATOM     44  C   UNL A   1      36.263  33.541  33.049  1.00  0.00    -0.014 A 
BRANCH  44  45
ATOM     45  C   UNL A   1      37.503  32.839  33.488  1.00  0.00     0.031 A 
ATOM     46  C   UNL A   1      38.207  33.176  34.777  1.00  0.00     0.074 A 
ATOM     47  C   UNL A   1      38.022  31.901  32.670  1.00  0.00     0.049 A 
ATOM     48  N   UNL A   1      39.296  32.651  35.281  1.00  0.00    -0.248 NA
ATOM     49  C   UNL A   1      37.621  34.244  35.598  1.00  0.00     0.031 C 
ATOM     50  C   UNL A   1      37.441  31.509  31.383  1.00  0.00     0.029 A 
ATOM     51  N   UNL A   1      39.141  31.116  32.782  1.00  0.00    -0.354 N 
ATOM     52  C   UNL A   1      39.524  33.313  36.485  1.00  0.00     0.074 A 
ATOM     53  C   UNL A   1      38.476  34.304  36.614  1.00  0.00     0.031 C 
ATOM     54  C   UNL A   1      38.202  30.552  30.831  1.00  0.00     0.029 A 
ATOM     55  C   UNL A   1      39.337  30.280  31.708  1.00  0.00     0.049 A 
ATOM     56  H   UNL A   1      39.746  31.149  33.557  1.00  0.00     0.167 HD
ATOM     57  C   UNL A   1      40.508  33.101  37.397  1.00  0.00     0.034 A 
ATOM     58  C   UNL A   1      40.319  29.394  31.448  1.00  0.00     0.034 A 
ATOM     59  C   UNL A   1      41.556  32.118  37.244  1.00  0.00     0.049 A 
ATOM     60  C   UNL A   1      41.415  29.200  32.458  1.00  0.00     0.074 A 
ATOM     61  C   UNL A   1      42.573  31.798  38.130  1.00  0.00     0.029 A 
ATOM     62  N   UNL A   1      41.734  31.305  36.133  1.00  0.00    -0.354 N 
ATOM     63  N   UNL A   1      41.589  29.808  33.607  1.00  0.00    -0.248 NA
ATOM     64  C   UNL A   1      42.441  28.196  32.144  1.00  0.00     0.031 C 
ATOM     65  C   UNL A   1      43.396  30.840  37.529  1.00  0.00     0.029 A 
ATOM     66  C   UNL A   1      42.856  30.509  36.297  1.00  0.00     0.049 A 
ATOM     67  H   UNL A   1      41.147  31.297  35.342  1.00  0.00     0.167 HD
ATOM     68  C   UNL A   1      42.733  29.247  34.164  1.00  0.00     0.074 A 
ATOM     69  C   UNL A   1      43.205  28.247  33.227  1.00  0.00     0.031 C 
ATOM     70  C   UNL A   1      43.330  29.530  35.348  1.00  0.00     0.034 A 
BRANCH  57  71
ATOM     71  C   UNL A   1      40.516  33.951  38.645  1.00  0.00     0.023 A 
ATOM     72  C   UNL A   1      41.274  35.132  38.722  1.00  0.00     0.031 A 
ATOM     73  C   UNL A   1      39.707  33.613  39.746  1.00  0.00     0.131 A 
ATOM     74  C   UNL A   1      41.235  35.915  39.887  1.00  0.00     0.055 A 
ATOM     75  C   UNL A   1      39.631  34.424  40.881  1.00  0.00     0.041 A 
ATOM     76  F   UNL A   1      38.966  32.495  39.731  1.00  0.00    -0.206 F 
ATOM     77  C   UNL A   1      40.403  35.581  40.958  1.00  0.00     0.022 A 
BRANCH  74  78
ATOM     78  S   UNL A   1      42.333  37.354  40.008  1.00  0.00     0.124 S 
ATOM     79  O   UNL A   1      41.433  38.443  39.638  1.00  0.00    -0.237 OA
ATOM     80  O   UNL A   1      42.750  37.320  41.406  1.00  0.00    -0.237 OA
ATOM     81  O   UNL A   1      43.386  37.066  39.038  1.00  0.00    -0.744 OA
ENDBRANCH  74  78
ENDBRANCH  57  71
BRANCH  58  82
ATOM     82  C   UNL A   1      40.295  28.620  30.176  1.00  0.00     0.023 A 
ATOM     83  C   UNL A   1      41.161  28.942  29.120  1.00  0.00     0.031 A 
ATOM     84  C   UNL A   1      39.427  27.526  30.014  1.00  0.00     0.131 A 
ATOM     85  C   UNL A   1      41.130  28.184  27.939  1.00  0.00     0.055 A 
ATOM     86  C   UNL A   1      39.425  26.755  28.851  1.00  0.00     0.041 A 
ATOM     87  F   UNL A   1      38.591  27.171  31.003  1.00  0.00    -0.206 F 
ATOM     88  C   UNL A   1      40.277  27.086  27.803  1.00  0.00     0.022 A 
BRANCH  85  89
ATOM     89  S   UNL A   1      42.214  28.666  26.567  1.00  0.00     0.124 S 
ATOM     90  O   UNL A   1      43.019  27.464  26.387  1.00  0.00    -0.237 OA
ATOM     91  O   UNL A   1      41.254  28.963  25.509  1.00  0.00    -0.237 OA
ATOM     92  O   UNL A   1      42.932  29.826  27.093  1.00  0.00    -0.744 OA
ENDBRANCH  85  89
ENDBRANCH  58  82
BRANCH  70  93
ATOM     93  C   UNL A   1      44.553  28.729  35.713  1.00  0.00     0.023 A 
ATOM     94  C   UNL A   1      44.451  27.451  36.285  1.00  0.00     0.031 A 
ATOM     95  C   UNL A   1      45.836  29.241  35.448  1.00  0.00     0.131 A 
ATOM     96  C   UNL A   1      45.615  26.735  36.600  1.00  0.00     0.055 A 
ATOM     97  C   UNL A   1      46.989  28.505  35.721  1.00  0.00     0.041 A 
ATOM     98  F   UNL A   1      45.986  30.458  34.903  1.00  0.00    -0.206 F 
ATOM     99  C   UNL A   1      46.883  27.245  36.305  1.00  0.00     0.022 A 
BRANCH  96 100
ATOM    100  S   UNL A   1      45.456  25.133  37.436  1.00  0.00     0.124 S 
ATOM    101  O   UNL A   1      44.093  25.196  37.952  1.00  0.00    -0.237 OA
ATOM    102  O   UNL A   1      45.685  24.185  36.350  1.00  0.00    -0.237 OA
ATOM    103  O   UNL A   1      46.506  25.171  38.453  1.00  0.00    -0.744 OA
ENDBRANCH  96 100
ENDBRANCH  70  93
ENDBRANCH  44  45
ENDBRANCH  36  39
ENDBRANCH  34  35
ENDBRANCH  33  34
ENDBRANCH   1  33
TORSDOF 19
ENDMDL
