MODEL 1
REMARK VINA RESULT:     -12.3      0.000      0.000
REMARK SMILES COc1ccccc1C(=O)N/C(=C/c1ccc2c(c1)OCO2)C(=O)Nc1ccc(C(=O)NCCCCNC(=O)c2ccc(-c3c4nc(c(-c5cc(S(=O)(=O)[O-])ccc5F)c5ccc([nH]5)c(-c5cc(S(=O)(=O)[O-])ccc5F)c5nc(c(-c6cc(S(=O)(=O)[O-])ccc6F)c6ccc3[nH]6)C=C5)C=C4)cc2)cc1
REMARK SMILES IDX 33 1 32 2 30 3 31 4 29 6 26 7 27 8 104 9 28 10 103 11 25 12
REMARK SMILES IDX 23 13 24 14 12 16 13 17 11 18 9 19 10 20 8 22 3 23 4 24 5 25
REMARK SMILES IDX 7 26 6 27 2 28 1 29 14 30 15 31 19 32 16 33 18 34 17 35
REMARK SMILES IDX 20 36 22 37 21 38 34 39 35 40 36 41 37 42 38 43 39 45 40 46
REMARK SMILES IDX 41 47 102 48 42 49 101 50 43 51 44 52 45 53 95 54 46 55
REMARK SMILES IDX 100 56 94 57 96 58 47 59 99 60 93 61 92 62 48 64 80 65 60 66
REMARK SMILES IDX 79 67 61 68 64 69 78 70 97 71 62 72 63 73 77 75 98 76 65 77
REMARK SMILES IDX 49 78 50 79 58 80 51 81 57 82 59 83 56 84 52 85 53 86 54 87
REMARK SMILES IDX 55 88 81 89 82 90 90 91 83 92 89 93 91 94 88 95 84 96 85 97
REMARK SMILES IDX 86 98 87 99 66 100 67 101 75 102 68 103 74 104 76 105 73 106
REMARK SMILES IDX 69 107 70 108 71 109 72 110
REMARK H PARENT 32 5 25 15 11 21 37 44 96 63 64 74
REMARK Flexibility Score: inf
ROOT
ATOM      1  C   UNL A   1      38.308  23.290  26.315  1.00  0.00     0.116 C 
ENDROOT
BRANCH   1   2
ATOM      2  N   UNL A   1      38.032  23.042  24.914  1.00  0.00    -0.352 N 
ATOM      3  C   UNL A   1      36.860  23.005  24.200  1.00  0.00     0.251 C 
ATOM      4  O   UNL A   1      36.919  22.644  23.025  1.00  0.00    -0.269 OA
ATOM      5  H   UNL A   1      38.836  22.869  24.373  1.00  0.00     0.163 HD
BRANCH   3   6
ATOM      6  C   UNL A   1      35.567  23.520  24.743  1.00  0.00     0.039 A 
ATOM      7  C   UNL A   1      33.579  25.113  25.939  1.00  0.00     0.041 A 
ATOM      8  C   UNL A   1      33.966  25.335  24.612  1.00  0.00     0.027 A 
ATOM      9  C   UNL A   1      34.023  23.958  26.572  1.00  0.00     0.027 A 
ATOM     10  C   UNL A   1      34.981  24.571  24.032  1.00  0.00     0.016 A 
ATOM     11  C   UNL A   1      34.974  23.131  25.946  1.00  0.00     0.016 A 
BRANCH   7  12
ATOM     12  N   UNL A   1      32.815  26.135  26.525  1.00  0.00    -0.321 N 
ATOM     13  C   UNL A   1      31.482  26.425  26.619  1.00  0.00     0.272 C 
ATOM     14  O   UNL A   1      31.174  27.385  27.338  1.00  0.00    -0.267 OA
ATOM     15  H   UNL A   1      33.376  26.805  26.978  1.00  0.00     0.170 HD
BRANCH  13  16
ATOM     16  C   UNL A   1      30.362  25.597  26.039  1.00  0.00     0.108 C 
ATOM     17  C   UNL A   1      29.733  25.960  24.897  1.00  0.00     0.040 C 
BRANCH  16  18
ATOM     18  N   UNL A   1      30.127  24.304  26.493  1.00  0.00    -0.317 N 
ATOM     19  C   UNL A   1      30.319  23.041  25.975  1.00  0.00     0.259 C 
ATOM     20  O   UNL A   1      29.815  22.089  26.578  1.00  0.00    -0.269 OA
ATOM     21  H   UNL A   1      29.730  24.287  27.394  1.00  0.00     0.170 HD
BRANCH  19  22
ATOM     22  C   UNL A   1      31.091  22.743  24.752  1.00  0.00     0.082 A 
ATOM     23  C   UNL A   1      31.980  21.673  24.616  1.00  0.00     0.131 A 
ATOM     24  C   UNL A   1      32.805  21.617  23.484  1.00  0.00     0.047 A 
ATOM     25  C   UNL A   1      32.648  22.528  22.437  1.00  0.00     0.004 A 
ATOM     26  C   UNL A   1      30.886  23.614  23.664  1.00  0.00     0.018 A 
ATOM     27  C   UNL A   1      31.655  23.499  22.507  1.00  0.00     0.001 A 
BRANCH  23  28
ATOM     28  O   UNL A   1      32.200  20.675  25.525  1.00  0.00    -0.496 OA
ATOM     29  C   UNL A   1      33.045  19.615  25.086  1.00  0.00     0.278 C 
ENDBRANCH  23  28
ENDBRANCH  19  22
ENDBRANCH  16  18
BRANCH  17  30
ATOM     30  C   UNL A   1      29.978  27.178  24.115  1.00  0.00    -0.019 A 
ATOM     31  C   UNL A   1      31.149  27.270  23.333  1.00  0.00     0.012 A 
ATOM     32  C   UNL A   1      29.007  28.186  24.050  1.00  0.00     0.058 A 
ATOM     33  C   UNL A   1      31.277  28.271  22.364  1.00  0.00     0.051 A 
ATOM     34  C   UNL A   1      29.122  29.102  23.034  1.00  0.00     0.166 A 
ATOM     35  C   UNL A   1      30.213  29.129  22.198  1.00  0.00     0.165 A 
ATOM     36  O   UNL A   1      28.150  29.974  22.649  1.00  0.00    -0.454 OA
ATOM     37  O   UNL A   1      30.048  30.014  21.177  1.00  0.00    -0.454 OA
ATOM     38  C   UNL A   1      28.653  30.336  21.347  1.00  0.00     0.468 C 
ENDBRANCH  17  30
ENDBRANCH  13  16
ENDBRANCH   7  12
ENDBRANCH   3   6
ENDBRANCH   1   2
BRANCH   1  39
ATOM     39  C   UNL A   1      39.574  22.539  26.722  1.00  0.00     0.023 C 
BRANCH  39  40
ATOM     40  C   UNL A   1      39.705  21.187  26.016  1.00  0.00     0.023 C 
BRANCH  40  41
ATOM     41  C   UNL A   1      40.353  20.102  26.868  1.00  0.00     0.116 C 
BRANCH  41  42
ATOM     42  N   UNL A   1      41.376  19.366  26.142  1.00  0.00    -0.352 N 
ATOM     43  C   UNL A   1      42.560  19.813  25.617  1.00  0.00     0.251 C 
ATOM     44  H   UNL A   1      41.191  18.409  26.009  1.00  0.00     0.163 HD
ATOM     45  O   UNL A   1      43.202  19.075  24.868  1.00  0.00    -0.269 OA
BRANCH  43  46
ATOM     46  C   UNL A   1      43.043  21.175  25.925  1.00  0.00     0.039 A 
ATOM     47  C   UNL A   1      43.110  22.113  24.893  1.00  0.00     0.014 A 
ATOM     48  C   UNL A   1      43.428  21.530  27.222  1.00  0.00     0.014 A 
ATOM     49  C   UNL A   1      43.517  23.417  25.174  1.00  0.00     0.010 A 
ATOM     50  C   UNL A   1      43.742  22.854  27.516  1.00  0.00     0.010 A 
ATOM     51  C   UNL A   1      43.804  23.811  26.493  1.00  0.00    -0.014 A 
BRANCH  51  52
ATOM     52  C   UNL A   1      44.183  25.215  26.798  1.00  0.00     0.031 A 
ATOM     53  C   UNL A   1      43.173  26.170  27.374  1.00  0.00     0.074 A 
ATOM     54  C   UNL A   1      45.439  25.632  26.541  1.00  0.00     0.049 A 
ATOM     55  N   UNL A   1      43.326  27.420  27.733  1.00  0.00    -0.248 NA
ATOM     56  C   UNL A   1      41.803  25.664  27.543  1.00  0.00     0.031 C 
ATOM     57  C   UNL A   1      46.492  24.813  25.936  1.00  0.00     0.029 A 
ATOM     58  N   UNL A   1      46.050  26.840  26.768  1.00  0.00    -0.354 N 
ATOM     59  C   UNL A   1      42.077  27.847  28.170  1.00  0.00     0.074 A 
ATOM     60  C   UNL A   1      41.161  26.748  27.951  1.00  0.00     0.031 C 
ATOM     61  C   UNL A   1      47.630  25.523  25.891  1.00  0.00     0.029 A 
ATOM     62  C   UNL A   1      47.381  26.861  26.417  1.00  0.00     0.049 A 
ATOM     63  H   UNL A   1      45.581  27.618  27.146  1.00  0.00     0.167 HD
ATOM     64  C   UNL A   1      41.731  29.032  28.733  1.00  0.00     0.034 A 
ATOM     65  C   UNL A   1      48.297  27.843  26.513  1.00  0.00     0.034 A 
ATOM     66  C   UNL A   1      42.659  30.119  28.940  1.00  0.00     0.049 A 
ATOM     67  C   UNL A   1      47.883  29.164  27.113  1.00  0.00     0.074 A 
ATOM     68  C   UNL A   1      42.427  31.349  29.530  1.00  0.00     0.029 A 
ATOM     69  N   UNL A   1      43.994  30.111  28.552  1.00  0.00    -0.354 N 
ATOM     70  N   UNL A   1      46.710  29.533  27.573  1.00  0.00    -0.248 NA
ATOM     71  C   UNL A   1      48.925  30.192  27.223  1.00  0.00     0.031 C 
ATOM     72  C   UNL A   1      43.596  32.112  29.427  1.00  0.00     0.029 A 
ATOM     73  C   UNL A   1      44.587  31.326  28.863  1.00  0.00     0.049 A 
ATOM     74  H   UNL A   1      44.452  29.354  28.121  1.00  0.00     0.167 HD
ATOM     75  C   UNL A   1      46.886  30.825  28.065  1.00  0.00     0.074 A 
ATOM     76  C   UNL A   1      48.280  31.158  27.859  1.00  0.00     0.031 C 
ATOM     77  C   UNL A   1      45.978  31.655  28.643  1.00  0.00     0.034 A 
BRANCH  64  78
ATOM     78  C   UNL A   1      40.284  29.213  29.136  1.00  0.00     0.023 A 
ATOM     79  C   UNL A   1      39.882  29.168  30.483  1.00  0.00     0.031 A 
ATOM     80  C   UNL A   1      39.287  29.397  28.161  1.00  0.00     0.131 A 
ATOM     81  C   UNL A   1      38.519  29.215  30.812  1.00  0.00     0.055 A 
ATOM     82  C   UNL A   1      37.939  29.540  28.502  1.00  0.00     0.041 A 
ATOM     83  F   UNL A   1      39.601  29.425  26.857  1.00  0.00    -0.206 F 
ATOM     84  C   UNL A   1      37.546  29.431  29.833  1.00  0.00     0.022 A 
BRANCH  81  85
ATOM     85  S   UNL A   1      38.024  28.821  32.512  1.00  0.00     0.124 S 
ATOM     86  O   UNL A   1      39.010  29.573  33.287  1.00  0.00    -0.237 OA
ATOM     87  O   UNL A   1      36.655  29.317  32.566  1.00  0.00    -0.237 OA
ATOM     88  O   UNL A   1      38.166  27.368  32.581  1.00  0.00    -0.744 OA
ENDBRANCH  81  85
ENDBRANCH  64  78
BRANCH  65  89
ATOM     89  C   UNL A   1      49.697  27.622  26.044  1.00  0.00     0.023 A 
ATOM     90  C   UNL A   1      50.046  27.790  24.695  1.00  0.00     0.031 A 
ATOM     91  C   UNL A   1      50.699  27.197  26.935  1.00  0.00     0.131 A 
ATOM     92  C   UNL A   1      51.347  27.487  24.265  1.00  0.00     0.055 A 
ATOM     93  C   UNL A   1      52.008  26.957  26.513  1.00  0.00     0.041 A 
ATOM     94  F   UNL A   1      50.422  27.024  28.237  1.00  0.00    -0.206 F 
ATOM     95  C   UNL A   1      52.334  27.088  25.168  1.00  0.00     0.022 A 
BRANCH  92  96
ATOM     96  S   UNL A   1      51.708  27.533  22.488  1.00  0.00     0.124 S 
ATOM     97  O   UNL A   1      52.134  28.917  22.308  1.00  0.00    -0.237 OA
ATOM     98  O   UNL A   1      52.749  26.518  22.363  1.00  0.00    -0.237 OA
ATOM     99  O   UNL A   1      50.428  27.188  21.872  1.00  0.00    -0.744 OA
ENDBRANCH  92  96
ENDBRANCH  65  89
BRANCH  77 100
ATOM    100  C   UNL A   1      46.489  32.986  29.145  1.00  0.00     0.023 A 
ATOM    101  C   UNL A   1      46.470  34.143  28.345  1.00  0.00     0.031 A 
ATOM    102  C   UNL A   1      47.034  33.088  30.438  1.00  0.00     0.131 A 
ATOM    103  C   UNL A   1      47.058  35.328  28.816  1.00  0.00     0.055 A 
ATOM    104  C   UNL A   1      47.546  34.290  30.929  1.00  0.00     0.041 A 
ATOM    105  F   UNL A   1      47.084  32.018  31.247  1.00  0.00    -0.206 F 
ATOM    106  C   UNL A   1      47.578  35.414  30.109  1.00  0.00     0.022 A 
BRANCH 103 107
ATOM    107  S   UNL A   1      47.256  36.716  27.663  1.00  0.00     0.124 S 
ATOM    108  O   UNL A   1      46.008  37.447  27.854  1.00  0.00    -0.237 OA
ATOM    109  O   UNL A   1      48.460  37.367  28.165  1.00  0.00    -0.237 OA
ATOM    110  O   UNL A   1      47.400  36.063  26.363  1.00  0.00    -0.744 OA
ENDBRANCH 103 107
ENDBRANCH  77 100
ENDBRANCH  51  52
ENDBRANCH  43  46
ENDBRANCH  41  42
ENDBRANCH  40  41
ENDBRANCH  39  40
ENDBRANCH   1  39
TORSDOF 20
ENDMDL
MODEL 2
REMARK VINA RESULT:     -12.3      1.671      7.188
REMARK SMILES COc1ccccc1C(=O)N/C(=C/c1ccc2c(c1)OCO2)C(=O)Nc1ccc(C(=O)NCCCCNC(=O)c2ccc(-c3c4nc(c(-c5cc(S(=O)(=O)[O-])ccc5F)c5ccc([nH]5)c(-c5cc(S(=O)(=O)[O-])ccc5F)c5nc(c(-c6cc(S(=O)(=O)[O-])ccc6F)c6ccc3[nH]6)C=C5)C=C4)cc2)cc1
REMARK SMILES IDX 33 1 32 2 30 3 31 4 29 6 26 7 27 8 104 9 28 10 103 11 25 12
REMARK SMILES IDX 23 13 24 14 12 16 13 17 11 18 9 19 10 20 8 22 3 23 4 24 5 25
REMARK SMILES IDX 7 26 6 27 2 28 1 29 14 30 15 31 19 32 16 33 18 34 17 35
REMARK SMILES IDX 20 36 22 37 21 38 34 39 35 40 36 41 37 42 38 43 39 45 40 46
REMARK SMILES IDX 41 47 102 48 42 49 101 50 43 51 44 52 45 53 95 54 46 55
REMARK SMILES IDX 100 56 94 57 96 58 47 59 99 60 93 61 92 62 48 64 80 65 60 66
REMARK SMILES IDX 79 67 61 68 64 69 78 70 97 71 62 72 63 73 77 75 98 76 65 77
REMARK SMILES IDX 49 78 50 79 58 80 51 81 57 82 59 83 56 84 52 85 53 86 54 87
REMARK SMILES IDX 55 88 81 89 82 90 90 91 83 92 89 93 91 94 88 95 84 96 85 97
REMARK SMILES IDX 86 98 87 99 66 100 67 101 75 102 68 103 74 104 76 105 73 106
REMARK SMILES IDX 69 107 70 108 71 109 72 110
REMARK H PARENT 32 5 25 15 11 21 37 44 96 63 64 74
REMARK Flexibility Score: inf
ROOT
ATOM      1  C   UNL A   1      38.035  22.943  26.139  1.00  0.00     0.116 C 
ENDROOT
BRANCH   1   2
ATOM      2  N   UNL A   1      37.832  22.958  24.704  1.00  0.00    -0.352 N 
ATOM      3  C   UNL A   1      36.707  23.129  23.936  1.00  0.00     0.251 C 
ATOM      4  O   UNL A   1      36.816  22.970  22.720  1.00  0.00    -0.269 OA
ATOM      5  H   UNL A   1      38.655  22.822  24.182  1.00  0.00     0.163 HD
BRANCH   3   6
ATOM      6  C   UNL A   1      35.418  23.638  24.493  1.00  0.00     0.039 A 
ATOM      7  C   UNL A   1      33.446  25.202  25.753  1.00  0.00     0.041 A 
ATOM      8  C   UNL A   1      33.848  25.484  24.441  1.00  0.00     0.027 A 
ATOM      9  C   UNL A   1      33.866  24.011  26.330  1.00  0.00     0.027 A 
ATOM     10  C   UNL A   1      34.855  24.734  23.831  1.00  0.00     0.016 A 
ATOM     11  C   UNL A   1      34.808  23.200  25.671  1.00  0.00     0.016 A 
BRANCH   7  12
ATOM     12  N   UNL A   1      32.694  26.206  26.382  1.00  0.00    -0.321 N 
ATOM     13  C   UNL A   1      31.361  26.471  26.545  1.00  0.00     0.272 C 
ATOM     14  O   UNL A   1      31.072  27.421  27.285  1.00  0.00    -0.267 OA
ATOM     15  H   UNL A   1      33.264  26.885  26.811  1.00  0.00     0.170 HD
BRANCH  13  16
ATOM     16  C   UNL A   1      30.229  25.625  26.017  1.00  0.00     0.108 C 
ATOM     17  C   UNL A   1      29.545  25.977  24.904  1.00  0.00     0.040 C 
BRANCH  16  18
ATOM     18  N   UNL A   1      30.034  24.330  26.483  1.00  0.00    -0.317 N 
ATOM     19  C   UNL A   1      30.242  23.069  25.967  1.00  0.00     0.259 C 
ATOM     20  O   UNL A   1      29.772  22.110  26.587  1.00  0.00    -0.269 OA
ATOM     21  H   UNL A   1      29.658  24.310  27.393  1.00  0.00     0.170 HD
BRANCH  19  22
ATOM     22  C   UNL A   1      30.990  22.782  24.728  1.00  0.00     0.082 A 
ATOM     23  C   UNL A   1      31.812  21.666  24.538  1.00  0.00     0.131 A 
ATOM     24  C   UNL A   1      32.628  21.611  23.401  1.00  0.00     0.047 A 
ATOM     25  C   UNL A   1      32.527  22.578  22.397  1.00  0.00     0.004 A 
ATOM     26  C   UNL A   1      30.838  23.713  23.683  1.00  0.00     0.018 A 
ATOM     27  C   UNL A   1      31.597  23.605  22.518  1.00  0.00     0.001 A 
BRANCH  23  28
ATOM     28  O   UNL A   1      31.970  20.614  25.399  1.00  0.00    -0.496 OA
ATOM     29  C   UNL A   1      33.150  19.837  25.213  1.00  0.00     0.278 C 
ENDBRANCH  23  28
ENDBRANCH  19  22
ENDBRANCH  16  18
BRANCH  17  30
ATOM     30  C   UNL A   1      29.737  27.197  24.110  1.00  0.00    -0.019 A 
ATOM     31  C   UNL A   1      30.931  27.359  23.373  1.00  0.00     0.012 A 
ATOM     32  C   UNL A   1      28.703  28.134  23.987  1.00  0.00     0.058 A 
ATOM     33  C   UNL A   1      31.029  28.350  22.392  1.00  0.00     0.051 A 
ATOM     34  C   UNL A   1      28.796  29.039  22.959  1.00  0.00     0.166 A 
ATOM     35  C   UNL A   1      29.917  29.129  22.167  1.00  0.00     0.165 A 
ATOM     36  O   UNL A   1      27.783  29.835  22.520  1.00  0.00    -0.454 OA
ATOM     37  O   UNL A   1      29.733  29.984  21.125  1.00  0.00    -0.454 OA
ATOM     38  C   UNL A   1      28.313  30.211  21.232  1.00  0.00     0.468 C 
ENDBRANCH  17  30
ENDBRANCH  13  16
ENDBRANCH   7  12
ENDBRANCH   3   6
ENDBRANCH   1   2
BRANCH   1  39
ATOM     39  C   UNL A   1      39.412  22.362  26.449  1.00  0.00     0.023 C 
BRANCH  39  40
ATOM     40  C   UNL A   1      39.602  20.961  25.862  1.00  0.00     0.023 C 
BRANCH  40  41
ATOM     41  C   UNL A   1      40.465  20.042  26.719  1.00  0.00     0.116 C 
BRANCH  41  42
ATOM     42  N   UNL A   1      41.701  19.663  26.051  1.00  0.00    -0.352 N 
ATOM     43  C   UNL A   1      42.779  20.439  25.712  1.00  0.00     0.251 C 
ATOM     44  H   UNL A   1      41.772  18.713  25.806  1.00  0.00     0.163 HD
ATOM     45  O   UNL A   1      43.649  19.970  24.977  1.00  0.00    -0.269 OA
BRANCH  43  46
ATOM     46  C   UNL A   1      42.877  21.829  26.204  1.00  0.00     0.039 A 
ATOM     47  C   UNL A   1      43.098  22.045  27.565  1.00  0.00     0.014 A 
ATOM     48  C   UNL A   1      42.754  22.915  25.332  1.00  0.00     0.014 A 
ATOM     49  C   UNL A   1      43.242  23.349  28.040  1.00  0.00     0.010 A 
ATOM     50  C   UNL A   1      42.993  24.207  25.791  1.00  0.00     0.010 A 
ATOM     51  C   UNL A   1      43.226  24.441  27.154  1.00  0.00    -0.014 A 
BRANCH  51  52
ATOM     52  C   UNL A   1      43.436  25.825  27.655  1.00  0.00     0.031 A 
ATOM     53  C   UNL A   1      44.793  26.468  27.571  1.00  0.00     0.074 A 
ATOM     54  C   UNL A   1      42.400  26.496  28.199  1.00  0.00     0.049 A 
ATOM     55  N   UNL A   1      45.161  27.674  27.927  1.00  0.00    -0.248 NA
ATOM     56  C   UNL A   1      45.889  25.640  27.047  1.00  0.00     0.031 C 
ATOM     57  C   UNL A   1      41.050  25.958  28.382  1.00  0.00     0.029 A 
ATOM     58  N   UNL A   1      42.314  27.777  28.685  1.00  0.00    -0.354 N 
ATOM     59  C   UNL A   1      46.525  27.748  27.667  1.00  0.00     0.074 A 
ATOM     60  C   UNL A   1      46.933  26.439  27.205  1.00  0.00     0.031 C 
ATOM     61  C   UNL A   1      40.260  26.918  28.886  1.00  0.00     0.029 A 
ATOM     62  C   UNL A   1      41.053  28.122  29.110  1.00  0.00     0.049 A 
ATOM     63  H   UNL A   1      43.083  28.389  28.725  1.00  0.00     0.167 HD
ATOM     64  C   UNL A   1      47.355  28.816  27.772  1.00  0.00     0.034 A 
ATOM     65  C   UNL A   1      40.585  29.279  29.617  1.00  0.00     0.034 A 
ATOM     66  C   UNL A   1      46.930  30.114  28.240  1.00  0.00     0.049 A 
ATOM     67  C   UNL A   1      41.532  30.446  29.755  1.00  0.00     0.074 A 
ATOM     68  C   UNL A   1      47.675  31.276  28.355  1.00  0.00     0.029 A 
ATOM     69  N   UNL A   1      45.649  30.421  28.682  1.00  0.00    -0.354 N 
ATOM     70  N   UNL A   1      42.808  30.516  29.452  1.00  0.00    -0.248 NA
ATOM     71  C   UNL A   1      40.968  31.693  30.284  1.00  0.00     0.031 C 
ATOM     72  C   UNL A   1      46.868  32.259  28.939  1.00  0.00     0.029 A 
ATOM     73  C   UNL A   1      45.592  31.744  29.099  1.00  0.00     0.049 A 
ATOM     74  H   UNL A   1      44.891  29.793  28.697  1.00  0.00     0.167 HD
ATOM     75  C   UNL A   1      43.188  31.830  29.717  1.00  0.00     0.074 A 
ATOM     76  C   UNL A   1      42.001  32.514  30.187  1.00  0.00     0.031 C 
ATOM     77  C   UNL A   1      44.405  32.418  29.577  1.00  0.00     0.034 A 
BRANCH  64  78
ATOM     78  C   UNL A   1      48.806  28.608  27.397  1.00  0.00     0.023 A 
ATOM     79  C   UNL A   1      49.239  28.671  26.061  1.00  0.00     0.031 A 
ATOM     80  C   UNL A   1      49.763  28.307  28.382  1.00  0.00     0.131 A 
ATOM     81  C   UNL A   1      50.566  28.351  25.736  1.00  0.00     0.055 A 
ATOM     82  C   UNL A   1      51.105  28.082  28.062  1.00  0.00     0.041 A 
ATOM     83  F   UNL A   1      49.411  28.207  29.673  1.00  0.00    -0.206 F 
ATOM     84  C   UNL A   1      51.510  28.086  26.730  1.00  0.00     0.022 A 
BRANCH  81  85
ATOM     85  S   UNL A   1      50.998  28.119  23.989  1.00  0.00     0.124 S 
ATOM     86  O   UNL A   1      49.685  27.883  23.391  1.00  0.00    -0.237 OA
ATOM     87  O   UNL A   1      51.637  29.385  23.651  1.00  0.00    -0.237 OA
ATOM     88  O   UNL A   1      51.883  26.956  24.007  1.00  0.00    -0.744 OA
ENDBRANCH  81  85
ENDBRANCH  64  78
BRANCH  65  89
ATOM     89  C   UNL A   1      39.154  29.405  30.023  1.00  0.00     0.023 A 
ATOM     90  C   UNL A   1      38.205  29.986  29.167  1.00  0.00     0.031 A 
ATOM     91  C   UNL A   1      38.722  28.980  31.292  1.00  0.00     0.131 A 
ATOM     92  C   UNL A   1      36.886  30.174  29.608  1.00  0.00     0.055 A 
ATOM     93  C   UNL A   1      37.395  29.113  31.703  1.00  0.00     0.041 A 
ATOM     94  F   UNL A   1      39.586  28.414  32.149  1.00  0.00    -0.206 F 
ATOM     95  C   UNL A   1      36.471  29.726  30.864  1.00  0.00     0.022 A 
BRANCH  92  96
ATOM     96  S   UNL A   1      35.739  31.098  28.549  1.00  0.00     0.124 S 
ATOM     97  O   UNL A   1      34.922  31.795  29.537  1.00  0.00    -0.237 OA
ATOM     98  O   UNL A   1      36.649  31.928  27.768  1.00  0.00    -0.237 OA
ATOM     99  O   UNL A   1      35.052  30.050  27.797  1.00  0.00    -0.744 OA
ENDBRANCH  92  96
ENDBRANCH  65  89
BRANCH  77 100
ATOM    100  C   UNL A   1      44.493  33.895  29.884  1.00  0.00     0.023 A 
ATOM    101  C   UNL A   1      44.271  34.876  28.901  1.00  0.00     0.031 A 
ATOM    102  C   UNL A   1      44.837  34.326  31.178  1.00  0.00     0.131 A 
ATOM    103  C   UNL A   1      44.474  36.230  29.206  1.00  0.00     0.055 A 
ATOM    104  C   UNL A   1      44.960  35.680  31.495  1.00  0.00     0.041 A 
ATOM    105  F   UNL A   1      45.065  33.437  32.158  1.00  0.00    -0.206 F 
ATOM    106  C   UNL A   1      44.798  36.640  30.502  1.00  0.00     0.022 A 
BRANCH 103 107
ATOM    107  S   UNL A   1      44.443  37.440  27.854  1.00  0.00     0.124 S 
ATOM    108  O   UNL A   1      44.256  38.695  28.575  1.00  0.00    -0.237 OA
ATOM    109  O   UNL A   1      45.749  37.249  27.234  1.00  0.00    -0.237 OA
ATOM    110  O   UNL A   1      43.302  37.017  27.042  1.00  0.00    -0.744 OA
ENDBRANCH 103 107
ENDBRANCH  77 100
ENDBRANCH  51  52
ENDBRANCH  43  46
ENDBRANCH  41  42
ENDBRANCH  40  41
ENDBRANCH  39  40
ENDBRANCH   1  39
TORSDOF 20
ENDMDL
MODEL 3
REMARK VINA RESULT:     -12.3      1.461      7.094
REMARK SMILES COc1ccccc1C(=O)N/C(=C/c1ccc2c(c1)OCO2)C(=O)Nc1ccc(C(=O)NCCCCNC(=O)c2ccc(-c3c4nc(c(-c5cc(S(=O)(=O)[O-])ccc5F)c5ccc([nH]5)c(-c5cc(S(=O)(=O)[O-])ccc5F)c5nc(c(-c6cc(S(=O)(=O)[O-])ccc6F)c6ccc3[nH]6)C=C5)C=C4)cc2)cc1
REMARK SMILES IDX 33 1 32 2 30 3 31 4 29 6 26 7 27 8 104 9 28 10 103 11 25 12
REMARK SMILES IDX 23 13 24 14 12 16 13 17 11 18 9 19 10 20 8 22 3 23 4 24 5 25
REMARK SMILES IDX 7 26 6 27 2 28 1 29 14 30 15 31 19 32 16 33 18 34 17 35
REMARK SMILES IDX 20 36 22 37 21 38 34 39 35 40 36 41 37 42 38 43 39 45 40 46
REMARK SMILES IDX 41 47 102 48 42 49 101 50 43 51 44 52 45 53 95 54 46 55
REMARK SMILES IDX 100 56 94 57 96 58 47 59 99 60 93 61 92 62 48 64 80 65 60 66
REMARK SMILES IDX 79 67 61 68 64 69 78 70 97 71 62 72 63 73 77 75 98 76 65 77
REMARK SMILES IDX 49 78 50 79 58 80 51 81 57 82 59 83 56 84 52 85 53 86 54 87
REMARK SMILES IDX 55 88 81 89 82 90 90 91 83 92 89 93 91 94 88 95 84 96 85 97
REMARK SMILES IDX 86 98 87 99 66 100 67 101 75 102 68 103 74 104 76 105 73 106
REMARK SMILES IDX 69 107 70 108 71 109 72 110
REMARK H PARENT 32 5 25 15 11 21 37 44 96 63 64 74
REMARK Flexibility Score: inf
ROOT
ATOM      1  C   UNL A   1      38.132  23.354  26.139  1.00  0.00     0.116 C 
ENDROOT
BRANCH   1   2
ATOM      2  N   UNL A   1      37.879  23.199  24.720  1.00  0.00    -0.352 N 
ATOM      3  C   UNL A   1      36.720  23.218  23.985  1.00  0.00     0.251 C 
ATOM      4  O   UNL A   1      36.796  22.932  22.790  1.00  0.00    -0.269 OA
ATOM      5  H   UNL A   1      38.691  23.053  24.183  1.00  0.00     0.163 HD
BRANCH   3   6
ATOM      6  C   UNL A   1      35.422  23.710  24.536  1.00  0.00     0.039 A 
ATOM      7  C   UNL A   1      33.425  25.245  25.792  1.00  0.00     0.041 A 
ATOM      8  C   UNL A   1      33.834  25.541  24.486  1.00  0.00     0.027 A 
ATOM      9  C   UNL A   1      33.852  24.053  26.364  1.00  0.00     0.027 A 
ATOM     10  C   UNL A   1      34.853  24.805  23.878  1.00  0.00     0.016 A 
ATOM     11  C   UNL A   1      34.807  23.257  25.706  1.00  0.00     0.016 A 
BRANCH   7  12
ATOM     12  N   UNL A   1      32.658  26.237  26.423  1.00  0.00    -0.321 N 
ATOM     13  C   UNL A   1      31.322  26.486  26.580  1.00  0.00     0.272 C 
ATOM     14  O   UNL A   1      31.018  27.428  27.324  1.00  0.00    -0.267 OA
ATOM     15  H   UNL A   1      33.218  26.919  26.860  1.00  0.00     0.170 HD
BRANCH  13  16
ATOM     16  C   UNL A   1      30.202  25.631  26.040  1.00  0.00     0.108 C 
ATOM     17  C   UNL A   1      29.525  25.978  24.921  1.00  0.00     0.040 C 
BRANCH  16  18
ATOM     18  N   UNL A   1      30.014  24.334  26.502  1.00  0.00    -0.317 N 
ATOM     19  C   UNL A   1      30.232  23.075  25.984  1.00  0.00     0.259 C 
ATOM     20  O   UNL A   1      29.767  22.111  26.600  1.00  0.00    -0.269 OA
ATOM     21  H   UNL A   1      29.635  24.308  27.411  1.00  0.00     0.170 HD
BRANCH  19  22
ATOM     22  C   UNL A   1      30.987  22.796  24.747  1.00  0.00     0.082 A 
ATOM     23  C   UNL A   1      31.804  21.678  24.552  1.00  0.00     0.131 A 
ATOM     24  C   UNL A   1      32.628  21.630  23.419  1.00  0.00     0.047 A 
ATOM     25  C   UNL A   1      32.537  22.607  22.424  1.00  0.00     0.004 A 
ATOM     26  C   UNL A   1      30.846  23.737  23.710  1.00  0.00     0.018 A 
ATOM     27  C   UNL A   1      31.611  23.636  22.549  1.00  0.00     0.001 A 
BRANCH  23  28
ATOM     28  O   UNL A   1      31.952  20.617  25.404  1.00  0.00    -0.496 OA
ATOM     29  C   UNL A   1      33.108  19.811  25.191  1.00  0.00     0.278 C 
ENDBRANCH  23  28
ENDBRANCH  19  22
ENDBRANCH  16  18
BRANCH  17  30
ATOM     30  C   UNL A   1      29.715  27.202  24.131  1.00  0.00    -0.019 A 
ATOM     31  C   UNL A   1      30.914  27.376  23.408  1.00  0.00     0.012 A 
ATOM     32  C   UNL A   1      28.672  28.128  23.996  1.00  0.00     0.058 A 
ATOM     33  C   UNL A   1      31.014  28.370  22.429  1.00  0.00     0.051 A 
ATOM     34  C   UNL A   1      28.768  29.035  22.971  1.00  0.00     0.166 A 
ATOM     35  C   UNL A   1      29.897  29.137  22.192  1.00  0.00     0.165 A 
ATOM     36  O   UNL A   1      27.752  29.821  22.521  1.00  0.00    -0.454 OA
ATOM     37  O   UNL A   1      29.716  29.992  21.149  1.00  0.00    -0.454 OA
ATOM     38  C   UNL A   1      28.293  30.204  21.240  1.00  0.00     0.468 C 
ENDBRANCH  17  30
ENDBRANCH  13  16
ENDBRANCH   7  12
ENDBRANCH   3   6
ENDBRANCH   1   2
BRANCH   1  39
ATOM     39  C   UNL A   1      39.404  22.597  26.512  1.00  0.00     0.023 C 
BRANCH  39  40
ATOM     40  C   UNL A   1      39.482  21.220  25.848  1.00  0.00     0.023 C 
BRANCH  40  41
ATOM     41  C   UNL A   1      40.042  20.127  26.752  1.00  0.00     0.116 C 
BRANCH  41  42
ATOM     42  N   UNL A   1      41.127  19.391  26.122  1.00  0.00    -0.352 N 
ATOM     43  C   UNL A   1      42.374  19.826  25.755  1.00  0.00     0.251 C 
ATOM     44  H   UNL A   1      40.938  18.445  25.930  1.00  0.00     0.163 HD
ATOM     45  O   UNL A   1      43.083  19.099  25.059  1.00  0.00    -0.269 OA
BRANCH  43  46
ATOM     46  C   UNL A   1      42.847  21.163  26.171  1.00  0.00     0.039 A 
ATOM     47  C   UNL A   1      43.054  22.136  25.192  1.00  0.00     0.014 A 
ATOM     48  C   UNL A   1      43.085  21.460  27.516  1.00  0.00     0.014 A 
ATOM     49  C   UNL A   1      43.453  23.418  25.569  1.00  0.00     0.010 A 
ATOM     50  C   UNL A   1      43.390  22.764  27.897  1.00  0.00     0.010 A 
ATOM     51  C   UNL A   1      43.593  23.755  26.927  1.00  0.00    -0.014 A 
BRANCH  51  52
ATOM     52  C   UNL A   1      43.964  25.137  27.328  1.00  0.00     0.031 A 
ATOM     53  C   UNL A   1      45.380  25.622  27.174  1.00  0.00     0.074 A 
ATOM     54  C   UNL A   1      43.022  25.952  27.846  1.00  0.00     0.049 A 
ATOM     55  N   UNL A   1      45.885  26.801  27.438  1.00  0.00    -0.248 NA
ATOM     56  C   UNL A   1      46.366  24.647  26.685  1.00  0.00     0.031 C 
ATOM     57  C   UNL A   1      41.627  25.578  28.091  1.00  0.00     0.029 A 
ATOM     58  N   UNL A   1      43.087  27.263  28.245  1.00  0.00    -0.354 N 
ATOM     59  C   UNL A   1      47.241  26.709  27.147  1.00  0.00     0.074 A 
ATOM     60  C   UNL A   1      47.493  25.336  26.767  1.00  0.00     0.031 C 
ATOM     61  C   UNL A   1      40.959  26.649  28.545  1.00  0.00     0.029 A 
ATOM     62  C   UNL A   1      41.882  27.772  28.670  1.00  0.00     0.049 A 
ATOM     63  H   UNL A   1      43.918  27.790  28.228  1.00  0.00     0.167 HD
ATOM     64  C   UNL A   1      48.184  27.685  27.163  1.00  0.00     0.034 A 
ATOM     65  C   UNL A   1      41.555  29.004  29.106  1.00  0.00     0.034 A 
ATOM     66  C   UNL A   1      47.914  29.050  27.549  1.00  0.00     0.049 A 
ATOM     67  C   UNL A   1      42.625  30.066  29.145  1.00  0.00     0.074 A 
ATOM     68  C   UNL A   1      48.781  30.128  27.569  1.00  0.00     0.029 A 
ATOM     69  N   UNL A   1      46.685  29.523  27.994  1.00  0.00    -0.354 N 
ATOM     70  N   UNL A   1      43.893  29.977  28.813  1.00  0.00    -0.248 NA
ATOM     71  C   UNL A   1      42.213  31.400  29.599  1.00  0.00     0.031 C 
ATOM     72  C   UNL A   1      48.101  31.229  28.101  1.00  0.00     0.029 A 
ATOM     73  C   UNL A   1      46.782  30.868  28.321  1.00  0.00     0.049 A 
ATOM     74  H   UNL A   1      45.865  28.984  28.067  1.00  0.00     0.167 HD
ATOM     75  C   UNL A   1      44.419  31.256  28.980  1.00  0.00     0.074 A 
ATOM     76  C   UNL A   1      43.326  32.095  29.426  1.00  0.00     0.031 C 
ATOM     77  C   UNL A   1      45.688  31.697  28.776  1.00  0.00     0.034 A 
BRANCH  64  78
ATOM     78  C   UNL A   1      49.593  27.296  26.774  1.00  0.00     0.023 A 
ATOM     79  C   UNL A   1      50.605  27.128  27.736  1.00  0.00     0.031 A 
ATOM     80  C   UNL A   1      49.941  27.126  25.422  1.00  0.00     0.131 A 
ATOM     81  C   UNL A   1      51.927  26.890  27.332  1.00  0.00     0.055 A 
ATOM     82  C   UNL A   1      51.241  26.795  25.031  1.00  0.00     0.041 A 
ATOM     83  F   UNL A   1      49.029  27.297  24.453  1.00  0.00    -0.206 F 
ATOM     84  C   UNL A   1      52.248  26.693  25.987  1.00  0.00     0.022 A 
BRANCH  81  85
ATOM     85  S   UNL A   1      53.246  27.012  28.571  1.00  0.00     0.124 S 
ATOM     86  O   UNL A   1      52.756  26.111  29.612  1.00  0.00    -0.237 OA
ATOM     87  O   UNL A   1      54.417  26.558  27.831  1.00  0.00    -0.237 OA
ATOM     88  O   UNL A   1      53.246  28.428  28.933  1.00  0.00    -0.744 OA
ENDBRANCH  81  85
ENDBRANCH  64  78
BRANCH  65  89
ATOM     89  C   UNL A   1      40.158  29.311  29.531  1.00  0.00     0.023 A 
ATOM     90  C   UNL A   1      39.810  29.379  30.889  1.00  0.00     0.031 A 
ATOM     91  C   UNL A   1      39.138  29.501  28.581  1.00  0.00     0.131 A 
ATOM     92  C   UNL A   1      38.472  29.579  31.261  1.00  0.00     0.055 A 
ATOM     93  C   UNL A   1      37.819  29.762  28.956  1.00  0.00     0.041 A 
ATOM     94  F   UNL A   1      39.415  29.451  27.268  1.00  0.00    -0.206 F 
ATOM     95  C   UNL A   1      37.477  29.787  30.303  1.00  0.00     0.022 A 
BRANCH  92  96
ATOM     96  S   UNL A   1      38.031  29.470  33.018  1.00  0.00     0.124 S 
ATOM     97  O   UNL A   1      37.252  30.690  33.203  1.00  0.00    -0.237 OA
ATOM     98  O   UNL A   1      37.285  28.217  33.066  1.00  0.00    -0.237 OA
ATOM     99  O   UNL A   1      39.328  29.447  33.692  1.00  0.00    -0.744 OA
ENDBRANCH  92  96
ENDBRANCH  65  89
BRANCH  77 100
ATOM    100  C   UNL A   1      45.942  33.173  28.979  1.00  0.00     0.023 A 
ATOM    101  C   UNL A   1      45.872  34.096  27.920  1.00  0.00     0.031 A 
ATOM    102  C   UNL A   1      46.293  33.658  30.253  1.00  0.00     0.131 A 
ATOM    103  C   UNL A   1      46.226  35.436  28.136  1.00  0.00     0.055 A 
ATOM    104  C   UNL A   1      46.568  35.008  30.476  1.00  0.00     0.041 A 
ATOM    105  F   UNL A   1      46.381  32.826  31.302  1.00  0.00    -0.206 F 
ATOM    106  C   UNL A   1      46.554  35.902  29.411  1.00  0.00     0.022 A 
BRANCH 103 107
ATOM    107  S   UNL A   1      46.384  36.535  26.700  1.00  0.00     0.124 S 
ATOM    108  O   UNL A   1      46.387  35.586  25.592  1.00  0.00    -0.237 OA
ATOM    109  O   UNL A   1      45.197  37.373  26.818  1.00  0.00    -0.237 OA
ATOM    110  O   UNL A   1      47.654  37.221  26.932  1.00  0.00    -0.744 OA
ENDBRANCH 103 107
ENDBRANCH  77 100
ENDBRANCH  51  52
ENDBRANCH  43  46
ENDBRANCH  41  42
ENDBRANCH  40  41
ENDBRANCH  39  40
ENDBRANCH   1  39
TORSDOF 20
ENDMDL
