MODEL 1
REMARK VINA RESULT:     -11.9      0.000      0.000
REMARK SMILES C[NH+](C)[C@@H]1CC[N@@H+](Cc2ccc(C(=O)NCCCCNC(=O)c3ccc(-c4c5nc(c(-c6cc(S(=O)(=O)[O-])ccc6F)c6ccc([nH]6)c(-c6cc(S(=O)(=O)[O-])ccc6F)c6nc(c(-c7cc(S(=O)(=O)[O-])ccc7F)c7ccc4[nH]7)C=C6)C=C5)cc3)cn2)C1
REMARK SMILES IDX 17 1 16 2 15 3 13 4 14 5 12 7 9 8 10 9 87 10 11 11 86 12
REMARK SMILES IDX 8 13 7 14 4 15 5 16 88 17 6 18 2 20 1 21 3 22 18 24 19 25
REMARK SMILES IDX 20 26 21 27 22 29 23 30 24 31 85 32 25 33 84 34 26 35 27 36
REMARK SMILES IDX 28 37 78 38 29 39 83 40 77 41 79 42 30 43 82 44 76 45 75 46
REMARK SMILES IDX 31 48 63 49 43 50 62 51 44 52 47 53 61 54 80 55 45 56 46 57
REMARK SMILES IDX 60 59 81 60 48 61 32 62 33 63 41 64 34 65 40 66 42 67 39 68
REMARK SMILES IDX 35 69 36 70 37 71 38 72 64 73 65 74 73 75 66 76 72 77 74 78
REMARK SMILES IDX 71 79 67 80 68 81 69 82 70 83 49 84 50 85 58 86 51 87 57 88
REMARK SMILES IDX 59 89 56 90 52 91 53 92 54 93 55 94
REMARK H PARENT 15 6 7 19 2 23 20 28 79 47 47 58
REMARK Flexibility Score: inf
ROOT
ATOM      1  C   UNL A   1      30.865  29.441  24.316  1.00  0.00     0.023 C 
ENDROOT
BRANCH   1   2
ATOM      2  C   UNL A   1      31.046  28.387  23.223  1.00  0.00     0.116 C 
BRANCH   2   3
ATOM      3  N   UNL A   1      32.268  28.619  22.474  1.00  0.00    -0.352 N 
ATOM      4  C   UNL A   1      33.431  27.893  22.401  1.00  0.00     0.252 C 
ATOM      5  O   UNL A   1      34.311  28.250  21.622  1.00  0.00    -0.269 OA
ATOM      6  H   UNL A   1      32.262  29.435  21.924  1.00  0.00     0.163 HD
BRANCH   4   7
ATOM      7  C   UNL A   1      33.625  26.649  23.172  1.00  0.00     0.058 A 
ATOM      8  C   UNL A   1      33.682  24.199  24.434  1.00  0.00     0.095 A 
ATOM      9  C   UNL A   1      33.916  25.349  25.182  1.00  0.00     0.030 A 
ATOM     10  N   UNL A   1      33.537  24.232  23.085  1.00  0.00    -0.255 NA
ATOM     11  C   UNL A   1      33.904  26.583  24.535  1.00  0.00     0.017 A 
ATOM     12  C   UNL A   1      33.513  25.448  22.486  1.00  0.00     0.125 A 
BRANCH   8  13
ATOM     13  C   UNL A   1      33.463  22.865  25.124  1.00  0.00     0.319 C 
BRANCH  13  14
ATOM     14  N   UNL A   1      33.857  21.649  24.387  1.00  0.00    -0.325 N 
ATOM     15  C   UNL A   1      33.302  19.517  25.438  1.00  0.00     0.245 C 
ATOM     16  C   UNL A   1      32.183  19.919  24.472  1.00  0.00     0.132 C 
ATOM     17  C   UNL A   1      34.417  20.568  25.208  1.00  0.00     0.328 C 
ATOM     18  C   UNL A   1      32.772  21.033  23.616  1.00  0.00     0.269 C 
ATOM     19  H   UNL A   1      34.578  22.030  23.774  1.00  0.00     0.348 HD
BRANCH  15  20
ATOM     20  N   UNL A   1      33.800  18.127  25.367  1.00  0.00    -0.333 N 
ATOM     21  C   UNL A   1      32.747  17.164  25.691  1.00  0.00     0.332 C 
ATOM     22  C   UNL A   1      34.420  17.778  24.087  1.00  0.00     0.332 C 
ATOM     23  H   UNL A   1      34.536  18.077  26.072  1.00  0.00     0.348 HD
ENDBRANCH  15  20
ENDBRANCH  13  14
ENDBRANCH   8  13
ENDBRANCH   4   7
ENDBRANCH   2   3
ENDBRANCH   1   2
BRANCH   1  24
ATOM     24  C   UNL A   1      31.446  29.047  25.674  1.00  0.00     0.023 C 
BRANCH  24  25
ATOM     25  C   UNL A   1      32.612  29.907  26.142  1.00  0.00     0.116 C 
BRANCH  25  26
ATOM     26  N   UNL A   1      32.213  31.255  26.518  1.00  0.00    -0.352 N 
ATOM     27  C   UNL A   1      32.910  32.159  27.293  1.00  0.00     0.251 C 
ATOM     28  H   UNL A   1      31.340  31.559  26.179  1.00  0.00     0.163 HD
ATOM     29  O   UNL A   1      32.408  33.220  27.616  1.00  0.00    -0.269 OA
BRANCH  27  30
ATOM     30  C   UNL A   1      34.263  31.779  27.757  1.00  0.00     0.039 A 
ATOM     31  C   UNL A   1      35.235  32.772  27.895  1.00  0.00     0.014 A 
ATOM     32  C   UNL A   1      34.524  30.463  28.143  1.00  0.00     0.014 A 
ATOM     33  C   UNL A   1      36.452  32.458  28.505  1.00  0.00     0.010 A 
ATOM     34  C   UNL A   1      35.709  30.170  28.806  1.00  0.00     0.010 A 
ATOM     35  C   UNL A   1      36.677  31.167  29.007  1.00  0.00    -0.014 A 
BRANCH  35  36
ATOM     36  C   UNL A   1      37.914  30.815  29.748  1.00  0.00     0.031 A 
ATOM     37  C   UNL A   1      38.883  29.839  29.143  1.00  0.00     0.074 A 
ATOM     38  C   UNL A   1      38.110  31.282  30.996  1.00  0.00     0.049 A 
ATOM     39  N   UNL A   1      39.910  29.242  29.687  1.00  0.00    -0.248 NA
ATOM     40  C   UNL A   1      38.629  29.458  27.746  1.00  0.00     0.031 C 
ATOM     41  C   UNL A   1      37.232  32.222  31.696  1.00  0.00     0.029 A 
ATOM     42  N   UNL A   1      39.099  31.011  31.907  1.00  0.00    -0.354 N 
ATOM     43  C   UNL A   1      40.414  28.393  28.708  1.00  0.00     0.074 A 
ATOM     44  C   UNL A   1      39.540  28.516  27.558  1.00  0.00     0.031 C 
ATOM     45  C   UNL A   1      37.730  32.458  32.921  1.00  0.00     0.029 A 
ATOM     46  C   UNL A   1      38.928  31.646  33.114  1.00  0.00     0.049 A 
ATOM     47  H   UNL A   1      39.860  30.416  31.714  1.00  0.00     0.167 HD
ATOM     48  C   UNL A   1      41.514  27.600  28.755  1.00  0.00     0.034 A 
ATOM     49  C   UNL A   1      39.641  31.564  34.255  1.00  0.00     0.034 A 
ATOM     50  C   UNL A   1      42.377  27.500  29.906  1.00  0.00     0.049 A 
ATOM     51  C   UNL A   1      40.835  30.645  34.304  1.00  0.00     0.074 A 
ATOM     52  C   UNL A   1      43.534  26.756  30.059  1.00  0.00     0.029 A 
ATOM     53  N   UNL A   1      42.175  28.167  31.109  1.00  0.00    -0.354 N 
ATOM     54  N   UNL A   1      41.306  29.853  33.368  1.00  0.00    -0.248 NA
ATOM     55  C   UNL A   1      41.591  30.609  35.562  1.00  0.00     0.031 C 
ATOM     56  C   UNL A   1      44.002  26.932  31.366  1.00  0.00     0.029 A 
ATOM     57  C   UNL A   1      43.173  27.836  32.011  1.00  0.00     0.049 A 
ATOM     58  H   UNL A   1      41.431  28.785  31.292  1.00  0.00     0.167 HD
ATOM     59  C   UNL A   1      42.436  29.253  33.915  1.00  0.00     0.074 A 
ATOM     60  C   UNL A   1      42.573  29.771  35.261  1.00  0.00     0.031 C 
ATOM     61  C   UNL A   1      43.291  28.363  33.350  1.00  0.00     0.034 A 
BRANCH  48  62
ATOM     62  C   UNL A   1      41.808  26.764  27.534  1.00  0.00     0.023 A 
ATOM     63  C   UNL A   1      41.403  25.419  27.451  1.00  0.00     0.031 A 
ATOM     64  C   UNL A   1      42.559  27.290  26.469  1.00  0.00     0.131 A 
ATOM     65  C   UNL A   1      41.838  24.621  26.383  1.00  0.00     0.055 A 
ATOM     66  C   UNL A   1      42.909  26.515  25.361  1.00  0.00     0.041 A 
ATOM     67  F   UNL A   1      42.991  28.561  26.498  1.00  0.00    -0.206 F 
ATOM     68  C   UNL A   1      42.567  25.166  25.324  1.00  0.00     0.022 A 
BRANCH  65  69
ATOM     69  S   UNL A   1      41.591  22.828  26.493  1.00  0.00     0.124 S 
ATOM     70  O   UNL A   1      40.139  22.723  26.373  1.00  0.00    -0.237 OA
ATOM     71  O   UNL A   1      42.363  22.333  25.358  1.00  0.00    -0.237 OA
ATOM     72  O   UNL A   1      42.126  22.487  27.809  1.00  0.00    -0.744 OA
ENDBRANCH  65  69
ENDBRANCH  48  62
BRANCH  49  73
ATOM     73  C   UNL A   1      39.249  32.362  35.449  1.00  0.00     0.023 A 
ATOM     74  C   UNL A   1      39.727  33.669  35.626  1.00  0.00     0.031 A 
ATOM     75  C   UNL A   1      38.416  31.821  36.443  1.00  0.00     0.131 A 
ATOM     76  C   UNL A   1      39.402  34.381  36.791  1.00  0.00     0.055 A 
ATOM     77  C   UNL A   1      38.059  32.549  37.580  1.00  0.00     0.041 A 
ATOM     78  F   UNL A   1      37.925  30.577  36.316  1.00  0.00    -0.206 F 
ATOM     79  C   UNL A   1      38.562  33.833  37.763  1.00  0.00     0.022 A 
BRANCH  76  80
ATOM     80  S   UNL A   1      40.144  36.015  37.044  1.00  0.00     0.124 S 
ATOM     81  O   UNL A   1      39.867  36.668  35.770  1.00  0.00    -0.237 OA
ATOM     82  O   UNL A   1      39.399  36.511  38.196  1.00  0.00    -0.237 OA
ATOM     83  O   UNL A   1      41.552  35.713  37.298  1.00  0.00    -0.744 OA
ENDBRANCH  76  80
ENDBRANCH  49  73
BRANCH  61  84
ATOM     84  C   UNL A   1      44.486  27.950  34.170  1.00  0.00     0.023 A 
ATOM     85  C   UNL A   1      44.454  26.831  35.019  1.00  0.00     0.031 A 
ATOM     86  C   UNL A   1      45.678  28.692  34.090  1.00  0.00     0.131 A 
ATOM     87  C   UNL A   1      45.583  26.507  35.787  1.00  0.00     0.055 A 
ATOM     88  C   UNL A   1      46.812  28.339  34.821  1.00  0.00     0.041 A 
ATOM     89  F   UNL A   1      45.758  29.769  33.293  1.00  0.00    -0.206 F 
ATOM     90  C   UNL A   1      46.766  27.245  35.682  1.00  0.00     0.022 A 
BRANCH  87  91
ATOM     91  S   UNL A   1      45.473  25.137  36.969  1.00  0.00     0.124 S 
ATOM     92  O   UNL A   1      46.850  24.655  37.006  1.00  0.00    -0.237 OA
ATOM     93  O   UNL A   1      44.998  25.803  38.179  1.00  0.00    -0.237 OA
ATOM     94  O   UNL A   1      44.513  24.225  36.350  1.00  0.00    -0.744 OA
ENDBRANCH  87  91
ENDBRANCH  61  84
ENDBRANCH  35  36
ENDBRANCH  27  30
ENDBRANCH  25  26
ENDBRANCH  24  25
ENDBRANCH   1  24
TORSDOF 17
ENDMDL
MODEL 2
REMARK VINA RESULT:     -11.4      2.377      3.026
REMARK SMILES C[NH+](C)[C@@H]1CC[N@@H+](Cc2ccc(C(=O)NCCCCNC(=O)c3ccc(-c4c5nc(c(-c6cc(S(=O)(=O)[O-])ccc6F)c6ccc([nH]6)c(-c6cc(S(=O)(=O)[O-])ccc6F)c6nc(c(-c7cc(S(=O)(=O)[O-])ccc7F)c7ccc4[nH]7)C=C6)C=C5)cc3)cn2)C1
REMARK SMILES IDX 17 1 16 2 15 3 13 4 14 5 12 7 9 8 10 9 87 10 11 11 86 12
REMARK SMILES IDX 8 13 7 14 4 15 5 16 88 17 6 18 2 20 1 21 3 22 18 24 19 25
REMARK SMILES IDX 20 26 21 27 22 29 23 30 24 31 85 32 25 33 84 34 26 35 27 36
REMARK SMILES IDX 28 37 78 38 29 39 83 40 77 41 79 42 30 43 82 44 76 45 75 46
REMARK SMILES IDX 31 48 63 49 43 50 62 51 44 52 47 53 61 54 80 55 45 56 46 57
REMARK SMILES IDX 60 59 81 60 48 61 32 62 33 63 41 64 34 65 40 66 42 67 39 68
REMARK SMILES IDX 35 69 36 70 37 71 38 72 64 73 65 74 73 75 66 76 72 77 74 78
REMARK SMILES IDX 71 79 67 80 68 81 69 82 70 83 49 84 50 85 58 86 51 87 57 88
REMARK SMILES IDX 59 89 56 90 52 91 53 92 54 93 55 94
REMARK H PARENT 15 6 7 19 2 23 20 28 79 47 47 58
REMARK Flexibility Score: inf
ROOT
ATOM      1  C   UNL A   1      31.706  30.704  25.837  1.00  0.00     0.023 C 
ENDROOT
BRANCH   1   2
ATOM      2  C   UNL A   1      31.404  29.421  25.061  1.00  0.00     0.116 C 
BRANCH   2   3
ATOM      3  N   UNL A   1      30.826  29.720  23.763  1.00  0.00    -0.352 N 
ATOM      4  C   UNL A   1      30.447  28.895  22.734  1.00  0.00     0.252 C 
ATOM      5  O   UNL A   1      29.897  29.381  21.749  1.00  0.00    -0.269 OA
ATOM      6  H   UNL A   1      30.681  30.679  23.592  1.00  0.00     0.163 HD
BRANCH   4   7
ATOM      7  C   UNL A   1      30.608  27.429  22.808  1.00  0.00     0.058 A 
ATOM      8  C   UNL A   1      30.834  24.729  23.312  1.00  0.00     0.095 A 
ATOM      9  C   UNL A   1      31.769  25.341  22.483  1.00  0.00     0.030 A 
ATOM     10  N   UNL A   1      29.751  25.391  23.792  1.00  0.00    -0.255 NA
ATOM     11  C   UNL A   1      31.639  26.702  22.217  1.00  0.00     0.017 A 
ATOM     12  C   UNL A   1      29.661  26.719  23.531  1.00  0.00     0.125 A 
BRANCH   8  13
ATOM     13  C   UNL A   1      31.059  23.313  23.809  1.00  0.00     0.319 C 
BRANCH  13  14
ATOM     14  N   UNL A   1      32.356  22.682  23.493  1.00  0.00    -0.325 N 
ATOM     15  C   UNL A   1      32.994  20.767  24.865  1.00  0.00     0.245 C 
ATOM     16  C   UNL A   1      32.278  20.277  23.603  1.00  0.00     0.132 C 
ATOM     17  C   UNL A   1      33.167  22.292  24.652  1.00  0.00     0.328 C 
ATOM     18  C   UNL A   1      32.253  21.476  22.663  1.00  0.00     0.269 C 
ATOM     19  H   UNL A   1      32.812  23.442  22.987  1.00  0.00     0.348 HD
BRANCH  15  20
ATOM     20  N   UNL A   1      34.254  20.093  25.242  1.00  0.00    -0.333 N 
ATOM     21  C   UNL A   1      34.382  18.791  24.586  1.00  0.00     0.332 C 
ATOM     22  C   UNL A   1      35.456  20.894  25.002  1.00  0.00     0.332 C 
ATOM     23  H   UNL A   1      34.188  19.961  26.251  1.00  0.00     0.348 HD
ENDBRANCH  15  20
ENDBRANCH  13  14
ENDBRANCH   8  13
ENDBRANCH   4   7
ENDBRANCH   2   3
ENDBRANCH   1   2
BRANCH   1  24
ATOM     24  C   UNL A   1      33.144  30.811  26.343  1.00  0.00     0.023 C 
BRANCH  24  25
ATOM     25  C   UNL A   1      33.294  31.489  27.698  1.00  0.00     0.116 C 
BRANCH  25  26
ATOM     26  N   UNL A   1      32.871  32.882  27.689  1.00  0.00    -0.352 N 
ATOM     27  C   UNL A   1      33.370  33.922  28.446  1.00  0.00     0.251 C 
ATOM     28  H   UNL A   1      32.141  33.109  27.070  1.00  0.00     0.163 HD
ATOM     29  O   UNL A   1      32.849  35.022  28.413  1.00  0.00    -0.269 OA
BRANCH  27  30
ATOM     30  C   UNL A   1      34.522  33.647  29.333  1.00  0.00     0.039 A 
ATOM     31  C   UNL A   1      34.339  32.825  30.446  1.00  0.00     0.014 A 
ATOM     32  C   UNL A   1      35.791  34.124  28.997  1.00  0.00     0.014 A 
ATOM     33  C   UNL A   1      35.452  32.409  31.181  1.00  0.00     0.010 A 
ATOM     34  C   UNL A   1      36.900  33.658  29.691  1.00  0.00     0.010 A 
ATOM     35  C   UNL A   1      36.743  32.785  30.780  1.00  0.00    -0.014 A 
BRANCH  35  36
ATOM     36  C   UNL A   1      37.958  32.288  31.471  1.00  0.00     0.031 A 
ATOM     37  C   UNL A   1      38.762  31.185  30.846  1.00  0.00     0.074 A 
ATOM     38  C   UNL A   1      38.272  32.747  32.698  1.00  0.00     0.049 A 
ATOM     39  N   UNL A   1      39.729  30.468  31.356  1.00  0.00    -0.248 NA
ATOM     40  C   UNL A   1      38.395  30.816  29.472  1.00  0.00     0.031 C 
ATOM     41  C   UNL A   1      37.558  33.805  33.416  1.00  0.00     0.029 A 
ATOM     42  N   UNL A   1      39.261  32.365  33.570  1.00  0.00    -0.354 N 
ATOM     43  C   UNL A   1      40.072  29.545  30.375  1.00  0.00     0.074 A 
ATOM     44  C   UNL A   1      39.167  29.761  29.264  1.00  0.00     0.031 C 
ATOM     45  C   UNL A   1      38.140  33.995  34.611  1.00  0.00     0.029 A 
ATOM     46  C   UNL A   1      39.231  33.038  34.768  1.00  0.00     0.049 A 
ATOM     47  H   UNL A   1      39.928  31.674  33.356  1.00  0.00     0.167 HD
ATOM     48  C   UNL A   1      41.062  28.617  30.391  1.00  0.00     0.034 A 
ATOM     49  C   UNL A   1      39.982  32.884  35.877  1.00  0.00     0.034 A 
ATOM     50  C   UNL A   1      41.959  28.425  31.504  1.00  0.00     0.049 A 
ATOM     51  C   UNL A   1      41.048  31.818  35.893  1.00  0.00     0.074 A 
ATOM     52  C   UNL A   1      43.016  27.540  31.621  1.00  0.00     0.029 A 
ATOM     53  N   UNL A   1      41.902  29.133  32.698  1.00  0.00    -0.354 N 
ATOM     54  N   UNL A   1      41.367  30.956  34.955  1.00  0.00    -0.248 NA
ATOM     55  C   UNL A   1      41.853  31.705  37.116  1.00  0.00     0.031 C 
ATOM     56  C   UNL A   1      43.565  27.676  32.901  1.00  0.00     0.029 A 
ATOM     57  C   UNL A   1      42.892  28.691  33.562  1.00  0.00     0.049 A 
ATOM     58  H   UNL A   1      41.254  29.845  32.901  1.00  0.00     0.167 HD
ATOM     59  C   UNL A   1      42.436  30.224  35.463  1.00  0.00     0.074 A 
ATOM     60  C   UNL A   1      42.703  30.742  36.790  1.00  0.00     0.031 C 
ATOM     61  C   UNL A   1      43.141  29.221  34.881  1.00  0.00     0.034 A 
BRANCH  48  62
ATOM     62  C   UNL A   1      41.186  27.729  29.177  1.00  0.00     0.023 A 
ATOM     63  C   UNL A   1      42.197  27.931  28.220  1.00  0.00     0.031 A 
ATOM     64  C   UNL A   1      40.246  26.713  28.934  1.00  0.00     0.131 A 
ATOM     65  C   UNL A   1      42.183  27.204  27.022  1.00  0.00     0.055 A 
ATOM     66  C   UNL A   1      40.293  25.927  27.780  1.00  0.00     0.041 A 
ATOM     67  F   UNL A   1      39.245  26.484  29.800  1.00  0.00    -0.206 F 
ATOM     68  C   UNL A   1      41.252  26.185  26.805  1.00  0.00     0.022 A 
BRANCH  65  69
ATOM     69  S   UNL A   1      43.282  27.734  25.680  1.00  0.00     0.124 S 
ATOM     70  O   UNL A   1      44.050  26.516  25.431  1.00  0.00    -0.237 OA
ATOM     71  O   UNL A   1      42.340  28.121  24.635  1.00  0.00    -0.237 OA
ATOM     72  O   UNL A   1      44.043  28.831  26.273  1.00  0.00    -0.744 OA
ENDBRANCH  65  69
ENDBRANCH  48  62
BRANCH  49  73
ATOM     73  C   UNL A   1      39.754  33.746  37.069  1.00  0.00     0.023 A 
ATOM     74  C   UNL A   1      39.053  33.257  38.182  1.00  0.00     0.031 A 
ATOM     75  C   UNL A   1      40.204  35.076  37.102  1.00  0.00     0.131 A 
ATOM     76  C   UNL A   1      38.788  34.105  39.269  1.00  0.00     0.055 A 
ATOM     77  C   UNL A   1      39.976  35.903  38.203  1.00  0.00     0.041 A 
ATOM     78  F   UNL A   1      40.887  35.589  36.065  1.00  0.00    -0.206 F 
ATOM     79  C   UNL A   1      39.254  35.421  39.291  1.00  0.00     0.022 A 
BRANCH  76  80
ATOM     80  S   UNL A   1      37.769  33.476  40.630  1.00  0.00     0.124 S 
ATOM     81  O   UNL A   1      37.544  34.683  41.415  1.00  0.00    -0.237 OA
ATOM     82  O   UNL A   1      36.610  32.946  39.920  1.00  0.00    -0.237 OA
ATOM     83  O   UNL A   1      38.624  32.471  41.259  1.00  0.00    -0.744 OA
ENDBRANCH  76  80
ENDBRANCH  49  73
BRANCH  61  84
ATOM     84  C   UNL A   1      44.311  28.670  35.655  1.00  0.00     0.023 A 
ATOM     85  C   UNL A   1      44.157  27.647  36.606  1.00  0.00     0.031 A 
ATOM     86  C   UNL A   1      45.601  29.180  35.427  1.00  0.00     0.131 A 
ATOM     87  C   UNL A   1      45.273  27.191  37.324  1.00  0.00     0.055 A 
ATOM     88  C   UNL A   1      46.714  28.691  36.111  1.00  0.00     0.041 A 
ATOM     89  F   UNL A   1      45.799  30.158  34.528  1.00  0.00    -0.206 F 
ATOM     90  C   UNL A   1      46.552  27.697  37.072  1.00  0.00     0.022 A 
BRANCH  87  91
ATOM     91  S   UNL A   1      45.028  25.962  38.635  1.00  0.00     0.124 S 
ATOM     92  O   UNL A   1      46.398  25.685  39.052  1.00  0.00    -0.237 OA
ATOM     93  O   UNL A   1      44.203  26.689  39.596  1.00  0.00    -0.237 OA
ATOM     94  O   UNL A   1      44.352  24.861  37.951  1.00  0.00    -0.744 OA
ENDBRANCH  87  91
ENDBRANCH  61  84
ENDBRANCH  35  36
ENDBRANCH  27  30
ENDBRANCH  25  26
ENDBRANCH  24  25
ENDBRANCH   1  24
TORSDOF 17
ENDMDL
MODEL 3
REMARK VINA RESULT:     -11.4      2.140      2.738
REMARK SMILES C[NH+](C)[C@@H]1CC[N@@H+](Cc2ccc(C(=O)NCCCCNC(=O)c3ccc(-c4c5nc(c(-c6cc(S(=O)(=O)[O-])ccc6F)c6ccc([nH]6)c(-c6cc(S(=O)(=O)[O-])ccc6F)c6nc(c(-c7cc(S(=O)(=O)[O-])ccc7F)c7ccc4[nH]7)C=C6)C=C5)cc3)cn2)C1
REMARK SMILES IDX 17 1 16 2 15 3 13 4 14 5 12 7 9 8 10 9 87 10 11 11 86 12
REMARK SMILES IDX 8 13 7 14 4 15 5 16 88 17 6 18 2 20 1 21 3 22 18 24 19 25
REMARK SMILES IDX 20 26 21 27 22 29 23 30 24 31 85 32 25 33 84 34 26 35 27 36
REMARK SMILES IDX 28 37 78 38 29 39 83 40 77 41 79 42 30 43 82 44 76 45 75 46
REMARK SMILES IDX 31 48 63 49 43 50 62 51 44 52 47 53 61 54 80 55 45 56 46 57
REMARK SMILES IDX 60 59 81 60 48 61 32 62 33 63 41 64 34 65 40 66 42 67 39 68
REMARK SMILES IDX 35 69 36 70 37 71 38 72 64 73 65 74 73 75 66 76 72 77 74 78
REMARK SMILES IDX 71 79 67 80 68 81 69 82 70 83 49 84 50 85 58 86 51 87 57 88
REMARK SMILES IDX 59 89 56 90 52 91 53 92 54 93 55 94
REMARK H PARENT 15 6 7 19 2 23 20 28 79 47 47 58
REMARK Flexibility Score: inf
ROOT
ATOM      1  C   UNL A   1      33.154  29.480  26.706  1.00  0.00     0.023 C 
ENDROOT
BRANCH   1   2
ATOM      2  C   UNL A   1      33.355  29.359  25.195  1.00  0.00     0.116 C 
BRANCH   2   3
ATOM      3  N   UNL A   1      32.098  29.531  24.487  1.00  0.00    -0.352 N 
ATOM      4  C   UNL A   1      31.150  28.617  24.100  1.00  0.00     0.252 C 
ATOM      5  O   UNL A   1      30.113  29.016  23.577  1.00  0.00    -0.269 OA
ATOM      6  H   UNL A   1      31.890  30.462  24.244  1.00  0.00     0.163 HD
BRANCH   4   7
ATOM      7  C   UNL A   1      31.303  27.172  24.365  1.00  0.00     0.058 A 
ATOM      8  C   UNL A   1      31.496  24.426  24.501  1.00  0.00     0.095 A 
ATOM      9  C   UNL A   1      30.874  25.111  25.540  1.00  0.00     0.030 A 
ATOM     10  N   UNL A   1      32.109  25.071  23.476  1.00  0.00    -0.255 NA
ATOM     11  C   UNL A   1      30.796  26.500  25.475  1.00  0.00     0.017 A 
ATOM     12  C   UNL A   1      32.002  26.422  23.431  1.00  0.00     0.125 A 
BRANCH   8  13
ATOM     13  C   UNL A   1      31.407  22.913  24.417  1.00  0.00     0.319 C 
BRANCH  13  14
ATOM     14  N   UNL A   1      32.154  22.134  25.424  1.00  0.00    -0.325 N 
ATOM     15  C   UNL A   1      33.297  20.134  24.618  1.00  0.00     0.245 C 
ATOM     16  C   UNL A   1      34.266  21.321  24.601  1.00  0.00     0.132 C 
ATOM     17  C   UNL A   1      32.025  20.676  25.316  1.00  0.00     0.328 C 
ATOM     18  C   UNL A   1      33.596  22.399  25.443  1.00  0.00     0.269 C 
ATOM     19  H   UNL A   1      31.706  22.462  26.280  1.00  0.00     0.348 HD
BRANCH  15  20
ATOM     20  N   UNL A   1      33.779  18.867  25.206  1.00  0.00    -0.333 N 
ATOM     21  C   UNL A   1      32.673  17.950  25.485  1.00  0.00     0.332 C 
ATOM     22  C   UNL A   1      34.803  18.188  24.409  1.00  0.00     0.332 C 
ATOM     23  H   UNL A   1      34.225  19.139  26.083  1.00  0.00     0.348 HD
ENDBRANCH  15  20
ENDBRANCH  13  14
ENDBRANCH   8  13
ENDBRANCH   4   7
ENDBRANCH   2   3
ENDBRANCH   1   2
BRANCH   1  24
ATOM     24  C   UNL A   1      32.581  30.822  27.161  1.00  0.00     0.023 C 
BRANCH  24  25
ATOM     25  C   UNL A   1      33.622  31.893  27.454  1.00  0.00     0.116 C 
BRANCH  25  26
ATOM     26  N   UNL A   1      33.040  33.209  27.677  1.00  0.00    -0.352 N 
ATOM     27  C   UNL A   1      33.398  34.143  28.627  1.00  0.00     0.251 C 
ATOM     28  H   UNL A   1      32.301  33.463  27.078  1.00  0.00     0.163 HD
ATOM     29  O   UNL A   1      32.754  35.166  28.769  1.00  0.00    -0.269 OA
BRANCH  27  30
ATOM     30  C   UNL A   1      34.556  33.840  29.497  1.00  0.00     0.039 A 
ATOM     31  C   UNL A   1      34.364  33.039  30.626  1.00  0.00     0.014 A 
ATOM     32  C   UNL A   1      35.834  34.269  29.133  1.00  0.00     0.014 A 
ATOM     33  C   UNL A   1      35.475  32.596  31.347  1.00  0.00     0.010 A 
ATOM     34  C   UNL A   1      36.939  33.775  29.815  1.00  0.00     0.010 A 
ATOM     35  C   UNL A   1      36.771  32.922  30.918  1.00  0.00    -0.014 A 
BRANCH  35  36
ATOM     36  C   UNL A   1      37.981  32.393  31.596  1.00  0.00     0.031 A 
ATOM     37  C   UNL A   1      38.763  31.286  30.949  1.00  0.00     0.074 A 
ATOM     38  C   UNL A   1      38.307  32.825  32.829  1.00  0.00     0.049 A 
ATOM     39  N   UNL A   1      39.720  30.545  31.442  1.00  0.00    -0.248 NA
ATOM     40  C   UNL A   1      38.383  30.947  29.570  1.00  0.00     0.031 C 
ATOM     41  C   UNL A   1      37.614  33.884  33.567  1.00  0.00     0.029 A 
ATOM     42  N   UNL A   1      39.293  32.412  33.689  1.00  0.00    -0.354 N 
ATOM     43  C   UNL A   1      40.042  29.633  30.444  1.00  0.00     0.074 A 
ATOM     44  C   UNL A   1      39.136  29.882  29.341  1.00  0.00     0.031 C 
ATOM     45  C   UNL A   1      38.205  34.043  34.763  1.00  0.00     0.029 A 
ATOM     46  C   UNL A   1      39.280  33.066  34.899  1.00  0.00     0.049 A 
ATOM     47  H   UNL A   1      39.948  31.713  33.461  1.00  0.00     0.167 HD
ATOM     48  C   UNL A   1      41.016  28.687  30.440  1.00  0.00     0.034 A 
ATOM     49  C   UNL A   1      40.033  32.880  36.001  1.00  0.00     0.034 A 
ATOM     50  C   UNL A   1      41.914  28.462  31.545  1.00  0.00     0.049 A 
ATOM     51  C   UNL A   1      41.081  31.796  35.994  1.00  0.00     0.074 A 
ATOM     52  C   UNL A   1      42.957  27.557  31.643  1.00  0.00     0.029 A 
ATOM     53  N   UNL A   1      41.875  29.150  32.752  1.00  0.00    -0.354 N 
ATOM     54  N   UNL A   1      41.381  30.945  35.041  1.00  0.00    -0.248 NA
ATOM     55  C   UNL A   1      41.889  31.649  37.212  1.00  0.00     0.031 C 
ATOM     56  C   UNL A   1      43.514  27.662  32.922  1.00  0.00     0.029 A 
ATOM     57  C   UNL A   1      42.861  28.677  33.603  1.00  0.00     0.049 A 
ATOM     58  H   UNL A   1      41.240  29.870  32.970  1.00  0.00     0.167 HD
ATOM     59  C   UNL A   1      42.439  30.186  35.532  1.00  0.00     0.074 A 
ATOM     60  C   UNL A   1      42.721  30.677  36.866  1.00  0.00     0.031 C 
ATOM     61  C   UNL A   1      43.125  29.181  34.930  1.00  0.00     0.034 A 
BRANCH  48  62
ATOM     62  C   UNL A   1      41.119  27.818  29.211  1.00  0.00     0.023 A 
ATOM     63  C   UNL A   1      42.133  28.016  28.255  1.00  0.00     0.031 A 
ATOM     64  C   UNL A   1      40.158  26.826  28.953  1.00  0.00     0.131 A 
ATOM     65  C   UNL A   1      42.102  27.309  27.045  1.00  0.00     0.055 A 
ATOM     66  C   UNL A   1      40.187  26.059  27.785  1.00  0.00     0.041 A 
ATOM     67  F   UNL A   1      39.155  26.603  29.817  1.00  0.00    -0.206 F 
ATOM     68  C   UNL A   1      41.150  26.313  26.813  1.00  0.00     0.022 A 
BRANCH  65  69
ATOM     69  S   UNL A   1      43.209  27.839  25.710  1.00  0.00     0.124 S 
ATOM     70  O   UNL A   1      43.904  28.963  26.334  1.00  0.00    -0.237 OA
ATOM     71  O   UNL A   1      44.011  26.644  25.473  1.00  0.00    -0.237 OA
ATOM     72  O   UNL A   1      42.296  28.204  24.630  1.00  0.00    -0.744 OA
ENDBRANCH  65  69
ENDBRANCH  48  62
BRANCH  49  73
ATOM     73  C   UNL A   1      39.825  33.725  37.209  1.00  0.00     0.023 A 
ATOM     74  C   UNL A   1      40.650  34.833  37.459  1.00  0.00     0.031 A 
ATOM     75  C   UNL A   1      38.820  33.424  38.144  1.00  0.00     0.131 A 
ATOM     76  C   UNL A   1      40.482  35.578  38.636  1.00  0.00     0.055 A 
ATOM     77  C   UNL A   1      38.629  34.194  39.292  1.00  0.00     0.041 A 
ATOM     78  F   UNL A   1      37.999  32.380  37.945  1.00  0.00    -0.206 F 
ATOM     79  C   UNL A   1      39.470  35.272  39.548  1.00  0.00     0.022 A 
BRANCH  76  80
ATOM     80  S   UNL A   1      41.651  36.920  38.986  1.00  0.00     0.124 S 
ATOM     81  O   UNL A   1      42.354  37.040  37.715  1.00  0.00    -0.237 OA
ATOM     82  O   UNL A   1      40.754  38.018  39.331  1.00  0.00    -0.237 OA
ATOM     83  O   UNL A   1      42.446  36.396  40.095  1.00  0.00    -0.744 OA
ENDBRANCH  76  80
ENDBRANCH  49  73
BRANCH  61  84
ATOM     84  C   UNL A   1      44.288  28.597  35.689  1.00  0.00     0.023 A 
ATOM     85  C   UNL A   1      44.117  27.587  36.650  1.00  0.00     0.031 A 
ATOM     86  C   UNL A   1      45.591  29.062  35.436  1.00  0.00     0.131 A 
ATOM     87  C   UNL A   1      45.229  27.100  37.354  1.00  0.00     0.055 A 
ATOM     88  C   UNL A   1      46.698  28.542  36.106  1.00  0.00     0.041 A 
ATOM     89  F   UNL A   1      45.806  30.026  34.527  1.00  0.00    -0.206 F 
ATOM     90  C   UNL A   1      46.519  27.561  37.078  1.00  0.00     0.022 A 
BRANCH  87  91
ATOM     91  S   UNL A   1      44.964  25.890  38.679  1.00  0.00     0.124 S 
ATOM     92  O   UNL A   1      46.332  25.564  39.070  1.00  0.00    -0.237 OA
ATOM     93  O   UNL A   1      44.188  26.653  39.651  1.00  0.00    -0.237 OA
ATOM     94  O   UNL A   1      44.234  24.810  38.017  1.00  0.00    -0.744 OA
ENDBRANCH  87  91
ENDBRANCH  61  84
ENDBRANCH  35  36
ENDBRANCH  27  30
ENDBRANCH  25  26
ENDBRANCH  24  25
ENDBRANCH   1  24
TORSDOF 17
ENDMDL
