MODEL 1
REMARK VINA RESULT:     -12.5      0.000      0.000
REMARK SMILES CC(=O)Nc1cc(NC(C)=O)cc(C(=O)Nc2ccc(Br)cc2C(=O)NCCCCNC(=O)c2ccc(-c3c4nc(c(-c5cc(S(=O)(=O)[O-])ccc5F)c5ccc([nH]5)c(-c5cc(S(=O)(=O)[O-])ccc5F)c5nc(c(-c6cc(S(=O)(=O)[O-])ccc6F)c6ccc3[nH]6)C=C5)C=C4)cc2)c1
REMARK SMILES IDX 28 1 27 2 26 3 24 4 25 5 23 7 17 8 18 9 19 10 22 11 20 12
REMARK SMILES IDX 21 13 16 14 14 15 15 16 13 18 5 19 6 20 97 21 7 22 12 23
REMARK SMILES IDX 4 24 1 25 2 26 3 27 8 29 9 30 10 32 11 33 29 34 30 35 31 36
REMARK SMILES IDX 32 37 33 39 34 40 35 41 96 42 36 43 95 44 37 45 38 46 39 47
REMARK SMILES IDX 89 48 40 49 94 50 88 51 90 52 41 53 93 54 87 55 86 56 42 58
REMARK SMILES IDX 74 59 54 60 73 61 55 62 58 63 72 64 91 65 56 66 57 67 71 69
REMARK SMILES IDX 92 70 59 71 43 72 44 73 52 74 45 75 51 76 53 77 50 78 46 79
REMARK SMILES IDX 47 80 48 81 49 82 75 83 76 84 84 85 77 86 83 87 85 88 82 89
REMARK SMILES IDX 78 90 79 91 80 92 81 93 60 94 61 95 69 96 62 97 68 98 70 99
REMARK SMILES IDX 67 100 63 101 64 102 65 103 66 104
REMARK H PARENT 26 6 16 17 4 28 8 31 31 38 90 57 58 68
REMARK Flexibility Score: inf
ROOT
ATOM      1  C   UNL A   1      37.024  21.593  24.068  1.00  0.00     0.023 C 
ENDROOT
BRANCH   1   2
ATOM      2  C   UNL A   1      36.820  23.098  24.188  1.00  0.00     0.116 C 
BRANCH   2   3
ATOM      3  N   UNL A   1      35.914  23.502  25.240  1.00  0.00    -0.352 N 
ATOM      4  C   UNL A   1      34.611  23.129  25.467  1.00  0.00     0.253 C 
ATOM      5  O   UNL A   1      34.020  23.624  26.426  1.00  0.00    -0.269 OA
ATOM      6  H   UNL A   1      36.285  24.139  25.892  1.00  0.00     0.163 HD
BRANCH   4   7
ATOM      7  C   UNL A   1      33.859  22.228  24.548  1.00  0.00     0.064 A 
ATOM      8  C   UNL A   1      33.374  22.534  23.260  1.00  0.00     0.054 A 
ATOM      9  C   UNL A   1      32.491  21.631  22.639  1.00  0.00     0.028 A 
ATOM     10  C   UNL A   1      32.234  20.375  23.192  1.00  0.00     0.018 A 
ATOM     11  C   UNL A   1      33.623  20.941  25.078  1.00  0.00     0.031 A 
ATOM     12  C   UNL A   1      32.838  20.019  24.390  1.00  0.00     0.018 A 
ATOM     13  Br  UNL A   1      32.598  18.277  25.080  1.00  0.00    -0.051 Br
BRANCH   8  14
ATOM     14  N   UNL A   1      33.738  23.628  22.442  1.00  0.00    -0.321 N 
ATOM     15  C   UNL A   1      33.265  24.925  22.373  1.00  0.00     0.255 C 
ATOM     16  O   UNL A   1      33.579  25.626  21.414  1.00  0.00    -0.269 OA
ATOM     17  H   UNL A   1      34.462  23.430  21.804  1.00  0.00     0.170 HD
BRANCH  15  18
ATOM     18  C   UNL A   1      32.443  25.511  23.455  1.00  0.00     0.044 A 
ATOM     19  C   UNL A   1      30.267  26.005  24.373  1.00  0.00     0.044 A 
ATOM     20  C   UNL A   1      30.888  26.844  25.312  1.00  0.00     0.052 A 
ATOM     21  C   UNL A   1      31.064  25.289  23.493  1.00  0.00     0.040 A 
ATOM     22  C   UNL A   1      32.283  26.959  25.383  1.00  0.00     0.044 A 
ATOM     23  C   UNL A   1      33.060  26.298  24.432  1.00  0.00     0.040 A 
BRANCH  19  24
ATOM     24  N   UNL A   1      28.860  26.035  24.309  1.00  0.00    -0.326 N 
ATOM     25  C   UNL A   1      28.387  28.143  23.051  1.00  0.00     0.114 C 
ATOM     26  C   UNL A   1      27.963  26.976  23.896  1.00  0.00     0.221 C 
ATOM     27  O   UNL A   1      26.773  26.835  24.193  1.00  0.00    -0.275 OA
ATOM     28  H   UNL A   1      28.437  25.205  24.629  1.00  0.00     0.169 HD
ENDBRANCH  19  24
BRANCH  22  29
ATOM     29  N   UNL A   1      32.961  27.725  26.358  1.00  0.00    -0.326 N 
ATOM     30  C   UNL A   1      33.390  29.035  26.243  1.00  0.00     0.221 C 
ATOM     31  H   UNL A   1      33.150  27.275  27.213  1.00  0.00     0.169 HD
ATOM     32  C   UNL A   1      34.064  29.552  27.491  1.00  0.00     0.114 C 
ATOM     33  O   UNL A   1      33.248  29.766  25.268  1.00  0.00    -0.275 OA
ENDBRANCH  22  29
ENDBRANCH  15  18
ENDBRANCH   8  14
ENDBRANCH   4   7
ENDBRANCH   2   3
ENDBRANCH   1   2
BRANCH   1  34
ATOM     34  C   UNL A   1      37.523  20.875  25.326  1.00  0.00     0.023 C 
BRANCH  34  35
ATOM     35  C   UNL A   1      38.961  21.149  25.764  1.00  0.00     0.116 C 
BRANCH  35  36
ATOM     36  N   UNL A   1      39.796  19.963  25.864  1.00  0.00    -0.352 N 
ATOM     37  C   UNL A   1      41.146  19.845  26.120  1.00  0.00     0.251 C 
ATOM     38  H   UNL A   1      39.323  19.110  25.728  1.00  0.00     0.163 HD
ATOM     39  O   UNL A   1      41.687  18.749  26.067  1.00  0.00    -0.269 OA
BRANCH  37  40
ATOM     40  C   UNL A   1      41.946  21.057  26.414  1.00  0.00     0.039 A 
ATOM     41  C   UNL A   1      42.339  21.880  25.357  1.00  0.00     0.014 A 
ATOM     42  C   UNL A   1      42.273  21.398  27.729  1.00  0.00     0.014 A 
ATOM     43  C   UNL A   1      42.959  23.103  25.628  1.00  0.00     0.010 A 
ATOM     44  C   UNL A   1      42.822  22.650  28.000  1.00  0.00     0.010 A 
ATOM     45  C   UNL A   1      43.149  23.527  26.954  1.00  0.00    -0.014 A 
BRANCH  45  46
ATOM     46  C   UNL A   1      43.646  24.897  27.264  1.00  0.00     0.031 A 
ATOM     47  C   UNL A   1      42.708  25.946  27.796  1.00  0.00     0.074 A 
ATOM     48  C   UNL A   1      44.927  25.219  26.987  1.00  0.00     0.049 A 
ATOM     49  N   UNL A   1      42.931  27.214  28.031  1.00  0.00    -0.248 NA
ATOM     50  C   UNL A   1      41.327  25.519  28.065  1.00  0.00     0.031 C 
ATOM     51  C   UNL A   1      45.924  24.307  26.419  1.00  0.00     0.029 A 
ATOM     52  N   UNL A   1      45.609  26.402  27.130  1.00  0.00    -0.354 N 
ATOM     53  C   UNL A   1      41.719  27.741  28.463  1.00  0.00     0.074 A 
ATOM     54  C   UNL A   1      40.751  26.665  28.396  1.00  0.00     0.031 C 
ATOM     55  C   UNL A   1      47.091  24.956  26.287  1.00  0.00     0.029 A 
ATOM     56  C   UNL A   1      46.920  26.342  26.712  1.00  0.00     0.049 A 
ATOM     57  H   UNL A   1      45.199  27.218  27.497  1.00  0.00     0.167 HD
ATOM     58  C   UNL A   1      41.444  28.997  28.896  1.00  0.00     0.034 A 
ATOM     59  C   UNL A   1      47.873  27.294  26.662  1.00  0.00     0.034 A 
ATOM     60  C   UNL A   1      42.423  30.054  28.977  1.00  0.00     0.049 A 
ATOM     61  C   UNL A   1      47.540  28.685  27.142  1.00  0.00     0.074 A 
ATOM     62  C   UNL A   1      42.263  31.342  29.460  1.00  0.00     0.029 A 
ATOM     63  N   UNL A   1      43.744  29.950  28.561  1.00  0.00    -0.354 N 
ATOM     64  N   UNL A   1      46.400  29.151  27.598  1.00  0.00    -0.248 NA
ATOM     65  C   UNL A   1      48.625  29.675  27.109  1.00  0.00     0.031 C 
ATOM     66  C   UNL A   1      43.465  32.034  29.278  1.00  0.00     0.029 A 
ATOM     67  C   UNL A   1      44.400  31.158  28.750  1.00  0.00     0.049 A 
ATOM     68  H   UNL A   1      44.155  29.137  28.187  1.00  0.00     0.167 HD
ATOM     69  C   UNL A   1      46.644  30.479  27.938  1.00  0.00     0.074 A 
ATOM     70  C   UNL A   1      48.039  30.734  27.648  1.00  0.00     0.031 C 
ATOM     71  C   UNL A   1      45.791  31.402  28.450  1.00  0.00     0.034 A 
BRANCH  58  72
ATOM     72  C   UNL A   1      40.019  29.298  29.295  1.00  0.00     0.023 A 
ATOM     73  C   UNL A   1      39.626  29.350  30.644  1.00  0.00     0.031 A 
ATOM     74  C   UNL A   1      39.034  29.516  28.315  1.00  0.00     0.131 A 
ATOM     75  C   UNL A   1      38.275  29.536  30.974  1.00  0.00     0.055 A 
ATOM     76  C   UNL A   1      37.706  29.785  28.652  1.00  0.00     0.041 A 
ATOM     77  F   UNL A   1      39.345  29.460  27.010  1.00  0.00    -0.206 F 
ATOM     78  C   UNL A   1      37.317  29.781  29.988  1.00  0.00     0.022 A 
BRANCH  75  79
ATOM     79  S   UNL A   1      37.769  29.310  32.700  1.00  0.00     0.124 S 
ATOM     80  O   UNL A   1      38.881  29.932  33.416  1.00  0.00    -0.237 OA
ATOM     81  O   UNL A   1      36.498  30.023  32.753  1.00  0.00    -0.237 OA
ATOM     82  O   UNL A   1      37.679  27.859  32.844  1.00  0.00    -0.744 OA
ENDBRANCH  75  79
ENDBRANCH  58  72
BRANCH  59  83
ATOM     83  C   UNL A   1      49.232  26.981  26.132  1.00  0.00     0.023 A 
ATOM     84  C   UNL A   1      49.624  27.406  24.853  1.00  0.00     0.031 A 
ATOM     85  C   UNL A   1      50.140  26.210  26.878  1.00  0.00     0.131 A 
ATOM     86  C   UNL A   1      50.868  27.012  24.335  1.00  0.00     0.055 A 
ATOM     87  C   UNL A   1      51.399  25.865  26.380  1.00  0.00     0.041 A 
ATOM     88  F   UNL A   1      49.819  25.783  28.110  1.00  0.00    -0.206 F 
ATOM     89  C   UNL A   1      51.763  26.256  25.095  1.00  0.00     0.022 A 
BRANCH  86  90
ATOM     90  S   UNL A   1      51.263  27.428  22.614  1.00  0.00     0.124 S 
ATOM     91  O   UNL A   1      51.095  28.876  22.613  1.00  0.00    -0.237 OA
ATOM     92  O   UNL A   1      52.633  26.940  22.493  1.00  0.00    -0.237 OA
ATOM     93  O   UNL A   1      50.268  26.682  21.847  1.00  0.00    -0.744 OA
ENDBRANCH  86  90
ENDBRANCH  59  83
BRANCH  71  94
ATOM     94  C   UNL A   1      46.364  32.761  28.774  1.00  0.00     0.023 A 
ATOM     95  C   UNL A   1      46.342  33.816  27.847  1.00  0.00     0.031 A 
ATOM     96  C   UNL A   1      46.952  32.995  30.030  1.00  0.00     0.131 A 
ATOM     97  C   UNL A   1      46.945  35.042  28.169  1.00  0.00     0.055 A 
ATOM     98  C   UNL A   1      47.497  34.235  30.368  1.00  0.00     0.041 A 
ATOM     99  F   UNL A   1      47.002  32.022  30.954  1.00  0.00    -0.206 F 
ATOM    100  C   UNL A   1      47.507  35.263  29.429  1.00  0.00     0.022 A 
BRANCH  97 101
ATOM    101  S   UNL A   1      47.062  36.320  26.886  1.00  0.00     0.124 S 
ATOM    102  O   UNL A   1      45.993  37.235  27.272  1.00  0.00    -0.237 OA
ATOM    103  O   UNL A   1      48.423  36.816  27.065  1.00  0.00    -0.237 OA
ATOM    104  O   UNL A   1      46.830  35.583  25.646  1.00  0.00    -0.744 OA
ENDBRANCH  97 101
ENDBRANCH  71  94
ENDBRANCH  45  46
ENDBRANCH  37  40
ENDBRANCH  35  36
ENDBRANCH  34  35
ENDBRANCH   1  34
TORSDOF 18
ENDMDL
MODEL 2
REMARK VINA RESULT:     -12.4      1.018      2.070
REMARK SMILES CC(=O)Nc1cc(NC(C)=O)cc(C(=O)Nc2ccc(Br)cc2C(=O)NCCCCNC(=O)c2ccc(-c3c4nc(c(-c5cc(S(=O)(=O)[O-])ccc5F)c5ccc([nH]5)c(-c5cc(S(=O)(=O)[O-])ccc5F)c5nc(c(-c6cc(S(=O)(=O)[O-])ccc6F)c6ccc3[nH]6)C=C5)C=C4)cc2)c1
REMARK SMILES IDX 28 1 27 2 26 3 24 4 25 5 23 7 17 8 18 9 19 10 22 11 20 12
REMARK SMILES IDX 21 13 16 14 14 15 15 16 13 18 5 19 6 20 97 21 7 22 12 23
REMARK SMILES IDX 4 24 1 25 2 26 3 27 8 29 9 30 10 32 11 33 29 34 30 35 31 36
REMARK SMILES IDX 32 37 33 39 34 40 35 41 96 42 36 43 95 44 37 45 38 46 39 47
REMARK SMILES IDX 89 48 40 49 94 50 88 51 90 52 41 53 93 54 87 55 86 56 42 58
REMARK SMILES IDX 74 59 54 60 73 61 55 62 58 63 72 64 91 65 56 66 57 67 71 69
REMARK SMILES IDX 92 70 59 71 43 72 44 73 52 74 45 75 51 76 53 77 50 78 46 79
REMARK SMILES IDX 47 80 48 81 49 82 75 83 76 84 84 85 77 86 83 87 85 88 82 89
REMARK SMILES IDX 78 90 79 91 80 92 81 93 60 94 61 95 69 96 62 97 68 98 70 99
REMARK SMILES IDX 67 100 63 101 64 102 65 103 66 104
REMARK H PARENT 26 6 16 17 4 28 8 31 31 38 90 57 58 68
REMARK Flexibility Score: inf
ROOT
ATOM      1  C   UNL A   1      37.191  21.507  24.242  1.00  0.00     0.023 C 
ENDROOT
BRANCH   1   2
ATOM      2  C   UNL A   1      36.979  23.015  24.275  1.00  0.00     0.116 C 
BRANCH   2   3
ATOM      3  N   UNL A   1      36.079  23.475  25.310  1.00  0.00    -0.352 N 
ATOM      4  C   UNL A   1      34.738  23.231  25.479  1.00  0.00     0.253 C 
ATOM      5  O   UNL A   1      34.164  23.752  26.435  1.00  0.00    -0.269 OA
ATOM      6  H   UNL A   1      36.489  24.049  25.997  1.00  0.00     0.163 HD
BRANCH   4   7
ATOM      7  C   UNL A   1      33.933  22.442  24.502  1.00  0.00     0.064 A 
ATOM      8  C   UNL A   1      33.425  22.882  23.263  1.00  0.00     0.054 A 
ATOM      9  C   UNL A   1      32.498  22.069  22.587  1.00  0.00     0.028 A 
ATOM     10  C   UNL A   1      32.214  20.775  23.028  1.00  0.00     0.018 A 
ATOM     11  C   UNL A   1      33.669  21.119  24.917  1.00  0.00     0.031 A 
ATOM     12  C   UNL A   1      32.837  20.290  24.169  1.00  0.00     0.018 A 
ATOM     13  Br  UNL A   1      32.557  18.499  24.702  1.00  0.00    -0.051 Br
BRANCH   8  14
ATOM     14  N   UNL A   1      33.803  24.037  22.539  1.00  0.00    -0.321 N 
ATOM     15  C   UNL A   1      33.285  25.318  22.511  1.00  0.00     0.255 C 
ATOM     16  O   UNL A   1      33.640  26.087  21.621  1.00  0.00    -0.269 OA
ATOM     17  H   UNL A   1      34.579  23.904  21.947  1.00  0.00     0.170 HD
BRANCH  15  18
ATOM     18  C   UNL A   1      32.363  25.807  23.561  1.00  0.00     0.044 A 
ATOM     19  C   UNL A   1      31.639  27.586  25.021  1.00  0.00     0.044 A 
ATOM     20  C   UNL A   1      30.848  26.654  25.712  1.00  0.00     0.052 A 
ATOM     21  C   UNL A   1      32.339  27.162  23.902  1.00  0.00     0.040 A 
ATOM     22  C   UNL A   1      30.744  25.322  25.288  1.00  0.00     0.044 A 
ATOM     23  C   UNL A   1      31.526  24.898  24.213  1.00  0.00     0.040 A 
BRANCH  19  24
ATOM     24  N   UNL A   1      31.763  28.872  25.582  1.00  0.00    -0.326 N 
ATOM     25  C   UNL A   1      33.662  28.617  27.188  1.00  0.00     0.114 C 
ATOM     26  C   UNL A   1      32.496  29.374  26.617  1.00  0.00     0.221 C 
ATOM     27  O   UNL A   1      32.215  30.492  27.059  1.00  0.00    -0.275 OA
ATOM     28  H   UNL A   1      31.204  29.548  25.135  1.00  0.00     0.169 HD
ENDBRANCH  19  24
BRANCH  22  29
ATOM     29  N   UNL A   1      29.903  24.365  25.897  1.00  0.00    -0.326 N 
ATOM     30  C   UNL A   1      30.235  23.482  26.909  1.00  0.00     0.221 C 
ATOM     31  H   UNL A   1      28.978  24.322  25.564  1.00  0.00     0.169 HD
ATOM     32  C   UNL A   1      29.080  22.610  27.340  1.00  0.00     0.114 C 
ATOM     33  O   UNL A   1      31.326  23.381  27.460  1.00  0.00    -0.275 OA
ENDBRANCH  22  29
ENDBRANCH  15  18
ENDBRANCH   8  14
ENDBRANCH   4   7
ENDBRANCH   2   3
ENDBRANCH   1   2
BRANCH   1  34
ATOM     34  C   UNL A   1      37.694  20.866  25.539  1.00  0.00     0.023 C 
BRANCH  34  35
ATOM     35  C   UNL A   1      39.140  21.148  25.944  1.00  0.00     0.116 C 
BRANCH  35  36
ATOM     36  N   UNL A   1      39.994  19.972  25.982  1.00  0.00    -0.352 N 
ATOM     37  C   UNL A   1      41.357  19.870  26.170  1.00  0.00     0.251 C 
ATOM     38  H   UNL A   1      39.528  19.115  25.852  1.00  0.00     0.163 HD
ATOM     39  O   UNL A   1      41.909  18.782  26.070  1.00  0.00    -0.269 OA
BRANCH  37  40
ATOM     40  C   UNL A   1      42.154  21.087  26.448  1.00  0.00     0.039 A 
ATOM     41  C   UNL A   1      42.514  21.916  25.383  1.00  0.00     0.014 A 
ATOM     42  C   UNL A   1      42.511  21.428  27.755  1.00  0.00     0.014 A 
ATOM     43  C   UNL A   1      43.130  23.144  25.642  1.00  0.00     0.010 A 
ATOM     44  C   UNL A   1      43.055  22.684  28.015  1.00  0.00     0.010 A 
ATOM     45  C   UNL A   1      43.349  23.566  26.964  1.00  0.00    -0.014 A 
BRANCH  45  46
ATOM     46  C   UNL A   1      43.842  24.940  27.265  1.00  0.00     0.031 A 
ATOM     47  C   UNL A   1      42.914  25.973  27.841  1.00  0.00     0.074 A 
ATOM     48  C   UNL A   1      45.108  25.278  26.941  1.00  0.00     0.049 A 
ATOM     49  N   UNL A   1      43.132  27.242  28.078  1.00  0.00    -0.248 NA
ATOM     50  C   UNL A   1      41.549  25.528  28.160  1.00  0.00     0.031 C 
ATOM     51  C   UNL A   1      46.093  24.382  26.328  1.00  0.00     0.029 A 
ATOM     52  N   UNL A   1      45.782  26.468  27.067  1.00  0.00    -0.354 N 
ATOM     53  C   UNL A   1      41.931  27.751  28.560  1.00  0.00     0.074 A 
ATOM     54  C   UNL A   1      40.974  26.665  28.523  1.00  0.00     0.031 C 
ATOM     55  C   UNL A   1      47.246  25.046  26.156  1.00  0.00     0.029 A 
ATOM     56  C   UNL A   1      47.076  26.426  26.598  1.00  0.00     0.049 A 
ATOM     57  H   UNL A   1      45.377  27.276  27.456  1.00  0.00     0.167 HD
ATOM     58  C   UNL A   1      41.659  29.001  29.014  1.00  0.00     0.034 A 
ATOM     59  C   UNL A   1      48.016  27.390  26.519  1.00  0.00     0.034 A 
ATOM     60  C   UNL A   1      42.629  30.069  29.065  1.00  0.00     0.049 A 
ATOM     61  C   UNL A   1      47.686  28.773  27.022  1.00  0.00     0.074 A 
ATOM     62  C   UNL A   1      42.474  31.351  29.563  1.00  0.00     0.029 A 
ATOM     63  N   UNL A   1      43.934  29.983  28.597  1.00  0.00    -0.354 N 
ATOM     64  N   UNL A   1      46.559  29.222  27.525  1.00  0.00    -0.248 NA
ATOM     65  C   UNL A   1      48.758  29.775  26.955  1.00  0.00     0.031 C 
ATOM     66  C   UNL A   1      43.660  32.058  29.341  1.00  0.00     0.029 A 
ATOM     67  C   UNL A   1      44.583  31.197  28.770  1.00  0.00     0.049 A 
ATOM     68  H   UNL A   1      44.340  29.178  28.201  1.00  0.00     0.167 HD
ATOM     69  C   UNL A   1      46.801  30.551  27.867  1.00  0.00     0.074 A 
ATOM     70  C   UNL A   1      48.181  30.824  27.524  1.00  0.00     0.031 C 
ATOM     71  C   UNL A   1      45.959  31.460  28.419  1.00  0.00     0.034 A 
BRANCH  58  72
ATOM     72  C   UNL A   1      40.248  29.282  29.469  1.00  0.00     0.023 A 
ATOM     73  C   UNL A   1      39.919  29.383  30.833  1.00  0.00     0.031 A 
ATOM     74  C   UNL A   1      39.211  29.433  28.532  1.00  0.00     0.131 A 
ATOM     75  C   UNL A   1      38.582  29.549  31.221  1.00  0.00     0.055 A 
ATOM     76  C   UNL A   1      37.894  29.682  28.922  1.00  0.00     0.041 A 
ATOM     77  F   UNL A   1      39.459  29.328  27.217  1.00  0.00    -0.206 F 
ATOM     78  C   UNL A   1      37.570  29.726  30.275  1.00  0.00     0.022 A 
BRANCH  75  79
ATOM     79  S   UNL A   1      38.166  29.386  32.979  1.00  0.00     0.124 S 
ATOM     80  O   UNL A   1      37.404  28.139  32.986  1.00  0.00    -0.237 OA
ATOM     81  O   UNL A   1      39.480  29.335  33.611  1.00  0.00    -0.237 OA
ATOM     82  O   UNL A   1      37.384  30.588  33.260  1.00  0.00    -0.744 OA
ENDBRANCH  75  79
ENDBRANCH  58  72
BRANCH  59  83
ATOM     83  C   UNL A   1      49.357  27.097  25.934  1.00  0.00     0.023 A 
ATOM     84  C   UNL A   1      49.700  27.550  24.651  1.00  0.00     0.031 A 
ATOM     85  C   UNL A   1      50.296  26.316  26.631  1.00  0.00     0.131 A 
ATOM     86  C   UNL A   1      50.927  27.175  24.081  1.00  0.00     0.055 A 
ATOM     87  C   UNL A   1      51.538  25.990  26.082  1.00  0.00     0.041 A 
ATOM     88  F   UNL A   1      50.022  25.863  27.865  1.00  0.00    -0.206 F 
ATOM     89  C   UNL A   1      51.853  26.409  24.792  1.00  0.00     0.022 A 
BRANCH  86  90
ATOM     90  S   UNL A   1      51.257  27.628  22.356  1.00  0.00     0.124 S 
ATOM     91  O   UNL A   1      50.347  26.744  21.637  1.00  0.00    -0.237 OA
ATOM     92  O   UNL A   1      50.916  29.047  22.346  1.00  0.00    -0.237 OA
ATOM     93  O   UNL A   1      52.678  27.330  22.192  1.00  0.00    -0.744 OA
ENDBRANCH  86  90
ENDBRANCH  59  83
BRANCH  71  94
ATOM     94  C   UNL A   1      46.529  32.822  28.731  1.00  0.00     0.023 A 
ATOM     95  C   UNL A   1      46.482  33.877  27.803  1.00  0.00     0.031 A 
ATOM     96  C   UNL A   1      47.138  33.062  29.976  1.00  0.00     0.131 A 
ATOM     97  C   UNL A   1      47.082  35.107  28.113  1.00  0.00     0.055 A 
ATOM     98  C   UNL A   1      47.681  34.306  30.302  1.00  0.00     0.041 A 
ATOM     99  F   UNL A   1      47.212  32.090  30.899  1.00  0.00    -0.206 F 
ATOM    100  C   UNL A   1      47.666  35.333  29.362  1.00  0.00     0.022 A 
BRANCH  97 101
ATOM    101  S   UNL A   1      47.167  36.385  26.828  1.00  0.00     0.124 S 
ATOM    102  O   UNL A   1      48.295  37.193  27.278  1.00  0.00    -0.237 OA
ATOM    103  O   UNL A   1      47.389  35.597  25.620  1.00  0.00    -0.237 OA
ATOM    104  O   UNL A   1      45.862  37.039  26.908  1.00  0.00    -0.744 OA
ENDBRANCH  97 101
ENDBRANCH  71  94
ENDBRANCH  45  46
ENDBRANCH  37  40
ENDBRANCH  35  36
ENDBRANCH  34  35
ENDBRANCH   1  34
TORSDOF 18
ENDMDL
MODEL 3
REMARK VINA RESULT:     -12.4      1.153      7.686
REMARK SMILES CC(=O)Nc1cc(NC(C)=O)cc(C(=O)Nc2ccc(Br)cc2C(=O)NCCCCNC(=O)c2ccc(-c3c4nc(c(-c5cc(S(=O)(=O)[O-])ccc5F)c5ccc([nH]5)c(-c5cc(S(=O)(=O)[O-])ccc5F)c5nc(c(-c6cc(S(=O)(=O)[O-])ccc6F)c6ccc3[nH]6)C=C5)C=C4)cc2)c1
REMARK SMILES IDX 28 1 27 2 26 3 24 4 25 5 23 7 17 8 18 9 19 10 22 11 20 12
REMARK SMILES IDX 21 13 16 14 14 15 15 16 13 18 5 19 6 20 97 21 7 22 12 23
REMARK SMILES IDX 4 24 1 25 2 26 3 27 8 29 9 30 10 32 11 33 29 34 30 35 31 36
REMARK SMILES IDX 32 37 33 39 34 40 35 41 96 42 36 43 95 44 37 45 38 46 39 47
REMARK SMILES IDX 89 48 40 49 94 50 88 51 90 52 41 53 93 54 87 55 86 56 42 58
REMARK SMILES IDX 74 59 54 60 73 61 55 62 58 63 72 64 91 65 56 66 57 67 71 69
REMARK SMILES IDX 92 70 59 71 43 72 44 73 52 74 45 75 51 76 53 77 50 78 46 79
REMARK SMILES IDX 47 80 48 81 49 82 75 83 76 84 84 85 77 86 83 87 85 88 82 89
REMARK SMILES IDX 78 90 79 91 80 92 81 93 60 94 61 95 69 96 62 97 68 98 70 99
REMARK SMILES IDX 67 100 63 101 64 102 65 103 66 104
REMARK H PARENT 26 6 16 17 4 28 8 31 31 38 90 57 58 68
REMARK Flexibility Score: inf
ROOT
ATOM      1  C   UNL A   1      37.020  20.882  25.156  1.00  0.00     0.023 C 
ENDROOT
BRANCH   1   2
ATOM      2  C   UNL A   1      37.043  22.365  24.809  1.00  0.00     0.116 C 
BRANCH   2   3
ATOM      3  N   UNL A   1      36.128  23.179  25.580  1.00  0.00    -0.352 N 
ATOM      4  C   UNL A   1      34.756  23.227  25.547  1.00  0.00     0.253 C 
ATOM      5  O   UNL A   1      34.181  24.023  26.288  1.00  0.00    -0.269 OA
ATOM      6  H   UNL A   1      36.552  23.789  26.225  1.00  0.00     0.163 HD
BRANCH   4   7
ATOM      7  C   UNL A   1      33.944  22.427  24.586  1.00  0.00     0.064 A 
ATOM      8  C   UNL A   1      33.428  22.851  23.344  1.00  0.00     0.054 A 
ATOM      9  C   UNL A   1      32.496  22.029  22.685  1.00  0.00     0.028 A 
ATOM     10  C   UNL A   1      32.213  20.742  23.145  1.00  0.00     0.018 A 
ATOM     11  C   UNL A   1      33.681  21.110  25.020  1.00  0.00     0.031 A 
ATOM     12  C   UNL A   1      32.843  20.271  24.289  1.00  0.00     0.018 A 
ATOM     13  Br  UNL A   1      32.565  18.488  24.847  1.00  0.00    -0.051 Br
BRANCH   8  14
ATOM     14  N   UNL A   1      33.803  23.995  22.603  1.00  0.00    -0.321 N 
ATOM     15  C   UNL A   1      33.293  25.279  22.570  1.00  0.00     0.255 C 
ATOM     16  O   UNL A   1      33.639  26.037  21.667  1.00  0.00    -0.269 OA
ATOM     17  H   UNL A   1      34.568  23.851  22.001  1.00  0.00     0.170 HD
BRANCH  15  18
ATOM     18  C   UNL A   1      32.392  25.786  23.629  1.00  0.00     0.044 A 
ATOM     19  C   UNL A   1      31.719  27.576  25.100  1.00  0.00     0.044 A 
ATOM     20  C   UNL A   1      30.915  26.660  25.796  1.00  0.00     0.052 A 
ATOM     21  C   UNL A   1      32.400  27.140  23.974  1.00  0.00     0.040 A 
ATOM     22  C   UNL A   1      30.778  25.332  25.369  1.00  0.00     0.044 A 
ATOM     23  C   UNL A   1      31.540  24.893  24.286  1.00  0.00     0.040 A 
BRANCH  19  24
ATOM     24  N   UNL A   1      31.876  28.857  25.663  1.00  0.00    -0.326 N 
ATOM     25  C   UNL A   1      33.891  28.601  27.121  1.00  0.00     0.114 C 
ATOM     26  C   UNL A   1      32.681  29.355  26.646  1.00  0.00     0.221 C 
ATOM     27  O   UNL A   1      32.427  30.466  27.119  1.00  0.00    -0.275 OA
ATOM     28  H   UNL A   1      31.282  29.534  25.266  1.00  0.00     0.169 HD
ENDBRANCH  19  24
BRANCH  22  29
ATOM     29  N   UNL A   1      29.921  24.391  25.983  1.00  0.00    -0.326 N 
ATOM     30  C   UNL A   1      30.277  23.385  26.863  1.00  0.00     0.221 C 
ATOM     31  H   UNL A   1      28.965  24.461  25.759  1.00  0.00     0.169 HD
ATOM     32  C   UNL A   1      29.098  22.574  27.346  1.00  0.00     0.114 C 
ATOM     33  O   UNL A   1      31.407  23.137  27.270  1.00  0.00    -0.275 OA
ENDBRANCH  22  29
ENDBRANCH  15  18
ENDBRANCH   8  14
ENDBRANCH   4   7
ENDBRANCH   2   3
ENDBRANCH   1   2
BRANCH   1  34
ATOM     34  C   UNL A   1      38.312  20.104  24.891  1.00  0.00     0.023 C 
BRANCH  34  35
ATOM     35  C   UNL A   1      39.484  20.349  25.841  1.00  0.00     0.116 C 
BRANCH  35  36
ATOM     36  N   UNL A   1      40.441  19.256  25.910  1.00  0.00    -0.352 N 
ATOM     37  C   UNL A   1      41.803  19.281  26.124  1.00  0.00     0.251 C 
ATOM     38  H   UNL A   1      40.057  18.359  25.783  1.00  0.00     0.163 HD
ATOM     39  O   UNL A   1      42.454  18.248  26.048  1.00  0.00    -0.269 OA
BRANCH  37  40
ATOM     40  C   UNL A   1      42.480  20.569  26.400  1.00  0.00     0.039 A 
ATOM     41  C   UNL A   1      43.004  21.299  25.332  1.00  0.00     0.014 A 
ATOM     42  C   UNL A   1      42.564  21.070  27.702  1.00  0.00     0.014 A 
ATOM     43  C   UNL A   1      43.507  22.585  25.555  1.00  0.00     0.010 A 
ATOM     44  C   UNL A   1      42.995  22.379  27.910  1.00  0.00     0.010 A 
ATOM     45  C   UNL A   1      43.450  23.159  26.835  1.00  0.00    -0.014 A 
BRANCH  45  46
ATOM     46  C   UNL A   1      43.818  24.586  27.060  1.00  0.00     0.031 A 
ATOM     47  C   UNL A   1      45.240  25.043  26.884  1.00  0.00     0.074 A 
ATOM     48  C   UNL A   1      42.884  25.451  27.506  1.00  0.00     0.049 A 
ATOM     49  N   UNL A   1      45.769  26.215  27.127  1.00  0.00    -0.248 NA
ATOM     50  C   UNL A   1      46.200  24.038  26.402  1.00  0.00     0.031 C 
ATOM     51  C   UNL A   1      41.480  25.120  27.768  1.00  0.00     0.029 A 
ATOM     52  N   UNL A   1      42.972  26.783  27.832  1.00  0.00    -0.354 N 
ATOM     53  C   UNL A   1      47.124  26.088  26.842  1.00  0.00     0.074 A 
ATOM     54  C   UNL A   1      47.342  24.706  26.468  1.00  0.00     0.031 C 
ATOM     55  C   UNL A   1      40.838  26.221  28.189  1.00  0.00     0.029 A 
ATOM     56  C   UNL A   1      41.787  27.327  28.275  1.00  0.00     0.049 A 
ATOM     57  H   UNL A   1      43.805  27.300  27.756  1.00  0.00     0.167 HD
ATOM     58  C   UNL A   1      48.092  27.039  26.869  1.00  0.00     0.034 A 
ATOM     59  C   UNL A   1      41.497  28.568  28.713  1.00  0.00     0.034 A 
ATOM     60  C   UNL A   1      47.856  28.418  27.224  1.00  0.00     0.049 A 
ATOM     61  C   UNL A   1      42.592  29.606  28.741  1.00  0.00     0.074 A 
ATOM     62  C   UNL A   1      48.752  29.474  27.222  1.00  0.00     0.029 A 
ATOM     63  N   UNL A   1      46.639  28.935  27.650  1.00  0.00    -0.354 N 
ATOM     64  N   UNL A   1      43.858  29.480  28.416  1.00  0.00    -0.248 NA
ATOM     65  C   UNL A   1      42.215  30.955  29.184  1.00  0.00     0.031 C 
ATOM     66  C   UNL A   1      48.096  30.611  27.706  1.00  0.00     0.029 A 
ATOM     67  C   UNL A   1      46.770  30.285  27.940  1.00  0.00     0.049 A 
ATOM     68  H   UNL A   1      45.805  28.418  27.734  1.00  0.00     0.167 HD
ATOM     69  C   UNL A   1      44.418  30.744  28.584  1.00  0.00     0.074 A 
ATOM     70  C   UNL A   1      43.351  31.618  29.024  1.00  0.00     0.031 C 
ATOM     71  C   UNL A   1      45.699  31.146  28.385  1.00  0.00     0.034 A 
BRANCH  58  72
ATOM     72  C   UNL A   1      49.497  26.610  26.523  1.00  0.00     0.023 A 
ATOM     73  C   UNL A   1      50.128  27.034  25.339  1.00  0.00     0.031 A 
ATOM     74  C   UNL A   1      50.212  25.751  27.375  1.00  0.00     0.131 A 
ATOM     75  C   UNL A   1      51.396  26.539  25.005  1.00  0.00     0.055 A 
ATOM     76  C   UNL A   1      51.509  25.327  27.077  1.00  0.00     0.041 A 
ATOM     77  F   UNL A   1      49.656  25.297  28.510  1.00  0.00    -0.206 F 
ATOM     78  C   UNL A   1      52.102  25.709  25.878  1.00  0.00     0.022 A 
BRANCH  75  79
ATOM     79  S   UNL A   1      52.047  26.880  23.347  1.00  0.00     0.124 S 
ATOM     80  O   UNL A   1      50.851  26.717  22.523  1.00  0.00    -0.237 OA
ATOM     81  O   UNL A   1      52.551  28.242  23.479  1.00  0.00    -0.237 OA
ATOM     82  O   UNL A   1      53.068  25.851  23.160  1.00  0.00    -0.744 OA
ENDBRANCH  75  79
ENDBRANCH  58  72
BRANCH  59  83
ATOM     83  C   UNL A   1      40.119  28.909  29.174  1.00  0.00     0.023 A 
ATOM     84  C   UNL A   1      39.784  28.873  30.536  1.00  0.00     0.031 A 
ATOM     85  C   UNL A   1      39.106  29.226  28.253  1.00  0.00     0.131 A 
ATOM     86  C   UNL A   1      38.457  29.096  30.936  1.00  0.00     0.055 A 
ATOM     87  C   UNL A   1      37.798  29.501  28.660  1.00  0.00     0.041 A 
ATOM     88  F   UNL A   1      39.374  29.281  26.939  1.00  0.00    -0.206 F 
ATOM     89  C   UNL A   1      37.465  29.422  30.009  1.00  0.00     0.022 A 
BRANCH  86  90
ATOM     90  S   UNL A   1      38.026  28.865  32.683  1.00  0.00     0.124 S 
ATOM     91  O   UNL A   1      39.043  29.671  33.349  1.00  0.00    -0.237 OA
ATOM     92  O   UNL A   1      36.663  29.383  32.729  1.00  0.00    -0.237 OA
ATOM     93  O   UNL A   1      38.149  27.421  32.875  1.00  0.00    -0.744 OA
ENDBRANCH  86  90
ENDBRANCH  59  83
BRANCH  71  94
ATOM     94  C   UNL A   1      46.000  32.610  28.598  1.00  0.00     0.023 A 
ATOM     95  C   UNL A   1      45.924  33.543  27.550  1.00  0.00     0.031 A 
ATOM     96  C   UNL A   1      46.379  33.072  29.871  1.00  0.00     0.131 A 
ATOM     97  C   UNL A   1      46.275  34.882  27.781  1.00  0.00     0.055 A 
ATOM     98  C   UNL A   1      46.671  34.416  30.109  1.00  0.00     0.041 A 
ATOM     99  F   UNL A   1      46.470  32.223  30.908  1.00  0.00    -0.206 F 
ATOM    100  C   UNL A   1      46.632  35.328  29.057  1.00  0.00     0.022 A 
BRANCH  97 101
ATOM    101  S   UNL A   1      46.345  36.021  26.371  1.00  0.00     0.124 S 
ATOM    102  O   UNL A   1      46.372  35.100  25.239  1.00  0.00    -0.237 OA
ATOM    103  O   UNL A   1      45.118  36.795  26.534  1.00  0.00    -0.237 OA
ATOM    104  O   UNL A   1      47.581  36.768  26.593  1.00  0.00    -0.744 OA
ENDBRANCH  97 101
ENDBRANCH  71  94
ENDBRANCH  45  46
ENDBRANCH  37  40
ENDBRANCH  35  36
ENDBRANCH  34  35
ENDBRANCH   1  34
TORSDOF 18
ENDMDL
