MODEL 1
REMARK VINA RESULT:     -12.6      0.000      0.000
REMARK SMILES CC[C@H]1CCCCN1S(=O)(=O)c1ccc2oc(C(=O)NCCCCNC(=O)c3ccc(-c4c5nc(c(-c6cc(S(=O)(=O)[O-])ccc6F)c6ccc([nH]6)c(-c6cc(S(=O)(=O)[O-])ccc6F)c6nc(c(-c7cc(S(=O)(=O)[O-])ccc7F)c7ccc4[nH]7)C=C6)C=C5)cc3)c(C)c2c1
REMARK SMILES IDX 22 1 21 2 20 3 18 4 19 5 17 7 12 8 13 9 94 10 14 11 93 12
REMARK SMILES IDX 15 13 91 14 16 15 92 16 9 17 10 18 11 19 8 20 3 21 4 22 5 23
REMARK SMILES IDX 7 24 6 25 2 26 1 27 23 28 24 29 25 30 26 31 27 33 28 34
REMARK SMILES IDX 29 35 90 36 30 37 89 38 31 39 32 40 33 41 83 42 34 43 88 44
REMARK SMILES IDX 82 45 84 46 35 47 87 48 81 49 80 50 36 52 68 53 48 54 67 55
REMARK SMILES IDX 49 56 52 57 66 58 85 59 50 60 51 61 65 63 86 64 53 65 37 66
REMARK SMILES IDX 38 67 46 68 39 69 45 70 47 71 44 72 40 73 41 74 42 75 43 76
REMARK SMILES IDX 69 77 70 78 78 79 71 80 77 81 79 82 76 83 72 84 73 85 74 86
REMARK SMILES IDX 75 87 54 88 55 89 63 90 56 91 62 92 64 93 61 94 57 95 58 96
REMARK SMILES IDX 59 97 60 98
REMARK H PARENT 20 6 25 32 84 51 52 62
REMARK Flexibility Score: inf
ROOT
ATOM      1  C   UNL A   1      36.830  19.916  24.901  1.00  0.00     0.023 C 
ENDROOT
BRANCH   1   2
ATOM      2  C   UNL A   1      35.390  20.379  25.050  1.00  0.00     0.116 C 
BRANCH   2   3
ATOM      3  N   UNL A   1      34.373  19.354  25.096  1.00  0.00    -0.349 N 
ATOM      4  C   UNL A   1      32.998  19.484  24.982  1.00  0.00     0.287 C 
ATOM      5  O   UNL A   1      32.347  18.440  25.060  1.00  0.00    -0.266 OA
ATOM      6  H   UNL A   1      34.703  18.435  25.226  1.00  0.00     0.163 HD
BRANCH   4   7
ATOM      7  C   UNL A   1      32.370  20.794  24.839  1.00  0.00     0.195 A 
ATOM      8  C   UNL A   1      30.658  25.029  24.601  1.00  0.00     0.083 A 
ATOM      9  C   UNL A   1      30.288  24.716  25.915  1.00  0.00     0.025 A 
ATOM     10  C   UNL A   1      31.463  24.160  23.865  1.00  0.00     0.034 A 
ATOM     11  C   UNL A   1      30.699  23.501  26.507  1.00  0.00     0.049 A 
ATOM     12  C   UNL A   1      31.693  22.879  24.367  1.00  0.00     0.025 A 
ATOM     13  C   UNL A   1      31.383  22.605  25.682  1.00  0.00     0.135 A 
ATOM     14  C   UNL A   1      32.093  21.653  23.778  1.00  0.00     0.008 A 
ATOM     15  O   UNL A   1      31.846  21.363  25.994  1.00  0.00    -0.451 OA
ATOM     16  C   UNL A   1      32.093  21.434  22.307  1.00  0.00     0.049 C 
BRANCH   8  17
ATOM     17  S   UNL A   1      30.205  26.555  23.809  1.00  0.00     0.243 S 
ATOM     18  O   UNL A   1      28.757  26.588  23.815  1.00  0.00    -0.207 OA
ATOM     19  O   UNL A   1      30.938  26.641  22.562  1.00  0.00    -0.207 OA
BRANCH  17  20
ATOM     20  N   UNL A   1      30.788  27.835  24.831  1.00  0.00    -0.195 NA
ATOM     21  C   UNL A   1      31.958  27.415  25.697  1.00  0.00     0.073 C 
ATOM     22  C   UNL A   1      32.195  28.486  26.777  1.00  0.00     0.020 C 
ATOM     23  C   UNL A   1      32.436  29.870  26.184  1.00  0.00     0.003 C 
ATOM     24  C   UNL A   1      30.997  29.183  24.228  1.00  0.00     0.103 C 
ATOM     25  C   UNL A   1      31.279  30.247  25.281  1.00  0.00     0.017 C 
BRANCH  21  26
ATOM     26  C   UNL A   1      33.249  27.147  24.888  1.00  0.00     0.017 C 
ATOM     27  C   UNL A   1      34.095  26.051  25.523  1.00  0.00     0.005 C 
ENDBRANCH  21  26
ENDBRANCH  17  20
ENDBRANCH   8  17
ENDBRANCH   4   7
ENDBRANCH   2   3
ENDBRANCH   1   2
BRANCH   1  28
ATOM     28  C   UNL A   1      37.904  20.996  24.900  1.00  0.00     0.023 C 
BRANCH  28  29
ATOM     29  C   UNL A   1      38.947  20.943  26.012  1.00  0.00     0.116 C 
BRANCH  29  30
ATOM     30  N   UNL A   1      39.864  19.814  25.930  1.00  0.00    -0.352 N 
ATOM     31  C   UNL A   1      41.235  19.773  26.073  1.00  0.00     0.251 C 
ATOM     32  H   UNL A   1      39.439  18.945  25.746  1.00  0.00     0.163 HD
ATOM     33  O   UNL A   1      41.822  18.704  25.923  1.00  0.00    -0.269 OA
BRANCH  31  34
ATOM     34  C   UNL A   1      42.000  21.013  26.344  1.00  0.00     0.039 A 
ATOM     35  C   UNL A   1      42.355  21.835  25.271  1.00  0.00     0.014 A 
ATOM     36  C   UNL A   1      42.333  21.391  27.646  1.00  0.00     0.014 A 
ATOM     37  C   UNL A   1      42.944  23.079  25.513  1.00  0.00     0.010 A 
ATOM     38  C   UNL A   1      42.827  22.670  27.892  1.00  0.00     0.010 A 
ATOM     39  C   UNL A   1      43.135  23.534  26.829  1.00  0.00    -0.014 A 
BRANCH  39  40
ATOM     40  C   UNL A   1      43.640  24.908  27.105  1.00  0.00     0.031 A 
ATOM     41  C   UNL A   1      42.722  25.959  27.673  1.00  0.00     0.074 A 
ATOM     42  C   UNL A   1      44.908  25.231  26.775  1.00  0.00     0.049 A 
ATOM     43  N   UNL A   1      42.970  27.214  27.948  1.00  0.00    -0.248 NA
ATOM     44  C   UNL A   1      41.331  25.555  27.923  1.00  0.00     0.031 C 
ATOM     45  C   UNL A   1      45.872  24.329  26.139  1.00  0.00     0.029 A 
ATOM     46  N   UNL A   1      45.605  26.405  26.922  1.00  0.00    -0.354 N 
ATOM     47  C   UNL A   1      41.765  27.754  28.385  1.00  0.00     0.074 A 
ATOM     48  C   UNL A   1      40.773  26.706  28.265  1.00  0.00     0.031 C 
ATOM     49  C   UNL A   1      47.041  24.971  25.984  1.00  0.00     0.029 A 
ATOM     50  C   UNL A   1      46.905  26.339  26.475  1.00  0.00     0.049 A 
ATOM     51  H   UNL A   1      45.211  27.219  27.311  1.00  0.00     0.167 HD
ATOM     52  C   UNL A   1      41.512  28.996  28.870  1.00  0.00     0.034 A 
ATOM     53  C   UNL A   1      47.879  27.269  26.463  1.00  0.00     0.034 A 
ATOM     54  C   UNL A   1      42.518  30.021  29.005  1.00  0.00     0.049 A 
ATOM     55  C   UNL A   1      47.591  28.631  27.042  1.00  0.00     0.074 A 
ATOM     56  C   UNL A   1      42.394  31.287  29.552  1.00  0.00     0.029 A 
ATOM     57  N   UNL A   1      43.837  29.903  28.581  1.00  0.00    -0.354 N 
ATOM     58  N   UNL A   1      46.465  29.099  27.531  1.00  0.00    -0.248 NA
ATOM     59  C   UNL A   1      48.710  29.580  27.090  1.00  0.00     0.031 C 
ATOM     60  C   UNL A   1      43.615  31.953  29.405  1.00  0.00     0.029 A 
ATOM     61  C   UNL A   1      44.527  31.079  28.834  1.00  0.00     0.049 A 
ATOM     62  H   UNL A   1      44.225  29.100  28.163  1.00  0.00     0.167 HD
ATOM     63  C   UNL A   1      46.752  30.387  27.974  1.00  0.00     0.074 A 
ATOM     64  C   UNL A   1      48.157  30.615  27.706  1.00  0.00     0.031 C 
ATOM     65  C   UNL A   1      45.928  31.297  28.554  1.00  0.00     0.034 A 
BRANCH  52  66
ATOM     66  C   UNL A   1      40.087  29.309  29.269  1.00  0.00     0.023 A 
ATOM     67  C   UNL A   1      39.687  29.336  30.617  1.00  0.00     0.031 A 
ATOM     68  C   UNL A   1      39.106  29.542  28.289  1.00  0.00     0.131 A 
ATOM     69  C   UNL A   1      38.332  29.496  30.944  1.00  0.00     0.055 A 
ATOM     70  C   UNL A   1      37.773  29.793  28.627  1.00  0.00     0.041 A 
ATOM     71  F   UNL A   1      39.420  29.512  26.985  1.00  0.00    -0.206 F 
ATOM     72  C   UNL A   1      37.376  29.752  29.960  1.00  0.00     0.022 A 
BRANCH  69  73
ATOM     73  S   UNL A   1      37.818  29.200  32.659  1.00  0.00     0.124 S 
ATOM     74  O   UNL A   1      36.444  29.697  32.645  1.00  0.00    -0.237 OA
ATOM     75  O   UNL A   1      37.973  27.756  32.790  1.00  0.00    -0.237 OA
ATOM     76  O   UNL A   1      38.755  30.004  33.441  1.00  0.00    -0.744 OA
ENDBRANCH  69  73
ENDBRANCH  52  66
BRANCH  53  77
ATOM     77  C   UNL A   1      49.222  26.946  25.901  1.00  0.00     0.023 A 
ATOM     78  C   UNL A   1      49.594  27.375  24.616  1.00  0.00     0.031 A 
ATOM     79  C   UNL A   1      50.147  26.182  26.634  1.00  0.00     0.131 A 
ATOM     80  C   UNL A   1      50.839  27.002  24.086  1.00  0.00     0.055 A 
ATOM     81  C   UNL A   1      51.403  25.853  26.120  1.00  0.00     0.041 A 
ATOM     82  F   UNL A   1      49.846  25.756  27.871  1.00  0.00    -0.206 F 
ATOM     83  C   UNL A   1      51.750  26.254  24.834  1.00  0.00     0.022 A 
BRANCH  80  84
ATOM     84  S   UNL A   1      51.224  27.453  22.372  1.00  0.00     0.124 S 
ATOM     85  O   UNL A   1      52.584  26.948  22.229  1.00  0.00    -0.237 OA
ATOM     86  O   UNL A   1      50.191  26.735  21.632  1.00  0.00    -0.237 OA
ATOM     87  O   UNL A   1      51.092  28.908  22.366  1.00  0.00    -0.744 OA
ENDBRANCH  80  84
ENDBRANCH  53  77
BRANCH  65  88
ATOM     88  C   UNL A   1      46.546  32.605  28.984  1.00  0.00     0.023 A 
ATOM     89  C   UNL A   1      46.577  33.727  28.137  1.00  0.00     0.031 A 
ATOM     90  C   UNL A   1      47.129  32.723  30.259  1.00  0.00     0.131 A 
ATOM     91  C   UNL A   1      47.230  34.898  28.552  1.00  0.00     0.055 A 
ATOM     92  C   UNL A   1      47.722  33.911  30.690  1.00  0.00     0.041 A 
ATOM     93  F   UNL A   1      47.129  31.684  31.110  1.00  0.00    -0.206 F 
ATOM     94  C   UNL A   1      47.788  35.002  29.829  1.00  0.00     0.022 A 
BRANCH  91  95
ATOM     95  S   UNL A   1      47.429  36.252  27.361  1.00  0.00     0.124 S 
ATOM     96  O   UNL A   1      46.125  36.277  26.707  1.00  0.00    -0.237 OA
ATOM     97  O   UNL A   1      47.730  37.386  28.228  1.00  0.00    -0.237 OA
ATOM     98  O   UNL A   1      48.537  35.807  26.517  1.00  0.00    -0.744 OA
ENDBRANCH  91  95
ENDBRANCH  65  88
ENDBRANCH  39  40
ENDBRANCH  31  34
ENDBRANCH  29  30
ENDBRANCH  28  29
ENDBRANCH   1  28
TORSDOF 17
ENDMDL
MODEL 2
REMARK VINA RESULT:     -12.5      5.363     11.430
REMARK SMILES CC[C@H]1CCCCN1S(=O)(=O)c1ccc2oc(C(=O)NCCCCNC(=O)c3ccc(-c4c5nc(c(-c6cc(S(=O)(=O)[O-])ccc6F)c6ccc([nH]6)c(-c6cc(S(=O)(=O)[O-])ccc6F)c6nc(c(-c7cc(S(=O)(=O)[O-])ccc7F)c7ccc4[nH]7)C=C6)C=C5)cc3)c(C)c2c1
REMARK SMILES IDX 22 1 21 2 20 3 18 4 19 5 17 7 12 8 13 9 94 10 14 11 93 12
REMARK SMILES IDX 15 13 91 14 16 15 92 16 9 17 10 18 11 19 8 20 3 21 4 22 5 23
REMARK SMILES IDX 7 24 6 25 2 26 1 27 23 28 24 29 25 30 26 31 27 33 28 34
REMARK SMILES IDX 29 35 90 36 30 37 89 38 31 39 32 40 33 41 83 42 34 43 88 44
REMARK SMILES IDX 82 45 84 46 35 47 87 48 81 49 80 50 36 52 68 53 48 54 67 55
REMARK SMILES IDX 49 56 52 57 66 58 85 59 50 60 51 61 65 63 86 64 53 65 37 66
REMARK SMILES IDX 38 67 46 68 39 69 45 70 47 71 44 72 40 73 41 74 42 75 43 76
REMARK SMILES IDX 69 77 70 78 78 79 71 80 77 81 79 82 76 83 72 84 73 85 74 86
REMARK SMILES IDX 75 87 54 88 55 89 63 90 56 91 62 92 64 93 61 94 57 95 58 96
REMARK SMILES IDX 59 97 60 98
REMARK H PARENT 20 6 25 32 84 51 52 62
REMARK Flexibility Score: inf
ROOT
ATOM      1  C   UNL A   1      31.182  30.957  25.723  1.00  0.00     0.023 C 
ENDROOT
BRANCH   1   2
ATOM      2  C   UNL A   1      31.208  29.846  24.686  1.00  0.00     0.116 C 
BRANCH   2   3
ATOM      3  N   UNL A   1      30.307  29.977  23.564  1.00  0.00    -0.349 N 
ATOM      4  C   UNL A   1      29.878  29.006  22.673  1.00  0.00     0.287 C 
ATOM      5  O   UNL A   1      29.103  29.384  21.792  1.00  0.00    -0.266 OA
ATOM      6  H   UNL A   1      29.948  30.881  23.412  1.00  0.00     0.163 HD
BRANCH   4   7
ATOM      7  C   UNL A   1      30.373  27.635  22.751  1.00  0.00     0.195 A 
ATOM      8  C   UNL A   1      32.235  23.472  23.100  1.00  0.00     0.083 A 
ATOM      9  C   UNL A   1      32.898  23.912  21.948  1.00  0.00     0.025 A 
ATOM     10  C   UNL A   1      31.416  24.339  23.823  1.00  0.00     0.034 A 
ATOM     11  C   UNL A   1      32.724  25.233  21.480  1.00  0.00     0.049 A 
ATOM     12  C   UNL A   1      31.081  25.567  23.253  1.00  0.00     0.025 A 
ATOM     13  C   UNL A   1      31.785  26.017  22.157  1.00  0.00     0.135 A 
ATOM     14  C   UNL A   1      30.029  26.492  23.469  1.00  0.00     0.008 A 
ATOM     15  O   UNL A   1      31.405  27.295  21.883  1.00  0.00    -0.451 OA
ATOM     16  C   UNL A   1      28.816  26.155  24.260  1.00  0.00     0.049 C 
BRANCH   8  17
ATOM     17  S   UNL A   1      32.438  21.834  23.762  1.00  0.00     0.243 S 
ATOM     18  O   UNL A   1      32.064  20.928  22.696  1.00  0.00    -0.207 OA
ATOM     19  O   UNL A   1      31.758  21.787  25.041  1.00  0.00    -0.207 OA
BRANCH  17  20
ATOM     20  N   UNL A   1      34.136  21.635  24.081  1.00  0.00    -0.195 NA
ATOM     21  C   UNL A   1      34.855  22.951  24.299  1.00  0.00     0.073 C 
ATOM     22  C   UNL A   1      36.374  22.707  24.253  1.00  0.00     0.020 C 
ATOM     23  C   UNL A   1      36.831  21.670  25.273  1.00  0.00     0.003 C 
ATOM     24  C   UNL A   1      34.554  20.602  25.071  1.00  0.00     0.103 C 
ATOM     25  C   UNL A   1      36.061  20.381  25.071  1.00  0.00     0.017 C 
BRANCH  21  26
ATOM     26  C   UNL A   1      34.446  23.659  25.611  1.00  0.00     0.017 C 
ATOM     27  C   UNL A   1      34.502  25.175  25.475  1.00  0.00     0.005 C 
ENDBRANCH  21  26
ENDBRANCH  17  20
ENDBRANCH   8  17
ENDBRANCH   4   7
ENDBRANCH   2   3
ENDBRANCH   1   2
BRANCH   1  28
ATOM     28  C   UNL A   1      32.009  30.741  26.985  1.00  0.00     0.023 C 
BRANCH  28  29
ATOM     29  C   UNL A   1      33.171  31.698  27.228  1.00  0.00     0.116 C 
BRANCH  29  30
ATOM     30  N   UNL A   1      32.778  33.074  27.497  1.00  0.00    -0.352 N 
ATOM     31  C   UNL A   1      33.302  33.990  28.386  1.00  0.00     0.251 C 
ATOM     32  H   UNL A   1      32.021  33.403  26.960  1.00  0.00     0.163 HD
ATOM     33  O   UNL A   1      32.783  35.100  28.479  1.00  0.00    -0.269 OA
BRANCH  31  34
ATOM     34  C   UNL A   1      34.440  33.622  29.261  1.00  0.00     0.039 A 
ATOM     35  C   UNL A   1      34.208  32.770  30.345  1.00  0.00     0.014 A 
ATOM     36  C   UNL A   1      35.734  34.073  28.998  1.00  0.00     0.014 A 
ATOM     37  C   UNL A   1      35.286  32.291  31.094  1.00  0.00     0.010 A 
ATOM     38  C   UNL A   1      36.814  33.518  29.680  1.00  0.00     0.010 A 
ATOM     39  C   UNL A   1      36.605  32.615  30.735  1.00  0.00    -0.014 A 
BRANCH  39  40
ATOM     40  C   UNL A   1      37.768  32.009  31.441  1.00  0.00     0.031 A 
ATOM     41  C   UNL A   1      38.568  30.910  30.792  1.00  0.00     0.074 A 
ATOM     42  C   UNL A   1      38.061  32.398  32.700  1.00  0.00     0.049 A 
ATOM     43  N   UNL A   1      39.589  30.239  31.262  1.00  0.00    -0.248 NA
ATOM     44  C   UNL A   1      38.134  30.478  29.456  1.00  0.00     0.031 C 
ATOM     45  C   UNL A   1      37.312  33.393  33.473  1.00  0.00     0.029 A 
ATOM     46  N   UNL A   1      39.061  32.004  33.554  1.00  0.00    -0.354 N 
ATOM     47  C   UNL A   1      39.906  29.297  30.290  1.00  0.00     0.074 A 
ATOM     48  C   UNL A   1      38.921  29.436  29.239  1.00  0.00     0.031 C 
ATOM     49  C   UNL A   1      37.898  33.555  34.670  1.00  0.00     0.029 A 
ATOM     50  C   UNL A   1      39.043  32.654  34.767  1.00  0.00     0.049 A 
ATOM     51  H   UNL A   1      39.729  31.320  33.321  1.00  0.00     0.167 HD
ATOM     52  C   UNL A   1      40.940  28.418  30.258  1.00  0.00     0.034 A 
ATOM     53  C   UNL A   1      39.856  32.543  35.837  1.00  0.00     0.034 A 
ATOM     54  C   UNL A   1      41.928  28.309  31.304  1.00  0.00     0.049 A 
ATOM     55  C   UNL A   1      41.021  31.590  35.768  1.00  0.00     0.074 A 
ATOM     56  C   UNL A   1      43.058  27.510  31.344  1.00  0.00     0.029 A 
ATOM     57  N   UNL A   1      41.902  29.016  32.500  1.00  0.00    -0.354 N 
ATOM     58  N   UNL A   1      41.357  30.765  34.803  1.00  0.00    -0.248 NA
ATOM     59  C   UNL A   1      41.929  31.572  36.921  1.00  0.00     0.031 C 
ATOM     60  C   UNL A   1      43.679  27.688  32.585  1.00  0.00     0.029 A 
ATOM     61  C   UNL A   1      42.981  28.654  33.293  1.00  0.00     0.049 A 
ATOM     62  H   UNL A   1      41.217  29.678  32.749  1.00  0.00     0.167 HD
ATOM     63  C   UNL A   1      42.536  30.153  35.222  1.00  0.00     0.074 A 
ATOM     64  C   UNL A   1      42.857  30.715  36.518  1.00  0.00     0.031 C 
ATOM     65  C   UNL A   1      43.286  29.215  34.589  1.00  0.00     0.034 A 
BRANCH  52  66
ATOM     66  C   UNL A   1      41.033  27.498  29.061  1.00  0.00     0.023 A 
ATOM     67  C   UNL A   1      42.023  27.668  28.076  1.00  0.00     0.031 A 
ATOM     68  C   UNL A   1      40.098  26.464  28.880  1.00  0.00     0.131 A 
ATOM     69  C   UNL A   1      41.998  26.883  26.913  1.00  0.00     0.055 A 
ATOM     70  C   UNL A   1      40.135  25.626  27.763  1.00  0.00     0.041 A 
ATOM     71  F   UNL A   1      39.119  26.262  29.775  1.00  0.00    -0.206 F 
ATOM     72  C   UNL A   1      41.077  25.844  26.762  1.00  0.00     0.022 A 
BRANCH  69  73
ATOM     73  S   UNL A   1      43.080  27.349  25.533  1.00  0.00     0.124 S 
ATOM     74  O   UNL A   1      44.161  28.043  26.228  1.00  0.00    -0.237 OA
ATOM     75  O   UNL A   1      43.421  26.058  24.950  1.00  0.00    -0.237 OA
ATOM     76  O   UNL A   1      42.230  28.204  24.707  1.00  0.00    -0.744 OA
ENDBRANCH  69  73
ENDBRANCH  52  66
BRANCH  53  77
ATOM     77  C   UNL A   1      39.610  33.364  37.057  1.00  0.00     0.023 A 
ATOM     78  C   UNL A   1      38.882  32.850  38.143  1.00  0.00     0.031 A 
ATOM     79  C   UNL A   1      40.080  34.686  37.146  1.00  0.00     0.131 A 
ATOM     80  C   UNL A   1      38.610  33.666  39.253  1.00  0.00     0.055 A 
ATOM     81  C   UNL A   1      39.847  35.478  38.271  1.00  0.00     0.041 A 
ATOM     82  F   UNL A   1      40.791  35.221  36.140  1.00  0.00    -0.206 F 
ATOM     83  C   UNL A   1      39.098  34.972  39.329  1.00  0.00     0.022 A 
BRANCH  80  84
ATOM     84  S   UNL A   1      37.547  33.015  40.571  1.00  0.00     0.124 S 
ATOM     85  O   UNL A   1      38.426  32.045  41.211  1.00  0.00    -0.237 OA
ATOM     86  O   UNL A   1      37.248  34.219  41.339  1.00  0.00    -0.237 OA
ATOM     87  O   UNL A   1      36.413  32.448  39.843  1.00  0.00    -0.744 OA
ENDBRANCH  80  84
ENDBRANCH  53  77
BRANCH  65  88
ATOM     88  C   UNL A   1      44.558  28.779  35.274  1.00  0.00     0.023 A 
ATOM     89  C   UNL A   1      44.589  27.686  36.159  1.00  0.00     0.031 A 
ATOM     90  C   UNL A   1      45.757  29.481  35.049  1.00  0.00     0.131 A 
ATOM     91  C   UNL A   1      45.778  27.365  36.831  1.00  0.00     0.055 A 
ATOM     92  C   UNL A   1      46.950  29.118  35.673  1.00  0.00     0.041 A 
ATOM     93  F   UNL A   1      45.786  30.533  34.215  1.00  0.00    -0.206 F 
ATOM     94  C   UNL A   1      46.963  28.063  36.581  1.00  0.00     0.022 A 
BRANCH  91  95
ATOM     95  S   UNL A   1      45.733  26.083  38.114  1.00  0.00     0.124 S 
ATOM     96  O   UNL A   1      46.787  25.175  37.673  1.00  0.00    -0.237 OA
ATOM     97  O   UNL A   1      46.015  26.846  39.325  1.00  0.00    -0.237 OA
ATOM     98  O   UNL A   1      44.375  25.550  38.020  1.00  0.00    -0.744 OA
ENDBRANCH  91  95
ENDBRANCH  65  88
ENDBRANCH  39  40
ENDBRANCH  31  34
ENDBRANCH  29  30
ENDBRANCH  28  29
ENDBRANCH   1  28
TORSDOF 17
ENDMDL
MODEL 3
REMARK VINA RESULT:     -12.5      5.314      8.865
REMARK SMILES CC[C@H]1CCCCN1S(=O)(=O)c1ccc2oc(C(=O)NCCCCNC(=O)c3ccc(-c4c5nc(c(-c6cc(S(=O)(=O)[O-])ccc6F)c6ccc([nH]6)c(-c6cc(S(=O)(=O)[O-])ccc6F)c6nc(c(-c7cc(S(=O)(=O)[O-])ccc7F)c7ccc4[nH]7)C=C6)C=C5)cc3)c(C)c2c1
REMARK SMILES IDX 22 1 21 2 20 3 18 4 19 5 17 7 12 8 13 9 94 10 14 11 93 12
REMARK SMILES IDX 15 13 91 14 16 15 92 16 9 17 10 18 11 19 8 20 3 21 4 22 5 23
REMARK SMILES IDX 7 24 6 25 2 26 1 27 23 28 24 29 25 30 26 31 27 33 28 34
REMARK SMILES IDX 29 35 90 36 30 37 89 38 31 39 32 40 33 41 83 42 34 43 88 44
REMARK SMILES IDX 82 45 84 46 35 47 87 48 81 49 80 50 36 52 68 53 48 54 67 55
REMARK SMILES IDX 49 56 52 57 66 58 85 59 50 60 51 61 65 63 86 64 53 65 37 66
REMARK SMILES IDX 38 67 46 68 39 69 45 70 47 71 44 72 40 73 41 74 42 75 43 76
REMARK SMILES IDX 69 77 70 78 78 79 71 80 77 81 79 82 76 83 72 84 73 85 74 86
REMARK SMILES IDX 75 87 54 88 55 89 63 90 56 91 62 92 64 93 61 94 57 95 58 96
REMARK SMILES IDX 59 97 60 98
REMARK H PARENT 20 6 25 32 84 51 52 62
REMARK Flexibility Score: inf
ROOT
ATOM      1  C   UNL A   1      31.479  30.237  25.807  1.00  0.00     0.023 C 
ENDROOT
BRANCH   1   2
ATOM      2  C   UNL A   1      31.774  29.766  24.392  1.00  0.00     0.116 C 
BRANCH   2   3
ATOM      3  N   UNL A   1      30.703  29.878  23.428  1.00  0.00    -0.349 N 
ATOM      4  C   UNL A   1      30.100  28.882  22.676  1.00  0.00     0.287 C 
ATOM      5  O   UNL A   1      29.201  29.247  21.916  1.00  0.00    -0.266 OA
ATOM      6  H   UNL A   1      30.354  30.787  23.286  1.00  0.00     0.163 HD
BRANCH   4   7
ATOM      7  C   UNL A   1      30.555  27.497  22.749  1.00  0.00     0.195 A 
ATOM      8  C   UNL A   1      32.299  23.281  23.075  1.00  0.00     0.083 A 
ATOM      9  C   UNL A   1      32.944  23.695  21.902  1.00  0.00     0.025 A 
ATOM     10  C   UNL A   1      31.526  24.176  23.814  1.00  0.00     0.034 A 
ATOM     11  C   UNL A   1      32.797  25.018  21.431  1.00  0.00     0.049 A 
ATOM     12  C   UNL A   1      31.213  25.411  23.245  1.00  0.00     0.025 A 
ATOM     13  C   UNL A   1      31.901  25.833  22.128  1.00  0.00     0.135 A 
ATOM     14  C   UNL A   1      30.196  26.369  23.484  1.00  0.00     0.008 A 
ATOM     15  O   UNL A   1      31.552  27.121  21.857  1.00  0.00    -0.451 OA
ATOM     16  C   UNL A   1      28.995  26.073  24.309  1.00  0.00     0.049 C 
BRANCH   8  17
ATOM     17  S   UNL A   1      32.470  21.641  23.741  1.00  0.00     0.243 S 
ATOM     18  O   UNL A   1      32.044  20.741  22.689  1.00  0.00    -0.207 OA
ATOM     19  O   UNL A   1      31.820  21.621  25.036  1.00  0.00    -0.207 OA
BRANCH  17  20
ATOM     20  N   UNL A   1      34.169  21.395  24.021  1.00  0.00    -0.195 NA
ATOM     21  C   UNL A   1      34.922  22.687  24.263  1.00  0.00     0.073 C 
ATOM     22  C   UNL A   1      36.434  22.410  24.180  1.00  0.00     0.020 C 
ATOM     23  C   UNL A   1      36.886  21.333  25.161  1.00  0.00     0.003 C 
ATOM     24  C   UNL A   1      34.581  20.323  24.971  1.00  0.00     0.103 C 
ATOM     25  C   UNL A   1      36.083  20.069  24.935  1.00  0.00     0.017 C 
BRANCH  21  26
ATOM     26  C   UNL A   1      34.554  23.364  25.604  1.00  0.00     0.017 C 
ATOM     27  C   UNL A   1      34.669  24.881  25.519  1.00  0.00     0.005 C 
ENDBRANCH  21  26
ENDBRANCH  17  20
ENDBRANCH   8  17
ENDBRANCH   4   7
ENDBRANCH   2   3
ENDBRANCH   1   2
BRANCH   1  28
ATOM     28  C   UNL A   1      32.289  29.597  26.928  1.00  0.00     0.023 C 
BRANCH  28  29
ATOM     29  C   UNL A   1      33.681  30.163  27.190  1.00  0.00     0.116 C 
BRANCH  29  30
ATOM     30  N   UNL A   1      33.705  31.349  28.034  1.00  0.00    -0.352 N 
ATOM     31  C   UNL A   1      34.669  31.793  28.916  1.00  0.00     0.251 C 
ATOM     32  H   UNL A   1      32.910  31.927  27.963  1.00  0.00     0.163 HD
ATOM     33  O   UNL A   1      34.463  32.815  29.564  1.00  0.00    -0.269 OA
BRANCH  31  34
ATOM     34  C   UNL A   1      35.912  31.013  29.125  1.00  0.00     0.039 A 
ATOM     35  C   UNL A   1      37.087  31.440  28.500  1.00  0.00     0.014 A 
ATOM     36  C   UNL A   1      35.937  29.896  29.961  1.00  0.00     0.014 A 
ATOM     37  C   UNL A   1      38.299  30.811  28.798  1.00  0.00     0.010 A 
ATOM     38  C   UNL A   1      37.157  29.336  30.333  1.00  0.00     0.010 A 
ATOM     39  C   UNL A   1      38.356  29.789  29.761  1.00  0.00    -0.014 A 
BRANCH  39  40
ATOM     40  C   UNL A   1      39.656  29.200  30.184  1.00  0.00     0.031 A 
ATOM     41  C   UNL A   1      40.428  29.797  31.332  1.00  0.00     0.074 A 
ATOM     42  C   UNL A   1      40.180  28.169  29.488  1.00  0.00     0.049 A 
ATOM     43  N   UNL A   1      41.589  29.444  31.823  1.00  0.00    -0.248 NA
ATOM     44  C   UNL A   1      39.835  30.973  31.984  1.00  0.00     0.031 C 
ATOM     45  C   UNL A   1      39.573  27.553  28.304  1.00  0.00     0.029 A 
ATOM     46  N   UNL A   1      41.340  27.458  29.669  1.00  0.00    -0.354 N 
ATOM     47  C   UNL A   1      41.873  30.364  32.827  1.00  0.00     0.074 A 
ATOM     48  C   UNL A   1      40.797  31.332  32.820  1.00  0.00     0.031 C 
ATOM     49  C   UNL A   1      40.348  26.539  27.888  1.00  0.00     0.029 A 
ATOM     50  C   UNL A   1      41.523  26.449  28.750  1.00  0.00     0.049 A 
ATOM     51  H   UNL A   1      41.983  27.651  30.389  1.00  0.00     0.167 HD
ATOM     52  C   UNL A   1      42.917  30.385  33.694  1.00  0.00     0.034 A 
ATOM     53  C   UNL A   1      42.519  25.551  28.616  1.00  0.00     0.034 A 
ATOM     54  C   UNL A   1      43.969  29.397  33.702  1.00  0.00     0.049 A 
ATOM     55  C   UNL A   1      43.649  25.565  29.613  1.00  0.00     0.074 A 
ATOM     56  C   UNL A   1      45.032  29.275  34.581  1.00  0.00     0.029 A 
ATOM     57  N   UNL A   1      44.097  28.364  32.782  1.00  0.00    -0.354 N 
ATOM     58  N   UNL A   1      43.860  26.392  30.611  1.00  0.00    -0.248 NA
ATOM     59  C   UNL A   1      44.662  24.511  29.478  1.00  0.00     0.031 C 
ATOM     60  C   UNL A   1      45.833  28.209  34.158  1.00  0.00     0.029 A 
ATOM     61  C   UNL A   1      45.232  27.616  33.059  1.00  0.00     0.049 A 
ATOM     62  H   UNL A   1      43.472  28.187  32.042  1.00  0.00     0.167 HD
ATOM     63  C   UNL A   1      45.013  25.936  31.244  1.00  0.00     0.074 A 
ATOM     64  C   UNL A   1      45.442  24.755  30.522  1.00  0.00     0.031 C 
ATOM     65  C   UNL A   1      45.655  26.445  32.326  1.00  0.00     0.034 A 
BRANCH  52  66
ATOM     66  C   UNL A   1      42.971  31.524  34.688  1.00  0.00     0.023 A 
ATOM     67  C   UNL A   1      42.156  31.543  35.834  1.00  0.00     0.031 A 
ATOM     68  C   UNL A   1      43.818  32.624  34.467  1.00  0.00     0.131 A 
ATOM     69  C   UNL A   1      42.135  32.676  36.662  1.00  0.00     0.055 A 
ATOM     70  C   UNL A   1      43.859  33.710  35.346  1.00  0.00     0.041 A 
ATOM     71  F   UNL A   1      44.607  32.674  33.383  1.00  0.00    -0.206 F 
ATOM     72  C   UNL A   1      43.000  33.749  36.441  1.00  0.00     0.022 A 
BRANCH  69  73
ATOM     73  S   UNL A   1      40.843  32.794  37.930  1.00  0.00     0.124 S 
ATOM     74  O   UNL A   1      39.795  31.949  37.363  1.00  0.00    -0.237 OA
ATOM     75  O   UNL A   1      41.514  32.271  39.114  1.00  0.00    -0.237 OA
ATOM     76  O   UNL A   1      40.530  34.221  37.967  1.00  0.00    -0.744 OA
ENDBRANCH  69  73
ENDBRANCH  52  66
BRANCH  53  77
ATOM     77  C   UNL A   1      42.488  24.553  27.508  1.00  0.00     0.023 A 
ATOM     78  C   UNL A   1      41.868  23.304  27.674  1.00  0.00     0.031 A 
ATOM     79  C   UNL A   1      43.101  24.826  26.273  1.00  0.00     0.131 A 
ATOM     80  C   UNL A   1      41.910  22.358  26.637  1.00  0.00     0.055 A 
ATOM     81  C   UNL A   1      43.100  23.900  25.228  1.00  0.00     0.041 A 
ATOM     82  F   UNL A   1      43.698  26.009  26.059  1.00  0.00    -0.206 F 
ATOM     83  C   UNL A   1      42.511  22.653  25.411  1.00  0.00     0.022 A 
BRANCH  80  84
ATOM     84  S   UNL A   1      41.224  20.706  26.939  1.00  0.00     0.124 S 
ATOM     85  O   UNL A   1      40.177  20.629  25.927  1.00  0.00    -0.237 OA
ATOM     86  O   UNL A   1      42.388  19.853  26.726  1.00  0.00    -0.237 OA
ATOM     87  O   UNL A   1      40.754  20.781  28.321  1.00  0.00    -0.744 OA
ENDBRANCH  80  84
ENDBRANCH  53  77
BRANCH  65  88
ATOM     88  C   UNL A   1      46.864  25.690  32.823  1.00  0.00     0.023 A 
ATOM     89  C   UNL A   1      46.763  24.688  33.805  1.00  0.00     0.031 A 
ATOM     90  C   UNL A   1      48.141  25.992  32.316  1.00  0.00     0.131 A 
ATOM     91  C   UNL A   1      47.923  24.067  34.291  1.00  0.00     0.055 A 
ATOM     92  C   UNL A   1      49.285  25.327  32.759  1.00  0.00     0.041 A 
ATOM     93  F   UNL A   1      48.297  26.941  31.378  1.00  0.00    -0.206 F 
ATOM     94  C   UNL A   1      49.182  24.368  33.762  1.00  0.00     0.022 A 
BRANCH  91  95
ATOM     95  S   UNL A   1      47.778  22.929  35.696  1.00  0.00     0.124 S 
ATOM     96  O   UNL A   1      48.928  23.306  36.512  1.00  0.00    -0.237 OA
ATOM     97  O   UNL A   1      46.469  23.272  36.241  1.00  0.00    -0.237 OA
ATOM     98  O   UNL A   1      47.864  21.606  35.077  1.00  0.00    -0.744 OA
ENDBRANCH  91  95
ENDBRANCH  65  88
ENDBRANCH  39  40
ENDBRANCH  31  34
ENDBRANCH  29  30
ENDBRANCH  28  29
ENDBRANCH   1  28
TORSDOF 17
ENDMDL
