MODEL 1
REMARK VINA RESULT:     -11.4      0.000      0.000
REMARK SMILES CCOC(=O)NC(=O)C[N@H+]1CC[C@@H](C(=O)NCCCCNC(=O)c2ccc(-c3c4nc(c(-c5cc(S(=O)(=O)[O-])ccc5F)c5ccc([nH]5)c(-c5cc(S(=O)(=O)[O-])ccc5F)c5nc(c(-c6cc(S(=O)(=O)[O-])ccc6F)c6ccc3[nH]6)C=C5)C=C4)cc2)[C@@H]1C
REMARK SMILES IDX 18 1 17 2 16 3 14 4 15 5 13 7 10 8 11 9 87 10 12 12 88 13
REMARK SMILES IDX 9 14 7 15 4 16 5 17 6 18 8 20 3 21 2 22 1 23 19 24 20 25
REMARK SMILES IDX 21 26 22 27 23 29 24 30 25 31 86 32 26 33 85 34 27 35 28 36
REMARK SMILES IDX 29 37 79 38 30 39 84 40 78 41 80 42 31 43 83 44 77 45 76 46
REMARK SMILES IDX 32 48 64 49 44 50 63 51 45 52 48 53 62 54 81 55 46 56 47 57
REMARK SMILES IDX 61 59 82 60 49 61 33 62 34 63 42 64 35 65 41 66 43 67 40 68
REMARK SMILES IDX 36 69 37 70 38 71 39 72 65 73 66 74 74 75 67 76 73 77 75 78
REMARK SMILES IDX 72 79 68 80 69 81 70 82 71 83 50 84 51 85 59 86 52 87 58 88
REMARK SMILES IDX 60 89 57 90 53 91 54 92 55 93 56 94
REMARK H PARENT 16 6 10 11 6 19 21 28 80 47 48 58
REMARK Flexibility Score: inf
ROOT
ATOM      1  C   UNL A   1      32.189  28.304  26.781  1.00  0.00     0.023 C 
ENDROOT
BRANCH   1   2
ATOM      2  C   UNL A   1      31.388  27.473  25.781  1.00  0.00     0.116 C 
BRANCH   2   3
ATOM      3  N   UNL A   1      30.728  26.345  26.400  1.00  0.00    -0.356 N 
ATOM      4  C   UNL A   1      30.805  25.017  26.121  1.00  0.00     0.229 C 
ATOM      5  O   UNL A   1      30.145  24.252  26.833  1.00  0.00    -0.275 OA
ATOM      6  H   UNL A   1      30.126  26.578  27.143  1.00  0.00     0.163 HD
BRANCH   4   7
ATOM      7  C   UNL A   1      31.667  24.447  24.998  1.00  0.00     0.142 C 
ATOM      8  N   UNL A   1      33.357  22.715  24.767  1.00  0.00    -0.324 N 
ATOM      9  C   UNL A   1      32.271  22.455  23.817  1.00  0.00     0.263 C 
ATOM     10  C   UNL A   1      33.074  24.006  25.427  1.00  0.00     0.194 C 
ATOM     11  H   UNL A   1      34.251  22.797  24.284  1.00  0.00     0.348 HD
ATOM     12  C   UNL A   1      31.067  23.271  24.250  1.00  0.00     0.081 C 
ATOM     13  C   UNL A   1      34.122  25.016  24.949  1.00  0.00     0.076 C 
BRANCH   8  14
ATOM     14  C   UNL A   1      33.583  21.581  25.685  1.00  0.00     0.364 C 
BRANCH  14  15
ATOM     15  C   UNL A   1      35.052  21.148  25.712  1.00  0.00     0.284 C 
ATOM     16  C   UNL A   1      34.718  18.883  24.662  1.00  0.00     0.414 C 
ATOM     17  O   UNL A   1      35.268  17.856  24.294  1.00  0.00    -0.224 OA
ATOM     18  N   UNL A   1      35.408  19.882  25.310  1.00  0.00    -0.256 N 
ATOM     19  H   UNL A   1      36.339  19.644  25.527  1.00  0.00     0.176 HD
ATOM     20  O   UNL A   1      35.942  21.916  26.092  1.00  0.00    -0.268 OA
BRANCH  16  21
ATOM     21  O   UNL A   1      33.419  19.178  24.453  1.00  0.00    -0.450 OA
BRANCH  21  22
ATOM     22  C   UNL A   1      32.549  18.129  24.022  1.00  0.00     0.231 C 
ATOM     23  C   UNL A   1      32.243  18.272  22.543  1.00  0.00     0.049 C 
ENDBRANCH  21  22
ENDBRANCH  16  21
ENDBRANCH  14  15
ENDBRANCH   8  14
ENDBRANCH   4   7
ENDBRANCH   2   3
ENDBRANCH   1   2
BRANCH   1  24
ATOM     24  C   UNL A   1      31.667  29.718  26.984  1.00  0.00     0.023 C 
BRANCH  24  25
ATOM     25  C   UNL A   1      32.452  30.784  26.238  1.00  0.00     0.116 C 
BRANCH  25  26
ATOM     26  N   UNL A   1      32.245  32.136  26.742  1.00  0.00    -0.352 N 
ATOM     27  C   UNL A   1      33.074  32.862  27.569  1.00  0.00     0.251 C 
ATOM     28  H   UNL A   1      31.415  32.583  26.458  1.00  0.00     0.163 HD
ATOM     29  O   UNL A   1      32.726  33.957  27.997  1.00  0.00    -0.269 OA
BRANCH  27  30
ATOM     30  C   UNL A   1      34.362  32.260  27.969  1.00  0.00     0.039 A 
ATOM     31  C   UNL A   1      35.486  33.078  28.084  1.00  0.00     0.014 A 
ATOM     32  C   UNL A   1      34.417  30.916  28.349  1.00  0.00     0.014 A 
ATOM     33  C   UNL A   1      36.649  32.562  28.656  1.00  0.00     0.010 A 
ATOM     34  C   UNL A   1      35.536  30.440  29.017  1.00  0.00     0.010 A 
ATOM     35  C   UNL A   1      36.668  31.255  29.172  1.00  0.00    -0.014 A 
BRANCH  35  36
ATOM     36  C   UNL A   1      37.868  30.716  29.864  1.00  0.00     0.031 A 
ATOM     37  C   UNL A   1      38.159  31.127  31.283  1.00  0.00     0.074 A 
ATOM     38  C   UNL A   1      38.718  29.904  29.203  1.00  0.00     0.049 A 
ATOM     39  N   UNL A   1      39.176  30.816  32.043  1.00  0.00    -0.248 NA
ATOM     40  C   UNL A   1      37.193  32.039  31.917  1.00  0.00     0.031 C 
ATOM     41  C   UNL A   1      38.569  29.475  27.810  1.00  0.00     0.029 A 
ATOM     42  N   UNL A   1      39.878  29.294  29.612  1.00  0.00    -0.354 N 
ATOM     43  C   UNL A   1      38.979  31.501  33.238  1.00  0.00     0.074 A 
ATOM     44  C   UNL A   1      37.788  32.305  33.069  1.00  0.00     0.031 C 
ATOM     45  C   UNL A   1      39.573  28.642  27.495  1.00  0.00     0.029 A 
ATOM     46  C   UNL A   1      40.468  28.517  28.641  1.00  0.00     0.049 A 
ATOM     47  H   UNL A   1      40.253  29.402  30.515  1.00  0.00     0.167 HD
ATOM     48  C   UNL A   1      39.705  31.440  34.381  1.00  0.00     0.034 A 
ATOM     49  C   UNL A   1      41.605  27.794  28.668  1.00  0.00     0.034 A 
ATOM     50  C   UNL A   1      40.883  30.622  34.533  1.00  0.00     0.049 A 
ATOM     51  C   UNL A   1      42.414  27.766  29.942  1.00  0.00     0.074 A 
ATOM     52  C   UNL A   1      41.666  30.445  35.659  1.00  0.00     0.029 A 
ATOM     53  N   UNL A   1      41.455  29.855  33.526  1.00  0.00    -0.354 N 
ATOM     54  N   UNL A   1      42.182  28.374  31.084  1.00  0.00    -0.248 NA
ATOM     55  C   UNL A   1      43.629  26.943  29.935  1.00  0.00     0.031 C 
ATOM     56  C   UNL A   1      42.754  29.638  35.312  1.00  0.00     0.029 A 
ATOM     57  C   UNL A   1      42.601  29.231  33.996  1.00  0.00     0.049 A 
ATOM     58  H   UNL A   1      41.099  29.767  32.612  1.00  0.00     0.167 HD
ATOM     59  C   UNL A   1      43.205  27.977  31.940  1.00  0.00     0.074 A 
ATOM     60  C   UNL A   1      44.041  27.063  31.188  1.00  0.00     0.031 C 
ATOM     61  C   UNL A   1      43.432  28.329  33.232  1.00  0.00     0.034 A 
BRANCH  48  62
ATOM     62  C   UNL A   1      39.252  32.299  35.538  1.00  0.00     0.023 A 
ATOM     63  C   UNL A   1      39.629  33.650  35.651  1.00  0.00     0.031 A 
ATOM     64  C   UNL A   1      38.454  31.755  36.560  1.00  0.00     0.131 A 
ATOM     65  C   UNL A   1      39.280  34.383  36.796  1.00  0.00     0.055 A 
ATOM     66  C   UNL A   1      38.032  32.517  37.651  1.00  0.00     0.041 A 
ATOM     67  F   UNL A   1      38.082  30.466  36.523  1.00  0.00    -0.206 F 
ATOM     68  C   UNL A   1      38.458  33.835  37.782  1.00  0.00     0.022 A 
BRANCH  65  69
ATOM     69  S   UNL A   1      40.045  36.008  37.049  1.00  0.00     0.124 S 
ATOM     70  O   UNL A   1      39.171  36.589  38.067  1.00  0.00    -0.237 OA
ATOM     71  O   UNL A   1      41.391  35.660  37.487  1.00  0.00    -0.237 OA
ATOM     72  O   UNL A   1      39.958  36.637  35.733  1.00  0.00    -0.744 OA
ENDBRANCH  65  69
ENDBRANCH  48  62
BRANCH  49  73
ATOM     73  C   UNL A   1      42.061  27.044  27.460  1.00  0.00     0.023 A 
ATOM     74  C   UNL A   1      41.834  25.664  27.334  1.00  0.00     0.031 A 
ATOM     75  C   UNL A   1      42.776  27.687  26.434  1.00  0.00     0.131 A 
ATOM     76  C   UNL A   1      42.364  24.962  26.240  1.00  0.00     0.055 A 
ATOM     77  C   UNL A   1      43.249  26.996  25.316  1.00  0.00     0.041 A 
ATOM     78  F   UNL A   1      43.023  29.005  26.502  1.00  0.00    -0.206 F 
ATOM     79  C   UNL A   1      43.056  25.622  25.222  1.00  0.00     0.022 A 
BRANCH  76  80
ATOM     80  S   UNL A   1      42.226  23.153  26.217  1.00  0.00     0.124 S 
ATOM     81  O   UNL A   1      42.744  22.834  24.891  1.00  0.00    -0.237 OA
ATOM     82  O   UNL A   1      43.068  22.770  27.345  1.00  0.00    -0.237 OA
ATOM     83  O   UNL A   1      40.795  22.918  26.401  1.00  0.00    -0.744 OA
ENDBRANCH  76  80
ENDBRANCH  49  73
BRANCH  61  84
ATOM     84  C   UNL A   1      44.607  27.681  33.926  1.00  0.00     0.023 A 
ATOM     85  C   UNL A   1      44.520  26.401  34.498  1.00  0.00     0.031 A 
ATOM     86  C   UNL A   1      45.831  28.368  34.030  1.00  0.00     0.131 A 
ATOM     87  C   UNL A   1      45.609  25.877  35.209  1.00  0.00     0.055 A 
ATOM     88  C   UNL A   1      46.936  27.809  34.673  1.00  0.00     0.041 A 
ATOM     89  F   UNL A   1      45.973  29.596  33.507  1.00  0.00    -0.206 F 
ATOM     90  C   UNL A   1      46.824  26.564  35.283  1.00  0.00     0.022 A 
BRANCH  87  91
ATOM     91  S   UNL A   1      45.381  24.337  36.140  1.00  0.00     0.124 S 
ATOM     92  O   UNL A   1      44.077  23.886  35.664  1.00  0.00    -0.237 OA
ATOM     93  O   UNL A   1      46.526  23.541  35.712  1.00  0.00    -0.237 OA
ATOM     94  O   UNL A   1      45.416  24.772  37.535  1.00  0.00    -0.744 OA
ENDBRANCH  87  91
ENDBRANCH  61  84
ENDBRANCH  35  36
ENDBRANCH  27  30
ENDBRANCH  25  26
ENDBRANCH  24  25
ENDBRANCH   1  24
TORSDOF 18
ENDMDL
MODEL 2
REMARK VINA RESULT:     -11.3      2.482      8.005
REMARK SMILES CCOC(=O)NC(=O)C[N@H+]1CC[C@@H](C(=O)NCCCCNC(=O)c2ccc(-c3c4nc(c(-c5cc(S(=O)(=O)[O-])ccc5F)c5ccc([nH]5)c(-c5cc(S(=O)(=O)[O-])ccc5F)c5nc(c(-c6cc(S(=O)(=O)[O-])ccc6F)c6ccc3[nH]6)C=C5)C=C4)cc2)[C@@H]1C
REMARK SMILES IDX 18 1 17 2 16 3 14 4 15 5 13 7 10 8 11 9 87 10 12 12 88 13
REMARK SMILES IDX 9 14 7 15 4 16 5 17 6 18 8 20 3 21 2 22 1 23 19 24 20 25
REMARK SMILES IDX 21 26 22 27 23 29 24 30 25 31 86 32 26 33 85 34 27 35 28 36
REMARK SMILES IDX 29 37 79 38 30 39 84 40 78 41 80 42 31 43 83 44 77 45 76 46
REMARK SMILES IDX 32 48 64 49 44 50 63 51 45 52 48 53 62 54 81 55 46 56 47 57
REMARK SMILES IDX 61 59 82 60 49 61 33 62 34 63 42 64 35 65 41 66 43 67 40 68
REMARK SMILES IDX 36 69 37 70 38 71 39 72 65 73 66 74 74 75 67 76 73 77 75 78
REMARK SMILES IDX 72 79 68 80 69 81 70 82 71 83 50 84 51 85 59 86 52 87 58 88
REMARK SMILES IDX 60 89 57 90 53 91 54 92 55 93 56 94
REMARK H PARENT 16 6 10 11 6 19 21 28 80 47 48 58
REMARK Flexibility Score: inf
ROOT
ATOM      1  C   UNL A   1      34.767  30.516  27.698  1.00  0.00     0.023 C 
ENDROOT
BRANCH   1   2
ATOM      2  C   UNL A   1      34.360  29.109  27.266  1.00  0.00     0.116 C 
BRANCH   2   3
ATOM      3  N   UNL A   1      33.054  28.733  27.759  1.00  0.00    -0.356 N 
ATOM      4  C   UNL A   1      32.110  27.915  27.223  1.00  0.00     0.229 C 
ATOM      5  O   UNL A   1      31.075  27.744  27.875  1.00  0.00    -0.275 OA
ATOM      6  H   UNL A   1      32.809  29.136  28.624  1.00  0.00     0.163 HD
BRANCH   4   7
ATOM      7  C   UNL A   1      32.284  27.205  25.883  1.00  0.00     0.142 C 
ATOM      8  N   UNL A   1      31.720  25.036  24.940  1.00  0.00    -0.324 N 
ATOM      9  C   UNL A   1      31.142  26.090  24.100  1.00  0.00     0.263 C 
ATOM     10  C   UNL A   1      32.535  25.694  25.983  1.00  0.00     0.194 C 
ATOM     11  H   UNL A   1      32.333  24.432  24.396  1.00  0.00     0.348 HD
ATOM     12  C   UNL A   1      31.139  27.378  24.901  1.00  0.00     0.081 C 
ATOM     13  C   UNL A   1      34.006  25.374  25.697  1.00  0.00     0.076 C 
BRANCH   8  14
ATOM     14  C   UNL A   1      30.698  24.099  25.446  1.00  0.00     0.364 C 
BRANCH  14  15
ATOM     15  C   UNL A   1      31.289  23.080  26.426  1.00  0.00     0.284 C 
ATOM     16  C   UNL A   1      32.151  21.464  24.696  1.00  0.00     0.414 C 
ATOM     17  O   UNL A   1      32.733  20.405  24.513  1.00  0.00    -0.224 OA
ATOM     18  N   UNL A   1      31.827  21.903  25.960  1.00  0.00    -0.256 N 
ATOM     19  H   UNL A   1      32.018  21.246  26.668  1.00  0.00     0.176 HD
ATOM     20  O   UNL A   1      31.296  23.288  27.643  1.00  0.00    -0.268 OA
BRANCH  16  21
ATOM     21  O   UNL A   1      31.799  22.327  23.722  1.00  0.00    -0.450 OA
BRANCH  21  22
ATOM     22  C   UNL A   1      32.561  22.331  22.514  1.00  0.00     0.231 C 
ATOM     23  C   UNL A   1      33.809  23.178  22.681  1.00  0.00     0.049 C 
ENDBRANCH  21  22
ENDBRANCH  16  21
ENDBRANCH  14  15
ENDBRANCH   8  14
ENDBRANCH   4   7
ENDBRANCH   2   3
ENDBRANCH   1   2
BRANCH   1  24
ATOM     24  C   UNL A   1      33.628  31.523  27.714  1.00  0.00     0.023 C 
BRANCH  24  25
ATOM     25  C   UNL A   1      34.040  32.933  27.319  1.00  0.00     0.116 C 
BRANCH  25  26
ATOM     26  N   UNL A   1      33.220  33.980  27.915  1.00  0.00    -0.352 N 
ATOM     27  C   UNL A   1      33.355  34.546  29.163  1.00  0.00     0.251 C 
ATOM     28  H   UNL A   1      32.482  34.323  27.360  1.00  0.00     0.163 HD
ATOM     29  O   UNL A   1      32.529  35.353  29.576  1.00  0.00    -0.269 OA
BRANCH  27  30
ATOM     30  C   UNL A   1      34.486  34.113  30.007  1.00  0.00     0.039 A 
ATOM     31  C   UNL A   1      34.256  33.201  31.036  1.00  0.00     0.014 A 
ATOM     32  C   UNL A   1      35.787  34.517  29.691  1.00  0.00     0.014 A 
ATOM     33  C   UNL A   1      35.343  32.632  31.700  1.00  0.00     0.010 A 
ATOM     34  C   UNL A   1      36.865  33.868  30.276  1.00  0.00     0.010 A 
ATOM     35  C   UNL A   1      36.656  32.923  31.293  1.00  0.00    -0.014 A 
BRANCH  35  36
ATOM     36  C   UNL A   1      37.826  32.261  31.928  1.00  0.00     0.031 A 
ATOM     37  C   UNL A   1      38.537  31.148  31.206  1.00  0.00     0.074 A 
ATOM     38  C   UNL A   1      38.211  32.623  33.168  1.00  0.00     0.049 A 
ATOM     39  N   UNL A   1      39.538  30.409  31.606  1.00  0.00    -0.248 NA
ATOM     40  C   UNL A   1      38.030  30.799  29.868  1.00  0.00     0.031 C 
ATOM     41  C   UNL A   1      37.569  33.653  33.989  1.00  0.00     0.029 A 
ATOM     42  N   UNL A   1      39.236  32.165  33.960  1.00  0.00    -0.354 N 
ATOM     43  C   UNL A   1      39.772  29.501  30.577  1.00  0.00     0.074 A 
ATOM     44  C   UNL A   1      38.757  29.734  29.572  1.00  0.00     0.031 C 
ATOM     45  C   UNL A   1      38.239  33.776  35.146  1.00  0.00     0.029 A 
ATOM     46  C   UNL A   1      39.323  32.801  35.177  1.00  0.00     0.049 A 
ATOM     47  H   UNL A   1      39.852  31.450  33.681  1.00  0.00     0.167 HD
ATOM     48  C   UNL A   1      40.762  28.582  30.466  1.00  0.00     0.034 A 
ATOM     49  C   UNL A   1      40.174  32.612  36.206  1.00  0.00     0.034 A 
ATOM     50  C   UNL A   1      41.772  28.373  31.473  1.00  0.00     0.049 A 
ATOM     51  C   UNL A   1      41.249  31.561  36.071  1.00  0.00     0.074 A 
ATOM     52  C   UNL A   1      42.850  27.507  31.444  1.00  0.00     0.029 A 
ATOM     53  N   UNL A   1      41.824  29.030  32.697  1.00  0.00    -0.354 N 
ATOM     54  N   UNL A   1      41.494  30.751  35.066  1.00  0.00    -0.248 NA
ATOM     55  C   UNL A   1      42.171  31.411  37.203  1.00  0.00     0.031 C 
ATOM     56  C   UNL A   1      43.503  27.580  32.678  1.00  0.00     0.029 A 
ATOM     57  C   UNL A   1      42.895  28.561  33.443  1.00  0.00     0.049 A 
ATOM     58  H   UNL A   1      41.193  29.727  32.990  1.00  0.00     0.167 HD
ATOM     59  C   UNL A   1      42.619  30.019  35.434  1.00  0.00     0.074 A 
ATOM     60  C   UNL A   1      43.014  30.499  36.743  1.00  0.00     0.031 C 
ATOM     61  C   UNL A   1      43.272  29.042  34.753  1.00  0.00     0.034 A 
BRANCH  48  62
ATOM     62  C   UNL A   1      40.777  27.724  29.222  1.00  0.00     0.023 A 
ATOM     63  C   UNL A   1      41.701  27.940  28.183  1.00  0.00     0.031 A 
ATOM     64  C   UNL A   1      39.836  26.693  29.057  1.00  0.00     0.131 A 
ATOM     65  C   UNL A   1      41.612  27.195  26.998  1.00  0.00     0.055 A 
ATOM     66  C   UNL A   1      39.812  25.893  27.913  1.00  0.00     0.041 A 
ATOM     67  F   UNL A   1      38.911  26.453  30.000  1.00  0.00    -0.206 F 
ATOM     68  C   UNL A   1      40.693  26.152  26.868  1.00  0.00     0.022 A 
BRANCH  65  69
ATOM     69  S   UNL A   1      42.608  27.712  25.573  1.00  0.00     0.124 S 
ATOM     70  O   UNL A   1      43.894  28.005  26.204  1.00  0.00    -0.237 OA
ATOM     71  O   UNL A   1      42.572  26.533  24.717  1.00  0.00    -0.237 OA
ATOM     72  O   UNL A   1      41.894  28.880  25.062  1.00  0.00    -0.744 OA
ENDBRANCH  65  69
ENDBRANCH  48  62
BRANCH  49  73
ATOM     73  C   UNL A   1      40.050  33.420  37.456  1.00  0.00     0.023 A 
ATOM     74  C   UNL A   1      39.398  32.909  38.589  1.00  0.00     0.031 A 
ATOM     75  C   UNL A   1      40.540  34.737  37.519  1.00  0.00     0.131 A 
ATOM     76  C   UNL A   1      39.201  33.725  39.713  1.00  0.00     0.055 A 
ATOM     77  C   UNL A   1      40.397  35.525  38.663  1.00  0.00     0.041 A 
ATOM     78  F   UNL A   1      41.173  35.278  36.465  1.00  0.00    -0.206 F 
ATOM     79  C   UNL A   1      39.710  35.024  39.764  1.00  0.00     0.022 A 
BRANCH  76  80
ATOM     80  S   UNL A   1      38.177  33.099  41.075  1.00  0.00     0.124 S 
ATOM     81  O   UNL A   1      36.832  33.365  40.579  1.00  0.00    -0.237 OA
ATOM     82  O   UNL A   1      38.576  31.697  41.133  1.00  0.00    -0.237 OA
ATOM     83  O   UNL A   1      38.594  33.912  42.216  1.00  0.00    -0.744 OA
ENDBRANCH  76  80
ENDBRANCH  49  73
BRANCH  61  84
ATOM     84  C   UNL A   1      44.512  28.466  35.394  1.00  0.00     0.023 A 
ATOM     85  C   UNL A   1      44.445  27.457  36.370  1.00  0.00     0.031 A 
ATOM     86  C   UNL A   1      45.783  28.951  35.033  1.00  0.00     0.131 A 
ATOM     87  C   UNL A   1      45.618  27.016  37.001  1.00  0.00     0.055 A 
ATOM     88  C   UNL A   1      46.952  28.454  35.610  1.00  0.00     0.041 A 
ATOM     89  F   UNL A   1      45.909  29.918  34.109  1.00  0.00    -0.206 F 
ATOM     90  C   UNL A   1      46.873  27.494  36.613  1.00  0.00     0.022 A 
BRANCH  87  91
ATOM     91  S   UNL A   1      45.473  25.898  38.422  1.00  0.00     0.124 S 
ATOM     92  O   UNL A   1      44.796  24.747  37.833  1.00  0.00    -0.237 OA
ATOM     93  O   UNL A   1      46.867  25.692  38.799  1.00  0.00    -0.237 OA
ATOM     94  O   UNL A   1      44.678  26.663  39.380  1.00  0.00    -0.744 OA
ENDBRANCH  87  91
ENDBRANCH  61  84
ENDBRANCH  35  36
ENDBRANCH  27  30
ENDBRANCH  25  26
ENDBRANCH  24  25
ENDBRANCH   1  24
TORSDOF 18
ENDMDL
MODEL 3
REMARK VINA RESULT:     -11.1      4.794     10.146
REMARK SMILES CCOC(=O)NC(=O)C[N@H+]1CC[C@@H](C(=O)NCCCCNC(=O)c2ccc(-c3c4nc(c(-c5cc(S(=O)(=O)[O-])ccc5F)c5ccc([nH]5)c(-c5cc(S(=O)(=O)[O-])ccc5F)c5nc(c(-c6cc(S(=O)(=O)[O-])ccc6F)c6ccc3[nH]6)C=C5)C=C4)cc2)[C@@H]1C
REMARK SMILES IDX 18 1 17 2 16 3 14 4 15 5 13 7 10 8 11 9 87 10 12 12 88 13
REMARK SMILES IDX 9 14 7 15 4 16 5 17 6 18 8 20 3 21 2 22 1 23 19 24 20 25
REMARK SMILES IDX 21 26 22 27 23 29 24 30 25 31 86 32 26 33 85 34 27 35 28 36
REMARK SMILES IDX 29 37 79 38 30 39 84 40 78 41 80 42 31 43 83 44 77 45 76 46
REMARK SMILES IDX 32 48 64 49 44 50 63 51 45 52 48 53 62 54 81 55 46 56 47 57
REMARK SMILES IDX 61 59 82 60 49 61 33 62 34 63 42 64 35 65 41 66 43 67 40 68
REMARK SMILES IDX 36 69 37 70 38 71 39 72 65 73 66 74 74 75 67 76 73 77 75 78
REMARK SMILES IDX 72 79 68 80 69 81 70 82 71 83 50 84 51 85 59 86 52 87 58 88
REMARK SMILES IDX 60 89 57 90 53 91 54 92 55 93 56 94
REMARK H PARENT 16 6 10 11 6 19 21 28 80 47 48 58
REMARK Flexibility Score: inf
ROOT
ATOM      1  C   UNL A   1      35.308  22.711  23.558  1.00  0.00     0.023 C 
ENDROOT
BRANCH   1   2
ATOM      2  C   UNL A   1      34.478  22.644  24.838  1.00  0.00     0.116 C 
BRANCH   2   3
ATOM      3  N   UNL A   1      33.769  21.391  24.974  1.00  0.00    -0.356 N 
ATOM      4  C   UNL A   1      32.434  21.134  25.023  1.00  0.00     0.229 C 
ATOM      5  O   UNL A   1      32.091  19.951  25.119  1.00  0.00    -0.275 OA
ATOM      6  H   UNL A   1      34.346  20.597  25.041  1.00  0.00     0.163 HD
BRANCH   4   7
ATOM      7  C   UNL A   1      31.370  22.226  24.950  1.00  0.00     0.142 C 
ATOM      8  N   UNL A   1      31.178  24.559  25.602  1.00  0.00    -0.324 N 
ATOM      9  C   UNL A   1      30.889  24.437  24.170  1.00  0.00     0.263 C 
ATOM     10  C   UNL A   1      31.359  23.195  26.140  1.00  0.00     0.194 C 
ATOM     11  H   UNL A   1      30.397  24.991  26.095  1.00  0.00     0.348 HD
ATOM     12  C   UNL A   1      31.410  23.090  23.703  1.00  0.00     0.081 C 
ATOM     13  C   UNL A   1      30.175  22.896  27.066  1.00  0.00     0.076 C 
BRANCH   8  14
ATOM     14  C   UNL A   1      32.292  25.489  25.873  1.00  0.00     0.364 C 
BRANCH  14  15
ATOM     15  C   UNL A   1      31.797  26.909  26.167  1.00  0.00     0.284 C 
ATOM     16  C   UNL A   1      32.950  28.037  24.232  1.00  0.00     0.414 C 
ATOM     17  O   UNL A   1      33.147  29.100  23.662  1.00  0.00    -0.224 OA
ATOM     18  N   UNL A   1      32.241  27.968  25.410  1.00  0.00    -0.256 N 
ATOM     19  H   UNL A   1      32.006  28.848  25.783  1.00  0.00     0.176 HD
ATOM     20  O   UNL A   1      30.996  27.134  27.080  1.00  0.00    -0.268 OA
BRANCH  16  21
ATOM     21  O   UNL A   1      33.352  26.833  23.777  1.00  0.00    -0.450 OA
BRANCH  21  22
ATOM     22  C   UNL A   1      33.570  26.679  22.373  1.00  0.00     0.231 C 
ATOM     23  C   UNL A   1      32.272  26.322  21.674  1.00  0.00     0.049 C 
ENDBRANCH  21  22
ENDBRANCH  16  21
ENDBRANCH  14  15
ENDBRANCH   8  14
ENDBRANCH   4   7
ENDBRANCH   2   3
ENDBRANCH   1   2
BRANCH   1  24
ATOM     24  C   UNL A   1      36.790  22.437  23.754  1.00  0.00     0.023 C 
BRANCH  24  25
ATOM     25  C   UNL A   1      37.223  22.373  25.211  1.00  0.00     0.116 C 
BRANCH  25  26
ATOM     26  N   UNL A   1      38.185  21.317  25.499  1.00  0.00    -0.352 N 
ATOM     27  C   UNL A   1      39.367  21.424  26.198  1.00  0.00     0.251 C 
ATOM     28  H   UNL A   1      37.964  20.422  25.152  1.00  0.00     0.163 HD
ATOM     29  O   UNL A   1      40.133  20.470  26.280  1.00  0.00    -0.269 OA
BRANCH  27  30
ATOM     30  C   UNL A   1      39.710  22.730  26.794  1.00  0.00     0.039 A 
ATOM     31  C   UNL A   1      40.727  22.796  27.746  1.00  0.00     0.014 A 
ATOM     32  C   UNL A   1      39.108  23.897  26.313  1.00  0.00     0.014 A 
ATOM     33  C   UNL A   1      41.195  24.044  28.159  1.00  0.00     0.010 A 
ATOM     34  C   UNL A   1      39.650  25.131  26.642  1.00  0.00     0.010 A 
ATOM     35  C   UNL A   1      40.695  25.220  27.575  1.00  0.00    -0.014 A 
BRANCH  35  36
ATOM     36  C   UNL A   1      41.241  26.554  27.937  1.00  0.00     0.031 A 
ATOM     37  C   UNL A   1      42.663  26.899  27.585  1.00  0.00     0.074 A 
ATOM     38  C   UNL A   1      40.479  27.429  28.624  1.00  0.00     0.049 A 
ATOM     39  N   UNL A   1      43.345  27.980  27.857  1.00  0.00    -0.248 NA
ATOM     40  C   UNL A   1      43.432  25.873  26.860  1.00  0.00     0.031 C 
ATOM     41  C   UNL A   1      39.103  27.190  29.065  1.00  0.00     0.029 A 
ATOM     42  N   UNL A   1      40.752  28.697  29.075  1.00  0.00    -0.354 N 
ATOM     43  C   UNL A   1      44.621  27.762  27.349  1.00  0.00     0.074 A 
ATOM     44  C   UNL A   1      44.639  26.413  26.824  1.00  0.00     0.031 C 
ATOM     45  C   UNL A   1      38.641  28.287  29.684  1.00  0.00     0.029 A 
ATOM     46  C   UNL A   1      39.699  29.289  29.734  1.00  0.00     0.049 A 
ATOM     47  H   UNL A   1      41.620  29.141  28.938  1.00  0.00     0.167 HD
ATOM     48  C   UNL A   1      45.672  28.617  27.295  1.00  0.00     0.034 A 
ATOM     49  C   UNL A   1      39.603  30.500  30.321  1.00  0.00     0.034 A 
ATOM     50  C   UNL A   1      45.631  29.962  27.812  1.00  0.00     0.049 A 
ATOM     51  C   UNL A   1      40.795  31.423  30.275  1.00  0.00     0.074 A 
ATOM     52  C   UNL A   1      46.616  30.931  27.767  1.00  0.00     0.029 A 
ATOM     53  N   UNL A   1      44.550  30.525  28.481  1.00  0.00    -0.354 N 
ATOM     54  N   UNL A   1      41.978  31.222  29.739  1.00  0.00    -0.248 NA
ATOM     55  C   UNL A   1      40.635  32.741  30.902  1.00  0.00     0.031 C 
ATOM     56  C   UNL A   1      46.164  32.048  28.477  1.00  0.00     0.029 A 
ATOM     57  C   UNL A   1      44.860  31.816  28.884  1.00  0.00     0.049 A 
ATOM     58  H   UNL A   1      43.691  30.074  28.645  1.00  0.00     0.167 HD
ATOM     59  C   UNL A   1      42.688  32.403  29.934  1.00  0.00     0.074 A 
ATOM     60  C   UNL A   1      41.794  33.315  30.619  1.00  0.00     0.031 C 
ATOM     61  C   UNL A   1      43.962  32.711  29.576  1.00  0.00     0.034 A 
BRANCH  48  62
ATOM     62  C   UNL A   1      46.952  28.107  26.675  1.00  0.00     0.023 A 
ATOM     63  C   UNL A   1      47.193  28.195  25.292  1.00  0.00     0.031 A 
ATOM     64  C   UNL A   1      47.936  27.498  27.473  1.00  0.00     0.131 A 
ATOM     65  C   UNL A   1      48.344  27.612  24.741  1.00  0.00     0.055 A 
ATOM     66  C   UNL A   1      49.122  27.001  26.930  1.00  0.00     0.041 A 
ATOM     67  F   UNL A   1      47.755  27.360  28.796  1.00  0.00    -0.206 F 
ATOM     68  C   UNL A   1      49.325  27.042  25.554  1.00  0.00     0.022 A 
BRANCH  65  69
ATOM     69  S   UNL A   1      48.463  27.470  22.936  1.00  0.00     0.124 S 
ATOM     70  O   UNL A   1      48.316  26.028  22.745  1.00  0.00    -0.237 OA
ATOM     71  O   UNL A   1      47.348  28.291  22.480  1.00  0.00    -0.237 OA
ATOM     72  O   UNL A   1      49.793  27.997  22.639  1.00  0.00    -0.744 OA
ENDBRANCH  65  69
ENDBRANCH  48  62
BRANCH  49  73
ATOM     73  C   UNL A   1      38.344  30.914  31.010  1.00  0.00     0.023 A 
ATOM     74  C   UNL A   1      37.313  31.561  30.311  1.00  0.00     0.031 A 
ATOM     75  C   UNL A   1      38.174  30.714  32.392  1.00  0.00     0.131 A 
ATOM     76  C   UNL A   1      36.187  32.035  31.002  1.00  0.00     0.055 A 
ATOM     77  C   UNL A   1      37.024  31.131  33.064  1.00  0.00     0.041 A 
ATOM     78  F   UNL A   1      39.128  30.100  33.111  1.00  0.00    -0.206 F 
ATOM     79  C   UNL A   1      36.028  31.811  32.370  1.00  0.00     0.022 A 
BRANCH  76  80
ATOM     80  S   UNL A   1      34.975  33.044  30.102  1.00  0.00     0.124 S 
ATOM     81  O   UNL A   1      34.471  32.092  29.119  1.00  0.00    -0.237 OA
ATOM     82  O   UNL A   1      34.049  33.423  31.164  1.00  0.00    -0.237 OA
ATOM     83  O   UNL A   1      35.779  34.137  29.559  1.00  0.00    -0.744 OA
ENDBRANCH  76  80
ENDBRANCH  49  73
BRANCH  61  84
ATOM     84  C   UNL A   1      44.442  34.112  29.876  1.00  0.00     0.023 A 
ATOM     85  C   UNL A   1      44.260  35.170  28.971  1.00  0.00     0.031 A 
ATOM     86  C   UNL A   1      45.110  34.384  31.085  1.00  0.00     0.131 A 
ATOM     87  C   UNL A   1      44.801  36.434  29.254  1.00  0.00     0.055 A 
ATOM     88  C   UNL A   1      45.579  35.661  31.395  1.00  0.00     0.041 A 
ATOM     89  F   UNL A   1      45.316  33.411  31.987  1.00  0.00    -0.206 F 
ATOM     90  C   UNL A   1      45.442  36.690  30.470  1.00  0.00     0.022 A 
BRANCH  87  91
ATOM     91  S   UNL A   1      44.764  37.706  27.962  1.00  0.00     0.124 S 
ATOM     92  O   UNL A   1      43.428  37.529  27.402  1.00  0.00    -0.237 OA
ATOM     93  O   UNL A   1      44.978  38.931  28.725  1.00  0.00    -0.237 OA
ATOM     94  O   UNL A   1      45.863  37.327  27.076  1.00  0.00    -0.744 OA
ENDBRANCH  87  91
ENDBRANCH  61  84
ENDBRANCH  35  36
ENDBRANCH  27  30
ENDBRANCH  25  26
ENDBRANCH  24  25
ENDBRANCH   1  24
TORSDOF 18
ENDMDL
