MODEL 1
REMARK VINA RESULT:     -12.5      0.000      0.000
REMARK SMILES Cc1ccccc1[C@@H](CC(=O)NCCCCNC(=O)c1ccc(-c2c3nc(c(-c4cc(S(=O)(=O)[O-])ccc4F)c4ccc([nH]4)c(-c4cc(S(=O)(=O)[O-])ccc4F)c4nc(c(-c5cc(S(=O)(=O)[O-])ccc5F)c5ccc2[nH]5)C=C4)C=C3)cc1)NC(=O)C(F)(F)F
REMARK SMILES IDX 14 1 13 2 12 3 10 4 11 5 9 7 8 8 7 9 1 10 2 11 3 12 4 13
REMARK SMILES IDX 6 14 5 15 83 16 84 17 85 19 86 20 87 21 88 22 89 23 15 24
REMARK SMILES IDX 16 25 17 26 18 27 19 29 20 30 21 31 82 32 22 33 81 34 23 35
REMARK SMILES IDX 24 36 25 37 75 38 26 39 80 40 74 41 76 42 27 43 79 44 73 45
REMARK SMILES IDX 72 46 28 48 60 49 40 50 59 51 41 52 44 53 58 54 77 55 42 56
REMARK SMILES IDX 43 57 57 59 78 60 45 61 29 62 30 63 38 64 31 65 37 66 39 67
REMARK SMILES IDX 36 68 32 69 33 70 34 71 35 72 61 73 62 74 70 75 63 76 69 77
REMARK SMILES IDX 71 78 68 79 64 80 65 81 66 82 67 83 46 84 47 85 55 86 48 87
REMARK SMILES IDX 54 88 56 89 53 90 49 91 50 92 51 93 52 94
REMARK H PARENT 12 6 83 18 17 28 76 47 44 58
REMARK Flexibility Score: inf
ROOT
ATOM      1  C   UNL A   1      35.213  23.640  24.733  1.00  0.00     0.023 C 
ENDROOT
BRANCH   1   2
ATOM      2  C   UNL A   1      34.091  24.687  24.587  1.00  0.00     0.116 C 
BRANCH   2   3
ATOM      3  N   UNL A   1      34.104  25.259  23.239  1.00  0.00    -0.356 N 
ATOM      4  C   UNL A   1      33.098  25.560  22.375  1.00  0.00     0.222 C 
ATOM      5  O   UNL A   1      33.413  25.779  21.200  1.00  0.00    -0.275 OA
ATOM      6  H   UNL A   1      35.004  25.461  22.897  1.00  0.00     0.163 HD
BRANCH   4   7
ATOM      7  C   UNL A   1      31.645  25.648  22.796  1.00  0.00     0.129 C 
BRANCH   7   8
ATOM      8  C   UNL A   1      31.105  27.057  23.145  1.00  0.00     0.122 C 
BRANCH   8   9
ATOM      9  C   UNL A   1      31.679  27.540  24.472  1.00  0.00    -0.022 A 
ATOM     10  C   UNL A   1      33.476  29.065  23.403  1.00  0.00     0.045 C 
ATOM     11  C   UNL A   1      32.814  28.376  24.565  1.00  0.00    -0.046 A 
ATOM     12  C   UNL A   1      33.422  28.569  25.820  1.00  0.00     0.004 A 
ATOM     13  C   UNL A   1      32.899  27.997  26.975  1.00  0.00     0.000 A 
ATOM     14  C   UNL A   1      31.122  27.044  25.666  1.00  0.00     0.006 A 
ATOM     15  C   UNL A   1      31.727  27.265  26.903  1.00  0.00     0.000 A 
ENDBRANCH   8   9
BRANCH   8  16
ATOM     16  N   UNL A   1      29.646  27.182  23.119  1.00  0.00    -0.341 N 
ATOM     17  C   UNL A   1      28.905  28.340  23.058  1.00  0.00     0.326 C 
ATOM     18  H   UNL A   1      29.136  26.341  23.149  1.00  0.00     0.164 HD
ATOM     19  O   UNL A   1      27.683  28.241  23.228  1.00  0.00    -0.265 OA
BRANCH  17  20
ATOM     20  C   UNL A   1      29.595  29.690  22.750  1.00  0.00     0.471 C 
ATOM     21  F   UNL A   1      30.105  30.305  23.851  1.00  0.00    -0.162 F 
ATOM     22  F   UNL A   1      30.634  29.546  21.876  1.00  0.00    -0.162 F 
ATOM     23  F   UNL A   1      28.749  30.594  22.174  1.00  0.00    -0.162 F 
ENDBRANCH  17  20
ENDBRANCH   8  16
ENDBRANCH   7   8
ENDBRANCH   4   7
ENDBRANCH   2   3
ENDBRANCH   1   2
BRANCH   1  24
ATOM     24  C   UNL A   1      36.046  23.581  26.022  1.00  0.00     0.023 C 
BRANCH  24  25
ATOM     25  C   UNL A   1      37.499  24.033  25.937  1.00  0.00     0.116 C 
BRANCH  25  26
ATOM     26  N   UNL A   1      38.490  23.215  26.660  1.00  0.00    -0.352 N 
ATOM     27  C   UNL A   1      39.787  23.596  27.024  1.00  0.00     0.251 C 
ATOM     28  H   UNL A   1      38.209  22.305  26.914  1.00  0.00     0.163 HD
ATOM     29  O   UNL A   1      40.703  22.778  27.089  1.00  0.00    -0.269 OA
BRANCH  27  30
ATOM     30  C   UNL A   1      40.032  25.032  27.269  1.00  0.00     0.039 A 
ATOM     31  C   UNL A   1      40.506  25.962  26.333  1.00  0.00     0.014 A 
ATOM     32  C   UNL A   1      39.644  25.457  28.518  1.00  0.00     0.014 A 
ATOM     33  C   UNL A   1      40.471  27.331  26.660  1.00  0.00     0.010 A 
ATOM     34  C   UNL A   1      39.237  26.747  28.657  1.00  0.00     0.010 A 
ATOM     35  C   UNL A   1      39.803  27.714  27.826  1.00  0.00    -0.014 A 
BRANCH  35  36
ATOM     36  C   UNL A   1      39.842  29.000  28.514  1.00  0.00     0.031 A 
ATOM     37  C   UNL A   1      38.750  29.978  28.573  1.00  0.00     0.074 A 
ATOM     38  C   UNL A   1      40.856  29.101  29.411  1.00  0.00     0.049 A 
ATOM     39  N   UNL A   1      38.939  31.208  28.913  1.00  0.00    -0.248 NA
ATOM     40  C   UNL A   1      37.352  29.650  28.324  1.00  0.00     0.031 C 
ATOM     41  C   UNL A   1      40.967  29.938  30.595  1.00  0.00     0.029 A 
ATOM     42  N   UNL A   1      42.022  28.358  29.480  1.00  0.00    -0.354 N 
ATOM     43  C   UNL A   1      37.715  31.722  29.263  1.00  0.00     0.074 A 
ATOM     44  C   UNL A   1      36.748  30.765  28.762  1.00  0.00     0.031 C 
ATOM     45  C   UNL A   1      42.224  29.845  31.070  1.00  0.00     0.029 A 
ATOM     46  C   UNL A   1      43.008  29.102  30.097  1.00  0.00     0.049 A 
ATOM     47  H   UNL A   1      42.132  27.440  29.141  1.00  0.00     0.167 HD
ATOM     48  C   UNL A   1      37.639  32.800  30.097  1.00  0.00     0.034 A 
ATOM     49  C   UNL A   1      44.052  29.571  29.345  1.00  0.00     0.034 A 
ATOM     50  C   UNL A   1      38.952  33.179  30.636  1.00  0.00     0.049 A 
ATOM     51  C   UNL A   1      44.018  31.083  29.213  1.00  0.00     0.074 A 
ATOM     52  C   UNL A   1      39.561  33.035  31.874  1.00  0.00     0.029 A 
ATOM     53  N   UNL A   1      39.959  33.564  29.769  1.00  0.00    -0.354 N 
ATOM     54  N   UNL A   1      43.153  31.858  29.809  1.00  0.00    -0.248 NA
ATOM     55  C   UNL A   1      44.897  31.831  28.319  1.00  0.00     0.031 C 
ATOM     56  C   UNL A   1      40.949  33.337  31.728  1.00  0.00     0.029 A 
ATOM     57  C   UNL A   1      41.178  33.696  30.413  1.00  0.00     0.049 A 
ATOM     58  H   UNL A   1      39.825  33.725  28.808  1.00  0.00     0.167 HD
ATOM     59  C   UNL A   1      43.239  33.127  29.308  1.00  0.00     0.074 A 
ATOM     60  C   UNL A   1      44.376  33.067  28.401  1.00  0.00     0.031 C 
ATOM     61  C   UNL A   1      42.333  34.104  29.623  1.00  0.00     0.034 A 
BRANCH  48  62
ATOM     62  C   UNL A   1      36.341  33.351  30.635  1.00  0.00     0.023 A 
ATOM     63  C   UNL A   1      35.500  34.113  29.799  1.00  0.00     0.031 A 
ATOM     64  C   UNL A   1      35.860  33.126  31.940  1.00  0.00     0.131 A 
ATOM     65  C   UNL A   1      34.309  34.686  30.280  1.00  0.00     0.055 A 
ATOM     66  C   UNL A   1      34.699  33.736  32.436  1.00  0.00     0.041 A 
ATOM     67  F   UNL A   1      36.475  32.273  32.774  1.00  0.00    -0.206 F 
ATOM     68  C   UNL A   1      33.921  34.532  31.608  1.00  0.00     0.022 A 
BRANCH  65  69
ATOM     69  S   UNL A   1      33.261  35.620  29.130  1.00  0.00     0.124 S 
ATOM     70  O   UNL A   1      32.495  36.471  30.034  1.00  0.00    -0.237 OA
ATOM     71  O   UNL A   1      34.248  36.292  28.292  1.00  0.00    -0.237 OA
ATOM     72  O   UNL A   1      32.487  34.579  28.456  1.00  0.00    -0.744 OA
ENDBRANCH  65  69
ENDBRANCH  48  62
BRANCH  49  73
ATOM     73  C   UNL A   1      44.448  28.606  28.257  1.00  0.00     0.023 A 
ATOM     74  C   UNL A   1      45.066  27.404  28.665  1.00  0.00     0.031 A 
ATOM     75  C   UNL A   1      43.835  28.620  26.990  1.00  0.00     0.131 A 
ATOM     76  C   UNL A   1      44.909  26.230  27.907  1.00  0.00     0.055 A 
ATOM     77  C   UNL A   1      43.750  27.461  26.203  1.00  0.00     0.041 A 
ATOM     78  F   UNL A   1      43.187  29.710  26.554  1.00  0.00    -0.206 F 
ATOM     79  C   UNL A   1      44.253  26.249  26.677  1.00  0.00     0.022 A 
BRANCH  76  80
ATOM     80  S   UNL A   1      45.287  24.647  28.721  1.00  0.00     0.124 S 
ATOM     81  O   UNL A   1      45.381  25.033  30.125  1.00  0.00    -0.237 OA
ATOM     82  O   UNL A   1      44.121  23.846  28.350  1.00  0.00    -0.237 OA
ATOM     83  O   UNL A   1      46.540  24.227  28.102  1.00  0.00    -0.744 OA
ENDBRANCH  76  80
ENDBRANCH  49  73
BRANCH  61  84
ATOM     84  C   UNL A   1      42.439  35.527  29.124  1.00  0.00     0.023 A 
ATOM     85  C   UNL A   1      43.206  36.485  29.798  1.00  0.00     0.031 A 
ATOM     86  C   UNL A   1      41.732  35.994  27.991  1.00  0.00     0.131 A 
ATOM     87  C   UNL A   1      43.380  37.775  29.273  1.00  0.00     0.055 A 
ATOM     88  C   UNL A   1      41.837  37.304  27.516  1.00  0.00     0.041 A 
ATOM     89  F   UNL A   1      40.921  35.205  27.273  1.00  0.00    -0.206 F 
ATOM     90  C   UNL A   1      42.690  38.198  28.140  1.00  0.00     0.022 A 
BRANCH  87  91
ATOM     91  S   UNL A   1      44.591  38.860  30.061  1.00  0.00     0.124 S 
ATOM     92  O   UNL A   1      45.859  38.349  29.547  1.00  0.00    -0.237 OA
ATOM     93  O   UNL A   1      44.187  40.170  29.556  1.00  0.00    -0.237 OA
ATOM     94  O   UNL A   1      44.366  38.646  31.489  1.00  0.00    -0.744 OA
ENDBRANCH  87  91
ENDBRANCH  61  84
ENDBRANCH  35  36
ENDBRANCH  27  30
ENDBRANCH  25  26
ENDBRANCH  24  25
ENDBRANCH   1  24
TORSDOF 18
ENDMDL
MODEL 2
REMARK VINA RESULT:     -12.1      3.999     10.097
REMARK SMILES Cc1ccccc1[C@@H](CC(=O)NCCCCNC(=O)c1ccc(-c2c3nc(c(-c4cc(S(=O)(=O)[O-])ccc4F)c4ccc([nH]4)c(-c4cc(S(=O)(=O)[O-])ccc4F)c4nc(c(-c5cc(S(=O)(=O)[O-])ccc5F)c5ccc2[nH]5)C=C4)C=C3)cc1)NC(=O)C(F)(F)F
REMARK SMILES IDX 14 1 13 2 12 3 10 4 11 5 9 7 8 8 7 9 1 10 2 11 3 12 4 13
REMARK SMILES IDX 6 14 5 15 83 16 84 17 85 19 86 20 87 21 88 22 89 23 15 24
REMARK SMILES IDX 16 25 17 26 18 27 19 29 20 30 21 31 82 32 22 33 81 34 23 35
REMARK SMILES IDX 24 36 25 37 75 38 26 39 80 40 74 41 76 42 27 43 79 44 73 45
REMARK SMILES IDX 72 46 28 48 60 49 40 50 59 51 41 52 44 53 58 54 77 55 42 56
REMARK SMILES IDX 43 57 57 59 78 60 45 61 29 62 30 63 38 64 31 65 37 66 39 67
REMARK SMILES IDX 36 68 32 69 33 70 34 71 35 72 61 73 62 74 70 75 63 76 69 77
REMARK SMILES IDX 71 78 68 79 64 80 65 81 66 82 67 83 46 84 47 85 55 86 48 87
REMARK SMILES IDX 54 88 56 89 53 90 49 91 50 92 51 93 52 94
REMARK H PARENT 12 6 83 18 17 28 76 47 44 58
REMARK Flexibility Score: inf
ROOT
ATOM      1  C   UNL A   1      32.201  28.892  26.214  1.00  0.00     0.023 C 
ENDROOT
BRANCH   1   2
ATOM      2  C   UNL A   1      31.780  27.912  27.328  1.00  0.00     0.116 C 
BRANCH   2   3
ATOM      3  N   UNL A   1      30.952  26.839  26.772  1.00  0.00    -0.356 N 
ATOM      4  C   UNL A   1      31.275  25.713  26.082  1.00  0.00     0.222 C 
ATOM      5  O   UNL A   1      30.356  25.126  25.500  1.00  0.00    -0.275 OA
ATOM      6  H   UNL A   1      29.987  26.955  26.925  1.00  0.00     0.163 HD
BRANCH   4   7
ATOM      7  C   UNL A   1      32.685  25.160  26.016  1.00  0.00     0.129 C 
BRANCH   7   8
ATOM      8  C   UNL A   1      33.251  24.865  24.605  1.00  0.00     0.122 C 
BRANCH   8   9
ATOM      9  C   UNL A   1      34.443  23.917  24.691  1.00  0.00    -0.022 A 
ATOM     10  C   UNL A   1      33.174  21.867  23.748  1.00  0.00     0.045 C 
ATOM     11  C   UNL A   1      34.359  22.541  24.385  1.00  0.00    -0.046 A 
ATOM     12  C   UNL A   1      35.433  21.697  24.728  1.00  0.00     0.004 A 
ATOM     13  C   UNL A   1      36.592  22.198  25.311  1.00  0.00     0.000 A 
ATOM     14  C   UNL A   1      35.658  24.410  25.200  1.00  0.00     0.006 A 
ATOM     15  C   UNL A   1      36.720  23.561  25.512  1.00  0.00     0.000 A 
ENDBRANCH   8   9
BRANCH   8  16
ATOM     16  N   UNL A   1      33.570  26.051  23.807  1.00  0.00    -0.341 N 
ATOM     17  C   UNL A   1      33.336  26.247  22.465  1.00  0.00     0.326 C 
ATOM     18  H   UNL A   1      34.003  26.794  24.286  1.00  0.00     0.164 HD
ATOM     19  O   UNL A   1      33.844  27.248  21.942  1.00  0.00    -0.265 OA
BRANCH  17  20
ATOM     20  C   UNL A   1      32.439  25.261  21.680  1.00  0.00     0.471 C 
ATOM     21  F   UNL A   1      33.046  24.078  21.400  1.00  0.00    -0.162 F 
ATOM     22  F   UNL A   1      31.297  24.954  22.362  1.00  0.00    -0.162 F 
ATOM     23  F   UNL A   1      32.028  25.766  20.480  1.00  0.00    -0.162 F 
ENDBRANCH  17  20
ENDBRANCH   8  16
ENDBRANCH   7   8
ENDBRANCH   4   7
ENDBRANCH   2   3
ENDBRANCH   1   2
BRANCH   1  24
ATOM     24  C   UNL A   1      33.687  29.086  25.884  1.00  0.00     0.023 C 
BRANCH  24  25
ATOM     25  C   UNL A   1      34.680  28.979  27.035  1.00  0.00     0.116 C 
BRANCH  25  26
ATOM     26  N   UNL A   1      35.010  30.229  27.743  1.00  0.00    -0.352 N 
ATOM     27  C   UNL A   1      36.095  30.447  28.601  1.00  0.00     0.251 C 
ATOM     28  H   UNL A   1      34.403  30.992  27.597  1.00  0.00     0.163 HD
ATOM     29  O   UNL A   1      36.020  31.229  29.546  1.00  0.00    -0.269 OA
BRANCH  27  30
ATOM     30  C   UNL A   1      37.319  29.654  28.365  1.00  0.00     0.039 A 
ATOM     31  C   UNL A   1      38.192  29.784  27.274  1.00  0.00     0.014 A 
ATOM     32  C   UNL A   1      37.634  28.797  29.393  1.00  0.00     0.014 A 
ATOM     33  C   UNL A   1      39.428  29.112  27.311  1.00  0.00     0.010 A 
ATOM     34  C   UNL A   1      38.946  28.505  29.603  1.00  0.00     0.010 A 
ATOM     35  C   UNL A   1      39.806  28.492  28.506  1.00  0.00    -0.014 A 
BRANCH  35  36
ATOM     36  C   UNL A   1      40.883  27.532  28.729  1.00  0.00     0.031 A 
ATOM     37  C   UNL A   1      40.809  26.086  28.495  1.00  0.00     0.074 A 
ATOM     38  C   UNL A   1      42.104  28.111  28.850  1.00  0.00     0.049 A 
ATOM     39  N   UNL A   1      41.659  25.258  28.999  1.00  0.00    -0.248 NA
ATOM     40  C   UNL A   1      39.824  25.453  27.625  1.00  0.00     0.031 C 
ATOM     41  C   UNL A   1      43.423  27.555  28.593  1.00  0.00     0.029 A 
ATOM     42  N   UNL A   1      42.408  29.424  29.166  1.00  0.00    -0.354 N 
ATOM     43  C   UNL A   1      41.565  24.095  28.276  1.00  0.00     0.074 A 
ATOM     44  C   UNL A   1      40.333  24.217  27.524  1.00  0.00     0.031 C 
ATOM     45  C   UNL A   1      44.350  28.429  29.031  1.00  0.00     0.029 A 
ATOM     46  C   UNL A   1      43.655  29.481  29.755  1.00  0.00     0.049 A 
ATOM     47  H   UNL A   1      41.824  30.199  28.997  1.00  0.00     0.167 HD
ATOM     48  C   UNL A   1      42.619  23.227  28.238  1.00  0.00     0.034 A 
ATOM     49  C   UNL A   1      43.745  29.761  31.093  1.00  0.00     0.034 A 
ATOM     50  C   UNL A   1      43.811  23.771  28.899  1.00  0.00     0.049 A 
ATOM     51  C   UNL A   1      44.233  28.563  31.888  1.00  0.00     0.074 A 
ATOM     52  C   UNL A   1      45.013  24.291  28.440  1.00  0.00     0.029 A 
ATOM     53  N   UNL A   1      43.759  24.090  30.244  1.00  0.00    -0.354 N 
ATOM     54  N   UNL A   1      44.606  27.428  31.363  1.00  0.00    -0.248 NA
ATOM     55  C   UNL A   1      44.245  28.520  33.348  1.00  0.00     0.031 C 
ATOM     56  C   UNL A   1      45.672  24.929  29.534  1.00  0.00     0.029 A 
ATOM     57  C   UNL A   1      44.891  24.769  30.663  1.00  0.00     0.049 A 
ATOM     58  H   UNL A   1      43.005  23.861  30.834  1.00  0.00     0.167 HD
ATOM     59  C   UNL A   1      44.763  26.488  32.342  1.00  0.00     0.074 A 
ATOM     60  C   UNL A   1      44.561  27.234  33.576  1.00  0.00     0.031 C 
ATOM     61  C   UNL A   1      44.978  25.165  32.063  1.00  0.00     0.034 A 
BRANCH  48  62
ATOM     62  C   UNL A   1      42.653  21.991  27.371  1.00  0.00     0.023 A 
ATOM     63  C   UNL A   1      43.655  21.845  26.391  1.00  0.00     0.031 A 
ATOM     64  C   UNL A   1      41.757  20.910  27.491  1.00  0.00     0.131 A 
ATOM     65  C   UNL A   1      43.687  20.732  25.532  1.00  0.00     0.055 A 
ATOM     66  C   UNL A   1      41.757  19.823  26.604  1.00  0.00     0.041 A 
ATOM     67  F   UNL A   1      40.872  20.844  28.497  1.00  0.00    -0.206 F 
ATOM     68  C   UNL A   1      42.720  19.736  25.608  1.00  0.00     0.022 A 
BRANCH  65  69
ATOM     69  S   UNL A   1      45.035  20.600  24.324  1.00  0.00     0.124 S 
ATOM     70  O   UNL A   1      44.840  21.798  23.514  1.00  0.00    -0.237 OA
ATOM     71  O   UNL A   1      46.216  20.585  25.180  1.00  0.00    -0.237 OA
ATOM     72  O   UNL A   1      44.753  19.339  23.640  1.00  0.00    -0.744 OA
ENDBRANCH  65  69
ENDBRANCH  48  62
BRANCH  49  73
ATOM     73  C   UNL A   1      42.688  30.737  31.541  1.00  0.00     0.023 A 
ATOM     74  C   UNL A   1      42.879  32.090  31.186  1.00  0.00     0.031 A 
ATOM     75  C   UNL A   1      41.376  30.328  31.845  1.00  0.00     0.131 A 
ATOM     76  C   UNL A   1      41.774  32.933  30.973  1.00  0.00     0.055 A 
ATOM     77  C   UNL A   1      40.283  31.199  31.703  1.00  0.00     0.041 A 
ATOM     78  F   UNL A   1      41.109  29.049  32.143  1.00  0.00    -0.206 F 
ATOM     79  C   UNL A   1      40.474  32.497  31.228  1.00  0.00     0.022 A 
BRANCH  76  80
ATOM     80  S   UNL A   1      42.058  34.476  30.049  1.00  0.00     0.124 S 
ATOM     81  O   UNL A   1      42.703  35.322  31.048  1.00  0.00    -0.237 OA
ATOM     82  O   UNL A   1      42.908  34.006  28.957  1.00  0.00    -0.237 OA
ATOM     83  O   UNL A   1      40.719  34.893  29.647  1.00  0.00    -0.744 OA
ENDBRANCH  76  80
ENDBRANCH  49  73
BRANCH  61  84
ATOM     84  C   UNL A   1      45.207  24.118  33.129  1.00  0.00     0.023 A 
ATOM     85  C   UNL A   1      46.439  23.997  33.784  1.00  0.00     0.031 A 
ATOM     86  C   UNL A   1      44.225  23.165  33.488  1.00  0.00     0.131 A 
ATOM     87  C   UNL A   1      46.612  23.090  34.841  1.00  0.00     0.055 A 
ATOM     88  C   UNL A   1      44.426  22.205  34.483  1.00  0.00     0.041 A 
ATOM     89  F   UNL A   1      43.016  23.127  32.914  1.00  0.00    -0.206 F 
ATOM     90  C   UNL A   1      45.617  22.181  35.189  1.00  0.00     0.022 A 
BRANCH  87  91
ATOM     91  S   UNL A   1      48.141  23.181  35.801  1.00  0.00     0.124 S 
ATOM     92  O   UNL A   1      48.336  21.797  36.221  1.00  0.00    -0.237 OA
ATOM     93  O   UNL A   1      49.085  23.679  34.805  1.00  0.00    -0.237 OA
ATOM     94  O   UNL A   1      47.816  24.118  36.875  1.00  0.00    -0.744 OA
ENDBRANCH  87  91
ENDBRANCH  61  84
ENDBRANCH  35  36
ENDBRANCH  27  30
ENDBRANCH  25  26
ENDBRANCH  24  25
ENDBRANCH   1  24
TORSDOF 18
ENDMDL
MODEL 3
REMARK VINA RESULT:     -12.1      4.506      9.787
REMARK SMILES Cc1ccccc1[C@@H](CC(=O)NCCCCNC(=O)c1ccc(-c2c3nc(c(-c4cc(S(=O)(=O)[O-])ccc4F)c4ccc([nH]4)c(-c4cc(S(=O)(=O)[O-])ccc4F)c4nc(c(-c5cc(S(=O)(=O)[O-])ccc5F)c5ccc2[nH]5)C=C4)C=C3)cc1)NC(=O)C(F)(F)F
REMARK SMILES IDX 14 1 13 2 12 3 10 4 11 5 9 7 8 8 7 9 1 10 2 11 3 12 4 13
REMARK SMILES IDX 6 14 5 15 83 16 84 17 85 19 86 20 87 21 88 22 89 23 15 24
REMARK SMILES IDX 16 25 17 26 18 27 19 29 20 30 21 31 82 32 22 33 81 34 23 35
REMARK SMILES IDX 24 36 25 37 75 38 26 39 80 40 74 41 76 42 27 43 79 44 73 45
REMARK SMILES IDX 72 46 28 48 60 49 40 50 59 51 41 52 44 53 58 54 77 55 42 56
REMARK SMILES IDX 43 57 57 59 78 60 45 61 29 62 30 63 38 64 31 65 37 66 39 67
REMARK SMILES IDX 36 68 32 69 33 70 34 71 35 72 61 73 62 74 70 75 63 76 69 77
REMARK SMILES IDX 71 78 68 79 64 80 65 81 66 82 67 83 46 84 47 85 55 86 48 87
REMARK SMILES IDX 54 88 56 89 53 90 49 91 50 92 51 93 52 94
REMARK H PARENT 12 6 83 18 17 28 76 47 44 58
REMARK Flexibility Score: inf
ROOT
ATOM      1  C   UNL A   1      33.779  27.036  25.910  1.00  0.00     0.023 C 
ENDROOT
BRANCH   1   2
ATOM      2  C   UNL A   1      33.578  26.600  24.445  1.00  0.00     0.116 C 
BRANCH   2   3
ATOM      3  N   UNL A   1      32.176  26.247  24.210  1.00  0.00    -0.356 N 
ATOM      4  C   UNL A   1      31.456  25.139  24.530  1.00  0.00     0.222 C 
ATOM      5  O   UNL A   1      30.364  24.996  23.970  1.00  0.00    -0.275 OA
ATOM      6  H   UNL A   1      31.662  26.938  23.733  1.00  0.00     0.163 HD
BRANCH   4   7
ATOM      7  C   UNL A   1      31.930  24.107  25.534  1.00  0.00     0.129 C 
BRANCH   7   8
ATOM      8  C   UNL A   1      32.599  22.834  24.960  1.00  0.00     0.122 C 
BRANCH   8   9
ATOM      9  C   UNL A   1      34.118  22.957  25.007  1.00  0.00    -0.022 A 
ATOM     10  C   UNL A   1      34.304  22.547  27.556  1.00  0.00     0.045 C 
ATOM     11  C   UNL A   1      34.861  22.917  26.208  1.00  0.00    -0.046 A 
ATOM     12  C   UNL A   1      36.220  23.286  26.186  1.00  0.00     0.004 A 
ATOM     13  C   UNL A   1      36.857  23.636  25.000  1.00  0.00     0.000 A 
ATOM     14  C   UNL A   1      34.807  23.232  23.811  1.00  0.00     0.006 A 
ATOM     15  C   UNL A   1      36.160  23.573  23.807  1.00  0.00     0.000 A 
ENDBRANCH   8   9
BRANCH   8  16
ATOM     16  N   UNL A   1      32.138  22.441  23.628  1.00  0.00    -0.341 N 
ATOM     17  C   UNL A   1      32.191  21.190  23.056  1.00  0.00     0.326 C 
ATOM     18  H   UNL A   1      31.743  23.154  23.076  1.00  0.00     0.164 HD
ATOM     19  O   UNL A   1      31.914  21.103  21.853  1.00  0.00    -0.265 OA
BRANCH  17  20
ATOM     20  C   UNL A   1      32.549  19.956  23.918  1.00  0.00     0.471 C 
ATOM     21  F   UNL A   1      33.874  19.862  24.210  1.00  0.00    -0.162 F 
ATOM     22  F   UNL A   1      31.893  19.959  25.115  1.00  0.00    -0.162 F 
ATOM     23  F   UNL A   1      32.214  18.778  23.315  1.00  0.00    -0.162 F 
ENDBRANCH  17  20
ENDBRANCH   8  16
ENDBRANCH   7   8
ENDBRANCH   4   7
ENDBRANCH   2   3
ENDBRANCH   1   2
BRANCH   1  24
ATOM     24  C   UNL A   1      34.248  28.462  26.230  1.00  0.00     0.023 C 
BRANCH  24  25
ATOM     25  C   UNL A   1      33.664  29.130  27.470  1.00  0.00     0.116 C 
BRANCH  25  26
ATOM     26  N   UNL A   1      33.821  30.592  27.570  1.00  0.00    -0.352 N 
ATOM     27  C   UNL A   1      34.658  31.288  28.450  1.00  0.00     0.251 C 
ATOM     28  H   UNL A   1      33.278  31.136  26.953  1.00  0.00     0.163 HD
ATOM     29  O   UNL A   1      34.358  32.400  28.879  1.00  0.00    -0.269 OA
BRANCH  27  30
ATOM     30  C   UNL A   1      35.893  30.609  28.895  1.00  0.00     0.039 A 
ATOM     31  C   UNL A   1      36.080  29.951  30.120  1.00  0.00     0.014 A 
ATOM     32  C   UNL A   1      36.879  30.564  27.938  1.00  0.00     0.014 A 
ATOM     33  C   UNL A   1      37.234  29.165  30.298  1.00  0.00     0.010 A 
ATOM     34  C   UNL A   1      37.741  29.513  27.958  1.00  0.00     0.010 A 
ATOM     35  C   UNL A   1      38.051  28.932  29.187  1.00  0.00    -0.014 A 
BRANCH  35  36
ATOM     36  C   UNL A   1      39.405  28.388  29.154  1.00  0.00     0.031 A 
ATOM     37  C   UNL A   1      39.781  27.044  28.705  1.00  0.00     0.074 A 
ATOM     38  C   UNL A   1      40.369  29.339  29.246  1.00  0.00     0.049 A 
ATOM     39  N   UNL A   1      40.922  26.512  28.991  1.00  0.00    -0.248 NA
ATOM     40  C   UNL A   1      38.948  26.211  27.847  1.00  0.00     0.031 C 
ATOM     41  C   UNL A   1      41.747  29.310  28.780  1.00  0.00     0.029 A 
ATOM     42  N   UNL A   1      40.263  30.631  29.732  1.00  0.00    -0.354 N 
ATOM     43  C   UNL A   1      41.116  25.479  28.108  1.00  0.00     0.074 A 
ATOM     44  C   UNL A   1      39.818  25.249  27.506  1.00  0.00     0.031 C 
ATOM     45  C   UNL A   1      42.384  30.397  29.257  1.00  0.00     0.029 A 
ATOM     46  C   UNL A   1      41.492  31.051  30.200  1.00  0.00     0.049 A 
ATOM     47  H   UNL A   1      39.438  31.168  29.742  1.00  0.00     0.167 HD
ATOM     48  C   UNL A   1      42.380  25.043  27.834  1.00  0.00     0.034 A 
ATOM     49  C   UNL A   1      41.675  31.191  31.550  1.00  0.00     0.034 A 
ATOM     50  C   UNL A   1      43.407  25.889  28.454  1.00  0.00     0.049 A 
ATOM     51  C   UNL A   1      42.641  30.156  32.099  1.00  0.00     0.074 A 
ATOM     52  C   UNL A   1      44.289  26.844  27.968  1.00  0.00     0.029 A 
ATOM     53  N   UNL A   1      43.445  26.016  29.831  1.00  0.00    -0.354 N 
ATOM     54  N   UNL A   1      43.289  29.290  31.369  1.00  0.00    -0.248 NA
ATOM     55  C   UNL A   1      42.876  29.955  33.525  1.00  0.00     0.031 C 
ATOM     56  C   UNL A   1      44.849  27.543  29.080  1.00  0.00     0.029 A 
ATOM     57  C   UNL A   1      44.336  26.994  30.239  1.00  0.00     0.049 A 
ATOM     58  H   UNL A   1      42.903  25.474  30.448  1.00  0.00     0.167 HD
ATOM     59  C   UNL A   1      43.889  28.359  32.170  1.00  0.00     0.074 A 
ATOM     60  C   UNL A   1      43.630  28.843  33.519  1.00  0.00     0.031 C 
ATOM     61  C   UNL A   1      44.487  27.234  31.670  1.00  0.00     0.034 A 
BRANCH  48  62
ATOM     62  C   UNL A   1      42.697  24.002  26.786  1.00  0.00     0.023 A 
ATOM     63  C   UNL A   1      42.233  22.681  26.943  1.00  0.00     0.031 A 
ATOM     64  C   UNL A   1      43.410  24.260  25.599  1.00  0.00     0.131 A 
ATOM     65  C   UNL A   1      42.552  21.674  26.015  1.00  0.00     0.055 A 
ATOM     66  C   UNL A   1      43.771  23.248  24.697  1.00  0.00     0.041 A 
ATOM     67  F   UNL A   1      43.750  25.509  25.245  1.00  0.00    -0.206 F 
ATOM     68  C   UNL A   1      43.352  21.943  24.908  1.00  0.00     0.022 A 
BRANCH  65  69
ATOM     69  S   UNL A   1      41.882  20.007  26.268  1.00  0.00     0.124 S 
ATOM     70  O   UNL A   1      42.326  19.700  27.624  1.00  0.00    -0.237 OA
ATOM     71  O   UNL A   1      40.450  20.220  26.091  1.00  0.00    -0.237 OA
ATOM     72  O   UNL A   1      42.523  19.221  25.215  1.00  0.00    -0.744 OA
ENDBRANCH  65  69
ENDBRANCH  48  62
BRANCH  49  73
ATOM     73  C   UNL A   1      40.430  31.681  32.245  1.00  0.00     0.023 A 
ATOM     74  C   UNL A   1      39.996  30.944  33.368  1.00  0.00     0.031 A 
ATOM     75  C   UNL A   1      39.993  33.015  32.139  1.00  0.00     0.131 A 
ATOM     76  C   UNL A   1      39.310  31.583  34.417  1.00  0.00     0.055 A 
ATOM     77  C   UNL A   1      39.241  33.625  33.155  1.00  0.00     0.041 A 
ATOM     78  F   UNL A   1      40.403  33.792  31.126  1.00  0.00    -0.206 F 
ATOM     79  C   UNL A   1      38.929  32.921  34.319  1.00  0.00     0.022 A 
BRANCH  76  80
ATOM     80  S   UNL A   1      39.228  30.721  36.017  1.00  0.00     0.124 S 
ATOM     81  O   UNL A   1      39.724  31.734  36.943  1.00  0.00    -0.237 OA
ATOM     82  O   UNL A   1      37.803  30.410  36.105  1.00  0.00    -0.237 OA
ATOM     83  O   UNL A   1      40.098  29.563  35.834  1.00  0.00    -0.744 OA
ENDBRANCH  76  80
ENDBRANCH  49  73
BRANCH  61  84
ATOM     84  C   UNL A   1      45.201  26.219  32.532  1.00  0.00     0.023 A 
ATOM     85  C   UNL A   1      44.524  25.482  33.511  1.00  0.00     0.031 A 
ATOM     86  C   UNL A   1      46.596  25.992  32.449  1.00  0.00     0.131 A 
ATOM     87  C   UNL A   1      45.173  24.471  34.236  1.00  0.00     0.055 A 
ATOM     88  C   UNL A   1      47.259  25.045  33.232  1.00  0.00     0.041 A 
ATOM     89  F   UNL A   1      47.383  26.657  31.593  1.00  0.00    -0.206 F 
ATOM     90  C   UNL A   1      46.542  24.253  34.113  1.00  0.00     0.022 A 
BRANCH  87  91
ATOM     91  S   UNL A   1      44.168  23.394  35.284  1.00  0.00     0.124 S 
ATOM     92  O   UNL A   1      44.915  22.140  35.260  1.00  0.00    -0.237 OA
ATOM     93  O   UNL A   1      44.188  24.117  36.553  1.00  0.00    -0.237 OA
ATOM     94  O   UNL A   1      42.875  23.363  34.605  1.00  0.00    -0.744 OA
ENDBRANCH  87  91
ENDBRANCH  61  84
ENDBRANCH  35  36
ENDBRANCH  27  30
ENDBRANCH  25  26
ENDBRANCH  24  25
ENDBRANCH   1  24
TORSDOF 18
ENDMDL
