MODEL 1
REMARK VINA RESULT:     -12.6      0.000      0.000
REMARK SMILES CC(C)CCc1cc2c(cc1Cl)C=C(C(=O)NCCCCNC(=O)c1ccc(-c3c4nc(c(-c5cc(S(=O)(=O)[O-])ccc5F)c5ccc([nH]5)c(-c5cc(S(=O)(=O)[O-])ccc5F)c5nc(c(-c6cc(S(=O)(=O)[O-])ccc6F)c6ccc3[nH]6)C=C5)C=C4)cc1)[C@@H](C(F)(F)F)O2
REMARK SMILES IDX 19 1 18 2 17 3 15 4 16 5 14 7 6 8 7 9 11 10 8 11 10 12 12 13
REMARK SMILES IDX 9 14 93 15 13 16 88 17 5 18 4 19 2 20 1 21 3 22 89 23 90 24
REMARK SMILES IDX 91 25 92 26 20 27 21 28 22 29 23 30 24 32 25 33 26 34 87 35
REMARK SMILES IDX 27 36 86 37 28 38 29 39 30 40 80 41 31 42 85 43 79 44 81 45
REMARK SMILES IDX 32 46 84 47 78 48 77 49 33 51 65 52 45 53 64 54 46 55 49 56
REMARK SMILES IDX 63 57 82 58 47 59 48 60 62 62 83 63 50 64 34 65 35 66 43 67
REMARK SMILES IDX 36 68 42 69 44 70 41 71 37 72 38 73 39 74 40 75 66 76 67 77
REMARK SMILES IDX 75 78 68 79 74 80 76 81 73 82 69 83 70 84 71 85 72 86 51 87
REMARK SMILES IDX 52 88 60 89 53 90 59 91 61 92 58 93 54 94 55 95 56 96 57 97
REMARK H PARENT 17 6 22 31 81 50 49 61
REMARK Flexibility Score: inf
ROOT
ATOM      1  C   UNL A   1      33.181  29.275  24.996  1.00  0.00     0.023 C 
ENDROOT
BRANCH   1   2
ATOM      2  C   UNL A   1      32.912  28.822  23.563  1.00  0.00     0.116 C 
BRANCH   2   3
ATOM      3  N   UNL A   1      31.506  28.541  23.329  1.00  0.00    -0.352 N 
ATOM      4  C   UNL A   1      30.713  27.443  23.293  1.00  0.00     0.251 C 
ATOM      5  O   UNL A   1      29.520  27.658  23.057  1.00  0.00    -0.270 OA
ATOM      6  H   UNL A   1      30.996  29.363  23.148  1.00  0.00     0.163 HD
BRANCH   4   7
ATOM      7  C   UNL A   1      31.176  26.040  23.508  1.00  0.00     0.067 C 
ATOM      8  C   UNL A   1      32.653  21.663  25.573  1.00  0.00    -0.026 A 
ATOM      9  C   UNL A   1      32.186  22.056  24.307  1.00  0.00     0.052 A 
ATOM     10  C   UNL A   1      32.662  22.626  26.599  1.00  0.00     0.045 A 
ATOM     11  C   UNL A   1      31.804  23.373  24.062  1.00  0.00     0.128 A 
ATOM     12  C   UNL A   1      32.249  23.943  26.352  1.00  0.00     0.032 A 
ATOM     13  Cl  UNL A   1      33.160  22.252  28.212  1.00  0.00    -0.084 Cl
ATOM     14  C   UNL A   1      31.826  24.324  25.078  1.00  0.00     0.019 A 
ATOM     15  O   UNL A   1      31.380  23.662  22.796  1.00  0.00    -0.475 OA
ATOM     16  C   UNL A   1      31.362  25.676  24.792  1.00  0.00     0.025 C 
ATOM     17  C   UNL A   1      31.472  25.062  22.405  1.00  0.00     0.314 C 
BRANCH   8  18
ATOM     18  C   UNL A   1      33.094  20.227  25.769  1.00  0.00     0.037 C 
BRANCH  18  19
ATOM     19  C   UNL A   1      33.604  19.530  24.494  1.00  0.00     0.008 C 
BRANCH  19  20
ATOM     20  C   UNL A   1      33.096  18.090  24.286  1.00  0.00    -0.017 C 
ATOM     21  C   UNL A   1      32.733  17.811  22.827  1.00  0.00     0.007 C 
ATOM     22  C   UNL A   1      34.159  17.092  24.755  1.00  0.00     0.007 C 
ENDBRANCH  19  20
ENDBRANCH  18  19
ENDBRANCH   8  18
BRANCH  17  23
ATOM     23  C   UNL A   1      32.838  25.319  21.739  1.00  0.00     0.429 C 
ATOM     24  F   UNL A   1      33.256  24.211  21.076  1.00  0.00    -0.167 F 
ATOM     25  F   UNL A   1      32.792  26.320  20.829  1.00  0.00    -0.167 F 
ATOM     26  F   UNL A   1      33.801  25.643  22.631  1.00  0.00    -0.167 F 
ENDBRANCH  17  23
ENDBRANCH   4   7
ENDBRANCH   2   3
ENDBRANCH   1   2
BRANCH   1  27
ATOM     27  C   UNL A   1      32.042  30.077  25.633  1.00  0.00     0.023 C 
BRANCH  27  28
ATOM     28  C   UNL A   1      32.301  30.571  27.054  1.00  0.00     0.116 C 
BRANCH  28  29
ATOM     29  N   UNL A   1      32.224  32.018  27.213  1.00  0.00    -0.352 N 
ATOM     30  C   UNL A   1      33.224  32.868  27.640  1.00  0.00     0.251 C 
ATOM     31  H   UNL A   1      31.362  32.436  26.990  1.00  0.00     0.163 HD
ATOM     32  O   UNL A   1      32.996  34.061  27.809  1.00  0.00    -0.269 OA
BRANCH  30  33
ATOM     33  C   UNL A   1      34.551  32.296  27.950  1.00  0.00     0.039 A 
ATOM     34  C   UNL A   1      34.659  30.963  28.344  1.00  0.00     0.014 A 
ATOM     35  C   UNL A   1      35.670  33.131  27.958  1.00  0.00     0.014 A 
ATOM     36  C   UNL A   1      35.838  30.521  28.931  1.00  0.00     0.010 A 
ATOM     37  C   UNL A   1      36.883  32.655  28.468  1.00  0.00     0.010 A 
ATOM     38  C   UNL A   1      36.958  31.367  29.020  1.00  0.00    -0.014 A 
BRANCH  38  39
ATOM     39  C   UNL A   1      38.177  30.872  29.713  1.00  0.00     0.031 A 
ATOM     40  C   UNL A   1      38.450  31.228  31.151  1.00  0.00     0.074 A 
ATOM     41  C   UNL A   1      38.992  30.019  29.063  1.00  0.00     0.049 A 
ATOM     42  N   UNL A   1      39.401  30.792  31.937  1.00  0.00    -0.248 NA
ATOM     43  C   UNL A   1      37.545  32.197  31.790  1.00  0.00     0.031 C 
ATOM     44  C   UNL A   1      38.824  29.611  27.668  1.00  0.00     0.029 A 
ATOM     45  N   UNL A   1      40.088  29.312  29.489  1.00  0.00    -0.354 N 
ATOM     46  C   UNL A   1      39.222  31.441  33.154  1.00  0.00     0.074 A 
ATOM     47  C   UNL A   1      38.091  32.328  32.993  1.00  0.00     0.031 C 
ATOM     48  C   UNL A   1      39.730  28.670  27.375  1.00  0.00     0.029 A 
ATOM     49  C   UNL A   1      40.588  28.453  28.538  1.00  0.00     0.049 A 
ATOM     50  H   UNL A   1      40.478  29.411  30.387  1.00  0.00     0.167 HD
ATOM     51  C   UNL A   1      39.926  31.298  34.302  1.00  0.00     0.034 A 
ATOM     52  C   UNL A   1      41.616  27.580  28.592  1.00  0.00     0.034 A 
ATOM     53  C   UNL A   1      41.039  30.395  34.456  1.00  0.00     0.049 A 
ATOM     54  C   UNL A   1      42.378  27.436  29.881  1.00  0.00     0.074 A 
ATOM     55  C   UNL A   1      41.808  30.170  35.584  1.00  0.00     0.029 A 
ATOM     56  N   UNL A   1      41.537  29.564  33.462  1.00  0.00    -0.354 N 
ATOM     57  N   UNL A   1      42.168  28.030  31.033  1.00  0.00    -0.248 NA
ATOM     58  C   UNL A   1      43.514  26.504  29.887  1.00  0.00     0.031 C 
ATOM     59  C   UNL A   1      42.798  29.240  35.261  1.00  0.00     0.029 A 
ATOM     60  C   UNL A   1      42.611  28.836  33.948  1.00  0.00     0.049 A 
ATOM     61  H   UNL A   1      41.178  29.500  32.547  1.00  0.00     0.167 HD
ATOM     62  C   UNL A   1      43.137  27.536  31.901  1.00  0.00     0.074 A 
ATOM     63  C   UNL A   1      43.912  26.569  31.151  1.00  0.00     0.031 C 
ATOM     64  C   UNL A   1      43.372  27.866  33.197  1.00  0.00     0.034 A 
BRANCH  51  65
ATOM     65  C   UNL A   1      39.523  32.118  35.504  1.00  0.00     0.023 A 
ATOM     66  C   UNL A   1      38.734  31.544  36.519  1.00  0.00     0.031 A 
ATOM     67  C   UNL A   1      39.815  33.490  35.585  1.00  0.00     0.131 A 
ATOM     68  C   UNL A   1      38.240  32.346  37.555  1.00  0.00     0.055 A 
ATOM     69  C   UNL A   1      39.350  34.279  36.639  1.00  0.00     0.041 A 
ATOM     70  F   UNL A   1      40.566  34.084  34.644  1.00  0.00    -0.206 F 
ATOM     71  C   UNL A   1      38.548  33.709  37.623  1.00  0.00     0.022 A 
BRANCH  68  72
ATOM     72  S   UNL A   1      37.133  31.669  38.823  1.00  0.00     0.124 S 
ATOM     73  O   UNL A   1      37.967  31.750  40.021  1.00  0.00    -0.237 OA
ATOM     74  O   UNL A   1      36.010  32.603  38.780  1.00  0.00    -0.237 OA
ATOM     75  O   UNL A   1      36.847  30.317  38.354  1.00  0.00    -0.744 OA
ENDBRANCH  68  72
ENDBRANCH  51  65
BRANCH  52  76
ATOM     76  C   UNL A   1      41.917  26.744  27.394  1.00  0.00     0.023 A 
ATOM     77  C   UNL A   1      41.548  25.387  27.351  1.00  0.00     0.031 A 
ATOM     78  C   UNL A   1      42.688  27.253  26.337  1.00  0.00     0.131 A 
ATOM     79  C   UNL A   1      42.021  24.568  26.318  1.00  0.00     0.055 A 
ATOM     80  C   UNL A   1      43.093  26.451  25.268  1.00  0.00     0.041 A 
ATOM     81  F   UNL A   1      43.076  28.537  26.340  1.00  0.00    -0.206 F 
ATOM     82  C   UNL A   1      42.778  25.096  25.267  1.00  0.00     0.022 A 
BRANCH  79  83
ATOM     83  S   UNL A   1      41.805  22.768  26.391  1.00  0.00     0.124 S 
ATOM     84  O   UNL A   1      42.518  22.426  27.617  1.00  0.00    -0.237 OA
ATOM     85  O   UNL A   1      40.350  22.643  26.450  1.00  0.00    -0.237 OA
ATOM     86  O   UNL A   1      42.415  22.298  25.152  1.00  0.00    -0.744 OA
ENDBRANCH  79  83
ENDBRANCH  52  76
BRANCH  64  87
ATOM     87  C   UNL A   1      44.515  27.190  33.913  1.00  0.00     0.023 A 
ATOM     88  C   UNL A   1      44.304  25.974  34.591  1.00  0.00     0.031 A 
ATOM     89  C   UNL A   1      45.764  27.819  34.045  1.00  0.00     0.131 A 
ATOM     90  C   UNL A   1      45.319  25.440  35.394  1.00  0.00     0.055 A 
ATOM     91  C   UNL A   1      46.787  27.263  34.814  1.00  0.00     0.041 A 
ATOM     92  F   UNL A   1      46.008  28.987  33.428  1.00  0.00    -0.206 F 
ATOM     93  C   UNL A   1      46.562  26.075  35.504  1.00  0.00     0.022 A 
BRANCH  90  94
ATOM     94  S   UNL A   1      45.039  23.953  36.394  1.00  0.00     0.124 S 
ATOM     95  O   UNL A   1      43.925  23.323  35.689  1.00  0.00    -0.237 OA
ATOM     96  O   UNL A   1      46.320  23.260  36.283  1.00  0.00    -0.237 OA
ATOM     97  O   UNL A   1      44.721  24.474  37.719  1.00  0.00    -0.744 OA
ENDBRANCH  90  94
ENDBRANCH  64  87
ENDBRANCH  38  39
ENDBRANCH  30  33
ENDBRANCH  28  29
ENDBRANCH  27  28
ENDBRANCH   1  27
TORSDOF 18
ENDMDL
MODEL 2
REMARK VINA RESULT:     -12.5      1.836      2.229
REMARK SMILES CC(C)CCc1cc2c(cc1Cl)C=C(C(=O)NCCCCNC(=O)c1ccc(-c3c4nc(c(-c5cc(S(=O)(=O)[O-])ccc5F)c5ccc([nH]5)c(-c5cc(S(=O)(=O)[O-])ccc5F)c5nc(c(-c6cc(S(=O)(=O)[O-])ccc6F)c6ccc3[nH]6)C=C5)C=C4)cc1)[C@@H](C(F)(F)F)O2
REMARK SMILES IDX 19 1 18 2 17 3 15 4 16 5 14 7 6 8 7 9 11 10 8 11 10 12 12 13
REMARK SMILES IDX 9 14 93 15 13 16 88 17 5 18 4 19 2 20 1 21 3 22 89 23 90 24
REMARK SMILES IDX 91 25 92 26 20 27 21 28 22 29 23 30 24 32 25 33 26 34 87 35
REMARK SMILES IDX 27 36 86 37 28 38 29 39 30 40 80 41 31 42 85 43 79 44 81 45
REMARK SMILES IDX 32 46 84 47 78 48 77 49 33 51 65 52 45 53 64 54 46 55 49 56
REMARK SMILES IDX 63 57 82 58 47 59 48 60 62 62 83 63 50 64 34 65 35 66 43 67
REMARK SMILES IDX 36 68 42 69 44 70 41 71 37 72 38 73 39 74 40 75 66 76 67 77
REMARK SMILES IDX 75 78 68 79 74 80 76 81 73 82 69 83 70 84 71 85 72 86 51 87
REMARK SMILES IDX 52 88 60 89 53 90 59 91 61 92 58 93 54 94 55 95 56 96 57 97
REMARK H PARENT 17 6 22 31 81 50 49 61
REMARK Flexibility Score: inf
ROOT
ATOM      1  C   UNL A   1      31.972  28.912  27.354  1.00  0.00     0.023 C 
ENDROOT
BRANCH   1   2
ATOM      2  C   UNL A   1      31.792  27.598  26.596  1.00  0.00     0.116 C 
BRANCH   2   3
ATOM      3  N   UNL A   1      32.657  27.511  25.432  1.00  0.00    -0.352 N 
ATOM      4  C   UNL A   1      33.129  26.529  24.627  1.00  0.00     0.251 C 
ATOM      5  O   UNL A   1      33.862  26.904  23.707  1.00  0.00    -0.270 OA
ATOM      6  H   UNL A   1      32.987  28.396  25.157  1.00  0.00     0.163 HD
BRANCH   4   7
ATOM      7  C   UNL A   1      32.833  25.073  24.779  1.00  0.00     0.067 C 
ATOM      8  C   UNL A   1      33.221  20.060  25.344  1.00  0.00    -0.026 A 
ATOM      9  C   UNL A   1      32.189  21.001  25.505  1.00  0.00     0.052 A 
ATOM     10  C   UNL A   1      34.508  20.541  25.043  1.00  0.00     0.045 A 
ATOM     11  C   UNL A   1      32.422  22.360  25.311  1.00  0.00     0.128 A 
ATOM     12  C   UNL A   1      34.742  21.914  24.876  1.00  0.00     0.032 A 
ATOM     13  Cl  UNL A   1      35.871  19.490  24.875  1.00  0.00    -0.084 Cl
ATOM     14  C   UNL A   1      33.695  22.829  25.001  1.00  0.00     0.019 A 
ATOM     15  O   UNL A   1      31.353  23.194  25.474  1.00  0.00    -0.475 OA
ATOM     16  C   UNL A   1      33.907  24.264  24.865  1.00  0.00     0.025 C 
ATOM     17  C   UNL A   1      31.451  24.483  24.801  1.00  0.00     0.314 C 
BRANCH   8  18
ATOM     18  C   UNL A   1      32.898  18.591  25.528  1.00  0.00     0.037 C 
BRANCH  18  19
ATOM     19  C   UNL A   1      32.480  17.857  24.239  1.00  0.00     0.008 C 
BRANCH  19  20
ATOM     20  C   UNL A   1      33.242  16.548  23.955  1.00  0.00    -0.017 C 
ATOM     21  C   UNL A   1      34.318  16.728  22.883  1.00  0.00     0.007 C 
ATOM     22  C   UNL A   1      33.879  16.027  25.246  1.00  0.00     0.007 C 
ENDBRANCH  19  20
ENDBRANCH  18  19
ENDBRANCH   8  18
BRANCH  17  23
ATOM     23  C   UNL A   1      30.834  24.372  23.393  1.00  0.00     0.429 C 
ATOM     24  F   UNL A   1      30.784  23.075  22.999  1.00  0.00    -0.167 F 
ATOM     25  F   UNL A   1      29.565  24.840  23.345  1.00  0.00    -0.167 F 
ATOM     26  F   UNL A   1      31.538  25.051  22.459  1.00  0.00    -0.167 F 
ENDBRANCH  17  23
ENDBRANCH   4   7
ENDBRANCH   2   3
ENDBRANCH   1   2
BRANCH   1  27
ATOM     27  C   UNL A   1      31.412  30.141  26.635  1.00  0.00     0.023 C 
BRANCH  27  28
ATOM     28  C   UNL A   1      32.437  31.212  26.268  1.00  0.00     0.116 C 
BRANCH  28  29
ATOM     29  N   UNL A   1      32.215  32.503  26.907  1.00  0.00    -0.352 N 
ATOM     30  C   UNL A   1      33.067  33.172  27.762  1.00  0.00     0.251 C 
ATOM     31  H   UNL A   1      31.362  32.949  26.706  1.00  0.00     0.163 HD
ATOM     32  O   UNL A   1      32.716  34.219  28.298  1.00  0.00    -0.269 OA
BRANCH  30  33
ATOM     33  C   UNL A   1      34.380  32.565  28.067  1.00  0.00     0.039 A 
ATOM     34  C   UNL A   1      34.446  31.260  28.555  1.00  0.00     0.014 A 
ATOM     35  C   UNL A   1      35.533  33.347  27.974  1.00  0.00     0.014 A 
ATOM     36  C   UNL A   1      35.626  30.809  29.132  1.00  0.00     0.010 A 
ATOM     37  C   UNL A   1      36.743  32.854  28.475  1.00  0.00     0.010 A 
ATOM     38  C   UNL A   1      36.784  31.608  29.119  1.00  0.00    -0.014 A 
BRANCH  38  39
ATOM     39  C   UNL A   1      38.006  31.110  29.803  1.00  0.00     0.031 A 
ATOM     40  C   UNL A   1      38.300  31.481  31.234  1.00  0.00     0.074 A 
ATOM     41  C   UNL A   1      38.806  30.242  29.155  1.00  0.00     0.049 A 
ATOM     42  N   UNL A   1      39.256  31.046  32.014  1.00  0.00    -0.248 NA
ATOM     43  C   UNL A   1      37.412  32.466  31.872  1.00  0.00     0.031 C 
ATOM     44  C   UNL A   1      38.617  29.818  27.767  1.00  0.00     0.029 A 
ATOM     45  N   UNL A   1      39.900  29.529  29.576  1.00  0.00    -0.354 N 
ATOM     46  C   UNL A   1      39.097  31.711  33.224  1.00  0.00     0.074 A 
ATOM     47  C   UNL A   1      37.973  32.606  33.066  1.00  0.00     0.031 C 
ATOM     48  C   UNL A   1      39.512  28.865  27.475  1.00  0.00     0.029 A 
ATOM     49  C   UNL A   1      40.381  28.654  28.630  1.00  0.00     0.049 A 
ATOM     50  H   UNL A   1      40.302  29.636  30.468  1.00  0.00     0.167 HD
ATOM     51  C   UNL A   1      39.813  31.575  34.366  1.00  0.00     0.034 A 
ATOM     52  C   UNL A   1      41.401  27.772  28.684  1.00  0.00     0.034 A 
ATOM     53  C   UNL A   1      40.920  30.664  34.518  1.00  0.00     0.049 A 
ATOM     54  C   UNL A   1      42.177  27.636  29.965  1.00  0.00     0.074 A 
ATOM     55  C   UNL A   1      41.700  30.445  35.640  1.00  0.00     0.029 A 
ATOM     56  N   UNL A   1      41.398  29.816  33.529  1.00  0.00    -0.354 N 
ATOM     57  N   UNL A   1      41.986  28.247  31.112  1.00  0.00    -0.248 NA
ATOM     58  C   UNL A   1      43.305  26.694  29.969  1.00  0.00     0.031 C 
ATOM     59  C   UNL A   1      42.677  29.502  35.317  1.00  0.00     0.029 A 
ATOM     60  C   UNL A   1      42.472  29.084  34.011  1.00  0.00     0.049 A 
ATOM     61  H   UNL A   1      41.028  29.744  32.619  1.00  0.00     0.167 HD
ATOM     62  C   UNL A   1      42.961  27.754  31.975  1.00  0.00     0.074 A 
ATOM     63  C   UNL A   1      43.718  26.771  31.228  1.00  0.00     0.031 C 
ATOM     64  C   UNL A   1      43.214  28.097  33.263  1.00  0.00     0.034 A 
BRANCH  51  65
ATOM     65  C   UNL A   1      39.432  32.413  35.562  1.00  0.00     0.023 A 
ATOM     66  C   UNL A   1      39.898  33.737  35.675  1.00  0.00     0.031 A 
ATOM     67  C   UNL A   1      38.715  31.867  36.641  1.00  0.00     0.131 A 
ATOM     68  C   UNL A   1      39.665  34.460  36.852  1.00  0.00     0.055 A 
ATOM     69  C   UNL A   1      38.455  32.603  37.798  1.00  0.00     0.041 A 
ATOM     70  F   UNL A   1      38.246  30.610  36.581  1.00  0.00    -0.206 F 
ATOM     71  C   UNL A   1      38.942  33.902  37.912  1.00  0.00     0.022 A 
BRANCH  68  72
ATOM     72  S   UNL A   1      40.339  36.129  37.080  1.00  0.00     0.124 S 
ATOM     73  O   UNL A   1      41.777  35.869  37.107  1.00  0.00    -0.237 OA
ATOM     74  O   UNL A   1      39.852  36.820  35.888  1.00  0.00    -0.237 OA
ATOM     75  O   UNL A   1      39.763  36.571  38.344  1.00  0.00    -0.744 OA
ENDBRANCH  68  72
ENDBRANCH  51  65
BRANCH  52  76
ATOM     76  C   UNL A   1      41.680  26.918  27.492  1.00  0.00     0.023 A 
ATOM     77  C   UNL A   1      41.300  25.564  27.471  1.00  0.00     0.031 A 
ATOM     78  C   UNL A   1      42.441  27.408  26.418  1.00  0.00     0.131 A 
ATOM     79  C   UNL A   1      41.754  24.729  26.443  1.00  0.00     0.055 A 
ATOM     80  C   UNL A   1      42.826  26.589  25.355  1.00  0.00     0.041 A 
ATOM     81  F   UNL A   1      42.839  28.689  26.401  1.00  0.00    -0.206 F 
ATOM     82  C   UNL A   1      42.501  25.237  25.376  1.00  0.00     0.022 A 
BRANCH  79  83
ATOM     83  S   UNL A   1      41.526  22.931  26.542  1.00  0.00     0.124 S 
ATOM     84  O   UNL A   1      40.072  22.808  26.537  1.00  0.00    -0.237 OA
ATOM     85  O   UNL A   1      42.202  22.477  25.328  1.00  0.00    -0.237 OA
ATOM     86  O   UNL A   1      42.188  22.568  27.789  1.00  0.00    -0.744 OA
ENDBRANCH  79  83
ENDBRANCH  52  76
BRANCH  64  87
ATOM     87  C   UNL A   1      44.359  27.420  33.975  1.00  0.00     0.023 A 
ATOM     88  C   UNL A   1      44.114  26.322  34.822  1.00  0.00     0.031 A 
ATOM     89  C   UNL A   1      45.660  27.948  33.926  1.00  0.00     0.131 A 
ATOM     90  C   UNL A   1      45.150  25.807  35.610  1.00  0.00     0.055 A 
ATOM     91  C   UNL A   1      46.699  27.405  34.683  1.00  0.00     0.041 A 
ATOM     92  F   UNL A   1      45.939  29.003  33.143  1.00  0.00    -0.206 F 
ATOM     93  C   UNL A   1      46.443  26.339  35.540  1.00  0.00     0.022 A 
BRANCH  90  94
ATOM     94  S   UNL A   1      44.843  24.489  36.817  1.00  0.00     0.124 S 
ATOM     95  O   UNL A   1      46.092  24.478  37.575  1.00  0.00    -0.237 OA
ATOM     96  O   UNL A   1      43.680  24.996  37.540  1.00  0.00    -0.237 OA
ATOM     97  O   UNL A   1      44.604  23.307  35.996  1.00  0.00    -0.744 OA
ENDBRANCH  90  94
ENDBRANCH  64  87
ENDBRANCH  38  39
ENDBRANCH  30  33
ENDBRANCH  28  29
ENDBRANCH  27  28
ENDBRANCH   1  27
TORSDOF 18
ENDMDL
MODEL 3
REMARK VINA RESULT:     -12.2      1.902      2.460
REMARK SMILES CC(C)CCc1cc2c(cc1Cl)C=C(C(=O)NCCCCNC(=O)c1ccc(-c3c4nc(c(-c5cc(S(=O)(=O)[O-])ccc5F)c5ccc([nH]5)c(-c5cc(S(=O)(=O)[O-])ccc5F)c5nc(c(-c6cc(S(=O)(=O)[O-])ccc6F)c6ccc3[nH]6)C=C5)C=C4)cc1)[C@@H](C(F)(F)F)O2
REMARK SMILES IDX 19 1 18 2 17 3 15 4 16 5 14 7 6 8 7 9 11 10 8 11 10 12 12 13
REMARK SMILES IDX 9 14 93 15 13 16 88 17 5 18 4 19 2 20 1 21 3 22 89 23 90 24
REMARK SMILES IDX 91 25 92 26 20 27 21 28 22 29 23 30 24 32 25 33 26 34 87 35
REMARK SMILES IDX 27 36 86 37 28 38 29 39 30 40 80 41 31 42 85 43 79 44 81 45
REMARK SMILES IDX 32 46 84 47 78 48 77 49 33 51 65 52 45 53 64 54 46 55 49 56
REMARK SMILES IDX 63 57 82 58 47 59 48 60 62 62 83 63 50 64 34 65 35 66 43 67
REMARK SMILES IDX 36 68 42 69 44 70 41 71 37 72 38 73 39 74 40 75 66 76 67 77
REMARK SMILES IDX 75 78 68 79 74 80 76 81 73 82 69 83 70 84 71 85 72 86 51 87
REMARK SMILES IDX 52 88 60 89 53 90 59 91 61 92 58 93 54 94 55 95 56 96 57 97
REMARK H PARENT 17 6 22 31 81 50 49 61
REMARK Flexibility Score: inf
ROOT
ATOM      1  C   UNL A   1      32.859  29.402  26.363  1.00  0.00     0.023 C 
ENDROOT
BRANCH   1   2
ATOM      2  C   UNL A   1      32.663  29.619  24.864  1.00  0.00     0.116 C 
BRANCH   2   3
ATOM      3  N   UNL A   1      31.318  29.280  24.429  1.00  0.00    -0.352 N 
ATOM      4  C   UNL A   1      30.645  28.153  24.095  1.00  0.00     0.251 C 
ATOM      5  O   UNL A   1      29.463  28.315  23.778  1.00  0.00    -0.270 OA
ATOM      6  H   UNL A   1      30.747  30.078  24.359  1.00  0.00     0.163 HD
BRANCH   4   7
ATOM      7  C   UNL A   1      31.224  26.777  24.081  1.00  0.00     0.067 C 
ATOM      8  C   UNL A   1      32.913  22.192  25.396  1.00  0.00    -0.026 A 
ATOM      9  C   UNL A   1      32.548  22.806  24.185  1.00  0.00     0.052 A 
ATOM     10  C   UNL A   1      32.710  22.912  26.586  1.00  0.00     0.045 A 
ATOM     11  C   UNL A   1      32.061  24.111  24.163  1.00  0.00     0.128 A 
ATOM     12  C   UNL A   1      32.192  24.216  26.559  1.00  0.00     0.032 A 
ATOM     13  Cl  UNL A   1      33.065  22.246  28.142  1.00  0.00    -0.084 Cl
ATOM     14  C   UNL A   1      31.874  24.823  25.344  1.00  0.00     0.019 A 
ATOM     15  O   UNL A   1      31.750  24.627  22.938  1.00  0.00    -0.475 OA
ATOM     16  C   UNL A   1      31.306  26.164  25.278  1.00  0.00     0.025 C 
ATOM     17  C   UNL A   1      31.738  26.081  22.851  1.00  0.00     0.314 C 
BRANCH   8  18
ATOM     18  C   UNL A   1      33.475  20.786  25.354  1.00  0.00     0.037 C 
BRANCH  18  19
ATOM     19  C   UNL A   1      32.970  19.924  24.181  1.00  0.00     0.008 C 
BRANCH  19  20
ATOM     20  C   UNL A   1      33.268  18.417  24.299  1.00  0.00    -0.017 C 
ATOM     21  C   UNL A   1      32.549  17.778  25.488  1.00  0.00     0.007 C 
ATOM     22  C   UNL A   1      32.864  17.705  23.005  1.00  0.00     0.007 C 
ENDBRANCH  19  20
ENDBRANCH  18  19
ENDBRANCH   8  18
BRANCH  17  23
ATOM     23  C   UNL A   1      33.135  26.580  22.431  1.00  0.00     0.429 C 
ATOM     24  F   UNL A   1      34.000  26.498  23.474  1.00  0.00    -0.167 F 
ATOM     25  F   UNL A   1      33.668  25.846  21.428  1.00  0.00    -0.167 F 
ATOM     26  F   UNL A   1      33.127  27.867  22.014  1.00  0.00    -0.167 F 
ENDBRANCH  17  23
ENDBRANCH   4   7
ENDBRANCH   2   3
ENDBRANCH   1   2
BRANCH   1  27
ATOM     27  C   UNL A   1      32.391  30.566  27.239  1.00  0.00     0.023 C 
BRANCH  27  28
ATOM     28  C   UNL A   1      33.408  31.686  27.443  1.00  0.00     0.116 C 
BRANCH  28  29
ATOM     29  N   UNL A   1      32.823  33.013  27.590  1.00  0.00    -0.352 N 
ATOM     30  C   UNL A   1      33.228  34.016  28.447  1.00  0.00     0.251 C 
ATOM     31  H   UNL A   1      32.053  33.217  27.013  1.00  0.00     0.163 HD
ATOM     32  O   UNL A   1      32.589  35.061  28.528  1.00  0.00    -0.269 OA
BRANCH  30  33
ATOM     33  C   UNL A   1      34.404  33.777  29.308  1.00  0.00     0.039 A 
ATOM     34  C   UNL A   1      35.660  34.237  28.915  1.00  0.00     0.014 A 
ATOM     35  C   UNL A   1      34.264  32.989  30.453  1.00  0.00     0.014 A 
ATOM     36  C   UNL A   1      36.794  33.747  29.550  1.00  0.00     0.010 A 
ATOM     37  C   UNL A   1      35.406  32.570  31.146  1.00  0.00     0.010 A 
ATOM     38  C   UNL A   1      36.682  32.890  30.660  1.00  0.00    -0.014 A 
BRANCH  38  39
ATOM     39  C   UNL A   1      37.922  32.341  31.270  1.00  0.00     0.031 A 
ATOM     40  C   UNL A   1      38.392  32.805  32.624  1.00  0.00     0.074 A 
ATOM     41  C   UNL A   1      38.574  31.348  30.634  1.00  0.00     0.049 A 
ATOM     42  N   UNL A   1      39.383  32.351  33.347  1.00  0.00    -0.248 NA
ATOM     43  C   UNL A   1      37.662  33.921  33.246  1.00  0.00     0.031 C 
ATOM     44  C   UNL A   1      38.207  30.826  29.317  1.00  0.00     0.029 A 
ATOM     45  N   UNL A   1      39.641  30.575  31.016  1.00  0.00    -0.354 N 
ATOM     46  C   UNL A   1      39.408  33.131  34.498  1.00  0.00     0.074 A 
ATOM     47  C   UNL A   1      38.353  34.110  34.363  1.00  0.00     0.031 C 
ATOM     48  C   UNL A   1      38.983  29.771  29.034  1.00  0.00     0.029 A 
ATOM     49  C   UNL A   1      39.946  29.580  30.116  1.00  0.00     0.049 A 
ATOM     50  H   UNL A   1      40.141  30.720  31.851  1.00  0.00     0.167 HD
ATOM     51  C   UNL A   1      40.224  33.027  35.575  1.00  0.00     0.034 A 
ATOM     52  C   UNL A   1      40.887  28.614  30.156  1.00  0.00     0.034 A 
ATOM     53  C   UNL A   1      41.258  32.032  35.707  1.00  0.00     0.049 A 
ATOM     54  C   UNL A   1      41.777  28.517  31.365  1.00  0.00     0.074 A 
ATOM     55  C   UNL A   1      42.129  31.840  36.765  1.00  0.00     0.029 A 
ATOM     56  N   UNL A   1      41.558  31.061  34.762  1.00  0.00    -0.354 N 
ATOM     57  N   UNL A   1      41.758  29.240  32.462  1.00  0.00    -0.248 NA
ATOM     58  C   UNL A   1      42.815  27.477  31.352  1.00  0.00     0.031 C 
ATOM     59  C   UNL A   1      42.984  30.784  36.442  1.00  0.00     0.029 A 
ATOM     60  C   UNL A   1      42.610  30.276  35.208  1.00  0.00     0.049 A 
ATOM     61  H   UNL A   1      41.092  30.945  33.903  1.00  0.00     0.167 HD
ATOM     62  C   UNL A   1      42.772  28.735  33.271  1.00  0.00     0.074 A 
ATOM     63  C   UNL A   1      43.361  27.624  32.553  1.00  0.00     0.031 C 
ATOM     64  C   UNL A   1      43.184  29.163  34.491  1.00  0.00     0.034 A 
BRANCH  51  65
ATOM     65  C   UNL A   1      40.041  33.998  36.716  1.00  0.00     0.023 A 
ATOM     66  C   UNL A   1      39.465  33.566  37.926  1.00  0.00     0.031 A 
ATOM     67  C   UNL A   1      40.321  35.367  36.565  1.00  0.00     0.131 A 
ATOM     68  C   UNL A   1      39.162  34.499  38.926  1.00  0.00     0.055 A 
ATOM     69  C   UNL A   1      40.050  36.288  37.578  1.00  0.00     0.041 A 
ATOM     70  F   UNL A   1      40.874  35.829  35.432  1.00  0.00    -0.206 F 
ATOM     71  C   UNL A   1      39.456  35.857  38.761  1.00  0.00     0.022 A 
BRANCH  68  72
ATOM     72  S   UNL A   1      38.324  34.000  40.455  1.00  0.00     0.124 S 
ATOM     73  O   UNL A   1      39.339  33.163  41.092  1.00  0.00    -0.237 OA
ATOM     74  O   UNL A   1      38.079  35.286  41.104  1.00  0.00    -0.237 OA
ATOM     75  O   UNL A   1      37.137  33.292  39.990  1.00  0.00    -0.744 OA
ENDBRANCH  68  72
ENDBRANCH  51  65
BRANCH  52  76
ATOM     76  C   UNL A   1      40.968  27.638  29.030  1.00  0.00     0.023 A 
ATOM     77  C   UNL A   1      41.932  27.784  28.017  1.00  0.00     0.031 A 
ATOM     78  C   UNL A   1      40.004  26.626  28.886  1.00  0.00     0.131 A 
ATOM     79  C   UNL A   1      41.860  26.990  26.866  1.00  0.00     0.055 A 
ATOM     80  C   UNL A   1      39.983  25.785  27.771  1.00  0.00     0.041 A 
ATOM     81  F   UNL A   1      39.056  26.457  29.819  1.00  0.00    -0.206 F 
ATOM     82  C   UNL A   1      40.901  25.980  26.744  1.00  0.00     0.022 A 
BRANCH  79  83
ATOM     83  S   UNL A   1      42.904  27.350  25.426  1.00  0.00     0.124 S 
ATOM     84  O   UNL A   1      42.173  28.437  24.784  1.00  0.00    -0.237 OA
ATOM     85  O   UNL A   1      44.167  27.724  26.058  1.00  0.00    -0.237 OA
ATOM     86  O   UNL A   1      42.930  26.087  24.696  1.00  0.00    -0.744 OA
ENDBRANCH  79  83
ENDBRANCH  52  76
BRANCH  64  87
ATOM     87  C   UNL A   1      44.335  28.445  35.151  1.00  0.00     0.023 A 
ATOM     88  C   UNL A   1      44.088  27.476  36.143  1.00  0.00     0.031 A 
ATOM     89  C   UNL A   1      45.666  28.821  34.904  1.00  0.00     0.131 A 
ATOM     90  C   UNL A   1      45.156  26.939  36.872  1.00  0.00     0.055 A 
ATOM     91  C   UNL A   1      46.730  28.252  35.605  1.00  0.00     0.041 A 
ATOM     92  F   UNL A   1      45.950  29.750  33.976  1.00  0.00    -0.206 F 
ATOM     93  C   UNL A   1      46.476  27.317  36.603  1.00  0.00     0.022 A 
BRANCH  90  94
ATOM     94  S   UNL A   1      44.868  25.797  38.252  1.00  0.00     0.124 S 
ATOM     95  O   UNL A   1      43.929  26.553  39.077  1.00  0.00    -0.237 OA
ATOM     96  O   UNL A   1      44.306  24.631  37.576  1.00  0.00    -0.237 OA
ATOM     97  O   UNL A   1      46.192  25.606  38.834  1.00  0.00    -0.744 OA
ENDBRANCH  90  94
ENDBRANCH  64  87
ENDBRANCH  38  39
ENDBRANCH  30  33
ENDBRANCH  28  29
ENDBRANCH  27  28
ENDBRANCH   1  27
TORSDOF 18
ENDMDL
