MODEL 1
REMARK VINA RESULT:     -13.5      0.000      0.000
REMARK SMILES C[C@H]1c2ccc(O)cc2OC(=O)[C@@H]1CC(=O)N[C@@H](CC1=c2ccccc2=NC1)C(=O)NCCCCNC(=O)c1ccc(-c2c3nc(c(-c4cc(S(=O)(=O)[O-])ccc4F)c4ccc([nH]4)c(-c4cc(S(=O)(=O)[O-])ccc4F)c4nc(c(-c5cc(S(=O)(=O)[O-])ccc5F)c5ccc2[nH]5)C=C4)C=C3)cc1
REMARK SMILES IDX 33 1 32 2 31 3 29 4 30 5 18 7 17 8 15 9 16 10 14 12 13 13
REMARK SMILES IDX 1 14 2 15 3 16 4 17 9 18 11 19 5 20 8 21 10 22 12 23 6 24
REMARK SMILES IDX 7 25 19 27 20 28 21 29 28 30 22 31 26 32 27 33 23 34 25 35
REMARK SMILES IDX 24 36 34 37 35 38 36 39 37 40 38 42 39 43 40 44 101 45 41 46
REMARK SMILES IDX 100 47 42 48 43 49 44 50 94 51 45 52 99 53 93 54 95 55 46 56
REMARK SMILES IDX 98 57 92 58 91 59 47 61 79 62 59 63 78 64 60 65 63 66 77 67
REMARK SMILES IDX 96 68 61 69 62 70 76 72 97 73 64 74 48 75 49 76 57 77 50 78
REMARK SMILES IDX 56 79 58 80 55 81 51 82 52 83 53 84 54 85 80 86 81 87 89 88
REMARK SMILES IDX 82 89 88 90 90 91 87 92 83 93 84 94 85 95 86 96 65 97 66 98
REMARK SMILES IDX 74 99 67 100 73 101 75 102 72 103 68 104 69 105 70 106
REMARK SMILES IDX 71 107
REMARK H PARENT 31 6 17 11 7 26 36 41 95 60 63 71
REMARK Flexibility Score: inf
ROOT
ATOM      1  C   UNL A   1      33.336  28.160  25.372  1.00  0.00     0.023 C 
ENDROOT
BRANCH   1   2
ATOM      2  C   UNL A   1      33.866  27.845  23.982  1.00  0.00     0.116 C 
BRANCH   2   3
ATOM      3  N   UNL A   1      33.941  26.485  23.533  1.00  0.00    -0.354 N 
ATOM      4  C   UNL A   1      32.917  25.863  22.858  1.00  0.00     0.242 C 
ATOM      5  O   UNL A   1      33.233  25.089  21.947  1.00  0.00    -0.273 OA
ATOM      6  H   UNL A   1      34.762  25.974  23.716  1.00  0.00     0.163 HD
BRANCH   4   7
ATOM      7  C   UNL A   1      31.400  26.136  23.148  1.00  0.00     0.175 C 
BRANCH   7   8
ATOM      8  N   UNL A   1      30.901  25.902  24.509  1.00  0.00    -0.344 N 
ATOM      9  C   UNL A   1      30.810  24.743  25.221  1.00  0.00     0.221 C 
ATOM     10  O   UNL A   1      30.256  24.768  26.322  1.00  0.00    -0.275 OA
ATOM     11  H   UNL A   1      30.583  26.706  24.980  1.00  0.00     0.164 HD
BRANCH   9  12
ATOM     12  C   UNL A   1      31.372  23.441  24.677  1.00  0.00     0.116 C 
BRANCH  12  13
ATOM     13  C   UNL A   1      31.882  22.494  25.787  1.00  0.00     0.116 C 
ATOM     14  C   UNL A   1      33.488  22.155  27.743  1.00  0.00     0.014 C 
ATOM     15  C   UNL A   1      33.129  23.023  26.529  1.00  0.00     0.034 C 
ATOM     16  C   UNL A   1      34.283  23.081  25.562  1.00  0.00    -0.001 A 
ATOM     17  C   UNL A   1      35.309  24.024  25.686  1.00  0.00     0.011 A 
ATOM     18  C   UNL A   1      34.312  22.194  24.482  1.00  0.00     0.138 A 
ATOM     19  C   UNL A   1      32.259  21.151  25.213  1.00  0.00     0.315 C 
ATOM     20  C   UNL A   1      36.301  24.110  24.704  1.00  0.00     0.047 A 
ATOM     21  C   UNL A   1      35.277  22.285  23.485  1.00  0.00     0.093 A 
ATOM     22  O   UNL A   1      33.373  21.152  24.382  1.00  0.00    -0.426 OA
ATOM     23  O   UNL A   1      31.603  20.136  25.413  1.00  0.00    -0.251 OA
ATOM     24  C   UNL A   1      36.261  23.258  23.601  1.00  0.00     0.119 A 
BRANCH  24  25
ATOM     25  O   UNL A   1      37.187  23.346  22.605  1.00  0.00    -0.508 OA
ATOM     26  H   UNL A   1      37.361  22.604  22.060  1.00  0.00     0.293 HD
ENDBRANCH  24  25
ENDBRANCH  12  13
ENDBRANCH   9  12
ENDBRANCH   7   8
BRANCH   7  27
ATOM     27  C   UNL A   1      30.719  27.367  22.454  1.00  0.00     0.068 C 
BRANCH  27  28
ATOM     28  C   UNL A   1      29.687  28.221  23.175  1.00  0.00    -0.037 C 
ATOM     29  C   UNL A   1      29.555  29.544  22.974  1.00  0.00     0.001 A 
ATOM     30  C   UNL A   1      28.353  27.601  23.440  1.00  0.00     0.174 C 
ATOM     31  C   UNL A   1      29.660  30.604  23.977  1.00  0.00     0.010 A 
ATOM     32  C   UNL A   1      28.141  29.541  22.502  1.00  0.00     0.065 A 
ATOM     33  N   UNL A   1      27.403  28.513  22.765  1.00  0.00    -0.280 NA
ATOM     34  C   UNL A   1      28.952  31.735  23.767  1.00  0.00     0.001 A 
ATOM     35  C   UNL A   1      27.721  30.808  21.882  1.00  0.00     0.028 A 
ATOM     36  C   UNL A   1      28.162  31.890  22.546  1.00  0.00     0.002 A 
ENDBRANCH  27  28
ENDBRANCH   7  27
ENDBRANCH   4   7
ENDBRANCH   2   3
ENDBRANCH   1   2
BRANCH   1  37
ATOM     37  C   UNL A   1      32.668  29.529  25.568  1.00  0.00     0.023 C 
BRANCH  37  38
ATOM     38  C   UNL A   1      32.299  29.993  26.981  1.00  0.00     0.116 C 
BRANCH  38  39
ATOM     39  N   UNL A   1      32.222  31.437  27.188  1.00  0.00    -0.352 N 
ATOM     40  C   UNL A   1      33.198  32.361  27.536  1.00  0.00     0.251 C 
ATOM     41  H   UNL A   1      31.325  31.820  27.059  1.00  0.00     0.163 HD
ATOM     42  O   UNL A   1      32.938  33.535  27.671  1.00  0.00    -0.269 OA
BRANCH  40  43
ATOM     43  C   UNL A   1      34.578  31.873  27.792  1.00  0.00     0.039 A 
ATOM     44  C   UNL A   1      34.804  30.526  28.052  1.00  0.00     0.014 A 
ATOM     45  C   UNL A   1      35.629  32.789  27.871  1.00  0.00     0.014 A 
ATOM     46  C   UNL A   1      35.981  30.152  28.685  1.00  0.00     0.010 A 
ATOM     47  C   UNL A   1      36.865  32.376  28.384  1.00  0.00     0.010 A 
ATOM     48  C   UNL A   1      37.021  31.078  28.890  1.00  0.00    -0.014 A 
BRANCH  48  49
ATOM     49  C   UNL A   1      38.220  30.657  29.673  1.00  0.00     0.031 A 
ATOM     50  C   UNL A   1      38.413  31.088  31.107  1.00  0.00     0.074 A 
ATOM     51  C   UNL A   1      39.091  29.788  29.120  1.00  0.00     0.049 A 
ATOM     52  N   UNL A   1      39.349  30.734  31.954  1.00  0.00    -0.248 NA
ATOM     53  C   UNL A   1      37.443  32.042  31.669  1.00  0.00     0.031 C 
ATOM     54  C   UNL A   1      39.012  29.297  27.743  1.00  0.00     0.029 A 
ATOM     55  N   UNL A   1      40.172  29.125  29.646  1.00  0.00    -0.354 N 
ATOM     56  C   UNL A   1      39.096  31.436  33.129  1.00  0.00     0.074 A 
ATOM     57  C   UNL A   1      37.939  32.264  32.879  1.00  0.00     0.031 C 
ATOM     58  C   UNL A   1      39.939  28.349  27.563  1.00  0.00     0.029 A 
ATOM     59  C   UNL A   1      40.741  28.224  28.777  1.00  0.00     0.049 A 
ATOM     60  H   UNL A   1      40.508  29.281  30.559  1.00  0.00     0.167 HD
ATOM     61  C   UNL A   1      39.757  31.382  34.311  1.00  0.00     0.034 A 
ATOM     62  C   UNL A   1      41.793  27.393  28.924  1.00  0.00     0.034 A 
ATOM     63  C   UNL A   1      40.888  30.524  34.566  1.00  0.00     0.049 A 
ATOM     64  C   UNL A   1      42.515  27.360  30.243  1.00  0.00     0.074 A 
ATOM     65  C   UNL A   1      41.595  30.371  35.746  1.00  0.00     0.029 A 
ATOM     66  N   UNL A   1      41.474  29.673  33.640  1.00  0.00    -0.354 N 
ATOM     67  N   UNL A   1      42.237  28.005  31.352  1.00  0.00    -0.248 NA
ATOM     68  C   UNL A   1      43.700  26.496  30.335  1.00  0.00     0.031 C 
ATOM     69  C   UNL A   1      42.642  29.475  35.518  1.00  0.00     0.029 A 
ATOM     70  C   UNL A   1      42.551  29.016  34.214  1.00  0.00     0.049 A 
ATOM     71  H   UNL A   1      41.169  29.552  32.711  1.00  0.00     0.167 HD
ATOM     72  C   UNL A   1      43.213  27.631  32.268  1.00  0.00     0.074 A 
ATOM     73  C   UNL A   1      44.061  26.664  31.600  1.00  0.00     0.031 C 
ATOM     74  C   UNL A   1      43.401  28.063  33.542  1.00  0.00     0.034 A 
BRANCH  61  75
ATOM     75  C   UNL A   1      39.285  32.257  35.450  1.00  0.00     0.023 A 
ATOM     76  C   UNL A   1      39.750  33.581  35.561  1.00  0.00     0.031 A 
ATOM     77  C   UNL A   1      38.493  31.743  36.492  1.00  0.00     0.131 A 
ATOM     78  C   UNL A   1      39.449  34.335  36.703  1.00  0.00     0.055 A 
ATOM     79  C   UNL A   1      38.162  32.512  37.610  1.00  0.00     0.041 A 
ATOM     80  F   UNL A   1      38.025  30.485  36.437  1.00  0.00    -0.206 F 
ATOM     81  C   UNL A   1      38.651  33.809  37.725  1.00  0.00     0.022 A 
BRANCH  78  82
ATOM     82  S   UNL A   1      40.130  35.999  36.941  1.00  0.00     0.124 S 
ATOM     83  O   UNL A   1      39.802  36.641  35.669  1.00  0.00    -0.237 OA
ATOM     84  O   UNL A   1      39.371  36.477  38.093  1.00  0.00    -0.237 OA
ATOM     85  O   UNL A   1      41.551  35.768  37.171  1.00  0.00    -0.744 OA
ENDBRANCH  78  82
ENDBRANCH  61  75
BRANCH  62  86
ATOM     86  C   UNL A   1      42.183  26.510  27.785  1.00  0.00     0.023 A 
ATOM     87  C   UNL A   1      41.644  25.216  27.662  1.00  0.00     0.031 A 
ATOM     88  C   UNL A   1      43.189  26.895  26.884  1.00  0.00     0.131 A 
ATOM     89  C   UNL A   1      42.180  24.323  26.725  1.00  0.00     0.055 A 
ATOM     90  C   UNL A   1      43.662  26.028  25.896  1.00  0.00     0.041 A 
ATOM     91  F   UNL A   1      43.740  28.115  26.967  1.00  0.00    -0.206 F 
ATOM     92  C   UNL A   1      43.174  24.727  25.830  1.00  0.00     0.022 A 
BRANCH  89  93
ATOM     93  S   UNL A   1      41.725  22.567  26.757  1.00  0.00     0.124 S 
ATOM     94  O   UNL A   1      42.389  22.103  27.970  1.00  0.00    -0.237 OA
ATOM     95  O   UNL A   1      40.266  22.637  26.822  1.00  0.00    -0.237 OA
ATOM     96  O   UNL A   1      42.262  22.049  25.503  1.00  0.00    -0.744 OA
ENDBRANCH  89  93
ENDBRANCH  62  86
BRANCH  74  97
ATOM     97  C   UNL A   1      44.589  27.531  34.308  1.00  0.00     0.023 A 
ATOM     98  C   UNL A   1      44.459  26.397  35.131  1.00  0.00     0.031 A 
ATOM     99  C   UNL A   1      45.813  28.224  34.318  1.00  0.00     0.131 A 
ATOM    100  C   UNL A   1      45.524  26.008  35.953  1.00  0.00     0.055 A 
ATOM    101  C   UNL A   1      46.886  27.805  35.105  1.00  0.00     0.041 A 
ATOM    102  F   UNL A   1      45.985  29.317  33.557  1.00  0.00    -0.206 F 
ATOM    103  C   UNL A   1      46.740  26.700  35.939  1.00  0.00     0.022 A 
BRANCH 100 104
ATOM    104  S   UNL A   1      45.346  24.641  37.134  1.00  0.00     0.124 S 
ATOM    105  O   UNL A   1      44.559  23.680  36.365  1.00  0.00    -0.237 OA
ATOM    106  O   UNL A   1      46.735  24.258  37.375  1.00  0.00    -0.237 OA
ATOM    107  O   UNL A   1      44.657  25.244  38.270  1.00  0.00    -0.744 OA
ENDBRANCH 100 104
ENDBRANCH  74  97
ENDBRANCH  48  49
ENDBRANCH  40  43
ENDBRANCH  38  39
ENDBRANCH  37  38
ENDBRANCH   1  37
TORSDOF 20
ENDMDL
MODEL 2
REMARK VINA RESULT:     -13.3      2.194      2.953
REMARK SMILES C[C@H]1c2ccc(O)cc2OC(=O)[C@@H]1CC(=O)N[C@@H](CC1=c2ccccc2=NC1)C(=O)NCCCCNC(=O)c1ccc(-c2c3nc(c(-c4cc(S(=O)(=O)[O-])ccc4F)c4ccc([nH]4)c(-c4cc(S(=O)(=O)[O-])ccc4F)c4nc(c(-c5cc(S(=O)(=O)[O-])ccc5F)c5ccc2[nH]5)C=C4)C=C3)cc1
REMARK SMILES IDX 33 1 32 2 31 3 29 4 30 5 18 7 17 8 15 9 16 10 14 12 13 13
REMARK SMILES IDX 1 14 2 15 3 16 4 17 9 18 11 19 5 20 8 21 10 22 12 23 6 24
REMARK SMILES IDX 7 25 19 27 20 28 21 29 28 30 22 31 26 32 27 33 23 34 25 35
REMARK SMILES IDX 24 36 34 37 35 38 36 39 37 40 38 42 39 43 40 44 101 45 41 46
REMARK SMILES IDX 100 47 42 48 43 49 44 50 94 51 45 52 99 53 93 54 95 55 46 56
REMARK SMILES IDX 98 57 92 58 91 59 47 61 79 62 59 63 78 64 60 65 63 66 77 67
REMARK SMILES IDX 96 68 61 69 62 70 76 72 97 73 64 74 48 75 49 76 57 77 50 78
REMARK SMILES IDX 56 79 58 80 55 81 51 82 52 83 53 84 54 85 80 86 81 87 89 88
REMARK SMILES IDX 82 89 88 90 90 91 87 92 83 93 84 94 85 95 86 96 65 97 66 98
REMARK SMILES IDX 74 99 67 100 73 101 75 102 72 103 68 104 69 105 70 106
REMARK SMILES IDX 71 107
REMARK H PARENT 31 6 17 11 7 26 36 41 95 60 63 71
REMARK Flexibility Score: inf
ROOT
ATOM      1  C   UNL A   1      32.147  29.982  26.919  1.00  0.00     0.023 C 
ENDROOT
BRANCH   1   2
ATOM      2  C   UNL A   1      32.158  30.137  25.407  1.00  0.00     0.116 C 
BRANCH   2   3
ATOM      3  N   UNL A   1      33.201  29.531  24.630  1.00  0.00    -0.354 N 
ATOM      4  C   UNL A   1      32.954  28.643  23.610  1.00  0.00     0.242 C 
ATOM      5  O   UNL A   1      33.678  28.719  22.611  1.00  0.00    -0.273 OA
ATOM      6  H   UNL A   1      34.136  29.762  24.837  1.00  0.00     0.163 HD
BRANCH   4   7
ATOM      7  C   UNL A   1      31.779  27.604  23.635  1.00  0.00     0.175 C 
BRANCH   7   8
ATOM      8  N   UNL A   1      31.418  26.996  24.921  1.00  0.00    -0.344 N 
ATOM      9  C   UNL A   1      31.914  25.883  25.534  1.00  0.00     0.221 C 
ATOM     10  O   UNL A   1      31.382  25.496  26.576  1.00  0.00    -0.275 OA
ATOM     11  H   UNL A   1      30.709  27.464  25.419  1.00  0.00     0.164 HD
BRANCH   9  12
ATOM     12  C   UNL A   1      33.094  25.125  24.950  1.00  0.00     0.116 C 
BRANCH  12  13
ATOM     13  C   UNL A   1      32.703  24.233  23.750  1.00  0.00     0.116 C 
ATOM     14  C   UNL A   1      32.262  21.870  22.891  1.00  0.00     0.014 C 
ATOM     15  C   UNL A   1      32.838  22.721  24.030  1.00  0.00     0.034 C 
ATOM     16  C   UNL A   1      34.293  22.394  24.250  1.00  0.00    -0.001 A 
ATOM     17  C   UNL A   1      34.701  21.350  25.087  1.00  0.00     0.011 A 
ATOM     18  C   UNL A   1      35.268  23.182  23.634  1.00  0.00     0.138 A 
ATOM     19  C   UNL A   1      33.578  24.530  22.557  1.00  0.00     0.315 C 
ATOM     20  C   UNL A   1      36.061  21.152  25.346  1.00  0.00     0.047 A 
ATOM     21  C   UNL A   1      36.622  23.014  23.902  1.00  0.00     0.093 A 
ATOM     22  O   UNL A   1      34.911  24.162  22.691  1.00  0.00    -0.426 OA
ATOM     23  O   UNL A   1      33.163  25.105  21.557  1.00  0.00    -0.251 OA
ATOM     24  C   UNL A   1      37.006  22.002  24.772  1.00  0.00     0.119 A 
BRANCH  24  25
ATOM     25  O   UNL A   1      38.335  21.864  25.038  1.00  0.00    -0.508 OA
ATOM     26  H   UNL A   1      38.820  22.585  25.390  1.00  0.00     0.293 HD
ENDBRANCH  24  25
ENDBRANCH  12  13
ENDBRANCH   9  12
ENDBRANCH   7   8
BRANCH   7  27
ATOM     27  C   UNL A   1      30.535  27.866  22.716  1.00  0.00     0.068 C 
BRANCH  27  28
ATOM     28  C   UNL A   1      29.418  28.811  23.133  1.00  0.00    -0.037 C 
ATOM     29  C   UNL A   1      29.402  30.118  22.817  1.00  0.00     0.001 A 
ATOM     30  C   UNL A   1      28.027  28.263  23.140  1.00  0.00     0.174 C 
ATOM     31  C   UNL A   1      29.344  31.249  23.743  1.00  0.00     0.010 A 
ATOM     32  C   UNL A   1      28.125  30.129  22.047  1.00  0.00     0.065 A 
ATOM     33  N   UNL A   1      27.294  29.153  22.213  1.00  0.00    -0.280 NA
ATOM     34  C   UNL A   1      28.758  32.385  23.305  1.00  0.00     0.001 A 
ATOM     35  C   UNL A   1      27.917  31.358  21.264  1.00  0.00     0.028 A 
ATOM     36  C   UNL A   1      28.260  32.472  21.933  1.00  0.00     0.002 A 
ENDBRANCH  27  28
ENDBRANCH   7  27
ENDBRANCH   4   7
ENDBRANCH   2   3
ENDBRANCH   1   2
BRANCH   1  37
ATOM     37  C   UNL A   1      33.441  30.344  27.664  1.00  0.00     0.023 C 
BRANCH  37  38
ATOM     38  C   UNL A   1      34.135  31.678  27.367  1.00  0.00     0.116 C 
BRANCH  38  39
ATOM     39  N   UNL A   1      33.393  32.886  27.719  1.00  0.00    -0.352 N 
ATOM     40  C   UNL A   1      33.596  33.819  28.726  1.00  0.00     0.251 C 
ATOM     41  H   UNL A   1      32.617  33.069  27.143  1.00  0.00     0.163 HD
ATOM     42  O   UNL A   1      32.858  34.768  28.868  1.00  0.00    -0.269 OA
BRANCH  40  43
ATOM     43  C   UNL A   1      34.721  33.607  29.673  1.00  0.00     0.039 A 
ATOM     44  C   UNL A   1      35.957  34.195  29.430  1.00  0.00     0.014 A 
ATOM     45  C   UNL A   1      34.561  32.734  30.751  1.00  0.00     0.014 A 
ATOM     46  C   UNL A   1      37.083  33.679  30.056  1.00  0.00     0.010 A 
ATOM     47  C   UNL A   1      35.686  32.316  31.473  1.00  0.00     0.010 A 
ATOM     48  C   UNL A   1      36.969  32.707  31.067  1.00  0.00    -0.014 A 
BRANCH  48  49
ATOM     49  C   UNL A   1      38.212  32.103  31.632  1.00  0.00     0.031 A 
ATOM     50  C   UNL A   1      38.696  32.453  33.019  1.00  0.00     0.074 A 
ATOM     51  C   UNL A   1      38.853  31.147  30.928  1.00  0.00     0.049 A 
ATOM     52  N   UNL A   1      39.701  31.948  33.691  1.00  0.00    -0.248 NA
ATOM     53  C   UNL A   1      37.970  33.505  33.748  1.00  0.00     0.031 C 
ATOM     54  C   UNL A   1      38.482  30.721  29.579  1.00  0.00     0.029 A 
ATOM     55  N   UNL A   1      39.906  30.329  31.256  1.00  0.00    -0.354 N 
ATOM     56  C   UNL A   1      39.744  32.634  34.901  1.00  0.00     0.074 A 
ATOM     57  C   UNL A   1      38.685  33.617  34.861  1.00  0.00     0.031 C 
ATOM     58  C   UNL A   1      39.228  29.665  29.232  1.00  0.00     0.029 A 
ATOM     59  C   UNL A   1      40.195  29.392  30.292  1.00  0.00     0.049 A 
ATOM     60  H   UNL A   1      40.405  30.406  32.102  1.00  0.00     0.167 HD
ATOM     61  C   UNL A   1      40.577  32.451  35.954  1.00  0.00     0.034 A 
ATOM     62  C   UNL A   1      41.134  28.424  30.249  1.00  0.00     0.034 A 
ATOM     63  C   UNL A   1      41.607  31.443  36.004  1.00  0.00     0.049 A 
ATOM     64  C   UNL A   1      42.052  28.249  31.427  1.00  0.00     0.074 A 
ATOM     65  C   UNL A   1      42.471  31.155  37.046  1.00  0.00     0.029 A 
ATOM     66  N   UNL A   1      41.910  30.555  34.981  1.00  0.00    -0.354 N 
ATOM     67  N   UNL A   1      42.051  28.885  32.576  1.00  0.00    -0.248 NA
ATOM     68  C   UNL A   1      43.107  27.233  31.306  1.00  0.00     0.031 C 
ATOM     69  C   UNL A   1      43.334  30.137  36.633  1.00  0.00     0.029 A 
ATOM     70  C   UNL A   1      42.968  29.742  35.357  1.00  0.00     0.049 A 
ATOM     71  H   UNL A   1      41.443  30.510  34.115  1.00  0.00     0.167 HD
ATOM     72  C   UNL A   1      43.105  28.353  33.309  1.00  0.00     0.074 A 
ATOM     73  C   UNL A   1      43.691  27.307  32.495  1.00  0.00     0.031 C 
ATOM     74  C   UNL A   1      43.558  28.710  34.538  1.00  0.00     0.034 A 
BRANCH  61  75
ATOM     75  C   UNL A   1      40.423  33.339  37.168  1.00  0.00     0.023 A 
ATOM     76  C   UNL A   1      39.742  32.865  38.306  1.00  0.00     0.031 A 
ATOM     77  C   UNL A   1      40.822  34.687  37.148  1.00  0.00     0.131 A 
ATOM     78  C   UNL A   1      39.451  33.740  39.361  1.00  0.00     0.055 A 
ATOM     79  C   UNL A   1      40.564  35.545  38.221  1.00  0.00     0.041 A 
ATOM     80  F   UNL A   1      41.473  35.190  36.087  1.00  0.00    -0.206 F 
ATOM     81  C   UNL A   1      39.865  35.075  39.327  1.00  0.00     0.022 A 
BRANCH  78  82
ATOM     82  S   UNL A   1      38.470  33.200  40.788  1.00  0.00     0.124 S 
ATOM     83  O   UNL A   1      38.848  31.793  40.897  1.00  0.00    -0.237 OA
ATOM     84  O   UNL A   1      38.975  34.065  41.851  1.00  0.00    -0.237 OA
ATOM     85  O   UNL A   1      37.090  33.442  40.379  1.00  0.00    -0.744 OA
ENDBRANCH  78  82
ENDBRANCH  61  75
BRANCH  62  86
ATOM     86  C   UNL A   1      41.206  27.539  29.049  1.00  0.00     0.023 A 
ATOM     87  C   UNL A   1      42.198  27.736  28.070  1.00  0.00     0.031 A 
ATOM     88  C   UNL A   1      40.215  26.577  28.800  1.00  0.00     0.131 A 
ATOM     89  C   UNL A   1      42.121  27.050  26.851  1.00  0.00     0.055 A 
ATOM     90  C   UNL A   1      40.191  25.834  27.617  1.00  0.00     0.041 A 
ATOM     91  F   UNL A   1      39.243  26.359  29.699  1.00  0.00    -0.206 F 
ATOM     92  C   UNL A   1      41.133  26.088  26.626  1.00  0.00     0.022 A 
BRANCH  89  93
ATOM     93  S   UNL A   1      43.194  27.512  25.462  1.00  0.00     0.124 S 
ATOM     94  O   UNL A   1      42.271  28.232  24.592  1.00  0.00    -0.237 OA
ATOM     95  O   UNL A   1      44.207  28.330  26.125  1.00  0.00    -0.237 OA
ATOM     96  O   UNL A   1      43.671  26.228  24.956  1.00  0.00    -0.744 OA
ENDBRANCH  89  93
ENDBRANCH  62  86
BRANCH  74  97
ATOM     97  C   UNL A   1      44.772  27.998  35.087  1.00  0.00     0.023 A 
ATOM     98  C   UNL A   1      44.628  26.835  35.865  1.00  0.00     0.031 A 
ATOM     99  C   UNL A   1      46.059  28.547  34.942  1.00  0.00     0.131 A 
ATOM    100  C   UNL A   1      45.747  26.275  36.494  1.00  0.00     0.055 A 
ATOM    101  C   UNL A   1      47.177  27.960  35.534  1.00  0.00     0.041 A 
ATOM    102  F   UNL A   1      46.248  29.662  34.218  1.00  0.00    -0.206 F 
ATOM    103  C   UNL A   1      47.022  26.825  36.326  1.00  0.00     0.022 A 
BRANCH 100 104
ATOM    104  S   UNL A   1      45.580  24.861  37.620  1.00  0.00     0.124 S 
ATOM    105  O   UNL A   1      46.951  24.696  38.099  1.00  0.00    -0.237 OA
ATOM    106  O   UNL A   1      44.631  25.365  38.609  1.00  0.00    -0.237 OA
ATOM    107  O   UNL A   1      45.086  23.787  36.767  1.00  0.00    -0.744 OA
ENDBRANCH 100 104
ENDBRANCH  74  97
ENDBRANCH  48  49
ENDBRANCH  40  43
ENDBRANCH  38  39
ENDBRANCH  37  38
ENDBRANCH   1  37
TORSDOF 20
ENDMDL
MODEL 3
REMARK VINA RESULT:     -13.2      1.355      2.068
REMARK SMILES C[C@H]1c2ccc(O)cc2OC(=O)[C@@H]1CC(=O)N[C@@H](CC1=c2ccccc2=NC1)C(=O)NCCCCNC(=O)c1ccc(-c2c3nc(c(-c4cc(S(=O)(=O)[O-])ccc4F)c4ccc([nH]4)c(-c4cc(S(=O)(=O)[O-])ccc4F)c4nc(c(-c5cc(S(=O)(=O)[O-])ccc5F)c5ccc2[nH]5)C=C4)C=C3)cc1
REMARK SMILES IDX 33 1 32 2 31 3 29 4 30 5 18 7 17 8 15 9 16 10 14 12 13 13
REMARK SMILES IDX 1 14 2 15 3 16 4 17 9 18 11 19 5 20 8 21 10 22 12 23 6 24
REMARK SMILES IDX 7 25 19 27 20 28 21 29 28 30 22 31 26 32 27 33 23 34 25 35
REMARK SMILES IDX 24 36 34 37 35 38 36 39 37 40 38 42 39 43 40 44 101 45 41 46
REMARK SMILES IDX 100 47 42 48 43 49 44 50 94 51 45 52 99 53 93 54 95 55 46 56
REMARK SMILES IDX 98 57 92 58 91 59 47 61 79 62 59 63 78 64 60 65 63 66 77 67
REMARK SMILES IDX 96 68 61 69 62 70 76 72 97 73 64 74 48 75 49 76 57 77 50 78
REMARK SMILES IDX 56 79 58 80 55 81 51 82 52 83 53 84 54 85 80 86 81 87 89 88
REMARK SMILES IDX 82 89 88 90 90 91 87 92 83 93 84 94 85 95 86 96 65 97 66 98
REMARK SMILES IDX 74 99 67 100 73 101 75 102 72 103 68 104 69 105 70 106
REMARK SMILES IDX 71 107
REMARK H PARENT 31 6 17 11 7 26 36 41 95 60 63 71
REMARK Flexibility Score: inf
ROOT
ATOM      1  C   UNL A   1      32.293  30.441  26.715  1.00  0.00     0.023 C 
ENDROOT
BRANCH   1   2
ATOM      2  C   UNL A   1      32.080  29.689  25.412  1.00  0.00     0.116 C 
BRANCH   2   3
ATOM      3  N   UNL A   1      33.073  28.766  24.944  1.00  0.00    -0.354 N 
ATOM      4  C   UNL A   1      32.807  27.789  24.014  1.00  0.00     0.242 C 
ATOM      5  O   UNL A   1      33.689  27.551  23.180  1.00  0.00    -0.273 OA
ATOM      6  H   UNL A   1      33.986  28.834  25.306  1.00  0.00     0.163 HD
BRANCH   4   7
ATOM      7  C   UNL A   1      31.439  27.027  23.928  1.00  0.00     0.175 C 
BRANCH   7   8
ATOM      8  N   UNL A   1      30.845  26.525  25.174  1.00  0.00    -0.344 N 
ATOM      9  C   UNL A   1      30.606  25.245  25.577  1.00  0.00     0.221 C 
ATOM     10  O   UNL A   1      29.997  25.061  26.632  1.00  0.00    -0.275 OA
ATOM     11  H   UNL A   1      30.579  27.221  25.819  1.00  0.00     0.164 HD
BRANCH   9  12
ATOM     12  C   UNL A   1      31.073  24.061  24.747  1.00  0.00     0.116 C 
BRANCH  12  13
ATOM     13  C   UNL A   1      32.545  24.186  24.292  1.00  0.00     0.116 C 
ATOM     14  C   UNL A   1      34.399  23.312  22.770  1.00  0.00     0.014 C 
ATOM     15  C   UNL A   1      33.003  23.052  23.351  1.00  0.00     0.034 C 
ATOM     16  C   UNL A   1      32.982  21.750  24.110  1.00  0.00    -0.001 A 
ATOM     17  C   UNL A   1      32.733  20.526  23.479  1.00  0.00     0.011 A 
ATOM     18  C   UNL A   1      33.174  21.766  25.494  1.00  0.00     0.138 A 
ATOM     19  C   UNL A   1      33.475  24.163  25.480  1.00  0.00     0.315 C 
ATOM     20  C   UNL A   1      32.616  19.359  24.241  1.00  0.00     0.047 A 
ATOM     21  C   UNL A   1      33.034  20.618  26.266  1.00  0.00     0.093 A 
ATOM     22  O   UNL A   1      33.546  22.950  26.154  1.00  0.00    -0.426 OA
ATOM     23  O   UNL A   1      34.086  25.153  25.864  1.00  0.00    -0.251 OA
ATOM     24  C   UNL A   1      32.741  19.421  25.628  1.00  0.00     0.119 A 
BRANCH  24  25
ATOM     25  O   UNL A   1      32.589  18.310  26.402  1.00  0.00    -0.508 OA
ATOM     26  H   UNL A   1      31.955  18.302  27.092  1.00  0.00     0.293 HD
ENDBRANCH  24  25
ENDBRANCH  12  13
ENDBRANCH   9  12
ENDBRANCH   7   8
BRANCH   7  27
ATOM     27  C   UNL A   1      30.364  27.538  22.906  1.00  0.00     0.068 C 
BRANCH  27  28
ATOM     28  C   UNL A   1      29.300  28.550  23.305  1.00  0.00    -0.037 C 
ATOM     29  C   UNL A   1      29.334  29.841  22.931  1.00  0.00     0.001 A 
ATOM     30  C   UNL A   1      27.887  28.065  23.368  1.00  0.00     0.174 C 
ATOM     31  C   UNL A   1      29.347  31.013  23.807  1.00  0.00     0.010 A 
ATOM     32  C   UNL A   1      28.040  29.876  22.190  1.00  0.00     0.065 A 
ATOM     33  N   UNL A   1      27.172  28.945  22.418  1.00  0.00    -0.280 NA
ATOM     34  C   UNL A   1      28.801  32.154  23.332  1.00  0.00     0.001 A 
ATOM     35  C   UNL A   1      27.867  31.077  21.358  1.00  0.00     0.028 A 
ATOM     36  C   UNL A   1      28.274  32.203  21.969  1.00  0.00     0.002 A 
ENDBRANCH  27  28
ENDBRANCH   7  27
ENDBRANCH   4   7
ENDBRANCH   2   3
ENDBRANCH   1   2
BRANCH   1  37
ATOM     37  C   UNL A   1      31.521  31.757  26.894  1.00  0.00     0.023 C 
BRANCH  37  38
ATOM     38  C   UNL A   1      32.209  33.087  26.569  1.00  0.00     0.116 C 
BRANCH  38  39
ATOM     39  N   UNL A   1      32.156  34.113  27.608  1.00  0.00    -0.352 N 
ATOM     40  C   UNL A   1      33.044  34.422  28.629  1.00  0.00     0.251 C 
ATOM     41  H   UNL A   1      31.354  34.682  27.577  1.00  0.00     0.163 HD
ATOM     42  O   UNL A   1      32.821  35.319  29.411  1.00  0.00    -0.269 OA
BRANCH  40  43
ATOM     43  C   UNL A   1      34.267  33.592  28.782  1.00  0.00     0.039 A 
ATOM     44  C   UNL A   1      34.191  32.343  29.386  1.00  0.00     0.014 A 
ATOM     45  C   UNL A   1      35.506  34.117  28.409  1.00  0.00     0.014 A 
ATOM     46  C   UNL A   1      35.348  31.769  29.893  1.00  0.00     0.010 A 
ATOM     47  C   UNL A   1      36.679  33.462  28.806  1.00  0.00     0.010 A 
ATOM     48  C   UNL A   1      36.611  32.336  29.639  1.00  0.00    -0.014 A 
BRANCH  48  49
ATOM     49  C   UNL A   1      37.814  31.747  30.298  1.00  0.00     0.031 A 
ATOM     50  C   UNL A   1      38.152  32.057  31.737  1.00  0.00     0.074 A 
ATOM     51  C   UNL A   1      38.549  30.838  29.626  1.00  0.00     0.049 A 
ATOM     52  N   UNL A   1      39.104  31.556  32.485  1.00  0.00    -0.248 NA
ATOM     53  C   UNL A   1      37.326  33.059  32.430  1.00  0.00     0.031 C 
ATOM     54  C   UNL A   1      38.322  30.454  28.232  1.00  0.00     0.029 A 
ATOM     55  N   UNL A   1      39.592  30.039  30.024  1.00  0.00    -0.354 N 
ATOM     56  C   UNL A   1      39.010  32.196  33.717  1.00  0.00     0.074 A 
ATOM     57  C   UNL A   1      37.928  33.148  33.609  1.00  0.00     0.031 C 
ATOM     58  C   UNL A   1      39.132  29.435  27.922  1.00  0.00     0.029 A 
ATOM     59  C   UNL A   1      40.003  29.149  29.059  1.00  0.00     0.049 A 
ATOM     60  H   UNL A   1      40.006  30.098  30.916  1.00  0.00     0.167 HD
ATOM     61  C   UNL A   1      39.744  31.997  34.838  1.00  0.00     0.034 A 
ATOM     62  C   UNL A   1      40.972  28.211  29.073  1.00  0.00     0.034 A 
ATOM     63  C   UNL A   1      40.797  31.017  34.950  1.00  0.00     0.049 A 
ATOM     64  C   UNL A   1      41.780  28.017  30.327  1.00  0.00     0.074 A 
ATOM     65  C   UNL A   1      41.567  30.715  36.060  1.00  0.00     0.029 A 
ATOM     66  N   UNL A   1      41.225  30.180  33.930  1.00  0.00    -0.354 N 
ATOM     67  N   UNL A   1      41.648  28.608  31.492  1.00  0.00    -0.248 NA
ATOM     68  C   UNL A   1      42.874  27.038  30.272  1.00  0.00     0.031 C 
ATOM     69  C   UNL A   1      42.498  29.740  35.696  1.00  0.00     0.029 A 
ATOM     70  C   UNL A   1      42.268  29.383  34.377  1.00  0.00     0.049 A 
ATOM     71  H   UNL A   1      40.844  30.154  33.023  1.00  0.00     0.167 HD
ATOM     72  C   UNL A   1      42.645  28.078  32.304  1.00  0.00     0.074 A 
ATOM     73  C   UNL A   1      43.339  27.082  31.513  1.00  0.00     0.031 C 
ATOM     74  C   UNL A   1      42.966  28.401  33.583  1.00  0.00     0.034 A 
BRANCH  61  75
ATOM     75  C   UNL A   1      39.446  32.833  36.062  1.00  0.00     0.023 A 
ATOM     76  C   UNL A   1      40.132  34.044  36.272  1.00  0.00     0.031 A 
ATOM     77  C   UNL A   1      38.595  32.368  37.080  1.00  0.00     0.131 A 
ATOM     78  C   UNL A   1      39.982  34.732  37.484  1.00  0.00     0.055 A 
ATOM     79  C   UNL A   1      38.418  33.077  38.270  1.00  0.00     0.041 A 
ATOM     80  F   UNL A   1      37.919  31.217  36.931  1.00  0.00    -0.206 F 
ATOM     81  C   UNL A   1      39.123  34.258  38.481  1.00  0.00     0.022 A 
BRANCH  78  82
ATOM     82  S   UNL A   1      40.941  36.229  37.842  1.00  0.00     0.124 S 
ATOM     83  O   UNL A   1      41.506  36.544  36.532  1.00  0.00    -0.237 OA
ATOM     84  O   UNL A   1      39.907  37.148  38.311  1.00  0.00    -0.237 OA
ATOM     85  O   UNL A   1      41.906  35.798  38.847  1.00  0.00    -0.744 OA
ENDBRANCH  78  82
ENDBRANCH  61  75
BRANCH  62  86
ATOM     86  C   UNL A   1      41.187  27.376  27.854  1.00  0.00     0.023 A 
ATOM     87  C   UNL A   1      40.784  26.028  27.827  1.00  0.00     0.031 A 
ATOM     88  C   UNL A   1      41.910  27.871  26.757  1.00  0.00     0.131 A 
ATOM     89  C   UNL A   1      41.188  25.200  26.772  1.00  0.00     0.055 A 
ATOM     90  C   UNL A   1      42.238  27.062  25.667  1.00  0.00     0.041 A 
ATOM     91  F   UNL A   1      42.325  29.148  26.740  1.00  0.00    -0.206 F 
ATOM     92  C   UNL A   1      41.898  25.713  25.683  1.00  0.00     0.022 A 
BRANCH  89  93
ATOM     93  S   UNL A   1      40.953  23.403  26.866  1.00  0.00     0.124 S 
ATOM     94  O   UNL A   1      41.436  23.103  28.209  1.00  0.00    -0.237 OA
ATOM     95  O   UNL A   1      39.511  23.279  26.670  1.00  0.00    -0.237 OA
ATOM     96  O   UNL A   1      41.771  22.892  25.770  1.00  0.00    -0.744 OA
ENDBRANCH  89  93
ENDBRANCH  62  86
BRANCH  74  97
ATOM     97  C   UNL A   1      44.146  27.705  34.220  1.00  0.00     0.023 A 
ATOM     98  C   UNL A   1      43.958  26.541  34.989  1.00  0.00     0.031 A 
ATOM     99  C   UNL A   1      45.433  28.267  34.167  1.00  0.00     0.131 A 
ATOM    100  C   UNL A   1      45.035  25.995  35.699  1.00  0.00     0.055 A 
ATOM    101  C   UNL A   1      46.512  27.694  34.840  1.00  0.00     0.041 A 
ATOM    102  F   UNL A   1      45.662  29.382  33.454  1.00  0.00    -0.206 F 
ATOM    103  C   UNL A   1      46.313  26.559  35.622  1.00  0.00     0.022 A 
BRANCH 100 104
ATOM    104  S   UNL A   1      44.803  24.583  36.816  1.00  0.00     0.124 S 
ATOM    105  O   UNL A   1      44.262  23.571  35.911  1.00  0.00    -0.237 OA
ATOM    106  O   UNL A   1      46.163  24.335  37.287  1.00  0.00    -0.237 OA
ATOM    107  O   UNL A   1      43.871  25.079  37.823  1.00  0.00    -0.744 OA
ENDBRANCH 100 104
ENDBRANCH  74  97
ENDBRANCH  48  49
ENDBRANCH  40  43
ENDBRANCH  38  39
ENDBRANCH  37  38
ENDBRANCH   1  37
TORSDOF 20
ENDMDL
