MODEL 1
REMARK VINA RESULT:     -12.1      0.000      0.000
REMARK SMILES O=C(NCCCCNC(=O)[C@H]1C[C@@H](O)CN1C(=O)c1cc(F)c(F)cc1Cl)c1ccc(-c2c3nc(c(-c4cc(S(=O)(=O)[O-])ccc4F)c4ccc([nH]4)c(-c4cc(S(=O)(=O)[O-])ccc4F)c4nc(c(-c5cc(S(=O)(=O)[O-])ccc5F)c5ccc2[nH]5)C=C4)C=C3)cc1
REMARK SMILES IDX 5 1 4 2 3 3 1 4 2 5 28 7 29 8 90 9 30 10 89 11 31 12 32 13
REMARK SMILES IDX 33 14 83 15 34 16 88 17 82 18 84 19 35 20 87 21 81 22 80 23
REMARK SMILES IDX 36 25 68 26 48 27 67 28 49 29 52 30 66 31 85 32 50 33 51 34
REMARK SMILES IDX 65 36 86 37 53 38 37 39 38 40 46 41 39 42 45 43 47 44 44 45
REMARK SMILES IDX 40 46 41 47 42 48 43 49 69 50 70 51 78 52 71 53 77 54 79 55
REMARK SMILES IDX 76 56 72 57 73 58 74 59 75 60 54 61 55 62 63 63 56 64 62 65
REMARK SMILES IDX 64 66 61 67 57 68 58 69 59 70 60 71 6 72 7 73 8 74 9 75
REMARK SMILES IDX 10 77 11 78 12 79 16 80 13 81 15 82 17 83 18 84 19 85 20 86
REMARK SMILES IDX 26 87 21 88 25 89 27 90 22 91 23 92 24 93 14 94
REMARK H PARENT 3 6 84 24 52 35 8 76 14 95
REMARK Flexibility Score: inf
ROOT
ATOM      1  C   UNL A   1      36.111  21.651  24.714  1.00  0.00     0.023 C 
ENDROOT
BRANCH   1   2
ATOM      2  C   UNL A   1      37.148  22.169  25.706  1.00  0.00     0.116 C 
BRANCH   2   3
ATOM      3  N   UNL A   1      38.238  21.235  25.931  1.00  0.00    -0.352 N 
ATOM      4  O   UNL A   1      40.314  20.508  26.356  1.00  0.00    -0.269 OA
ATOM      5  C   UNL A   1      39.520  21.448  26.376  1.00  0.00     0.251 C 
ATOM      6  H   UNL A   1      38.023  20.295  25.731  1.00  0.00     0.163 HD
BRANCH   5   7
ATOM      7  C   UNL A   1      39.964  22.776  26.865  1.00  0.00     0.039 A 
ATOM      8  C   UNL A   1      39.523  23.918  26.186  1.00  0.00     0.014 A 
ATOM      9  C   UNL A   1      40.854  22.914  27.933  1.00  0.00     0.014 A 
ATOM     10  C   UNL A   1      39.954  25.187  26.590  1.00  0.00     0.010 A 
ATOM     11  C   UNL A   1      41.216  24.183  28.389  1.00  0.00     0.010 A 
ATOM     12  C   UNL A   1      40.798  25.331  27.701  1.00  0.00    -0.014 A 
BRANCH  12  13
ATOM     13  C   UNL A   1      41.315  26.667  28.106  1.00  0.00     0.031 A 
ATOM     14  C   UNL A   1      42.735  27.051  27.773  1.00  0.00     0.074 A 
ATOM     15  C   UNL A   1      40.528  27.524  28.786  1.00  0.00     0.049 A 
ATOM     16  N   UNL A   1      43.378  28.156  28.048  1.00  0.00    -0.248 NA
ATOM     17  C   UNL A   1      43.548  26.051  27.058  1.00  0.00     0.031 C 
ATOM     18  C   UNL A   1      39.150  27.254  29.198  1.00  0.00     0.029 A 
ATOM     19  N   UNL A   1      40.767  28.797  29.242  1.00  0.00    -0.354 N 
ATOM     20  C   UNL A   1      44.668  27.977  27.561  1.00  0.00     0.074 A 
ATOM     21  C   UNL A   1      44.735  26.636  27.027  1.00  0.00     0.031 C 
ATOM     22  C   UNL A   1      38.653  28.341  29.809  1.00  0.00     0.029 A 
ATOM     23  C   UNL A   1      39.683  29.378  29.861  1.00  0.00     0.049 A 
ATOM     24  H   UNL A   1      41.634  29.252  29.138  1.00  0.00     0.167 HD
ATOM     25  C   UNL A   1      45.694  28.860  27.530  1.00  0.00     0.034 A 
ATOM     26  C   UNL A   1      39.530  30.609  30.394  1.00  0.00     0.034 A 
ATOM     27  C   UNL A   1      45.601  30.210  28.019  1.00  0.00     0.049 A 
ATOM     28  C   UNL A   1      40.676  31.589  30.311  1.00  0.00     0.074 A 
ATOM     29  C   UNL A   1      46.572  31.195  27.996  1.00  0.00     0.029 A 
ATOM     30  N   UNL A   1      44.470  30.772  28.593  1.00  0.00    -0.354 N 
ATOM     31  N   UNL A   1      41.865  31.426  29.781  1.00  0.00    -0.248 NA
ATOM     32  C   UNL A   1      40.459  32.927  30.881  1.00  0.00     0.031 C 
ATOM     33  C   UNL A   1      46.042  32.341  28.591  1.00  0.00     0.029 A 
ATOM     34  C   UNL A   1      44.722  32.091  28.928  1.00  0.00     0.049 A 
ATOM     35  H   UNL A   1      43.618  30.304  28.739  1.00  0.00     0.167 HD
ATOM     36  C   UNL A   1      42.514  32.652  29.905  1.00  0.00     0.074 A 
ATOM     37  C   UNL A   1      41.584  33.550  30.555  1.00  0.00     0.031 C 
ATOM     38  C   UNL A   1      43.768  32.998  29.519  1.00  0.00     0.034 A 
BRANCH  25  39
ATOM     39  C   UNL A   1      47.002  28.427  26.916  1.00  0.00     0.023 A 
ATOM     40  C   UNL A   1      47.110  28.271  25.522  1.00  0.00     0.031 A 
ATOM     41  C   UNL A   1      48.097  28.051  27.716  1.00  0.00     0.131 A 
ATOM     42  C   UNL A   1      48.275  27.721  24.972  1.00  0.00     0.055 A 
ATOM     43  C   UNL A   1      49.272  27.546  27.160  1.00  0.00     0.041 A 
ATOM     44  F   UNL A   1      48.043  28.184  29.051  1.00  0.00    -0.206 F 
ATOM     45  C   UNL A   1      49.360  27.367  25.782  1.00  0.00     0.022 A 
BRANCH  42  46
ATOM     46  S   UNL A   1      48.409  27.392  23.195  1.00  0.00     0.124 S 
ATOM     47  O   UNL A   1      49.757  27.876  22.900  1.00  0.00    -0.237 OA
ATOM     48  O   UNL A   1      48.240  25.944  23.139  1.00  0.00    -0.237 OA
ATOM     49  O   UNL A   1      47.328  28.178  22.609  1.00  0.00    -0.744 OA
ENDBRANCH  42  46
ENDBRANCH  25  39
BRANCH  26  50
ATOM     50  C   UNL A   1      38.203  31.012  30.946  1.00  0.00     0.023 A 
ATOM     51  C   UNL A   1      37.221  31.615  30.141  1.00  0.00     0.031 A 
ATOM     52  C   UNL A   1      37.931  30.864  32.318  1.00  0.00     0.131 A 
ATOM     53  C   UNL A   1      36.036  32.088  30.723  1.00  0.00     0.055 A 
ATOM     54  C   UNL A   1      36.724  31.280  32.883  1.00  0.00     0.041 A 
ATOM     55  F   UNL A   1      38.843  30.309  33.131  1.00  0.00    -0.206 F 
ATOM     56  C   UNL A   1      35.774  31.909  32.085  1.00  0.00     0.022 A 
BRANCH  53  57
ATOM     57  S   UNL A   1      34.843  33.056  29.757  1.00  0.00     0.124 S 
ATOM     58  O   UNL A   1      33.951  33.562  30.795  1.00  0.00    -0.237 OA
ATOM     59  O   UNL A   1      35.705  34.052  29.126  1.00  0.00    -0.237 OA
ATOM     60  O   UNL A   1      34.262  32.075  28.846  1.00  0.00    -0.744 OA
ENDBRANCH  53  57
ENDBRANCH  26  50
BRANCH  38  61
ATOM     61  C   UNL A   1      44.231  34.420  29.720  1.00  0.00     0.023 A 
ATOM     62  C   UNL A   1      44.055  35.360  28.684  1.00  0.00     0.031 A 
ATOM     63  C   UNL A   1      44.988  34.799  30.841  1.00  0.00     0.131 A 
ATOM     64  C   UNL A   1      44.663  36.618  28.773  1.00  0.00     0.055 A 
ATOM     65  C   UNL A   1      45.556  36.069  30.944  1.00  0.00     0.041 A 
ATOM     66  F   UNL A   1      45.198  33.933  31.845  1.00  0.00    -0.206 F 
ATOM     67  C   UNL A   1      45.407  36.979  29.900  1.00  0.00     0.022 A 
BRANCH  64  68
ATOM     68  S   UNL A   1      44.597  37.789  27.389  1.00  0.00     0.124 S 
ATOM     69  O   UNL A   1      43.295  37.484  26.799  1.00  0.00    -0.237 OA
ATOM     70  O   UNL A   1      44.684  39.079  28.070  1.00  0.00    -0.237 OA
ATOM     71  O   UNL A   1      45.751  37.435  26.569  1.00  0.00    -0.744 OA
ENDBRANCH  64  68
ENDBRANCH  38  61
ENDBRANCH  12  13
ENDBRANCH   5   7
ENDBRANCH   2   3
ENDBRANCH   1   2
BRANCH   1  72
ATOM     72  C   UNL A   1      35.609  20.227  24.949  1.00  0.00     0.023 C 
BRANCH  72  73
ATOM     73  C   UNL A   1      34.193  20.104  25.499  1.00  0.00     0.116 C 
BRANCH  73  74
ATOM     74  N   UNL A   1      33.981  20.809  26.751  1.00  0.00    -0.354 N 
ATOM     75  C   UNL A   1      33.181  21.903  26.969  1.00  0.00     0.242 C 
ATOM     76  H   UNL A   1      34.467  20.464  27.535  1.00  0.00     0.163 HD
ATOM     77  O   UNL A   1      32.854  22.194  28.122  1.00  0.00    -0.273 OA
BRANCH  75  78
ATOM     78  C   UNL A   1      32.616  22.657  25.750  1.00  0.00     0.177 C 
ATOM     79  C   UNL A   1      31.154  22.252  25.519  1.00  0.00     0.069 C 
ATOM     80  N   UNL A   1      32.559  24.111  25.943  1.00  0.00    -0.324 N 
ATOM     81  C   UNL A   1      30.368  23.314  26.279  1.00  0.00     0.136 C 
ATOM     82  C   UNL A   1      31.181  24.580  26.044  1.00  0.00     0.152 C 
BRANCH  80  83
ATOM     83  C   UNL A   1      33.706  24.875  25.840  1.00  0.00     0.256 C 
ATOM     84  O   UNL A   1      34.770  24.574  26.368  1.00  0.00    -0.269 OA
BRANCH  83  85
ATOM     85  C   UNL A   1      33.650  26.088  24.999  1.00  0.00     0.061 A 
ATOM     86  C   UNL A   1      33.590  27.346  25.614  1.00  0.00     0.057 A 
ATOM     87  C   UNL A   1      33.634  25.983  23.600  1.00  0.00     0.056 A 
ATOM     88  C   UNL A   1      33.445  28.480  24.824  1.00  0.00     0.159 A 
ATOM     89  C   UNL A   1      33.514  27.135  22.817  1.00  0.00     0.063 A 
ATOM     90  Cl  UNL A   1      33.692  24.467  22.776  1.00  0.00    -0.083 Cl
ATOM     91  F   UNL A   1      33.321  29.678  25.410  1.00  0.00    -0.204 F 
ATOM     92  C   UNL A   1      33.406  28.375  23.438  1.00  0.00     0.160 A 
ATOM     93  F   UNL A   1      33.244  29.471  22.683  1.00  0.00    -0.204 F 
ENDBRANCH  83  85
ENDBRANCH  80  83
BRANCH  81  94
ATOM     94  O   UNL A   1      30.302  22.997  27.667  1.00  0.00    -0.391 OA
ATOM     95  H   UNL A   1      29.876  22.134  27.782  1.00  0.00     0.211 HD
ENDBRANCH  81  94
ENDBRANCH  75  78
ENDBRANCH  73  74
ENDBRANCH  72  73
ENDBRANCH   1  72
TORSDOF 17
ENDMDL
MODEL 2
REMARK VINA RESULT:     -12.0      1.758      2.814
REMARK SMILES O=C(NCCCCNC(=O)[C@H]1C[C@@H](O)CN1C(=O)c1cc(F)c(F)cc1Cl)c1ccc(-c2c3nc(c(-c4cc(S(=O)(=O)[O-])ccc4F)c4ccc([nH]4)c(-c4cc(S(=O)(=O)[O-])ccc4F)c4nc(c(-c5cc(S(=O)(=O)[O-])ccc5F)c5ccc2[nH]5)C=C4)C=C3)cc1
REMARK SMILES IDX 5 1 4 2 3 3 1 4 2 5 28 7 29 8 90 9 30 10 89 11 31 12 32 13
REMARK SMILES IDX 33 14 83 15 34 16 88 17 82 18 84 19 35 20 87 21 81 22 80 23
REMARK SMILES IDX 36 25 68 26 48 27 67 28 49 29 52 30 66 31 85 32 50 33 51 34
REMARK SMILES IDX 65 36 86 37 53 38 37 39 38 40 46 41 39 42 45 43 47 44 44 45
REMARK SMILES IDX 40 46 41 47 42 48 43 49 69 50 70 51 78 52 71 53 77 54 79 55
REMARK SMILES IDX 76 56 72 57 73 58 74 59 75 60 54 61 55 62 63 63 56 64 62 65
REMARK SMILES IDX 64 66 61 67 57 68 58 69 59 70 60 71 6 72 7 73 8 74 9 75
REMARK SMILES IDX 10 77 11 78 12 79 16 80 13 81 15 82 17 83 18 84 19 85 20 86
REMARK SMILES IDX 26 87 21 88 25 89 27 90 22 91 23 92 24 93 14 94
REMARK H PARENT 3 6 84 24 52 35 8 76 14 95
REMARK Flexibility Score: inf
ROOT
ATOM      1  C   UNL A   1      36.604  22.446  23.862  1.00  0.00     0.023 C 
ENDROOT
BRANCH   1   2
ATOM      2  C   UNL A   1      36.909  22.291  25.349  1.00  0.00     0.116 C 
BRANCH   2   3
ATOM      3  N   UNL A   1      37.942  21.305  25.620  1.00  0.00    -0.352 N 
ATOM      4  O   UNL A   1      39.960  20.480  26.138  1.00  0.00    -0.269 OA
ATOM      5  C   UNL A   1      39.210  21.456  26.126  1.00  0.00     0.251 C 
ATOM      6  H   UNL A   1      37.693  20.377  25.404  1.00  0.00     0.163 HD
BRANCH   5   7
ATOM      7  C   UNL A   1      39.692  22.760  26.643  1.00  0.00     0.039 A 
ATOM      8  C   UNL A   1      39.163  23.933  26.091  1.00  0.00     0.014 A 
ATOM      9  C   UNL A   1      40.698  22.849  27.608  1.00  0.00     0.014 A 
ATOM     10  C   UNL A   1      39.622  25.182  26.523  1.00  0.00     0.010 A 
ATOM     11  C   UNL A   1      41.095  24.095  28.098  1.00  0.00     0.010 A 
ATOM     12  C   UNL A   1      40.588  25.274  27.537  1.00  0.00    -0.014 A 
BRANCH  12  13
ATOM     13  C   UNL A   1      41.132  26.593  27.962  1.00  0.00     0.031 A 
ATOM     14  C   UNL A   1      42.561  26.950  27.640  1.00  0.00     0.074 A 
ATOM     15  C   UNL A   1      40.361  27.458  28.651  1.00  0.00     0.049 A 
ATOM     16  N   UNL A   1      43.228  28.036  27.934  1.00  0.00    -0.248 NA
ATOM     17  C   UNL A   1      43.356  25.943  26.915  1.00  0.00     0.031 C 
ATOM     18  C   UNL A   1      38.976  27.213  29.054  1.00  0.00     0.029 A 
ATOM     19  N   UNL A   1      40.626  28.719  29.127  1.00  0.00    -0.354 N 
ATOM     20  C   UNL A   1      44.516  27.835  27.449  1.00  0.00     0.074 A 
ATOM     21  C   UNL A   1      44.556  26.501  26.897  1.00  0.00     0.031 C 
ATOM     22  C   UNL A   1      38.501  28.302  29.678  1.00  0.00     0.029 A 
ATOM     23  C   UNL A   1      39.553  29.315  29.749  1.00  0.00     0.049 A 
ATOM     24  H   UNL A   1      41.504  29.156  29.032  1.00  0.00     0.167 HD
ATOM     25  C   UNL A   1      45.562  28.696  27.436  1.00  0.00     0.034 A 
ATOM     26  C   UNL A   1      39.426  30.541  30.298  1.00  0.00     0.034 A 
ATOM     27  C   UNL A   1      45.496  30.040  27.943  1.00  0.00     0.049 A 
ATOM     28  C   UNL A   1      40.593  31.496  30.234  1.00  0.00     0.074 A 
ATOM     29  C   UNL A   1      46.489  31.004  27.939  1.00  0.00     0.029 A 
ATOM     30  N   UNL A   1      44.376  30.619  28.520  1.00  0.00    -0.354 N 
ATOM     31  N   UNL A   1      41.781  31.314  29.707  1.00  0.00    -0.248 NA
ATOM     32  C   UNL A   1      40.403  32.831  30.822  1.00  0.00     0.031 C 
ATOM     33  C   UNL A   1      45.982  32.153  28.547  1.00  0.00     0.029 A 
ATOM     34  C   UNL A   1      44.655  31.928  28.875  1.00  0.00     0.049 A 
ATOM     35  H   UNL A   1      43.512  30.168  28.656  1.00  0.00     0.167 HD
ATOM     36  C   UNL A   1      42.456  32.524  29.851  1.00  0.00     0.074 A 
ATOM     37  C   UNL A   1      41.544  33.433  30.509  1.00  0.00     0.031 C 
ATOM     38  C   UNL A   1      43.719  32.847  29.475  1.00  0.00     0.034 A 
BRANCH  25  39
ATOM     39  C   UNL A   1      46.863  28.242  26.821  1.00  0.00     0.023 A 
ATOM     40  C   UNL A   1      47.010  28.214  25.422  1.00  0.00     0.031 A 
ATOM     41  C   UNL A   1      47.904  27.724  27.612  1.00  0.00     0.131 A 
ATOM     42  C   UNL A   1      48.159  27.647  24.855  1.00  0.00     0.055 A 
ATOM     43  C   UNL A   1      49.066  27.202  27.044  1.00  0.00     0.041 A 
ATOM     44  F   UNL A   1      47.811  27.732  28.951  1.00  0.00    -0.206 F 
ATOM     45  C   UNL A   1      49.191  27.150  25.659  1.00  0.00     0.022 A 
BRANCH  42  46
ATOM     46  S   UNL A   1      48.336  27.482  23.059  1.00  0.00     0.124 S 
ATOM     47  O   UNL A   1      48.275  26.033  22.883  1.00  0.00    -0.237 OA
ATOM     48  O   UNL A   1      47.175  28.219  22.569  1.00  0.00    -0.237 OA
ATOM     49  O   UNL A   1      49.633  28.086  22.777  1.00  0.00    -0.744 OA
ENDBRANCH  42  46
ENDBRANCH  25  39
BRANCH  26  50
ATOM     50  C   UNL A   1      38.105  30.966  30.851  1.00  0.00     0.023 A 
ATOM     51  C   UNL A   1      37.155  31.634  30.059  1.00  0.00     0.031 A 
ATOM     52  C   UNL A   1      37.810  30.772  32.213  1.00  0.00     0.131 A 
ATOM     53  C   UNL A   1      35.978  32.122  30.646  1.00  0.00     0.055 A 
ATOM     54  C   UNL A   1      36.610  31.204  32.779  1.00  0.00     0.041 A 
ATOM     55  F   UNL A   1      38.692  30.153  33.013  1.00  0.00    -0.206 F 
ATOM     56  C   UNL A   1      35.692  31.897  31.997  1.00  0.00     0.022 A 
BRANCH  53  57
ATOM     57  S   UNL A   1      34.831  33.168  29.706  1.00  0.00     0.124 S 
ATOM     58  O   UNL A   1      35.743  34.062  29.000  1.00  0.00    -0.237 OA
ATOM     59  O   UNL A   1      34.141  32.186  28.875  1.00  0.00    -0.237 OA
ATOM     60  O   UNL A   1      34.008  33.790  30.739  1.00  0.00    -0.744 OA
ENDBRANCH  53  57
ENDBRANCH  26  50
BRANCH  38  61
ATOM     61  C   UNL A   1      44.213  34.255  29.698  1.00  0.00     0.023 A 
ATOM     62  C   UNL A   1      44.155  35.187  28.641  1.00  0.00     0.031 A 
ATOM     63  C   UNL A   1      44.888  34.624  30.874  1.00  0.00     0.131 A 
ATOM     64  C   UNL A   1      44.797  36.425  28.766  1.00  0.00     0.055 A 
ATOM     65  C   UNL A   1      45.489  35.876  31.009  1.00  0.00     0.041 A 
ATOM     66  F   UNL A   1      44.985  33.765  31.901  1.00  0.00    -0.206 F 
ATOM     67  C   UNL A   1      45.457  36.777  29.947  1.00  0.00     0.022 A 
BRANCH  64  68
ATOM     68  S   UNL A   1      44.885  37.578  27.369  1.00  0.00     0.124 S 
ATOM     69  O   UNL A   1      43.518  37.529  26.852  1.00  0.00    -0.237 OA
ATOM     70  O   UNL A   1      45.257  38.830  28.024  1.00  0.00    -0.237 OA
ATOM     71  O   UNL A   1      45.902  37.001  26.496  1.00  0.00    -0.744 OA
ENDBRANCH  64  68
ENDBRANCH  38  61
ENDBRANCH  12  13
ENDBRANCH   5   7
ENDBRANCH   2   3
ENDBRANCH   1   2
BRANCH   1  72
ATOM     72  C   UNL A   1      35.215  22.978  23.514  1.00  0.00     0.023 C 
BRANCH  72  73
ATOM     73  C   UNL A   1      34.859  24.340  24.099  1.00  0.00     0.116 C 
BRANCH  73  74
ATOM     74  N   UNL A   1      34.027  25.156  23.233  1.00  0.00    -0.354 N 
ATOM     75  C   UNL A   1      33.286  26.259  23.581  1.00  0.00     0.242 C 
ATOM     76  H   UNL A   1      33.988  24.888  22.286  1.00  0.00     0.163 HD
ATOM     77  O   UNL A   1      32.893  27.026  22.699  1.00  0.00    -0.273 OA
BRANCH  75  78
ATOM     78  C   UNL A   1      33.080  26.565  25.076  1.00  0.00     0.177 C 
ATOM     79  C   UNL A   1      33.817  27.859  25.449  1.00  0.00     0.069 C 
ATOM     80  N   UNL A   1      31.681  26.835  25.426  1.00  0.00    -0.324 N 
ATOM     81  C   UNL A   1      32.746  28.932  25.295  1.00  0.00     0.136 C 
ATOM     82  C   UNL A   1      31.484  28.236  25.786  1.00  0.00     0.152 C 
BRANCH  80  83
ATOM     83  C   UNL A   1      30.778  25.796  25.550  1.00  0.00     0.256 C 
ATOM     84  O   UNL A   1      29.562  25.946  25.503  1.00  0.00    -0.269 OA
BRANCH  83  85
ATOM     85  C   UNL A   1      31.319  24.429  25.690  1.00  0.00     0.061 A 
ATOM     86  C   UNL A   1      31.958  24.064  26.882  1.00  0.00     0.057 A 
ATOM     87  C   UNL A   1      31.216  23.512  24.632  1.00  0.00     0.056 A 
ATOM     88  C   UNL A   1      32.546  22.808  26.978  1.00  0.00     0.159 A 
ATOM     89  C   UNL A   1      31.791  22.244  24.753  1.00  0.00     0.063 A 
ATOM     90  Cl  UNL A   1      30.455  23.899  23.131  1.00  0.00    -0.083 Cl
ATOM     91  F   UNL A   1      33.214  22.478  28.091  1.00  0.00    -0.204 F 
ATOM     92  C   UNL A   1      32.465  21.907  25.922  1.00  0.00     0.160 A 
ATOM     93  F   UNL A   1      33.053  20.706  26.013  1.00  0.00    -0.204 F 
ENDBRANCH  83  85
ENDBRANCH  80  83
BRANCH  81  94
ATOM     94  O   UNL A   1      32.616  29.325  23.930  1.00  0.00    -0.391 OA
ATOM     95  H   UNL A   1      33.188  30.088  23.758  1.00  0.00     0.211 HD
ENDBRANCH  81  94
ENDBRANCH  75  78
ENDBRANCH  73  74
ENDBRANCH  72  73
ENDBRANCH   1  72
TORSDOF 17
ENDMDL
MODEL 3
REMARK VINA RESULT:     -12.0      4.818      9.791
REMARK SMILES O=C(NCCCCNC(=O)[C@H]1C[C@@H](O)CN1C(=O)c1cc(F)c(F)cc1Cl)c1ccc(-c2c3nc(c(-c4cc(S(=O)(=O)[O-])ccc4F)c4ccc([nH]4)c(-c4cc(S(=O)(=O)[O-])ccc4F)c4nc(c(-c5cc(S(=O)(=O)[O-])ccc5F)c5ccc2[nH]5)C=C4)C=C3)cc1
REMARK SMILES IDX 5 1 4 2 3 3 1 4 2 5 28 7 29 8 90 9 30 10 89 11 31 12 32 13
REMARK SMILES IDX 33 14 83 15 34 16 88 17 82 18 84 19 35 20 87 21 81 22 80 23
REMARK SMILES IDX 36 25 68 26 48 27 67 28 49 29 52 30 66 31 85 32 50 33 51 34
REMARK SMILES IDX 65 36 86 37 53 38 37 39 38 40 46 41 39 42 45 43 47 44 44 45
REMARK SMILES IDX 40 46 41 47 42 48 43 49 69 50 70 51 78 52 71 53 77 54 79 55
REMARK SMILES IDX 76 56 72 57 73 58 74 59 75 60 54 61 55 62 63 63 56 64 62 65
REMARK SMILES IDX 64 66 61 67 57 68 58 69 59 70 60 71 6 72 7 73 8 74 9 75
REMARK SMILES IDX 10 77 11 78 12 79 16 80 13 81 15 82 17 83 18 84 19 85 20 86
REMARK SMILES IDX 26 87 21 88 25 89 27 90 22 91 23 92 24 93 14 94
REMARK H PARENT 3 6 84 24 52 35 8 76 14 95
REMARK Flexibility Score: inf
ROOT
ATOM      1  C   UNL A   1      31.821  29.095  26.058  1.00  0.00     0.023 C 
ENDROOT
BRANCH   1   2
ATOM      2  C   UNL A   1      33.138  29.861  26.138  1.00  0.00     0.116 C 
BRANCH   2   3
ATOM      3  N   UNL A   1      32.979  31.218  26.632  1.00  0.00    -0.352 N 
ATOM      4  O   UNL A   1      33.325  33.037  27.894  1.00  0.00    -0.269 OA
ATOM      5  C   UNL A   1      33.739  31.941  27.521  1.00  0.00     0.251 C 
ATOM      6  H   UNL A   1      32.198  31.699  26.273  1.00  0.00     0.163 HD
BRANCH   5   7
ATOM      7  C   UNL A   1      35.029  31.425  28.040  1.00  0.00     0.039 A 
ATOM      8  C   UNL A   1      35.074  30.116  28.533  1.00  0.00     0.014 A 
ATOM      9  C   UNL A   1      36.172  32.225  28.113  1.00  0.00     0.014 A 
ATOM     10  C   UNL A   1      36.262  29.607  29.071  1.00  0.00     0.010 A 
ATOM     11  C   UNL A   1      37.377  31.691  28.571  1.00  0.00     0.010 A 
ATOM     12  C   UNL A   1      37.427  30.388  29.087  1.00  0.00    -0.014 A 
BRANCH  12  13
ATOM     13  C   UNL A   1      38.681  29.885  29.711  1.00  0.00     0.031 A 
ATOM     14  C   UNL A   1      39.081  30.372  31.082  1.00  0.00     0.074 A 
ATOM     15  C   UNL A   1      39.470  29.014  29.051  1.00  0.00     0.049 A 
ATOM     16  N   UNL A   1      40.137  30.069  31.791  1.00  0.00    -0.248 NA
ATOM     17  C   UNL A   1      38.189  31.349  31.731  1.00  0.00     0.031 C 
ATOM     18  C   UNL A   1      39.209  28.497  27.706  1.00  0.00     0.029 A 
ATOM     19  N   UNL A   1      40.643  28.403  29.419  1.00  0.00    -0.354 N 
ATOM     20  C   UNL A   1      40.046  30.828  32.952  1.00  0.00     0.074 A 
ATOM     21  C   UNL A   1      38.866  31.651  32.828  1.00  0.00     0.031 C 
ATOM     22  C   UNL A   1      40.170  27.618  27.381  1.00  0.00     0.029 A 
ATOM     23  C   UNL A   1      41.133  27.527  28.477  1.00  0.00     0.049 A 
ATOM     24  H   UNL A   1      41.093  28.576  30.278  1.00  0.00     0.167 HD
ATOM     25  C   UNL A   1      40.855  30.818  34.039  1.00  0.00     0.034 A 
ATOM     26  C   UNL A   1      42.222  26.730  28.500  1.00  0.00     0.034 A 
ATOM     27  C   UNL A   1      42.000  29.957  34.173  1.00  0.00     0.049 A 
ATOM     28  C   UNL A   1      43.085  26.707  29.739  1.00  0.00     0.074 A 
ATOM     29  C   UNL A   1      42.860  29.842  35.252  1.00  0.00     0.029 A 
ATOM     30  N   UNL A   1      42.432  29.051  33.216  1.00  0.00    -0.354 N 
ATOM     31  N   UNL A   1      42.942  27.377  30.857  1.00  0.00    -0.248 NA
ATOM     32  C   UNL A   1      44.247  25.806  29.731  1.00  0.00     0.031 C 
ATOM     33  C   UNL A   1      43.834  28.895  34.932  1.00  0.00     0.029 A 
ATOM     34  C   UNL A   1      43.546  28.374  33.681  1.00  0.00     0.049 A 
ATOM     35  H   UNL A   1      42.009  28.911  32.339  1.00  0.00     0.167 HD
ATOM     36  C   UNL A   1      43.961  26.941  31.702  1.00  0.00     0.074 A 
ATOM     37  C   UNL A   1      44.709  25.943  30.968  1.00  0.00     0.031 C 
ATOM     38  C   UNL A   1      44.249  27.336  32.967  1.00  0.00     0.034 A 
BRANCH  25  39
ATOM     39  C   UNL A   1      40.523  31.727  35.196  1.00  0.00     0.023 A 
ATOM     40  C   UNL A   1      39.476  31.397  36.075  1.00  0.00     0.031 A 
ATOM     41  C   UNL A   1      41.157  32.973  35.352  1.00  0.00     0.131 A 
ATOM     42  C   UNL A   1      39.072  32.316  37.051  1.00  0.00     0.055 A 
ATOM     43  C   UNL A   1      40.780  33.867  36.354  1.00  0.00     0.041 A 
ATOM     44  F   UNL A   1      42.162  33.333  34.538  1.00  0.00    -0.206 F 
ATOM     45  C   UNL A   1      39.723  33.545  37.201  1.00  0.00     0.022 A 
BRANCH  42  46
ATOM     46  S   UNL A   1      37.651  31.980  38.126  1.00  0.00     0.124 S 
ATOM     47  O   UNL A   1      37.333  30.596  37.781  1.00  0.00    -0.237 OA
ATOM     48  O   UNL A   1      38.222  32.176  39.456  1.00  0.00    -0.237 OA
ATOM     49  O   UNL A   1      36.658  32.966  37.714  1.00  0.00    -0.744 OA
ENDBRANCH  42  46
ENDBRANCH  25  39
BRANCH  26  50
ATOM     50  C   UNL A   1      42.485  25.810  27.354  1.00  0.00     0.023 A 
ATOM     51  C   UNL A   1      42.001  24.490  27.343  1.00  0.00     0.031 A 
ATOM     52  C   UNL A   1      43.295  26.225  26.282  1.00  0.00     0.131 A 
ATOM     53  C   UNL A   1      42.371  23.621  26.305  1.00  0.00     0.055 A 
ATOM     54  C   UNL A   1      43.609  25.376  25.220  1.00  0.00     0.041 A 
ATOM     55  F   UNL A   1      43.794  27.470  26.255  1.00  0.00    -0.206 F 
ATOM     56  C   UNL A   1      43.157  24.060  25.235  1.00  0.00     0.022 A 
BRANCH  53  57
ATOM     57  S   UNL A   1      41.941  21.859  26.366  1.00  0.00     0.124 S 
ATOM     58  O   UNL A   1      40.516  21.882  26.053  1.00  0.00    -0.237 OA
ATOM     59  O   UNL A   1      42.805  21.303  25.328  1.00  0.00    -0.237 OA
ATOM     60  O   UNL A   1      42.284  21.468  27.730  1.00  0.00    -0.744 OA
ENDBRANCH  53  57
ENDBRANCH  26  50
BRANCH  38  61
ATOM     61  C   UNL A   1      45.387  26.671  33.701  1.00  0.00     0.023 A 
ATOM     62  C   UNL A   1      45.132  25.529  34.489  1.00  0.00     0.031 A 
ATOM     63  C   UNL A   1      46.665  27.252  33.765  1.00  0.00     0.131 A 
ATOM     64  C   UNL A   1      46.128  25.030  35.337  1.00  0.00     0.055 A 
ATOM     65  C   UNL A   1      47.667  26.724  34.579  1.00  0.00     0.041 A 
ATOM     66  F   UNL A   1      46.950  28.349  33.047  1.00  0.00    -0.206 F 
ATOM     67  C   UNL A   1      47.396  25.617  35.381  1.00  0.00     0.022 A 
BRANCH  64  68
ATOM     68  S   UNL A   1      45.783  23.668  36.484  1.00  0.00     0.124 S 
ATOM     69  O   UNL A   1      45.553  24.383  37.738  1.00  0.00    -0.237 OA
ATOM     70  O   UNL A   1      44.597  23.056  35.891  1.00  0.00    -0.237 OA
ATOM     71  O   UNL A   1      46.994  22.855  36.444  1.00  0.00    -0.744 OA
ENDBRANCH  64  68
ENDBRANCH  38  61
ENDBRANCH  12  13
ENDBRANCH   5   7
ENDBRANCH   2   3
ENDBRANCH   1   2
BRANCH   1  72
ATOM     72  C   UNL A   1      31.805  27.717  26.719  1.00  0.00     0.023 C 
BRANCH  72  73
ATOM     73  C   UNL A   1      32.863  26.735  26.233  1.00  0.00     0.116 C 
BRANCH  73  74
ATOM     74  N   UNL A   1      32.473  25.340  26.347  1.00  0.00    -0.354 N 
ATOM     75  C   UNL A   1      33.161  24.240  25.899  1.00  0.00     0.242 C 
ATOM     76  H   UNL A   1      31.616  25.163  26.799  1.00  0.00     0.163 HD
ATOM     77  O   UNL A   1      32.872  23.125  26.341  1.00  0.00    -0.273 OA
BRANCH  75  78
ATOM     78  C   UNL A   1      34.355  24.454  24.951  1.00  0.00     0.177 C 
ATOM     79  C   UNL A   1      35.660  24.078  25.666  1.00  0.00     0.069 C 
ATOM     80  N   UNL A   1      34.326  23.578  23.774  1.00  0.00    -0.324 N 
ATOM     81  C   UNL A   1      35.874  22.622  25.270  1.00  0.00     0.136 C 
ATOM     82  C   UNL A   1      35.390  22.580  23.827  1.00  0.00     0.152 C 
BRANCH  80  83
ATOM     83  C   UNL A   1      33.482  23.857  22.716  1.00  0.00     0.256 C 
ATOM     84  O   UNL A   1      33.165  23.032  21.866  1.00  0.00    -0.269 OA
BRANCH  83  85
ATOM     85  C   UNL A   1      32.889  25.208  22.648  1.00  0.00     0.061 A 
ATOM     86  C   UNL A   1      33.712  26.303  22.353  1.00  0.00     0.057 A 
ATOM     87  C   UNL A   1      31.521  25.398  22.898  1.00  0.00     0.056 A 
ATOM     88  C   UNL A   1      33.172  27.583  22.379  1.00  0.00     0.159 A 
ATOM     89  C   UNL A   1      30.987  26.689  22.895  1.00  0.00     0.063 A 
ATOM     90  Cl  UNL A   1      30.451  24.097  23.280  1.00  0.00    -0.083 Cl
ATOM     91  F   UNL A   1      33.969  28.638  22.163  1.00  0.00    -0.204 F 
ATOM     92  C   UNL A   1      31.821  27.774  22.650  1.00  0.00     0.160 A 
ATOM     93  F   UNL A   1      31.312  29.013  22.695  1.00  0.00    -0.204 F 
ENDBRANCH  83  85
ENDBRANCH  80  83
BRANCH  81  94
ATOM     94  O   UNL A   1      35.099  21.755  26.095  1.00  0.00    -0.391 OA
ATOM     95  H   UNL A   1      34.967  22.167  26.962  1.00  0.00     0.211 HD
ENDBRANCH  81  94
ENDBRANCH  75  78
ENDBRANCH  73  74
ENDBRANCH  72  73
ENDBRANCH   1  72
TORSDOF 17
ENDMDL
