MODEL 1
REMARK VINA RESULT:     -12.5      0.000      0.000
REMARK SMILES O=C(CCC(=O)N1CCC(c2nnc3ccccn23)CC1)NCCCCNC(=O)c1ccc(-c2c3nc(c(-c4cc(S(=O)(=O)[O-])ccc4F)c4ccc([nH]4)c(-c4cc(S(=O)(=O)[O-])ccc4F)c4nc(c(-c5cc(S(=O)(=O)[O-])ccc5F)c5ccc2[nH]5)C=C4)C=C3)cc1
REMARK SMILES IDX 24 1 23 2 22 3 1 4 2 5 3 7 4 8 5 9 6 10 7 11 8 12 21 13 9 14
REMARK SMILES IDX 20 15 10 16 11 17 12 18 19 19 13 20 14 21 18 22 15 23 17 24
REMARK SMILES IDX 16 25 25 26 26 27 27 28 28 29 29 31 30 32 31 33 92 34 32 35
REMARK SMILES IDX 91 36 33 37 34 38 35 39 85 40 36 41 90 42 84 43 86 44 37 45
REMARK SMILES IDX 89 46 83 47 82 48 38 50 70 51 50 52 69 53 51 54 54 55 68 56
REMARK SMILES IDX 87 57 52 58 53 59 67 61 88 62 55 63 39 64 40 65 48 66 41 67
REMARK SMILES IDX 47 68 49 69 46 70 42 71 43 72 44 73 45 74 71 75 72 76 80 77
REMARK SMILES IDX 73 78 79 79 81 80 78 81 74 82 75 83 76 84 77 85 56 86 57 87
REMARK SMILES IDX 65 88 58 89 64 90 66 91 63 92 59 93 60 94 61 95 62 96
REMARK H PARENT 22 6 27 30 86 49 54 60
REMARK Flexibility Score: inf
ROOT
ATOM      1  C   UNL A   1      33.677  29.187  26.155  1.00  0.00     0.023 C 
ENDROOT
BRANCH   1   2
ATOM      2  C   UNL A   1      33.800  28.422  24.816  1.00  0.00     0.116 C 
BRANCH   2   3
ATOM      3  N   UNL A   1      32.655  28.501  23.883  1.00  0.00    -0.356 N 
ATOM      4  O   UNL A   1      33.419  26.870  22.435  1.00  0.00    -0.275 OA
ATOM      5  C   UNL A   1      32.490  27.558  22.849  1.00  0.00     0.220 C 
ATOM      6  H   UNL A   1      31.998  29.227  23.985  1.00  0.00     0.163 HD
BRANCH   5   7
ATOM      7  C   UNL A   1      31.007  27.282  22.419  1.00  0.00     0.110 C 
BRANCH   7   8
ATOM      8  C   UNL A   1      30.001  26.898  23.567  1.00  0.00     0.110 C 
BRANCH   8   9
ATOM      9  C   UNL A   1      30.406  26.249  24.953  1.00  0.00     0.223 C 
ATOM     10  O   UNL A   1      30.679  26.960  25.920  1.00  0.00    -0.275 OA
ATOM     11  N   UNL A   1      30.317  24.867  25.083  1.00  0.00    -0.343 N 
ATOM     12  C   UNL A   1      30.333  24.088  26.328  1.00  0.00     0.120 C 
ATOM     13  C   UNL A   1      30.710  24.091  23.975  1.00  0.00     0.120 C 
ATOM     14  C   UNL A   1      31.642  23.229  26.516  1.00  0.00     0.033 C 
ATOM     15  C   UNL A   1      32.164  23.748  24.167  1.00  0.00     0.033 C 
ATOM     16  C   UNL A   1      32.065  22.613  25.167  1.00  0.00     0.062 C 
BRANCH  16  17
ATOM     17  C   UNL A   1      33.149  21.606  24.956  1.00  0.00     0.140 A 
ATOM     18  N   UNL A   1      33.022  20.371  24.480  1.00  0.00    -0.134 NA
ATOM     19  N   UNL A   1      34.468  21.833  25.435  1.00  0.00    -0.286 N 
ATOM     20  N   UNL A   1      34.192  19.587  24.496  1.00  0.00    -0.130 NA
ATOM     21  C   UNL A   1      35.173  20.223  25.110  1.00  0.00     0.160 A 
ATOM     22  C   UNL A   1      35.578  23.328  25.643  1.00  0.00     0.095 A 
ATOM     23  C   UNL A   1      36.979  20.074  24.961  1.00  0.00     0.050 A 
ATOM     24  C   UNL A   1      37.205  23.143  25.344  1.00  0.00     0.019 A 
ATOM     25  C   UNL A   1      37.951  21.421  24.998  1.00  0.00     0.005 A 
ENDBRANCH  16  17
ENDBRANCH   8   9
ENDBRANCH   7   8
ENDBRANCH   5   7
ENDBRANCH   2   3
ENDBRANCH   1   2
BRANCH   1  26
ATOM     26  C   UNL A   1      32.304  29.575  26.746  1.00  0.00     0.023 C 
BRANCH  26  27
ATOM     27  C   UNL A   1      31.445  30.614  26.003  1.00  0.00     0.116 C 
BRANCH  27  28
ATOM     28  N   UNL A   1      31.738  32.007  26.469  1.00  0.00    -0.352 N 
ATOM     29  C   UNL A   1      32.656  32.863  27.359  1.00  0.00     0.251 C 
ATOM     30  H   UNL A   1      31.090  32.610  26.038  1.00  0.00     0.163 HD
ATOM     31  O   UNL A   1      31.888  33.869  27.207  1.00  0.00    -0.269 OA
BRANCH  29  32
ATOM     32  C   UNL A   1      34.576  32.506  28.316  1.00  0.00     0.039 A 
ATOM     33  C   UNL A   1      34.912  31.477  29.243  1.00  0.00     0.014 A 
ATOM     34  C   UNL A   1      35.933  33.278  28.239  1.00  0.00     0.014 A 
ATOM     35  C   UNL A   1      36.013  31.168  29.921  1.00  0.00     0.010 A 
ATOM     36  C   UNL A   1      37.173  32.864  28.699  1.00  0.00     0.010 A 
ATOM     37  C   UNL A   1      37.145  31.763  29.495  1.00  0.00    -0.014 A 
BRANCH  37  38
ATOM     38  C   UNL A   1      38.239  31.174  30.153  1.00  0.00     0.031 A 
ATOM     39  C   UNL A   1      38.308  31.506  31.573  1.00  0.00     0.074 A 
ATOM     40  C   UNL A   1      38.826  30.194  29.458  1.00  0.00     0.049 A 
ATOM     41  N   UNL A   1      39.201  31.111  32.407  1.00  0.00    -0.248 NA
ATOM     42  C   UNL A   1      37.272  32.415  32.124  1.00  0.00     0.031 C 
ATOM     43  C   UNL A   1      38.507  29.789  28.067  1.00  0.00     0.029 A 
ATOM     44  N   UNL A   1      39.771  29.327  29.857  1.00  0.00    -0.354 N 
ATOM     45  C   UNL A   1      38.893  31.778  33.567  1.00  0.00     0.074 A 
ATOM     46  C   UNL A   1      37.746  32.621  33.338  1.00  0.00     0.031 C 
ATOM     47  C   UNL A   1      39.299  28.765  27.730  1.00  0.00     0.029 A 
ATOM     48  C   UNL A   1      40.205  28.531  28.840  1.00  0.00     0.049 A 
ATOM     49  H   UNL A   1      40.110  29.272  30.779  1.00  0.00     0.167 HD
ATOM     50  C   UNL A   1      39.580  31.659  34.709  1.00  0.00     0.034 A 
ATOM     51  C   UNL A   1      41.304  27.777  28.826  1.00  0.00     0.034 A 
ATOM     52  C   UNL A   1      40.730  30.807  34.792  1.00  0.00     0.049 A 
ATOM     53  C   UNL A   1      42.114  27.779  30.086  1.00  0.00     0.074 A 
ATOM     54  C   UNL A   1      41.549  30.596  35.874  1.00  0.00     0.029 A 
ATOM     55  N   UNL A   1      41.228  30.036  33.740  1.00  0.00    -0.354 N 
ATOM     56  N   UNL A   1      41.893  28.434  31.207  1.00  0.00    -0.248 NA
ATOM     57  C   UNL A   1      43.307  26.943  30.090  1.00  0.00     0.031 C 
ATOM     58  C   UNL A   1      42.597  29.780  35.452  1.00  0.00     0.029 A 
ATOM     59  C   UNL A   1      42.371  29.378  34.141  1.00  0.00     0.049 A 
ATOM     60  H   UNL A   1      40.823  29.971  32.845  1.00  0.00     0.167 HD
ATOM     61  C   UNL A   1      42.909  28.059  32.071  1.00  0.00     0.074 A 
ATOM     62  C   UNL A   1      43.727  27.111  31.334  1.00  0.00     0.031 C 
ATOM     63  C   UNL A   1      43.147  28.449  33.351  1.00  0.00     0.034 A 
BRANCH  50  64
ATOM     64  C   UNL A   1      39.150  32.521  35.842  1.00  0.00     0.023 A 
ATOM     65  C   UNL A   1      39.620  33.836  35.985  1.00  0.00     0.031 A 
ATOM     66  C   UNL A   1      38.312  31.993  36.833  1.00  0.00     0.131 A 
ATOM     67  C   UNL A   1      39.285  34.565  37.129  1.00  0.00     0.055 A 
ATOM     68  C   UNL A   1      37.899  32.760  37.916  1.00  0.00     0.041 A 
ATOM     69  F   UNL A   1      37.905  30.715  36.776  1.00  0.00    -0.206 F 
ATOM     70  C   UNL A   1      38.392  34.053  38.074  1.00  0.00     0.022 A 
BRANCH  67  71
ATOM     71  S   UNL A   1      40.166  36.115  37.447  1.00  0.00     0.124 S 
ATOM     72  O   UNL A   1      40.342  36.636  36.091  1.00  0.00    -0.237 OA
ATOM     73  O   UNL A   1      39.229  36.845  38.293  1.00  0.00    -0.237 OA
ATOM     74  O   UNL A   1      41.396  35.678  38.103  1.00  0.00    -0.744 OA
ENDBRANCH  67  71
ENDBRANCH  50  64
BRANCH  51  75
ATOM     75  C   UNL A   1      41.686  27.063  27.597  1.00  0.00     0.023 A 
ATOM     76  C   UNL A   1      41.496  25.684  27.511  1.00  0.00     0.031 A 
ATOM     77  C   UNL A   1      42.249  27.739  26.498  1.00  0.00     0.131 A 
ATOM     78  C   UNL A   1      41.943  25.002  26.377  1.00  0.00     0.055 A 
ATOM     79  C   UNL A   1      42.608  27.067  25.334  1.00  0.00     0.041 A 
ATOM     80  F   UNL A   1      42.436  29.068  26.535  1.00  0.00    -0.206 F 
ATOM     81  C   UNL A   1      42.476  25.683  25.279  1.00  0.00     0.022 A 
BRANCH  78  82
ATOM     82  S   UNL A   1      41.961  23.196  26.439  1.00  0.00     0.124 S 
ATOM     83  O   UNL A   1      42.834  22.954  27.583  1.00  0.00    -0.237 OA
ATOM     84  O   UNL A   1      40.549  22.884  26.633  1.00  0.00    -0.237 OA
ATOM     85  O   UNL A   1      42.512  22.821  25.139  1.00  0.00    -0.744 OA
ENDBRANCH  78  82
ENDBRANCH  51  75
BRANCH  63  86
ATOM     86  C   UNL A   1      44.306  27.784  34.036  1.00  0.00     0.023 A 
ATOM     87  C   UNL A   1      44.155  26.579  34.735  1.00  0.00     0.031 A 
ATOM     88  C   UNL A   1      45.579  28.378  33.985  1.00  0.00     0.131 A 
ATOM     89  C   UNL A   1      45.246  26.049  35.431  1.00  0.00     0.055 A 
ATOM     90  C   UNL A   1      46.684  27.786  34.588  1.00  0.00     0.041 A 
ATOM     91  F   UNL A   1      45.770  29.537  33.334  1.00  0.00    -0.206 F 
ATOM     92  C   UNL A   1      46.517  26.624  35.335  1.00  0.00     0.022 A 
BRANCH  89  93
ATOM     93  S   UNL A   1      44.943  24.694  36.593  1.00  0.00     0.124 S 
ATOM     94  O   UNL A   1      46.275  24.467  37.143  1.00  0.00    -0.237 OA
ATOM     95  O   UNL A   1      43.968  25.279  37.508  1.00  0.00    -0.237 OA
ATOM     96  O   UNL A   1      44.431  23.623  35.740  1.00  0.00    -0.744 OA
ENDBRANCH  89  93
ENDBRANCH  63  86
ENDBRANCH  37  38
ENDBRANCH  29  32
ENDBRANCH  27  28
ENDBRANCH  26  27
ENDBRANCH   1  26
TORSDOF 17
ENDMDL
MODEL 2
REMARK VINA RESULT:     -12.5      1.398      7.983
REMARK SMILES O=C(CCC(=O)N1CCC(c2nnc3ccccn23)CC1)NCCCCNC(=O)c1ccc(-c2c3nc(c(-c4cc(S(=O)(=O)[O-])ccc4F)c4ccc([nH]4)c(-c4cc(S(=O)(=O)[O-])ccc4F)c4nc(c(-c5cc(S(=O)(=O)[O-])ccc5F)c5ccc2[nH]5)C=C4)C=C3)cc1
REMARK SMILES IDX 24 1 23 2 22 3 1 4 2 5 3 7 4 8 5 9 6 10 7 11 8 12 21 13 9 14
REMARK SMILES IDX 20 15 10 16 11 17 12 18 19 19 13 20 14 21 18 22 15 23 17 24
REMARK SMILES IDX 16 25 25 26 26 27 27 28 28 29 29 31 30 32 31 33 92 34 32 35
REMARK SMILES IDX 91 36 33 37 34 38 35 39 85 40 36 41 90 42 84 43 86 44 37 45
REMARK SMILES IDX 89 46 83 47 82 48 38 50 70 51 50 52 69 53 51 54 54 55 68 56
REMARK SMILES IDX 87 57 52 58 53 59 67 61 88 62 55 63 39 64 40 65 48 66 41 67
REMARK SMILES IDX 47 68 49 69 46 70 42 71 43 72 44 73 45 74 71 75 72 76 80 77
REMARK SMILES IDX 73 78 79 79 81 80 78 81 74 82 75 83 76 84 77 85 56 86 57 87
REMARK SMILES IDX 65 88 58 89 64 90 66 91 63 92 59 93 60 94 61 95 62 96
REMARK H PARENT 22 6 27 30 86 49 54 60
REMARK Flexibility Score: inf
ROOT
ATOM      1  C   UNL A   1      32.935  27.238  26.223  1.00  0.00     0.023 C 
ENDROOT
BRANCH   1   2
ATOM      2  C   UNL A   1      31.406  27.256  26.449  1.00  0.00     0.116 C 
BRANCH   2   3
ATOM      3  N   UNL A   1      30.580  26.407  25.564  1.00  0.00    -0.356 N 
ATOM      4  O   UNL A   1      29.908  28.115  24.159  1.00  0.00    -0.275 OA
ATOM      5  C   UNL A   1      30.042  26.911  24.363  1.00  0.00     0.220 C 
ATOM      6  H   UNL A   1      30.402  25.473  25.819  1.00  0.00     0.163 HD
BRANCH   5   7
ATOM      7  C   UNL A   1      29.837  25.856  23.220  1.00  0.00     0.110 C 
BRANCH   7   8
ATOM      8  C   UNL A   1      30.809  24.619  23.222  1.00  0.00     0.110 C 
BRANCH   8   9
ATOM      9  C   UNL A   1      32.389  24.702  23.266  1.00  0.00     0.223 C 
ATOM     10  O   UNL A   1      33.002  25.379  22.440  1.00  0.00    -0.275 OA
ATOM     11  N   UNL A   1      33.050  24.103  24.333  1.00  0.00    -0.343 N 
ATOM     12  C   UNL A   1      34.444  24.314  24.748  1.00  0.00     0.120 C 
ATOM     13  C   UNL A   1      32.551  22.867  24.785  1.00  0.00     0.120 C 
ATOM     14  C   UNL A   1      35.370  23.063  24.498  1.00  0.00     0.033 C 
ATOM     15  C   UNL A   1      33.310  21.789  24.056  1.00  0.00     0.033 C 
ATOM     16  C   UNL A   1      34.607  21.766  24.840  1.00  0.00     0.062 C 
BRANCH  16  17
ATOM     17  C   UNL A   1      35.186  20.390  24.897  1.00  0.00     0.140 A 
ATOM     18  N   UNL A   1      36.472  20.057  24.950  1.00  0.00    -0.134 NA
ATOM     19  N   UNL A   1      34.370  19.240  24.716  1.00  0.00    -0.286 N 
ATOM     20  N   UNL A   1      36.749  18.677  24.875  1.00  0.00    -0.130 NA
ATOM     21  C   UNL A   1      35.646  17.991  24.639  1.00  0.00     0.160 A 
ATOM     22  C   UNL A   1      32.607  18.769  25.143  1.00  0.00     0.095 A 
ATOM     23  C   UNL A   1      35.203  16.266  25.009  1.00  0.00     0.050 A 
ATOM     24  C   UNL A   1      32.310  17.201  25.616  1.00  0.00     0.019 A 
ATOM     25  C   UNL A   1      33.676  15.872  25.531  1.00  0.00     0.005 A 
ENDBRANCH  16  17
ENDBRANCH   8   9
ENDBRANCH   7   8
ENDBRANCH   5   7
ENDBRANCH   2   3
ENDBRANCH   1   2
BRANCH   1  26
ATOM     26  C   UNL A   1      33.574  27.811  24.939  1.00  0.00     0.023 C 
BRANCH  26  27
ATOM     27  C   UNL A   1      32.867  28.972  24.216  1.00  0.00     0.116 C 
BRANCH  27  28
ATOM     28  N   UNL A   1      32.515  30.080  25.162  1.00  0.00    -0.352 N 
ATOM     29  C   UNL A   1      32.908  30.775  26.477  1.00  0.00     0.251 C 
ATOM     30  H   UNL A   1      31.724  30.542  24.801  1.00  0.00     0.163 HD
ATOM     31  O   UNL A   1      31.816  31.432  26.471  1.00  0.00    -0.269 OA
BRANCH  29  32
ATOM     32  C   UNL A   1      34.699  30.751  27.710  1.00  0.00     0.039 A 
ATOM     33  C   UNL A   1      35.148  29.714  28.578  1.00  0.00     0.014 A 
ATOM     34  C   UNL A   1      35.814  31.823  27.943  1.00  0.00     0.014 A 
ATOM     35  C   UNL A   1      36.183  29.582  29.402  1.00  0.00     0.010 A 
ATOM     36  C   UNL A   1      37.038  31.652  28.566  1.00  0.00     0.010 A 
ATOM     37  C   UNL A   1      37.177  30.478  29.236  1.00  0.00    -0.014 A 
BRANCH  37  38
ATOM     38  C   UNL A   1      38.278  30.077  30.013  1.00  0.00     0.031 A 
ATOM     39  C   UNL A   1      39.243  29.268  29.275  1.00  0.00     0.074 A 
ATOM     40  C   UNL A   1      38.402  30.747  31.164  1.00  0.00     0.049 A 
ATOM     41  N   UNL A   1      40.332  28.767  29.738  1.00  0.00    -0.248 NA
ATOM     42  C   UNL A   1      38.942  28.950  27.857  1.00  0.00     0.031 C 
ATOM     43  C   UNL A   1      37.444  31.738  31.712  1.00  0.00     0.029 A 
ATOM     44  N   UNL A   1      39.418  30.733  32.042  1.00  0.00    -0.354 N 
ATOM     45  C   UNL A   1      40.817  28.008  28.702  1.00  0.00     0.074 A 
ATOM     46  C   UNL A   1      39.904  28.089  27.588  1.00  0.00     0.031 C 
ATOM     47  C   UNL A   1      37.925  32.197  32.873  1.00  0.00     0.029 A 
ATOM     48  C   UNL A   1      39.147  31.467  33.158  1.00  0.00     0.049 A 
ATOM     49  H   UNL A   1      40.262  30.248  31.896  1.00  0.00     0.167 HD
ATOM     50  C   UNL A   1      41.951  27.299  28.754  1.00  0.00     0.034 A 
ATOM     51  C   UNL A   1      39.805  31.435  34.316  1.00  0.00     0.034 A 
ATOM     52  C   UNL A   1      42.752  27.278  29.942  1.00  0.00     0.049 A 
ATOM     53  C   UNL A   1      40.994  30.526  34.368  1.00  0.00     0.074 A 
ATOM     54  C   UNL A   1      43.919  26.588  30.162  1.00  0.00     0.029 A 
ATOM     55  N   UNL A   1      42.454  27.971  31.117  1.00  0.00    -0.354 N 
ATOM     56  N   UNL A   1      41.474  29.742  33.425  1.00  0.00    -0.248 NA
ATOM     57  C   UNL A   1      41.732  30.498  35.623  1.00  0.00     0.031 C 
ATOM     58  C   UNL A   1      44.275  26.782  31.496  1.00  0.00     0.029 A 
ATOM     59  C   UNL A   1      43.400  27.691  32.080  1.00  0.00     0.049 A 
ATOM     60  H   UNL A   1      41.683  28.572  31.239  1.00  0.00     0.167 HD
ATOM     61  C   UNL A   1      42.603  29.148  33.965  1.00  0.00     0.074 A 
ATOM     62  C   UNL A   1      42.728  29.683  35.310  1.00  0.00     0.031 C 
ATOM     63  C   UNL A   1      43.462  28.254  33.410  1.00  0.00     0.034 A 
BRANCH  50  64
ATOM     64  C   UNL A   1      42.278  26.471  27.563  1.00  0.00     0.023 A 
ATOM     65  C   UNL A   1      41.828  25.146  27.442  1.00  0.00     0.031 A 
ATOM     66  C   UNL A   1      43.114  26.992  26.567  1.00  0.00     0.131 A 
ATOM     67  C   UNL A   1      42.262  24.369  26.366  1.00  0.00     0.055 A 
ATOM     68  C   UNL A   1      43.456  26.246  25.445  1.00  0.00     0.041 A 
ATOM     69  F   UNL A   1      43.630  28.226  26.683  1.00  0.00    -0.206 F 
ATOM     70  C   UNL A   1      43.036  24.923  25.343  1.00  0.00     0.022 A 
BRANCH  67  71
ATOM     71  S   UNL A   1      41.943  22.586  26.412  1.00  0.00     0.124 S 
ATOM     72  O   UNL A   1      42.654  22.192  27.628  1.00  0.00    -0.237 OA
ATOM     73  O   UNL A   1      40.487  22.527  26.478  1.00  0.00    -0.237 OA
ATOM     74  O   UNL A   1      42.535  22.103  25.168  1.00  0.00    -0.744 OA
ENDBRANCH  67  71
ENDBRANCH  50  64
BRANCH  51  75
ATOM     75  C   UNL A   1      39.307  32.214  35.461  1.00  0.00     0.023 A 
ATOM     76  C   UNL A   1      39.694  33.546  35.612  1.00  0.00     0.031 A 
ATOM     77  C   UNL A   1      38.449  31.646  36.421  1.00  0.00     0.131 A 
ATOM     78  C   UNL A   1      39.290  34.250  36.748  1.00  0.00     0.055 A 
ATOM     79  C   UNL A   1      37.975  32.381  37.503  1.00  0.00     0.041 A 
ATOM     80  F   UNL A   1      38.042  30.371  36.306  1.00  0.00    -0.206 F 
ATOM     81  C   UNL A   1      38.416  33.688  37.683  1.00  0.00     0.022 A 
BRANCH  78  82
ATOM     82  S   UNL A   1      40.061  35.856  37.056  1.00  0.00     0.124 S 
ATOM     83  O   UNL A   1      39.421  36.249  38.307  1.00  0.00    -0.237 OA
ATOM     84  O   UNL A   1      41.474  35.503  37.142  1.00  0.00    -0.237 OA
ATOM     85  O   UNL A   1      39.681  36.641  35.885  1.00  0.00    -0.744 OA
ENDBRANCH  78  82
ENDBRANCH  51  75
BRANCH  63  86
ATOM     86  C   UNL A   1      44.643  27.865  34.253  1.00  0.00     0.023 A 
ATOM     87  C   UNL A   1      44.613  26.738  35.086  1.00  0.00     0.031 A 
ATOM     88  C   UNL A   1      45.811  28.646  34.217  1.00  0.00     0.131 A 
ATOM     89  C   UNL A   1      45.706  26.472  35.918  1.00  0.00     0.055 A 
ATOM     90  C   UNL A   1      46.934  28.311  34.966  1.00  0.00     0.041 A 
ATOM     91  F   UNL A   1      45.882  29.739  33.440  1.00  0.00    -0.206 F 
ATOM     92  C   UNL A   1      46.878  27.229  35.839  1.00  0.00     0.022 A 
BRANCH  89  93
ATOM     93  S   UNL A   1      45.507  25.227  37.217  1.00  0.00     0.124 S 
ATOM     94  O   UNL A   1      46.861  25.136  37.753  1.00  0.00    -0.237 OA
ATOM     95  O   UNL A   1      44.516  25.843  38.092  1.00  0.00    -0.237 OA
ATOM     96  O   UNL A   1      45.047  24.046  36.488  1.00  0.00    -0.744 OA
ENDBRANCH  89  93
ENDBRANCH  63  86
ENDBRANCH  37  38
ENDBRANCH  29  32
ENDBRANCH  27  28
ENDBRANCH  26  27
ENDBRANCH   1  26
TORSDOF 17
ENDMDL
MODEL 3
REMARK VINA RESULT:     -12.3      1.419      2.161
REMARK SMILES O=C(CCC(=O)N1CCC(c2nnc3ccccn23)CC1)NCCCCNC(=O)c1ccc(-c2c3nc(c(-c4cc(S(=O)(=O)[O-])ccc4F)c4ccc([nH]4)c(-c4cc(S(=O)(=O)[O-])ccc4F)c4nc(c(-c5cc(S(=O)(=O)[O-])ccc5F)c5ccc2[nH]5)C=C4)C=C3)cc1
REMARK SMILES IDX 24 1 23 2 22 3 1 4 2 5 3 7 4 8 5 9 6 10 7 11 8 12 21 13 9 14
REMARK SMILES IDX 20 15 10 16 11 17 12 18 19 19 13 20 14 21 18 22 15 23 17 24
REMARK SMILES IDX 16 25 25 26 26 27 27 28 28 29 29 31 30 32 31 33 92 34 32 35
REMARK SMILES IDX 91 36 33 37 34 38 35 39 85 40 36 41 90 42 84 43 86 44 37 45
REMARK SMILES IDX 89 46 83 47 82 48 38 50 70 51 50 52 69 53 51 54 54 55 68 56
REMARK SMILES IDX 87 57 52 58 53 59 67 61 88 62 55 63 39 64 40 65 48 66 41 67
REMARK SMILES IDX 47 68 49 69 46 70 42 71 43 72 44 73 45 74 71 75 72 76 80 77
REMARK SMILES IDX 73 78 79 79 81 80 78 81 74 82 75 83 76 84 77 85 56 86 57 87
REMARK SMILES IDX 65 88 58 89 64 90 66 91 63 92 59 93 60 94 61 95 62 96
REMARK H PARENT 22 6 27 30 86 49 54 60
REMARK Flexibility Score: inf
ROOT
ATOM      1  C   UNL A   1      32.960  27.173  26.152  1.00  0.00     0.023 C 
ENDROOT
BRANCH   1   2
ATOM      2  C   UNL A   1      31.431  27.290  26.352  1.00  0.00     0.116 C 
BRANCH   2   3
ATOM      3  N   UNL A   1      30.579  26.298  25.663  1.00  0.00    -0.356 N 
ATOM      4  O   UNL A   1      30.014  27.664  23.887  1.00  0.00    -0.275 OA
ATOM      5  C   UNL A   1      30.085  26.535  24.365  1.00  0.00     0.220 C 
ATOM      6  H   UNL A   1      30.352  25.456  26.120  1.00  0.00     0.163 HD
BRANCH   5   7
ATOM      7  C   UNL A   1      29.848  25.255  23.489  1.00  0.00     0.110 C 
BRANCH   7   8
ATOM      8  C   UNL A   1      31.006  24.190  23.469  1.00  0.00     0.110 C 
BRANCH   8   9
ATOM      9  C   UNL A   1      31.257  23.096  24.585  1.00  0.00     0.223 C 
ATOM     10  O   UNL A   1      30.675  23.164  25.668  1.00  0.00    -0.275 OA
ATOM     11  N   UNL A   1      32.044  21.996  24.263  1.00  0.00    -0.343 N 
ATOM     12  C   UNL A   1      32.154  20.733  25.005  1.00  0.00     0.120 C 
ATOM     13  C   UNL A   1      33.174  22.229  23.456  1.00  0.00     0.120 C 
ATOM     14  C   UNL A   1      33.554  20.534  25.704  1.00  0.00     0.033 C 
ATOM     15  C   UNL A   1      34.341  22.455  24.381  1.00  0.00     0.033 C 
ATOM     16  C   UNL A   1      34.681  21.031  24.775  1.00  0.00     0.062 C 
BRANCH  16  17
ATOM     17  C   UNL A   1      36.148  20.864  24.999  1.00  0.00     0.140 A 
ATOM     18  N   UNL A   1      36.909  19.839  24.625  1.00  0.00    -0.134 NA
ATOM     19  N   UNL A   1      36.874  21.759  25.831  1.00  0.00    -0.286 N 
ATOM     20  N   UNL A   1      38.246  19.878  25.069  1.00  0.00    -0.130 NA
ATOM     21  C   UNL A   1      38.438  20.895  25.888  1.00  0.00     0.160 A 
ATOM     22  C   UNL A   1      36.788  23.589  26.223  1.00  0.00     0.095 A 
ATOM     23  C   UNL A   1      39.938  21.833  26.307  1.00  0.00     0.050 A 
ATOM     24  C   UNL A   1      38.218  24.409  26.448  1.00  0.00     0.019 A 
ATOM     25  C   UNL A   1      39.885  23.481  26.509  1.00  0.00     0.005 A 
ENDBRANCH  16  17
ENDBRANCH   8   9
ENDBRANCH   7   8
ENDBRANCH   5   7
ENDBRANCH   2   3
ENDBRANCH   1   2
BRANCH   1  26
ATOM     26  C   UNL A   1      33.662  27.744  24.901  1.00  0.00     0.023 C 
BRANCH  26  27
ATOM     27  C   UNL A   1      33.070  28.995  24.227  1.00  0.00     0.116 C 
BRANCH  27  28
ATOM     28  N   UNL A   1      32.679  30.033  25.234  1.00  0.00    -0.352 N 
ATOM     29  C   UNL A   1      33.075  30.700  26.563  1.00  0.00     0.251 C 
ATOM     30  H   UNL A   1      31.843  30.450  24.926  1.00  0.00     0.163 HD
ATOM     31  O   UNL A   1      31.939  31.274  26.629  1.00  0.00    -0.269 OA
BRANCH  29  32
ATOM     32  C   UNL A   1      34.913  30.756  27.724  1.00  0.00     0.039 A 
ATOM     33  C   UNL A   1      35.498  29.703  28.487  1.00  0.00     0.014 A 
ATOM     34  C   UNL A   1      35.930  31.911  28.002  1.00  0.00     0.014 A 
ATOM     35  C   UNL A   1      36.576  29.611  29.258  1.00  0.00     0.010 A 
ATOM     36  C   UNL A   1      37.192  31.814  28.564  1.00  0.00     0.010 A 
ATOM     37  C   UNL A   1      37.471  30.610  29.131  1.00  0.00    -0.014 A 
BRANCH  37  38
ATOM     38  C   UNL A   1      38.640  30.261  29.831  1.00  0.00     0.031 A 
ATOM     39  C   UNL A   1      38.639  30.712  31.219  1.00  0.00     0.074 A 
ATOM     40  C   UNL A   1      39.385  29.337  29.215  1.00  0.00     0.049 A 
ATOM     41  N   UNL A   1      39.576  30.535  32.080  1.00  0.00    -0.248 NA
ATOM     42  C   UNL A   1      37.464  31.482  31.698  1.00  0.00     0.031 C 
ATOM     43  C   UNL A   1      39.150  28.776  27.862  1.00  0.00     0.029 A 
ATOM     44  N   UNL A   1      40.453  28.670  29.680  1.00  0.00    -0.354 N 
ATOM     45  C   UNL A   1      39.152  31.234  33.183  1.00  0.00     0.074 A 
ATOM     46  C   UNL A   1      37.885  31.858  32.890  1.00  0.00     0.031 C 
ATOM     47  C   UNL A   1      40.101  27.871  27.607  1.00  0.00     0.029 A 
ATOM     48  C   UNL A   1      41.022  27.877  28.729  1.00  0.00     0.049 A 
ATOM     49  H   UNL A   1      40.787  28.745  30.603  1.00  0.00     0.167 HD
ATOM     50  C   UNL A   1      39.837  31.320  34.329  1.00  0.00     0.034 A 
ATOM     51  C   UNL A   1      42.228  27.312  28.773  1.00  0.00     0.034 A 
ATOM     52  C   UNL A   1      41.109  30.675  34.477  1.00  0.00     0.049 A 
ATOM     53  C   UNL A   1      43.014  27.546  30.027  1.00  0.00     0.074 A 
ATOM     54  C   UNL A   1      41.940  30.687  35.570  1.00  0.00     0.029 A 
ATOM     55  N   UNL A   1      41.736  29.914  33.489  1.00  0.00    -0.354 N 
ATOM     56  N   UNL A   1      42.678  28.245  31.092  1.00  0.00    -0.248 NA
ATOM     57  C   UNL A   1      44.327  26.918  30.094  1.00  0.00     0.031 C 
ATOM     58  C   UNL A   1      43.111  30.021  35.213  1.00  0.00     0.029 A 
ATOM     59  C   UNL A   1      42.966  29.484  33.939  1.00  0.00     0.049 A 
ATOM     60  H   UNL A   1      41.356  29.713  32.604  1.00  0.00     0.167 HD
ATOM     61  C   UNL A   1      43.732  28.110  31.980  1.00  0.00     0.074 A 
ATOM     62  C   UNL A   1      44.701  27.251  31.319  1.00  0.00     0.031 C 
ATOM     63  C   UNL A   1      43.891  28.634  33.223  1.00  0.00     0.034 A 
BRANCH  50  64
ATOM     64  C   UNL A   1      39.261  32.189  35.390  1.00  0.00     0.023 A 
ATOM     65  C   UNL A   1      39.677  33.519  35.558  1.00  0.00     0.031 A 
ATOM     66  C   UNL A   1      38.333  31.653  36.293  1.00  0.00     0.131 A 
ATOM     67  C   UNL A   1      39.198  34.257  36.644  1.00  0.00     0.055 A 
ATOM     68  C   UNL A   1      37.781  32.426  37.308  1.00  0.00     0.041 A 
ATOM     69  F   UNL A   1      37.968  30.363  36.217  1.00  0.00    -0.206 F 
ATOM     70  C   UNL A   1      38.219  33.735  37.493  1.00  0.00     0.022 A 
BRANCH  67  71
ATOM     71  S   UNL A   1      39.997  35.837  37.025  1.00  0.00     0.124 S 
ATOM     72  O   UNL A   1      39.337  36.205  38.277  1.00  0.00    -0.237 OA
ATOM     73  O   UNL A   1      41.403  35.463  37.132  1.00  0.00    -0.237 OA
ATOM     74  O   UNL A   1      39.656  36.675  35.879  1.00  0.00    -0.744 OA
ENDBRANCH  67  71
ENDBRANCH  50  64
BRANCH  51  75
ATOM     75  C   UNL A   1      42.733  26.574  27.605  1.00  0.00     0.023 A 
ATOM     76  C   UNL A   1      42.811  25.182  27.646  1.00  0.00     0.031 A 
ATOM     77  C   UNL A   1      43.151  27.240  26.437  1.00  0.00     0.131 A 
ATOM     78  C   UNL A   1      43.374  24.497  26.568  1.00  0.00     0.055 A 
ATOM     79  C   UNL A   1      43.626  26.545  25.330  1.00  0.00     0.041 A 
ATOM     80  F   UNL A   1      43.081  28.579  26.351  1.00  0.00    -0.206 F 
ATOM     81  C   UNL A   1      43.762  25.163  25.402  1.00  0.00     0.022 A 
BRANCH  78  82
ATOM     82  S   UNL A   1      43.737  22.740  26.790  1.00  0.00     0.124 S 
ATOM     83  O   UNL A   1      43.193  22.174  25.561  1.00  0.00    -0.237 OA
ATOM     84  O   UNL A   1      45.192  22.742  26.905  1.00  0.00    -0.237 OA
ATOM     85  O   UNL A   1      43.013  22.399  28.012  1.00  0.00    -0.744 OA
ENDBRANCH  78  82
ENDBRANCH  51  75
BRANCH  63  86
ATOM     86  C   UNL A   1      45.136  28.222  33.957  1.00  0.00     0.023 A 
ATOM     87  C   UNL A   1      45.160  27.099  34.794  1.00  0.00     0.031 A 
ATOM     88  C   UNL A   1      46.311  28.979  33.811  1.00  0.00     0.131 A 
ATOM     89  C   UNL A   1      46.318  26.812  35.523  1.00  0.00     0.055 A 
ATOM     90  C   UNL A   1      47.491  28.623  34.456  1.00  0.00     0.041 A 
ATOM     91  F   UNL A   1      46.334  30.069  33.027  1.00  0.00    -0.206 F 
ATOM     92  C   UNL A   1      47.494  27.545  35.335  1.00  0.00     0.022 A 
BRANCH  89  93
ATOM     93  S   UNL A   1      46.214  25.574  36.840  1.00  0.00     0.124 S 
ATOM     94  O   UNL A   1      45.394  24.542  36.216  1.00  0.00    -0.237 OA
ATOM     95  O   UNL A   1      47.615  25.229  37.057  1.00  0.00    -0.237 OA
ATOM     96  O   UNL A   1      45.575  26.298  37.937  1.00  0.00    -0.744 OA
ENDBRANCH  89  93
ENDBRANCH  63  86
ENDBRANCH  37  38
ENDBRANCH  29  32
ENDBRANCH  27  28
ENDBRANCH  26  27
ENDBRANCH   1  26
TORSDOF 17
ENDMDL
