MODEL 1
REMARK VINA RESULT:     -11.5      0.000      0.000
REMARK SMILES C[C@@H](Sc1nc2c(cc1C#N)CCC2)C(=O)NCCCCNC(=O)c1ccc(-c2c3nc(c(-c4cc(S(=O)(=O)[O-])ccc4F)c4ccc([nH]4)c(-c4cc(S(=O)(=O)[O-])ccc4F)c4nc(c(-c5cc(S(=O)(=O)[O-])ccc5F)c5ccc2[nH]5)C=C4)C=C3)cc1
REMARK SMILES IDX 19 1 18 2 17 3 15 4 16 5 2 7 1 8 3 9 4 10 5 11 9 12 6 13
REMARK SMILES IDX 8 14 7 15 14 16 12 17 13 18 10 19 11 20 20 21 21 22 22 23
REMARK SMILES IDX 23 24 24 26 25 27 26 28 87 29 27 30 86 31 28 32 29 33 30 34
REMARK SMILES IDX 80 35 31 36 85 37 79 38 81 39 32 40 84 41 78 42 77 43 33 45
REMARK SMILES IDX 65 46 45 47 64 48 46 49 49 50 63 51 82 52 47 53 48 54 62 56
REMARK SMILES IDX 83 57 50 58 34 59 35 60 43 61 36 62 42 63 44 64 41 65 37 66
REMARK SMILES IDX 38 67 39 68 40 69 66 70 67 71 75 72 68 73 74 74 76 75 73 76
REMARK SMILES IDX 69 77 70 78 71 79 72 80 51 81 52 82 60 83 53 84 59 85 61 86
REMARK SMILES IDX 58 87 54 88 55 89 56 90 57 91
REMARK H PARENT 17 6 22 25 81 44 49 55
REMARK Flexibility Score: inf
ROOT
ATOM      1  C   UNL A   1      31.096  29.191  24.625  1.00  0.00     0.023 C 
ENDROOT
BRANCH   1   2
ATOM      2  C   UNL A   1      31.107  28.342  23.365  1.00  0.00     0.116 C 
BRANCH   2   3
ATOM      3  N   UNL A   1      32.443  28.021  22.887  1.00  0.00    -0.355 N 
ATOM      4  C   UNL A   1      32.851  27.074  21.983  1.00  0.00     0.233 C 
ATOM      5  O   UNL A   1      34.042  27.065  21.656  1.00  0.00    -0.274 OA
ATOM      6  H   UNL A   1      33.166  28.569  23.272  1.00  0.00     0.163 HD
BRANCH   4   7
ATOM      7  C   UNL A   1      31.894  25.982  21.476  1.00  0.00     0.139 C 
ATOM      8  C   UNL A   1      32.383  25.577  20.093  1.00  0.00     0.030 C 
BRANCH   7   9
ATOM      9  S   UNL A   1      31.741  24.690  22.796  1.00  0.00    -0.092 SA
BRANCH   9  10
ATOM     10  C   UNL A   1      33.241  24.665  23.738  1.00  0.00     0.115 A 
ATOM     11  N   UNL A   1      34.205  23.949  23.091  1.00  0.00    -0.245 NA
ATOM     12  C   UNL A   1      33.403  25.069  25.074  1.00  0.00     0.085 A 
ATOM     13  C   UNL A   1      35.310  23.641  23.784  1.00  0.00     0.045 A 
ATOM     14  C   UNL A   1      34.626  24.833  25.722  1.00  0.00     0.028 A 
ATOM     15  C   UNL A   1      35.574  24.082  25.067  1.00  0.00    -0.025 A 
ATOM     16  C   UNL A   1      36.379  22.698  23.307  1.00  0.00     0.057 C 
ATOM     17  C   UNL A   1      36.891  23.584  25.552  1.00  0.00     0.038 C 
ATOM     18  C   UNL A   1      37.094  22.373  24.630  1.00  0.00     0.011 C 
BRANCH  12  19
ATOM     19  C   UNL A   1      32.347  25.576  25.893  1.00  0.00     0.102 C 
ATOM     20  N   UNL A   1      31.465  25.906  26.567  1.00  0.00    -0.192 NA
ENDBRANCH  12  19
ENDBRANCH   9  10
ENDBRANCH   7   9
ENDBRANCH   4   7
ENDBRANCH   2   3
ENDBRANCH   1   2
BRANCH   1  21
ATOM     21  C   UNL A   1      32.454  29.363  25.289  1.00  0.00     0.023 C 
BRANCH  21  22
ATOM     22  C   UNL A   1      32.405  29.862  26.725  1.00  0.00     0.116 C 
BRANCH  22  23
ATOM     23  N   UNL A   1      32.353  31.315  26.823  1.00  0.00    -0.352 N 
ATOM     24  C   UNL A   1      33.251  32.169  27.421  1.00  0.00     0.251 C 
ATOM     25  H   UNL A   1      31.571  31.743  26.405  1.00  0.00     0.163 HD
ATOM     26  O   UNL A   1      32.986  33.360  27.542  1.00  0.00    -0.269 OA
BRANCH  24  27
ATOM     27  C   UNL A   1      34.517  31.619  27.948  1.00  0.00     0.039 A 
ATOM     28  C   UNL A   1      35.613  32.470  28.100  1.00  0.00     0.014 A 
ATOM     29  C   UNL A   1      34.596  30.282  28.348  1.00  0.00     0.014 A 
ATOM     30  C   UNL A   1      36.767  31.994  28.723  1.00  0.00     0.010 A 
ATOM     31  C   UNL A   1      35.710  29.838  29.051  1.00  0.00     0.010 A 
ATOM     32  C   UNL A   1      36.810  30.688  29.239  1.00  0.00    -0.014 A 
BRANCH  32  33
ATOM     33  C   UNL A   1      38.009  30.188  29.958  1.00  0.00     0.031 A 
ATOM     34  C   UNL A   1      38.281  30.646  31.364  1.00  0.00     0.074 A 
ATOM     35  C   UNL A   1      38.858  29.344  29.341  1.00  0.00     0.049 A 
ATOM     36  N   UNL A   1      39.284  30.348  32.147  1.00  0.00    -0.248 NA
ATOM     37  C   UNL A   1      37.309  31.576  31.960  1.00  0.00     0.031 C 
ATOM     38  C   UNL A   1      38.708  28.844  27.972  1.00  0.00     0.029 A 
ATOM     39  N   UNL A   1      40.012  28.746  29.785  1.00  0.00    -0.354 N 
ATOM     40  C   UNL A   1      39.061  31.047  33.328  1.00  0.00     0.074 A 
ATOM     41  C   UNL A   1      37.870  31.842  33.131  1.00  0.00     0.031 C 
ATOM     42  C   UNL A   1      39.701  27.980  27.708  1.00  0.00     0.029 A 
ATOM     43  C   UNL A   1      40.588  27.901  28.864  1.00  0.00     0.049 A 
ATOM     44  H   UNL A   1      40.391  28.908  30.679  1.00  0.00     0.167 HD
ATOM     45  C   UNL A   1      39.767  31.004  34.482  1.00  0.00     0.034 A 
ATOM     46  C   UNL A   1      41.705  27.151  28.940  1.00  0.00     0.034 A 
ATOM     47  C   UNL A   1      40.946  30.201  34.669  1.00  0.00     0.049 A 
ATOM     48  C   UNL A   1      42.515  27.174  30.211  1.00  0.00     0.074 A 
ATOM     49  C   UNL A   1      41.719  30.064  35.809  1.00  0.00     0.029 A 
ATOM     50  N   UNL A   1      41.531  29.403  33.695  1.00  0.00    -0.354 N 
ATOM     51  N   UNL A   1      42.279  27.826  31.325  1.00  0.00    -0.248 NA
ATOM     52  C   UNL A   1      43.739  26.363  30.234  1.00  0.00     0.031 C 
ATOM     53  C   UNL A   1      42.808  29.246  35.503  1.00  0.00     0.029 A 
ATOM     54  C   UNL A   1      42.675  28.804  34.196  1.00  0.00     0.049 A 
ATOM     55  H   UNL A   1      41.183  29.281  32.781  1.00  0.00     0.167 HD
ATOM     56  C   UNL A   1      43.314  27.488  32.191  1.00  0.00     0.074 A 
ATOM     57  C   UNL A   1      44.171  26.566  31.473  1.00  0.00     0.031 C 
ATOM     58  C   UNL A   1      43.530  27.899  33.466  1.00  0.00     0.034 A 
BRANCH  45  59
ATOM     59  C   UNL A   1      39.287  31.857  35.627  1.00  0.00     0.023 A 
ATOM     60  C   UNL A   1      38.556  31.306  36.694  1.00  0.00     0.031 A 
ATOM     61  C   UNL A   1      39.577  33.231  35.664  1.00  0.00     0.131 A 
ATOM     62  C   UNL A   1      38.102  32.134  37.731  1.00  0.00     0.055 A 
ATOM     63  C   UNL A   1      39.182  34.037  36.733  1.00  0.00     0.041 A 
ATOM     64  F   UNL A   1      40.254  33.813  34.661  1.00  0.00    -0.206 F 
ATOM     65  C   UNL A   1      38.432  33.490  37.771  1.00  0.00     0.022 A 
BRANCH  62  66
ATOM     66  S   UNL A   1      36.995  31.430  38.982  1.00  0.00     0.124 S 
ATOM     67  O   UNL A   1      35.850  32.333  38.905  1.00  0.00    -0.237 OA
ATOM     68  O   UNL A   1      36.775  30.077  38.485  1.00  0.00    -0.237 OA
ATOM     69  O   UNL A   1      37.771  31.521  40.217  1.00  0.00    -0.744 OA
ENDBRANCH  62  66
ENDBRANCH  45  59
BRANCH  46  70
ATOM     70  C   UNL A   1      42.115  26.312  27.780  1.00  0.00     0.023 A 
ATOM     71  C   UNL A   1      41.750  24.959  27.704  1.00  0.00     0.031 A 
ATOM     72  C   UNL A   1      42.861  26.856  26.719  1.00  0.00     0.131 A 
ATOM     73  C   UNL A   1      42.141  24.191  26.595  1.00  0.00     0.055 A 
ATOM     74  C   UNL A   1      43.213  26.100  25.600  1.00  0.00     0.041 A 
ATOM     75  F   UNL A   1      43.230  28.146  26.742  1.00  0.00    -0.206 F 
ATOM     76  C   UNL A   1      42.855  24.757  25.535  1.00  0.00     0.022 A 
BRANCH  73  77
ATOM     77  S   UNL A   1      41.717  22.428  26.562  1.00  0.00     0.124 S 
ATOM     78  O   UNL A   1      40.262  22.475  26.464  1.00  0.00    -0.237 OA
ATOM     79  O   UNL A   1      42.428  21.965  25.375  1.00  0.00    -0.237 OA
ATOM     80  O   UNL A   1      42.241  21.929  27.831  1.00  0.00    -0.744 OA
ENDBRANCH  73  77
ENDBRANCH  46  70
BRANCH  58  81
ATOM     81  C   UNL A   1      44.733  27.347  34.185  1.00  0.00     0.023 A 
ATOM     82  C   UNL A   1      44.657  26.168  34.944  1.00  0.00     0.031 A 
ATOM     83  C   UNL A   1      45.987  27.972  34.052  1.00  0.00     0.131 A 
ATOM     84  C   UNL A   1      45.808  25.663  35.565  1.00  0.00     0.055 A 
ATOM     85  C   UNL A   1      47.139  27.435  34.627  1.00  0.00     0.041 A 
ATOM     86  F   UNL A   1      46.116  29.099  33.333  1.00  0.00    -0.206 F 
ATOM     87  C   UNL A   1      47.052  26.277  35.393  1.00  0.00     0.022 A 
BRANCH  84  88
ATOM     88  S   UNL A   1      45.653  24.208  36.636  1.00  0.00     0.124 S 
ATOM     89  O   UNL A   1      47.006  24.080  37.168  1.00  0.00    -0.237 OA
ATOM     90  O   UNL A   1      44.630  24.627  37.589  1.00  0.00    -0.237 OA
ATOM     91  O   UNL A   1      45.245  23.148  35.717  1.00  0.00    -0.744 OA
ENDBRANCH  84  88
ENDBRANCH  58  81
ENDBRANCH  32  33
ENDBRANCH  24  27
ENDBRANCH  22  23
ENDBRANCH  21  22
ENDBRANCH   1  21
TORSDOF 17
ENDMDL
MODEL 2
REMARK VINA RESULT:     -11.3      1.976      8.270
REMARK SMILES C[C@@H](Sc1nc2c(cc1C#N)CCC2)C(=O)NCCCCNC(=O)c1ccc(-c2c3nc(c(-c4cc(S(=O)(=O)[O-])ccc4F)c4ccc([nH]4)c(-c4cc(S(=O)(=O)[O-])ccc4F)c4nc(c(-c5cc(S(=O)(=O)[O-])ccc5F)c5ccc2[nH]5)C=C4)C=C3)cc1
REMARK SMILES IDX 19 1 18 2 17 3 15 4 16 5 2 7 1 8 3 9 4 10 5 11 9 12 6 13
REMARK SMILES IDX 8 14 7 15 14 16 12 17 13 18 10 19 11 20 20 21 21 22 22 23
REMARK SMILES IDX 23 24 24 26 25 27 26 28 87 29 27 30 86 31 28 32 29 33 30 34
REMARK SMILES IDX 80 35 31 36 85 37 79 38 81 39 32 40 84 41 78 42 77 43 33 45
REMARK SMILES IDX 65 46 45 47 64 48 46 49 49 50 63 51 82 52 47 53 48 54 62 56
REMARK SMILES IDX 83 57 50 58 34 59 35 60 43 61 36 62 42 63 44 64 41 65 37 66
REMARK SMILES IDX 38 67 39 68 40 69 66 70 67 71 75 72 68 73 74 74 76 75 73 76
REMARK SMILES IDX 69 77 70 78 71 79 72 80 51 81 52 82 60 83 53 84 59 85 61 86
REMARK SMILES IDX 58 87 54 88 55 89 56 90 57 91
REMARK H PARENT 17 6 22 25 81 44 49 55
REMARK Flexibility Score: inf
ROOT
ATOM      1  C   UNL A   1      33.751  28.142  25.561  1.00  0.00     0.023 C 
ENDROOT
BRANCH   1   2
ATOM      2  C   UNL A   1      33.618  26.628  25.613  1.00  0.00     0.116 C 
BRANCH   2   3
ATOM      3  N   UNL A   1      32.401  26.170  26.265  1.00  0.00    -0.355 N 
ATOM      4  C   UNL A   1      31.617  25.078  25.996  1.00  0.00     0.233 C 
ATOM      5  O   UNL A   1      30.682  24.836  26.766  1.00  0.00    -0.274 OA
ATOM      6  H   UNL A   1      32.093  26.731  27.014  1.00  0.00     0.163 HD
BRANCH   4   7
ATOM      7  C   UNL A   1      31.812  24.242  24.720  1.00  0.00     0.139 C 
ATOM      8  C   UNL A   1      32.004  22.799  25.165  1.00  0.00     0.030 C 
BRANCH   7   9
ATOM      9  S   UNL A   1      30.440  24.653  23.544  1.00  0.00    -0.092 SA
BRANCH   9  10
ATOM     10  C   UNL A   1      30.454  26.401  23.251  1.00  0.00     0.115 A 
ATOM     11  N   UNL A   1      29.229  26.943  23.508  1.00  0.00    -0.245 NA
ATOM     12  C   UNL A   1      31.456  27.136  22.596  1.00  0.00     0.085 A 
ATOM     13  C   UNL A   1      29.020  28.204  23.106  1.00  0.00     0.045 A 
ATOM     14  C   UNL A   1      31.237  28.491  22.303  1.00  0.00     0.028 A 
ATOM     15  C   UNL A   1      29.987  29.013  22.540  1.00  0.00    -0.025 A 
ATOM     16  C   UNL A   1      27.684  28.892  23.124  1.00  0.00     0.057 C 
ATOM     17  C   UNL A   1      29.446  30.364  22.221  1.00  0.00     0.038 C 
ATOM     18  C   UNL A   1      27.943  30.059  22.155  1.00  0.00     0.011 C 
BRANCH  12  19
ATOM     19  C   UNL A   1      32.650  26.563  22.056  1.00  0.00     0.102 C 
ATOM     20  N   UNL A   1      33.654  26.177  21.629  1.00  0.00    -0.192 NA
ENDBRANCH  12  19
ENDBRANCH   9  10
ENDBRANCH   7   9
ENDBRANCH   4   7
ENDBRANCH   2   3
ENDBRANCH   1   2
BRANCH   1  21
ATOM     21  C   UNL A   1      32.441  28.901  25.712  1.00  0.00     0.023 C 
BRANCH  21  22
ATOM     22  C   UNL A   1      32.285  29.651  27.027  1.00  0.00     0.116 C 
BRANCH  22  23
ATOM     23  N   UNL A   1      32.294  31.099  26.863  1.00  0.00    -0.352 N 
ATOM     24  C   UNL A   1      33.237  32.005  27.288  1.00  0.00     0.251 C 
ATOM     25  H   UNL A   1      31.522  31.478  26.384  1.00  0.00     0.163 HD
ATOM     26  O   UNL A   1      33.023  33.209  27.197  1.00  0.00    -0.269 OA
BRANCH  24  27
ATOM     27  C   UNL A   1      34.490  31.504  27.891  1.00  0.00     0.039 A 
ATOM     28  C   UNL A   1      35.572  32.375  28.024  1.00  0.00     0.014 A 
ATOM     29  C   UNL A   1      34.566  30.196  28.379  1.00  0.00     0.014 A 
ATOM     30  C   UNL A   1      36.708  31.952  28.714  1.00  0.00     0.010 A 
ATOM     31  C   UNL A   1      35.660  29.810  29.145  1.00  0.00     0.010 A 
ATOM     32  C   UNL A   1      36.746  30.682  29.314  1.00  0.00    -0.014 A 
BRANCH  32  33
ATOM     33  C   UNL A   1      37.924  30.242  30.103  1.00  0.00     0.031 A 
ATOM     34  C   UNL A   1      38.904  29.273  29.502  1.00  0.00     0.074 A 
ATOM     35  C   UNL A   1      38.099  30.694  31.360  1.00  0.00     0.049 A 
ATOM     36  N   UNL A   1      39.976  28.747  30.036  1.00  0.00    -0.248 NA
ATOM     37  C   UNL A   1      38.634  28.819  28.128  1.00  0.00     0.031 C 
ATOM     38  C   UNL A   1      37.204  31.623  32.055  1.00  0.00     0.029 A 
ATOM     39  N   UNL A   1      39.092  30.445  32.275  1.00  0.00    -0.354 N 
ATOM     40  C   UNL A   1      40.509  27.910  29.063  1.00  0.00     0.074 A 
ATOM     41  C   UNL A   1      39.604  27.938  27.937  1.00  0.00     0.031 C 
ATOM     42  C   UNL A   1      37.715  31.902  33.265  1.00  0.00     0.029 A 
ATOM     43  C   UNL A   1      38.943  31.136  33.455  1.00  0.00     0.049 A 
ATOM     44  H   UNL A   1      39.840  29.829  32.101  1.00  0.00     0.167 HD
ATOM     45  C   UNL A   1      41.666  27.207  29.096  1.00  0.00     0.034 A 
ATOM     46  C   UNL A   1      39.706  31.149  34.566  1.00  0.00     0.034 A 
ATOM     47  C   UNL A   1      42.564  27.195  30.220  1.00  0.00     0.049 A 
ATOM     48  C   UNL A   1      40.953  30.304  34.606  1.00  0.00     0.074 A 
ATOM     49  C   UNL A   1      43.776  26.539  30.342  1.00  0.00     0.029 A 
ATOM     50  N   UNL A   1      42.350  27.862  31.418  1.00  0.00    -0.354 N 
ATOM     51  N   UNL A   1      41.453  29.532  33.670  1.00  0.00    -0.248 NA
ATOM     52  C   UNL A   1      41.735  30.329  35.848  1.00  0.00     0.031 C 
ATOM     53  C   UNL A   1      44.256  26.747  31.637  1.00  0.00     0.029 A 
ATOM     54  C   UNL A   1      43.388  27.600  32.298  1.00  0.00     0.049 A 
ATOM     55  H   UNL A   1      41.575  28.437  31.614  1.00  0.00     0.167 HD
ATOM     56  C   UNL A   1      42.621  28.996  34.202  1.00  0.00     0.074 A 
ATOM     57  C   UNL A   1      42.756  29.539  35.539  1.00  0.00     0.031 C 
ATOM     58  C   UNL A   1      43.504  28.136  33.633  1.00  0.00     0.034 A 
BRANCH  45  59
ATOM     59  C   UNL A   1      42.019  26.387  27.882  1.00  0.00     0.023 A 
ATOM     60  C   UNL A   1      41.607  25.049  27.756  1.00  0.00     0.031 A 
ATOM     61  C   UNL A   1      42.760  26.953  26.830  1.00  0.00     0.131 A 
ATOM     62  C   UNL A   1      41.975  24.308  26.624  1.00  0.00     0.055 A 
ATOM     63  C   UNL A   1      43.065  26.231  25.676  1.00  0.00     0.041 A 
ATOM     64  F   UNL A   1      43.197  28.219  26.907  1.00  0.00    -0.206 F 
ATOM     65  C   UNL A   1      42.680  24.896  25.572  1.00  0.00     0.022 A 
BRANCH  62  66
ATOM     66  S   UNL A   1      41.600  22.535  26.588  1.00  0.00     0.124 S 
ATOM     67  O   UNL A   1      40.140  22.543  26.533  1.00  0.00    -0.237 OA
ATOM     68  O   UNL A   1      42.282  22.091  25.378  1.00  0.00    -0.237 OA
ATOM     69  O   UNL A   1      42.167  22.040  27.841  1.00  0.00    -0.744 OA
ENDBRANCH  62  66
ENDBRANCH  45  59
BRANCH  46  70
ATOM     70  C   UNL A   1      39.314  31.999  35.725  1.00  0.00     0.023 A 
ATOM     71  C   UNL A   1      39.844  33.289  35.886  1.00  0.00     0.031 A 
ATOM     72  C   UNL A   1      38.387  31.541  36.679  1.00  0.00     0.131 A 
ATOM     73  C   UNL A   1      39.451  34.074  36.982  1.00  0.00     0.055 A 
ATOM     74  C   UNL A   1      37.969  32.340  37.744  1.00  0.00     0.041 A 
ATOM     75  F   UNL A   1      37.848  30.317  36.566  1.00  0.00    -0.206 F 
ATOM     76  C   UNL A   1      38.505  33.614  37.902  1.00  0.00     0.022 A 
BRANCH  73  77
ATOM     77  S   UNL A   1      40.209  35.706  37.202  1.00  0.00     0.124 S 
ATOM     78  O   UNL A   1      41.630  35.385  37.122  1.00  0.00    -0.237 OA
ATOM     79  O   UNL A   1      39.654  36.455  36.080  1.00  0.00    -0.237 OA
ATOM     80  O   UNL A   1      39.737  36.125  38.520  1.00  0.00    -0.744 OA
ENDBRANCH  73  77
ENDBRANCH  46  70
BRANCH  58  81
ATOM     81  C   UNL A   1      44.710  27.734  34.442  1.00  0.00     0.023 A 
ATOM     82  C   UNL A   1      44.708  26.574  35.233  1.00  0.00     0.031 A 
ATOM     83  C   UNL A   1      45.897  28.485  34.366  1.00  0.00     0.131 A 
ATOM     84  C   UNL A   1      45.864  26.211  35.939  1.00  0.00     0.055 A 
ATOM     85  C   UNL A   1      47.060  28.089  35.026  1.00  0.00     0.041 A 
ATOM     86  F   UNL A   1      45.953  29.600  33.619  1.00  0.00    -0.206 F 
ATOM     87  C   UNL A   1      47.045  26.948  35.823  1.00  0.00     0.022 A 
BRANCH  84  88
ATOM     88  S   UNL A   1      45.793  24.775  37.045  1.00  0.00     0.124 S 
ATOM     89  O   UNL A   1      46.054  23.673  36.126  1.00  0.00    -0.237 OA
ATOM     90  O   UNL A   1      46.852  25.068  38.007  1.00  0.00    -0.237 OA
ATOM     91  O   UNL A   1      44.436  24.825  37.585  1.00  0.00    -0.744 OA
ENDBRANCH  84  88
ENDBRANCH  58  81
ENDBRANCH  32  33
ENDBRANCH  24  27
ENDBRANCH  22  23
ENDBRANCH  21  22
ENDBRANCH   1  21
TORSDOF 17
ENDMDL
MODEL 3
REMARK VINA RESULT:     -11.2      5.061      7.894
REMARK SMILES C[C@@H](Sc1nc2c(cc1C#N)CCC2)C(=O)NCCCCNC(=O)c1ccc(-c2c3nc(c(-c4cc(S(=O)(=O)[O-])ccc4F)c4ccc([nH]4)c(-c4cc(S(=O)(=O)[O-])ccc4F)c4nc(c(-c5cc(S(=O)(=O)[O-])ccc5F)c5ccc2[nH]5)C=C4)C=C3)cc1
REMARK SMILES IDX 19 1 18 2 17 3 15 4 16 5 2 7 1 8 3 9 4 10 5 11 9 12 6 13
REMARK SMILES IDX 8 14 7 15 14 16 12 17 13 18 10 19 11 20 20 21 21 22 22 23
REMARK SMILES IDX 23 24 24 26 25 27 26 28 87 29 27 30 86 31 28 32 29 33 30 34
REMARK SMILES IDX 80 35 31 36 85 37 79 38 81 39 32 40 84 41 78 42 77 43 33 45
REMARK SMILES IDX 65 46 45 47 64 48 46 49 49 50 63 51 82 52 47 53 48 54 62 56
REMARK SMILES IDX 83 57 50 58 34 59 35 60 43 61 36 62 42 63 44 64 41 65 37 66
REMARK SMILES IDX 38 67 39 68 40 69 66 70 67 71 75 72 68 73 74 74 76 75 73 76
REMARK SMILES IDX 69 77 70 78 71 79 72 80 51 81 52 82 60 83 53 84 59 85 61 86
REMARK SMILES IDX 58 87 54 88 55 89 56 90 57 91
REMARK H PARENT 17 6 22 25 81 44 49 55
REMARK Flexibility Score: inf
ROOT
ATOM      1  C   UNL A   1      35.144  23.711  23.915  1.00  0.00     0.023 C 
ENDROOT
BRANCH   1   2
ATOM      2  C   UNL A   1      33.702  24.159  24.091  1.00  0.00     0.116 C 
BRANCH   2   3
ATOM      3  N   UNL A   1      33.135  24.782  22.905  1.00  0.00    -0.355 N 
ATOM      4  C   UNL A   1      33.253  26.068  22.444  1.00  0.00     0.233 C 
ATOM      5  O   UNL A   1      32.761  26.334  21.343  1.00  0.00    -0.274 OA
ATOM      6  H   UNL A   1      32.580  24.189  22.347  1.00  0.00     0.163 HD
BRANCH   4   7
ATOM      7  C   UNL A   1      33.872  27.179  23.310  1.00  0.00     0.139 C 
ATOM      8  C   UNL A   1      34.247  28.313  22.367  1.00  0.00     0.030 C 
BRANCH   7   9
ATOM      9  S   UNL A   1      32.723  27.518  24.724  1.00  0.00    -0.092 SA
BRANCH   9  10
ATOM     10  C   UNL A   1      31.065  27.580  24.101  1.00  0.00     0.115 A 
ATOM     11  N   UNL A   1      30.806  28.797  23.541  1.00  0.00    -0.245 NA
ATOM     12  C   UNL A   1      30.038  26.656  24.349  1.00  0.00     0.085 A 
ATOM     13  C   UNL A   1      29.529  29.076  23.245  1.00  0.00     0.045 A 
ATOM     14  C   UNL A   1      28.735  26.939  23.910  1.00  0.00     0.028 A 
ATOM     15  C   UNL A   1      28.484  28.181  23.377  1.00  0.00    -0.025 A 
ATOM     16  C   UNL A   1      29.031  30.427  22.813  1.00  0.00     0.057 C 
ATOM     17  C   UNL A   1      27.193  28.787  22.946  1.00  0.00     0.038 C 
ATOM     18  C   UNL A   1      27.522  30.281  23.077  1.00  0.00     0.011 C 
BRANCH  12  19
ATOM     19  C   UNL A   1      30.185  25.491  25.166  1.00  0.00     0.102 C 
ATOM     20  N   UNL A   1      30.385  24.574  25.843  1.00  0.00    -0.192 NA
ENDBRANCH  12  19
ENDBRANCH   9  10
ENDBRANCH   7   9
ENDBRANCH   4   7
ENDBRANCH   2   3
ENDBRANCH   1   2
BRANCH   1  21
ATOM     21  C   UNL A   1      35.401  22.249  24.249  1.00  0.00     0.023 C 
BRANCH  21  22
ATOM     22  C   UNL A   1      36.125  22.013  25.567  1.00  0.00     0.116 C 
BRANCH  22  23
ATOM     23  N   UNL A   1      37.086  20.920  25.503  1.00  0.00    -0.352 N 
ATOM     24  C   UNL A   1      38.442  20.954  25.733  1.00  0.00     0.251 C 
ATOM     25  H   UNL A   1      36.715  20.041  25.263  1.00  0.00     0.163 HD
ATOM     26  O   UNL A   1      39.134  19.971  25.495  1.00  0.00    -0.269 OA
BRANCH  24  27
ATOM     27  C   UNL A   1      39.051  22.204  26.233  1.00  0.00     0.039 A 
ATOM     28  C   UNL A   1      40.194  22.128  27.030  1.00  0.00     0.014 A 
ATOM     29  C   UNL A   1      38.527  23.445  25.858  1.00  0.00     0.014 A 
ATOM     30  C   UNL A   1      40.854  23.302  27.392  1.00  0.00     0.010 A 
ATOM     31  C   UNL A   1      39.239  24.605  26.141  1.00  0.00     0.010 A 
ATOM     32  C   UNL A   1      40.405  24.546  26.918  1.00  0.00    -0.014 A 
BRANCH  32  33
ATOM     33  C   UNL A   1      41.133  25.798  27.245  1.00  0.00     0.031 A 
ATOM     34  C   UNL A   1      40.475  26.840  28.108  1.00  0.00     0.074 A 
ATOM     35  C   UNL A   1      42.368  26.007  26.751  1.00  0.00     0.049 A 
ATOM     36  N   UNL A   1      40.931  28.006  28.483  1.00  0.00    -0.248 NA
ATOM     37  C   UNL A   1      39.121  26.539  28.599  1.00  0.00     0.031 C 
ATOM     38  C   UNL A   1      43.100  25.077  25.887  1.00  0.00     0.029 A 
ATOM     39  N   UNL A   1      43.234  27.061  26.909  1.00  0.00    -0.354 N 
ATOM     40  C   UNL A   1      39.925  28.573  29.256  1.00  0.00     0.074 A 
ATOM     41  C   UNL A   1      38.807  27.657  29.234  1.00  0.00     0.031 C 
ATOM     42  C   UNL A   1      44.320  25.578  25.635  1.00  0.00     0.029 A 
ATOM     43  C   UNL A   1      44.441  26.886  26.272  1.00  0.00     0.049 A 
ATOM     44  H   UNL A   1      43.011  27.865  27.431  1.00  0.00     0.167 HD
ATOM     45  C   UNL A   1      39.944  29.737  29.947  1.00  0.00     0.034 A 
ATOM     46  C   UNL A   1      45.522  27.690  26.204  1.00  0.00     0.034 A 
ATOM     47  C   UNL A   1      41.067  30.636  29.969  1.00  0.00     0.049 A 
ATOM     48  C   UNL A   1      45.494  29.013  26.924  1.00  0.00     0.074 A 
ATOM     49  C   UNL A   1      41.199  31.827  30.661  1.00  0.00     0.029 A 
ATOM     50  N   UNL A   1      42.250  30.452  29.265  1.00  0.00    -0.354 N 
ATOM     51  N   UNL A   1      44.541  29.525  27.667  1.00  0.00    -0.248 NA
ATOM     52  C   UNL A   1      46.683  29.865  26.796  1.00  0.00     0.031 C 
ATOM     53  C   UNL A   1      42.427  32.398  30.318  1.00  0.00     0.029 A 
ATOM     54  C   UNL A   1      43.099  31.526  29.475  1.00  0.00     0.049 A 
ATOM     55  H   UNL A   1      42.455  29.672  28.699  1.00  0.00     0.167 HD
ATOM     56  C   UNL A   1      45.023  30.751  28.113  1.00  0.00     0.074 A 
ATOM     57  C   UNL A   1      46.356  30.898  27.564  1.00  0.00     0.031 C 
ATOM     58  C   UNL A   1      44.419  31.668  28.910  1.00  0.00     0.034 A 
BRANCH  45  59
ATOM     59  C   UNL A   1      38.710  30.106  30.729  1.00  0.00     0.023 A 
ATOM     60  C   UNL A   1      37.698  30.903  30.167  1.00  0.00     0.031 A 
ATOM     61  C   UNL A   1      38.533  29.642  32.043  1.00  0.00     0.131 A 
ATOM     62  C   UNL A   1      36.575  31.249  30.932  1.00  0.00     0.055 A 
ATOM     63  C   UNL A   1      37.382  29.932  32.776  1.00  0.00     0.041 A 
ATOM     64  F   UNL A   1      39.477  28.895  32.636  1.00  0.00    -0.206 F 
ATOM     65  C   UNL A   1      36.397  30.748  32.224  1.00  0.00     0.022 A 
BRANCH  62  66
ATOM     66  S   UNL A   1      35.391  32.439  30.247  1.00  0.00     0.124 S 
ATOM     67  O   UNL A   1      36.254  33.583  29.963  1.00  0.00    -0.237 OA
ATOM     68  O   UNL A   1      34.867  31.731  29.085  1.00  0.00    -0.237 OA
ATOM     69  O   UNL A   1      34.439  32.641  31.337  1.00  0.00    -0.744 OA
ENDBRANCH  62  66
ENDBRANCH  45  59
BRANCH  46  70
ATOM     70  C   UNL A   1      46.720  27.257  25.433  1.00  0.00     0.023 A 
ATOM     71  C   UNL A   1      46.971  27.763  24.147  1.00  0.00     0.031 A 
ATOM     72  C   UNL A   1      47.644  26.348  25.977  1.00  0.00     0.131 A 
ATOM     73  C   UNL A   1      48.113  27.346  23.443  1.00  0.00     0.055 A 
ATOM     74  C   UNL A   1      48.798  25.968  25.291  1.00  0.00     0.041 A 
ATOM     75  F   UNL A   1      47.452  25.840  27.205  1.00  0.00    -0.206 F 
ATOM     76  C   UNL A   1      49.036  26.465  24.014  1.00  0.00     0.022 A 
BRANCH  73  77
ATOM     77  S   UNL A   1      48.369  27.960  21.757  1.00  0.00     0.124 S 
ATOM     78  O   UNL A   1      47.284  28.927  21.625  1.00  0.00    -0.237 OA
ATOM     79  O   UNL A   1      49.717  28.512  21.834  1.00  0.00    -0.237 OA
ATOM     80  O   UNL A   1      48.238  26.759  20.935  1.00  0.00    -0.744 OA
ENDBRANCH  73  77
ENDBRANCH  46  70
BRANCH  58  81
ATOM     81  C   UNL A   1      45.194  32.913  29.257  1.00  0.00     0.023 A 
ATOM     82  C   UNL A   1      44.990  34.119  28.566  1.00  0.00     0.031 A 
ATOM     83  C   UNL A   1      46.097  32.910  30.335  1.00  0.00     0.131 A 
ATOM     84  C   UNL A   1      45.700  35.267  28.945  1.00  0.00     0.055 A 
ATOM     85  C   UNL A   1      46.760  34.068  30.742  1.00  0.00     0.041 A 
ATOM     86  F   UNL A   1      46.324  31.784  31.032  1.00  0.00    -0.206 F 
ATOM     87  C   UNL A   1      46.567  35.254  30.041  1.00  0.00     0.022 A 
BRANCH  84  88
ATOM     88  S   UNL A   1      45.506  36.776  27.958  1.00  0.00     0.124 S 
ATOM     89  O   UNL A   1      44.515  36.364  26.969  1.00  0.00    -0.237 OA
ATOM     90  O   UNL A   1      45.051  37.744  28.951  1.00  0.00    -0.237 OA
ATOM     91  O   UNL A   1      46.847  37.016  27.430  1.00  0.00    -0.744 OA
ENDBRANCH  84  88
ENDBRANCH  58  81
ENDBRANCH  32  33
ENDBRANCH  24  27
ENDBRANCH  22  23
ENDBRANCH  21  22
ENDBRANCH   1  21
TORSDOF 17
ENDMDL
