MODEL 1
REMARK VINA RESULT:     -13.6      0.000      0.000
REMARK SMILES CC1=Nc2ncnn2[C@H](c2ccc(F)cc2)[C@@H]1C(=O)NCCCCNC(=O)c1ccc(-c2c3nc(c(-c4cc(S(=O)(=O)[O-])ccc4F)c4ccc([nH]4)c(-c4cc(S(=O)(=O)[O-])ccc4F)c4nc(c(-c5cc(S(=O)(=O)[O-])ccc5F)c5ccc2[nH]5)C=C4)C=C3)cc1
REMARK SMILES IDX 23 1 22 2 21 3 20 4 18 5 19 6 17 8 1 9 2 10 3 11 4 12 9 13
REMARK SMILES IDX 5 14 8 15 6 16 7 17 10 18 11 19 16 20 12 21 15 22 13 23
REMARK SMILES IDX 14 24 24 25 25 26 26 27 27 29 28 30 29 31 90 32 30 33 89 34
REMARK SMILES IDX 31 35 32 36 33 37 83 38 34 39 88 40 82 41 84 42 35 43 87 44
REMARK SMILES IDX 81 45 80 46 36 48 68 49 48 50 67 51 49 52 52 53 66 54 85 55
REMARK SMILES IDX 50 56 51 57 65 59 86 60 53 61 37 62 38 63 46 64 39 65 45 66
REMARK SMILES IDX 47 67 44 68 40 69 41 70 42 71 43 72 69 73 70 74 78 75 71 76
REMARK SMILES IDX 77 77 79 78 76 79 72 80 73 81 74 82 75 83 54 84 55 85 63 86
REMARK SMILES IDX 56 87 62 88 64 89 61 90 57 91 58 92 59 93 60 94
REMARK H PARENT 20 7 25 28 84 47 52 58
REMARK Flexibility Score: inf
ROOT
ATOM      1  C   UNL A   1      33.786  29.417  26.823  1.00  0.00     0.023 C 
ENDROOT
BRANCH   1   2
ATOM      2  C   UNL A   1      33.678  29.053  25.331  1.00  0.00     0.023 C 
BRANCH   2   3
ATOM      3  C   UNL A   1      33.731  27.554  25.004  1.00  0.00     0.116 C 
BRANCH   3   4
ATOM      4  N   UNL A   1      33.831  27.351  23.572  1.00  0.00    -0.355 N 
ATOM      5  C   UNL A   1      33.256  26.442  22.747  1.00  0.00     0.231 C 
ATOM      6  O   UNL A   1      33.684  26.392  21.591  1.00  0.00    -0.274 OA
ATOM      7  H   UNL A   1      34.425  27.990  23.115  1.00  0.00     0.163 HD
BRANCH   5   8
ATOM      8  C   UNL A   1      32.129  25.540  23.213  1.00  0.00     0.152 C 
ATOM      9  C   UNL A   1      30.620  27.660  23.453  1.00  0.00     0.063 C 
ATOM     10  C   UNL A   1      31.091  26.333  24.014  1.00  0.00     0.034 C 
ATOM     11  N   UNL A   1      30.529  25.952  25.118  1.00  0.00    -0.220 NA
ATOM     12  C   UNL A   1      30.846  24.747  25.630  1.00  0.00     0.248 A 
ATOM     13  C   UNL A   1      32.602  24.238  23.920  1.00  0.00     0.159 C 
ATOM     14  N   UNL A   1      30.271  24.105  26.625  1.00  0.00    -0.198 NA
ATOM     15  N   UNL A   1      31.825  23.940  25.114  1.00  0.00    -0.221 N 
ATOM     16  C   UNL A   1      30.891  22.890  26.633  1.00  0.00     0.248 A 
ATOM     17  N   UNL A   1      31.807  22.714  25.679  1.00  0.00    -0.157 NA
BRANCH  13  18
ATOM     18  C   UNL A   1      34.092  23.977  24.163  1.00  0.00    -0.022 A 
ATOM     19  C   UNL A   1      34.653  24.351  25.404  1.00  0.00     0.009 A 
ATOM     20  C   UNL A   1      34.942  23.368  23.225  1.00  0.00     0.009 A 
ATOM     21  C   UNL A   1      35.962  24.005  25.743  1.00  0.00     0.039 A 
ATOM     22  C   UNL A   1      36.230  22.968  23.585  1.00  0.00     0.039 A 
ATOM     23  C   UNL A   1      36.719  23.268  24.846  1.00  0.00     0.123 A 
ATOM     24  F   UNL A   1      37.927  22.823  25.200  1.00  0.00    -0.207 F 
ENDBRANCH  13  18
ENDBRANCH   5   8
ENDBRANCH   3   4
ENDBRANCH   2   3
ENDBRANCH   1   2
BRANCH   1  25
ATOM     25  C   UNL A   1      35.175  29.216  27.419  1.00  0.00     0.116 C 
BRANCH  25  26
ATOM     26  N   UNL A   1      35.360  29.985  28.643  1.00  0.00    -0.352 N 
ATOM     27  C   UNL A   1      36.359  29.848  29.588  1.00  0.00     0.251 C 
ATOM     28  H   UNL A   1      34.691  30.687  28.818  1.00  0.00     0.163 HD
ATOM     29  O   UNL A   1      36.174  30.237  30.730  1.00  0.00    -0.269 OA
BRANCH  27  30
ATOM     30  C   UNL A   1      37.639  29.222  29.193  1.00  0.00     0.039 A 
ATOM     31  C   UNL A   1      38.311  29.640  28.042  1.00  0.00     0.014 A 
ATOM     32  C   UNL A   1      38.165  28.209  29.993  1.00  0.00     0.014 A 
ATOM     33  C   UNL A   1      39.556  29.084  27.750  1.00  0.00     0.010 A 
ATOM     34  C   UNL A   1      39.441  27.745  29.768  1.00  0.00     0.010 A 
ATOM     35  C   UNL A   1      40.131  28.154  28.632  1.00  0.00    -0.014 A 
BRANCH  35  36
ATOM     36  C   UNL A   1      41.525  27.737  28.469  1.00  0.00     0.031 A 
ATOM     37  C   UNL A   1      41.685  26.452  27.733  1.00  0.00     0.074 A 
ATOM     38  C   UNL A   1      42.589  28.526  28.736  1.00  0.00     0.049 A 
ATOM     39  N   UNL A   1      42.083  25.319  28.206  1.00  0.00    -0.248 NA
ATOM     40  C   UNL A   1      41.188  26.369  26.349  1.00  0.00     0.031 C 
ATOM     41  C   UNL A   1      42.585  29.919  29.195  1.00  0.00     0.029 A 
ATOM     42  N   UNL A   1      43.918  28.283  28.545  1.00  0.00    -0.354 N 
ATOM     43  C   UNL A   1      42.143  24.451  27.121  1.00  0.00     0.074 A 
ATOM     44  C   UNL A   1      41.378  25.076  26.076  1.00  0.00     0.031 C 
ATOM     45  C   UNL A   1      43.813  30.459  29.023  1.00  0.00     0.029 A 
ATOM     46  C   UNL A   1      44.732  29.416  28.598  1.00  0.00     0.049 A 
ATOM     47  H   UNL A   1      44.274  27.379  28.382  1.00  0.00     0.167 HD
ATOM     48  C   UNL A   1      43.039  23.425  27.093  1.00  0.00     0.034 A 
ATOM     49  C   UNL A   1      46.060  29.496  28.309  1.00  0.00     0.034 A 
ATOM     50  C   UNL A   1      43.569  23.166  28.414  1.00  0.00     0.049 A 
ATOM     51  C   UNL A   1      46.597  28.125  28.504  1.00  0.00     0.074 A 
ATOM     52  C   UNL A   1      43.012  22.848  29.639  1.00  0.00     0.029 A 
ATOM     53  N   UNL A   1      44.837  23.623  28.695  1.00  0.00    -0.354 N 
ATOM     54  N   UNL A   1      46.598  27.511  29.656  1.00  0.00    -0.248 NA
ATOM     55  C   UNL A   1      46.695  27.264  27.338  1.00  0.00     0.031 C 
ATOM     56  C   UNL A   1      43.760  23.605  30.587  1.00  0.00     0.029 A 
ATOM     57  C   UNL A   1      44.783  24.267  29.906  1.00  0.00     0.049 A 
ATOM     58  H   UNL A   1      45.635  23.510  28.131  1.00  0.00     0.167 HD
ATOM     59  C   UNL A   1      46.250  26.202  29.358  1.00  0.00     0.074 A 
ATOM     60  C   UNL A   1      46.419  26.088  27.909  1.00  0.00     0.031 C 
ATOM     61  C   UNL A   1      45.594  25.416  30.261  1.00  0.00     0.034 A 
BRANCH  48  62
ATOM     62  C   UNL A   1      43.734  22.919  25.846  1.00  0.00     0.023 A 
ATOM     63  C   UNL A   1      43.767  21.525  25.644  1.00  0.00     0.031 A 
ATOM     64  C   UNL A   1      44.598  23.678  25.024  1.00  0.00     0.131 A 
ATOM     65  C   UNL A   1      44.685  20.945  24.750  1.00  0.00     0.055 A 
ATOM     66  C   UNL A   1      45.463  23.100  24.090  1.00  0.00     0.041 A 
ATOM     67  F   UNL A   1      44.728  25.005  25.135  1.00  0.00    -0.206 F 
ATOM     68  C   UNL A   1      45.535  21.724  23.972  1.00  0.00     0.022 A 
BRANCH  65  69
ATOM     69  S   UNL A   1      44.855  19.142  24.739  1.00  0.00     0.124 S 
ATOM     70  O   UNL A   1      46.061  18.957  25.540  1.00  0.00    -0.237 OA
ATOM     71  O   UNL A   1      43.601  18.718  25.354  1.00  0.00    -0.237 OA
ATOM     72  O   UNL A   1      44.990  18.823  23.320  1.00  0.00    -0.744 OA
ENDBRANCH  65  69
ENDBRANCH  48  62
BRANCH  49  73
ATOM     73  C   UNL A   1      46.804  30.577  27.590  1.00  0.00     0.023 A 
ATOM     74  C   UNL A   1      46.145  31.647  26.940  1.00  0.00     0.031 A 
ATOM     75  C   UNL A   1      48.199  30.722  27.758  1.00  0.00     0.131 A 
ATOM     76  C   UNL A   1      46.867  32.792  26.518  1.00  0.00     0.055 A 
ATOM     77  C   UNL A   1      48.906  31.855  27.346  1.00  0.00     0.041 A 
ATOM     78  F   UNL A   1      48.920  29.798  28.405  1.00  0.00    -0.206 F 
ATOM     79  C   UNL A   1      48.241  32.904  26.737  1.00  0.00     0.022 A 
BRANCH  76  80
ATOM     80  S   UNL A   1      46.008  34.222  25.778  1.00  0.00     0.124 S 
ATOM     81  O   UNL A   1      44.971  33.575  24.981  1.00  0.00    -0.237 OA
ATOM     82  O   UNL A   1      45.557  34.965  26.947  1.00  0.00    -0.237 OA
ATOM     83  O   UNL A   1      47.059  34.882  25.001  1.00  0.00    -0.744 OA
ENDBRANCH  76  80
ENDBRANCH  49  73
BRANCH  61  84
ATOM     84  C   UNL A   1      45.539  25.845  31.712  1.00  0.00     0.023 A 
ATOM     85  C   UNL A   1      44.374  26.247  32.405  1.00  0.00     0.031 A 
ATOM     86  C   UNL A   1      46.713  25.645  32.458  1.00  0.00     0.131 A 
ATOM     87  C   UNL A   1      44.421  26.421  33.806  1.00  0.00     0.055 A 
ATOM     88  C   UNL A   1      46.748  25.795  33.841  1.00  0.00     0.041 A 
ATOM     89  F   UNL A   1      47.840  25.234  31.852  1.00  0.00    -0.206 F 
ATOM     90  C   UNL A   1      45.600  26.182  34.522  1.00  0.00     0.022 A 
BRANCH  87  91
ATOM     91  S   UNL A   1      42.931  26.913  34.740  1.00  0.00     0.124 S 
ATOM     92  O   UNL A   1      42.137  27.627  33.745  1.00  0.00    -0.237 OA
ATOM     93  O   UNL A   1      42.393  25.634  35.194  1.00  0.00    -0.237 OA
ATOM     94  O   UNL A   1      43.461  27.759  35.812  1.00  0.00    -0.744 OA
ENDBRANCH  87  91
ENDBRANCH  61  84
ENDBRANCH  35  36
ENDBRANCH  27  30
ENDBRANCH  25  26
ENDBRANCH   1  25
TORSDOF 15
ENDMDL
MODEL 2
REMARK VINA RESULT:     -13.3      2.772      7.645
REMARK SMILES CC1=Nc2ncnn2[C@H](c2ccc(F)cc2)[C@@H]1C(=O)NCCCCNC(=O)c1ccc(-c2c3nc(c(-c4cc(S(=O)(=O)[O-])ccc4F)c4ccc([nH]4)c(-c4cc(S(=O)(=O)[O-])ccc4F)c4nc(c(-c5cc(S(=O)(=O)[O-])ccc5F)c5ccc2[nH]5)C=C4)C=C3)cc1
REMARK SMILES IDX 23 1 22 2 21 3 20 4 18 5 19 6 17 8 1 9 2 10 3 11 4 12 9 13
REMARK SMILES IDX 5 14 8 15 6 16 7 17 10 18 11 19 16 20 12 21 15 22 13 23
REMARK SMILES IDX 14 24 24 25 25 26 26 27 27 29 28 30 29 31 90 32 30 33 89 34
REMARK SMILES IDX 31 35 32 36 33 37 83 38 34 39 88 40 82 41 84 42 35 43 87 44
REMARK SMILES IDX 81 45 80 46 36 48 68 49 48 50 67 51 49 52 52 53 66 54 85 55
REMARK SMILES IDX 50 56 51 57 65 59 86 60 53 61 37 62 38 63 46 64 39 65 45 66
REMARK SMILES IDX 47 67 44 68 40 69 41 70 42 71 43 72 69 73 70 74 78 75 71 76
REMARK SMILES IDX 77 77 79 78 76 79 72 80 73 81 74 82 75 83 54 84 55 85 63 86
REMARK SMILES IDX 56 87 62 88 64 89 61 90 57 91 58 92 59 93 60 94
REMARK H PARENT 20 7 25 28 84 47 52 58
REMARK Flexibility Score: inf
ROOT
ATOM      1  C   UNL A   1      32.892  30.080  26.760  1.00  0.00     0.023 C 
ENDROOT
BRANCH   1   2
ATOM      2  C   UNL A   1      32.293  28.751  27.256  1.00  0.00     0.023 C 
BRANCH   2   3
ATOM      3  C   UNL A   1      31.909  27.743  26.163  1.00  0.00     0.116 C 
BRANCH   3   4
ATOM      4  N   UNL A   1      30.915  26.812  26.660  1.00  0.00    -0.355 N 
ATOM      5  C   UNL A   1      30.404  25.671  26.134  1.00  0.00     0.231 C 
ATOM      6  O   UNL A   1      29.421  25.189  26.702  1.00  0.00    -0.274 OA
ATOM      7  H   UNL A   1      30.544  27.050  27.540  1.00  0.00     0.163 HD
BRANCH   5   8
ATOM      8  C   UNL A   1      31.018  25.008  24.915  1.00  0.00     0.152 C 
ATOM      9  C   UNL A   1      33.068  24.341  26.392  1.00  0.00     0.063 C 
ATOM     10  C   UNL A   1      32.535  24.870  25.074  1.00  0.00     0.034 C 
ATOM     11  N   UNL A   1      33.422  25.118  24.163  1.00  0.00    -0.220 NA
ATOM     12  C   UNL A   1      33.011  25.517  22.944  1.00  0.00     0.248 A 
ATOM     13  C   UNL A   1      30.587  25.637  23.559  1.00  0.00     0.159 C 
ATOM     14  N   UNL A   1      33.721  25.647  21.843  1.00  0.00    -0.198 NA
ATOM     15  N   UNL A   1      31.704  25.795  22.640  1.00  0.00    -0.221 N 
ATOM     16  C   UNL A   1      32.794  25.942  20.887  1.00  0.00     0.248 A 
ATOM     17  N   UNL A   1      31.531  25.977  21.313  1.00  0.00    -0.157 NA
BRANCH  13  18
ATOM     18  C   UNL A   1      29.675  26.869  23.523  1.00  0.00    -0.022 A 
ATOM     19  C   UNL A   1      30.247  28.126  23.228  1.00  0.00     0.009 A 
ATOM     20  C   UNL A   1      28.291  26.823  23.750  1.00  0.00     0.009 A 
ATOM     21  C   UNL A   1      29.451  29.256  23.031  1.00  0.00     0.039 A 
ATOM     22  C   UNL A   1      27.489  27.937  23.495  1.00  0.00     0.039 A 
ATOM     23  C   UNL A   1      28.073  29.134  23.115  1.00  0.00     0.123 A 
ATOM     24  F   UNL A   1      27.291  30.174  22.810  1.00  0.00    -0.207 F 
ENDBRANCH  13  18
ENDBRANCH   5   8
ENDBRANCH   3   4
ENDBRANCH   2   3
ENDBRANCH   1   2
BRANCH   1  25
ATOM     25  C   UNL A   1      34.342  30.306  27.171  1.00  0.00     0.116 C 
BRANCH  25  26
ATOM     26  N   UNL A   1      34.482  31.445  28.070  1.00  0.00    -0.352 N 
ATOM     27  C   UNL A   1      35.409  31.619  29.081  1.00  0.00     0.251 C 
ATOM     28  H   UNL A   1      33.837  32.178  27.943  1.00  0.00     0.163 HD
ATOM     29  O   UNL A   1      35.167  32.380  30.003  1.00  0.00    -0.269 OA
BRANCH  27  30
ATOM     30  C   UNL A   1      36.681  30.869  29.024  1.00  0.00     0.039 A 
ATOM     31  C   UNL A   1      37.906  31.528  29.160  1.00  0.00     0.014 A 
ATOM     32  C   UNL A   1      36.638  29.488  28.832  1.00  0.00     0.014 A 
ATOM     33  C   UNL A   1      39.078  30.774  29.186  1.00  0.00     0.010 A 
ATOM     34  C   UNL A   1      37.781  28.736  28.971  1.00  0.00     0.010 A 
ATOM     35  C   UNL A   1      39.010  29.373  29.116  1.00  0.00    -0.014 A 
BRANCH  35  36
ATOM     36  C   UNL A   1      40.198  28.556  29.374  1.00  0.00     0.031 A 
ATOM     37  C   UNL A   1      40.532  28.423  30.818  1.00  0.00     0.074 A 
ATOM     38  C   UNL A   1      40.812  27.795  28.441  1.00  0.00     0.049 A 
ATOM     39  N   UNL A   1      41.544  28.927  31.442  1.00  0.00    -0.248 NA
ATOM     40  C   UNL A   1      39.544  27.796  31.713  1.00  0.00     0.031 C 
ATOM     41  C   UNL A   1      40.426  27.601  27.040  1.00  0.00     0.029 A 
ATOM     42  N   UNL A   1      41.862  26.935  28.579  1.00  0.00    -0.354 N 
ATOM     43  C   UNL A   1      41.461  28.457  32.748  1.00  0.00     0.074 A 
ATOM     44  C   UNL A   1      40.119  27.969  32.906  1.00  0.00     0.031 C 
ATOM     45  C   UNL A   1      41.072  26.526  26.534  1.00  0.00     0.029 A 
ATOM     46  C   UNL A   1      42.036  26.052  27.512  1.00  0.00     0.049 A 
ATOM     47  H   UNL A   1      42.450  26.938  29.369  1.00  0.00     0.167 HD
ATOM     48  C   UNL A   1      42.584  28.267  33.496  1.00  0.00     0.034 A 
ATOM     49  C   UNL A   1      42.903  25.004  27.438  1.00  0.00     0.034 A 
ATOM     50  C   UNL A   1      43.715  28.957  32.915  1.00  0.00     0.049 A 
ATOM     51  C   UNL A   1      43.995  25.318  28.393  1.00  0.00     0.074 A 
ATOM     52  C   UNL A   1      43.981  30.269  32.573  1.00  0.00     0.029 A 
ATOM     53  N   UNL A   1      44.636  28.203  32.223  1.00  0.00    -0.354 N 
ATOM     54  N   UNL A   1      44.790  26.347  28.264  1.00  0.00    -0.248 NA
ATOM     55  C   UNL A   1      43.903  24.765  29.734  1.00  0.00     0.031 C 
ATOM     56  C   UNL A   1      44.677  30.189  31.331  1.00  0.00     0.029 A 
ATOM     57  C   UNL A   1      44.877  28.840  31.032  1.00  0.00     0.049 A 
ATOM     58  H   UNL A   1      45.046  27.361  32.526  1.00  0.00     0.167 HD
ATOM     59  C   UNL A   1      44.940  26.838  29.552  1.00  0.00     0.074 A 
ATOM     60  C   UNL A   1      44.454  25.769  30.423  1.00  0.00     0.031 C 
ATOM     61  C   UNL A   1      45.181  28.162  29.785  1.00  0.00     0.034 A 
BRANCH  48  62
ATOM     62  C   UNL A   1      42.767  27.159  34.513  1.00  0.00     0.023 A 
ATOM     63  C   UNL A   1      43.544  26.048  34.127  1.00  0.00     0.031 A 
ATOM     64  C   UNL A   1      42.005  26.993  35.691  1.00  0.00     0.131 A 
ATOM     65  C   UNL A   1      43.466  24.832  34.828  1.00  0.00     0.055 A 
ATOM     66  C   UNL A   1      41.980  25.801  36.421  1.00  0.00     0.041 A 
ATOM     67  F   UNL A   1      41.171  27.931  36.155  1.00  0.00    -0.206 F 
ATOM     68  C   UNL A   1      42.687  24.701  35.973  1.00  0.00     0.022 A 
BRANCH  65  69
ATOM     69  S   UNL A   1      44.281  23.377  34.123  1.00  0.00     0.124 S 
ATOM     70  O   UNL A   1      43.440  23.105  32.961  1.00  0.00    -0.237 OA
ATOM     71  O   UNL A   1      45.619  23.887  33.844  1.00  0.00    -0.237 OA
ATOM     72  O   UNL A   1      44.203  22.390  35.197  1.00  0.00    -0.744 OA
ENDBRANCH  65  69
ENDBRANCH  48  62
BRANCH  49  73
ATOM     73  C   UNL A   1      42.689  23.645  26.849  1.00  0.00     0.023 A 
ATOM     74  C   UNL A   1      43.696  22.966  26.122  1.00  0.00     0.031 A 
ATOM     75  C   UNL A   1      41.569  22.870  27.222  1.00  0.00     0.131 A 
ATOM     76  C   UNL A   1      43.568  21.587  25.825  1.00  0.00     0.055 A 
ATOM     77  C   UNL A   1      41.449  21.508  26.932  1.00  0.00     0.041 A 
ATOM     78  F   UNL A   1      40.578  23.390  27.956  1.00  0.00    -0.206 F 
ATOM     79  C   UNL A   1      42.456  20.854  26.244  1.00  0.00     0.022 A 
BRANCH  76  80
ATOM     80  S   UNL A   1      44.910  20.680  24.984  1.00  0.00     0.124 S 
ATOM     81  O   UNL A   1      44.708  19.319  25.468  1.00  0.00    -0.237 OA
ATOM     82  O   UNL A   1      44.622  20.916  23.575  1.00  0.00    -0.237 OA
ATOM     83  O   UNL A   1      46.122  21.335  25.477  1.00  0.00    -0.744 OA
ENDBRANCH  76  80
ENDBRANCH  49  73
BRANCH  61  84
ATOM     84  C   UNL A   1      45.622  29.046  28.639  1.00  0.00     0.023 A 
ATOM     85  C   UNL A   1      44.855  30.082  28.058  1.00  0.00     0.031 A 
ATOM     86  C   UNL A   1      46.971  28.935  28.259  1.00  0.00     0.131 A 
ATOM     87  C   UNL A   1      45.459  30.967  27.139  1.00  0.00     0.055 A 
ATOM     88  C   UNL A   1      47.568  29.823  27.370  1.00  0.00     0.041 A 
ATOM     89  F   UNL A   1      47.752  27.986  28.803  1.00  0.00    -0.206 F 
ATOM     90  C   UNL A   1      46.814  30.846  26.807  1.00  0.00     0.022 A 
BRANCH  87  91
ATOM     91  S   UNL A   1      44.509  32.334  26.389  1.00  0.00     0.124 S 
ATOM     92  O   UNL A   1      45.483  32.971  25.509  1.00  0.00    -0.237 OA
ATOM     93  O   UNL A   1      43.404  31.643  25.732  1.00  0.00    -0.237 OA
ATOM     94  O   UNL A   1      44.111  33.148  27.541  1.00  0.00    -0.744 OA
ENDBRANCH  87  91
ENDBRANCH  61  84
ENDBRANCH  35  36
ENDBRANCH  27  30
ENDBRANCH  25  26
ENDBRANCH   1  25
TORSDOF 15
ENDMDL
MODEL 3
REMARK VINA RESULT:     -13.2      3.905      8.442
REMARK SMILES CC1=Nc2ncnn2[C@H](c2ccc(F)cc2)[C@@H]1C(=O)NCCCCNC(=O)c1ccc(-c2c3nc(c(-c4cc(S(=O)(=O)[O-])ccc4F)c4ccc([nH]4)c(-c4cc(S(=O)(=O)[O-])ccc4F)c4nc(c(-c5cc(S(=O)(=O)[O-])ccc5F)c5ccc2[nH]5)C=C4)C=C3)cc1
REMARK SMILES IDX 23 1 22 2 21 3 20 4 18 5 19 6 17 8 1 9 2 10 3 11 4 12 9 13
REMARK SMILES IDX 5 14 8 15 6 16 7 17 10 18 11 19 16 20 12 21 15 22 13 23
REMARK SMILES IDX 14 24 24 25 25 26 26 27 27 29 28 30 29 31 90 32 30 33 89 34
REMARK SMILES IDX 31 35 32 36 33 37 83 38 34 39 88 40 82 41 84 42 35 43 87 44
REMARK SMILES IDX 81 45 80 46 36 48 68 49 48 50 67 51 49 52 52 53 66 54 85 55
REMARK SMILES IDX 50 56 51 57 65 59 86 60 53 61 37 62 38 63 46 64 39 65 45 66
REMARK SMILES IDX 47 67 44 68 40 69 41 70 42 71 43 72 69 73 70 74 78 75 71 76
REMARK SMILES IDX 77 77 79 78 76 79 72 80 73 81 74 82 75 83 54 84 55 85 63 86
REMARK SMILES IDX 56 87 62 88 64 89 61 90 57 91 58 92 59 93 60 94
REMARK H PARENT 20 7 25 28 84 47 52 58
REMARK Flexibility Score: inf
ROOT
ATOM      1  C   UNL A   1      37.764  21.924  25.023  1.00  0.00     0.023 C 
ENDROOT
BRANCH   1   2
ATOM      2  C   UNL A   1      36.267  21.721  25.323  1.00  0.00     0.023 C 
BRANCH   2   3
ATOM      3  C   UNL A   1      35.367  22.940  25.074  1.00  0.00     0.116 C 
BRANCH   3   4
ATOM      4  N   UNL A   1      35.125  23.110  23.655  1.00  0.00    -0.355 N 
ATOM      5  C   UNL A   1      33.995  23.380  22.957  1.00  0.00     0.231 C 
ATOM      6  O   UNL A   1      34.060  23.275  21.730  1.00  0.00    -0.274 OA
ATOM      7  H   UNL A   1      35.929  23.012  23.095  1.00  0.00     0.163 HD
BRANCH   5   8
ATOM      8  C   UNL A   1      32.713  23.808  23.648  1.00  0.00     0.152 C 
ATOM      9  C   UNL A   1      33.920  26.005  24.386  1.00  0.00     0.063 C 
ATOM     10  C   UNL A   1      32.998  24.852  24.732  1.00  0.00     0.034 C 
ATOM     11  N   UNL A   1      32.483  24.874  25.921  1.00  0.00    -0.220 NA
ATOM     12  C   UNL A   1      31.595  23.922  26.266  1.00  0.00     0.248 A 
ATOM     13  C   UNL A   1      31.824  22.628  24.135  1.00  0.00     0.159 C 
ATOM     14  N   UNL A   1      30.833  23.864  27.338  1.00  0.00    -0.198 NA
ATOM     15  N   UNL A   1      31.290  22.850  25.471  1.00  0.00    -0.221 N 
ATOM     16  C   UNL A   1      30.040  22.777  27.118  1.00  0.00     0.248 A 
ATOM     17  N   UNL A   1      30.235  22.158  25.953  1.00  0.00    -0.157 NA
BRANCH  13  18
ATOM     18  C   UNL A   1      32.291  21.177  23.971  1.00  0.00    -0.022 A 
ATOM     19  C   UNL A   1      32.889  20.529  25.074  1.00  0.00     0.009 A 
ATOM     20  C   UNL A   1      32.145  20.440  22.785  1.00  0.00     0.009 A 
ATOM     21  C   UNL A   1      33.196  19.167  25.035  1.00  0.00     0.039 A 
ATOM     22  C   UNL A   1      32.395  19.066  22.765  1.00  0.00     0.039 A 
ATOM     23  C   UNL A   1      32.894  18.439  23.895  1.00  0.00     0.123 A 
ATOM     24  F   UNL A   1      33.067  17.115  23.884  1.00  0.00    -0.207 F 
ENDBRANCH  13  18
ENDBRANCH   5   8
ENDBRANCH   3   4
ENDBRANCH   2   3
ENDBRANCH   1   2
BRANCH   1  25
ATOM     25  C   UNL A   1      38.461  22.912  25.950  1.00  0.00     0.116 C 
BRANCH  25  26
ATOM     26  N   UNL A   1      39.287  22.238  26.944  1.00  0.00    -0.352 N 
ATOM     27  C   UNL A   1      40.357  22.756  27.650  1.00  0.00     0.251 C 
ATOM     28  H   UNL A   1      39.056  21.300  27.133  1.00  0.00     0.163 HD
ATOM     29  O   UNL A   1      41.201  22.005  28.113  1.00  0.00    -0.269 OA
BRANCH  27  30
ATOM     30  C   UNL A   1      40.458  24.220  27.828  1.00  0.00     0.039 A 
ATOM     31  C   UNL A   1      39.381  25.053  27.511  1.00  0.00     0.014 A 
ATOM     32  C   UNL A   1      41.648  24.755  28.320  1.00  0.00     0.014 A 
ATOM     33  C   UNL A   1      39.486  26.418  27.773  1.00  0.00     0.010 A 
ATOM     34  C   UNL A   1      41.709  26.081  28.683  1.00  0.00     0.010 A 
ATOM     35  C   UNL A   1      40.645  26.926  28.384  1.00  0.00    -0.014 A 
BRANCH  35  36
ATOM     36  C   UNL A   1      40.683  28.304  28.876  1.00  0.00     0.031 A 
ATOM     37  C   UNL A   1      41.789  29.117  28.298  1.00  0.00     0.074 A 
ATOM     38  C   UNL A   1      39.695  28.880  29.597  1.00  0.00     0.049 A 
ATOM     39  N   UNL A   1      42.839  29.561  28.904  1.00  0.00    -0.248 NA
ATOM     40  C   UNL A   1      41.821  29.323  26.839  1.00  0.00     0.031 C 
ATOM     41  C   UNL A   1      38.414  28.293  30.000  1.00  0.00     0.029 A 
ATOM     42  N   UNL A   1      39.580  30.167  30.034  1.00  0.00    -0.354 N 
ATOM     43  C   UNL A   1      43.525  30.328  27.968  1.00  0.00     0.074 A 
ATOM     44  C   UNL A   1      42.984  29.961  26.688  1.00  0.00     0.031 C 
ATOM     45  C   UNL A   1      37.572  29.270  30.406  1.00  0.00     0.029 A 
ATOM     46  C   UNL A   1      38.297  30.528  30.449  1.00  0.00     0.049 A 
ATOM     47  H   UNL A   1      40.341  30.792  30.054  1.00  0.00     0.167 HD
ATOM     48  C   UNL A   1      44.288  31.388  28.355  1.00  0.00     0.034 A 
ATOM     49  C   UNL A   1      37.858  31.770  30.798  1.00  0.00     0.034 A 
ATOM     50  C   UNL A   1      44.569  31.332  29.773  1.00  0.00     0.049 A 
ATOM     51  C   UNL A   1      39.068  32.520  31.220  1.00  0.00     0.074 A 
ATOM     52  C   UNL A   1      45.163  30.405  30.609  1.00  0.00     0.029 A 
ATOM     53  N   UNL A   1      43.853  32.167  30.600  1.00  0.00    -0.354 N 
ATOM     54  N   UNL A   1      39.800  32.183  32.248  1.00  0.00    -0.248 NA
ATOM     55  C   UNL A   1      39.728  33.353  30.230  1.00  0.00     0.031 C 
ATOM     56  C   UNL A   1      44.368  30.420  31.792  1.00  0.00     0.029 A 
ATOM     57  C   UNL A   1      43.396  31.412  31.651  1.00  0.00     0.049 A 
ATOM     58  H   UNL A   1      43.696  33.129  30.463  1.00  0.00     0.167 HD
ATOM     59  C   UNL A   1      41.108  32.377  31.827  1.00  0.00     0.074 A 
ATOM     60  C   UNL A   1      40.997  33.189  30.616  1.00  0.00     0.031 C 
ATOM     61  C   UNL A   1      42.135  31.634  32.334  1.00  0.00     0.034 A 
BRANCH  48  62
ATOM     62  C   UNL A   1      44.450  32.670  27.564  1.00  0.00     0.023 A 
ATOM     63  C   UNL A   1      43.750  33.805  28.019  1.00  0.00     0.031 A 
ATOM     64  C   UNL A   1      44.993  32.767  26.263  1.00  0.00     0.131 A 
ATOM     65  C   UNL A   1      43.531  34.908  27.175  1.00  0.00     0.055 A 
ATOM     66  C   UNL A   1      44.827  33.893  25.450  1.00  0.00     0.041 A 
ATOM     67  F   UNL A   1      45.632  31.756  25.664  1.00  0.00    -0.206 F 
ATOM     68  C   UNL A   1      44.065  34.959  25.892  1.00  0.00     0.022 A 
BRANCH  65  69
ATOM     69  S   UNL A   1      42.401  36.209  27.732  1.00  0.00     0.124 S 
ATOM     70  O   UNL A   1      41.142  35.479  27.833  1.00  0.00    -0.237 OA
ATOM     71  O   UNL A   1      43.013  36.619  28.992  1.00  0.00    -0.237 OA
ATOM     72  O   UNL A   1      42.468  37.198  26.658  1.00  0.00    -0.744 OA
ENDBRANCH  65  69
ENDBRANCH  48  62
BRANCH  49  73
ATOM     73  C   UNL A   1      36.547  32.425  30.494  1.00  0.00     0.023 A 
ATOM     74  C   UNL A   1      35.902  33.290  31.410  1.00  0.00     0.031 A 
ATOM     75  C   UNL A   1      36.032  32.423  29.179  1.00  0.00     0.131 A 
ATOM     76  C   UNL A   1      34.822  34.108  30.993  1.00  0.00     0.055 A 
ATOM     77  C   UNL A   1      34.971  33.236  28.770  1.00  0.00     0.041 A 
ATOM     78  F   UNL A   1      36.594  31.684  28.214  1.00  0.00    -0.206 F 
ATOM     79  C   UNL A   1      34.369  34.095  29.672  1.00  0.00     0.022 A 
BRANCH  76  80
ATOM     80  S   UNL A   1      34.056  35.304  32.138  1.00  0.00     0.124 S 
ATOM     81  O   UNL A   1      33.059  34.482  32.815  1.00  0.00    -0.237 OA
ATOM     82  O   UNL A   1      35.186  35.746  32.945  1.00  0.00    -0.237 OA
ATOM     83  O   UNL A   1      33.507  36.325  31.244  1.00  0.00    -0.744 OA
ENDBRANCH  76  80
ENDBRANCH  49  73
BRANCH  61  84
ATOM     84  C   UNL A   1      41.915  30.832  33.598  1.00  0.00     0.023 A 
ATOM     85  C   UNL A   1      41.757  29.428  33.663  1.00  0.00     0.031 A 
ATOM     86  C   UNL A   1      42.066  31.533  34.807  1.00  0.00     0.131 A 
ATOM     87  C   UNL A   1      41.768  28.782  34.918  1.00  0.00     0.055 A 
ATOM     88  C   UNL A   1      42.098  30.889  36.040  1.00  0.00     0.041 A 
ATOM     89  F   UNL A   1      42.248  32.865  34.800  1.00  0.00    -0.206 F 
ATOM     90  C   UNL A   1      41.952  29.509  36.101  1.00  0.00     0.022 A 
BRANCH  87  91
ATOM     91  S   UNL A   1      41.596  26.968  35.041  1.00  0.00     0.124 S 
ATOM     92  O   UNL A   1      42.880  26.480  34.549  1.00  0.00    -0.237 OA
ATOM     93  O   UNL A   1      41.330  26.760  36.461  1.00  0.00    -0.237 OA
ATOM     94  O   UNL A   1      40.459  26.671  34.165  1.00  0.00    -0.744 OA
ENDBRANCH  87  91
ENDBRANCH  61  84
ENDBRANCH  35  36
ENDBRANCH  27  30
ENDBRANCH  25  26
ENDBRANCH   1  25
TORSDOF 15
ENDMDL
