MODEL 1
REMARK VINA RESULT:     -11.7      0.000      0.000
REMARK SMILES CC[C@@H](NC(=O)N1CCO[C@H](CC(=O)NCCCCNC(=O)c2ccc(-c3c4nc(c(-c5cc(S(=O)(=O)[O-])ccc5F)c5ccc([nH]5)c(-c5cc(S(=O)(=O)[O-])ccc5F)c5nc(c(-c6cc(S(=O)(=O)[O-])ccc6F)c6ccc3[nH]6)C=C5)C=C4)cc2)C1)c1cccs1
REMARK SMILES IDX 17 1 16 2 15 3 13 4 14 5 12 7 11 8 7 9 8 10 86 11 9 12 10 13
REMARK SMILES IDX 5 14 4 15 6 17 3 18 2 19 1 20 87 21 88 22 91 23 89 24 90 25
REMARK SMILES IDX 18 26 19 27 20 28 21 29 22 31 23 32 24 33 85 34 25 35 84 36
REMARK SMILES IDX 26 37 27 38 28 39 78 40 29 41 83 42 77 43 79 44 30 45 82 46
REMARK SMILES IDX 76 47 75 48 31 50 63 51 43 52 62 53 44 54 47 55 61 56 80 57
REMARK SMILES IDX 45 58 46 59 60 61 81 62 48 63 32 64 33 65 41 66 34 67 40 68
REMARK SMILES IDX 42 69 39 70 35 71 36 72 37 73 38 74 64 75 65 76 73 77 66 78
REMARK SMILES IDX 72 79 74 80 71 81 67 82 68 83 69 84 70 85 49 86 50 87 58 88
REMARK SMILES IDX 51 89 57 90 59 91 56 92 52 93 53 94 54 95 55 96
REMARK H PARENT 15 6 4 16 20 30 79 49 47 60
REMARK Flexibility Score: inf
ROOT
ATOM      1  C   UNL A   1      40.280  22.954  27.253  1.00  0.00     0.023 C 
ENDROOT
BRANCH   1   2
ATOM      2  C   UNL A   1      38.788  23.577  26.508  1.00  0.00     0.116 C 
BRANCH   2   3
ATOM      3  N   UNL A   1      36.929  22.592  26.135  1.00  0.00    -0.356 N 
ATOM      4  C   UNL A   1      35.775  22.263  25.419  1.00  0.00     0.222 C 
ATOM      5  O   UNL A   1      35.178  21.312  25.979  1.00  0.00    -0.275 OA
ATOM      6  H   UNL A   1      36.823  22.048  26.950  1.00  0.00     0.163 HD
BRANCH   4   7
ATOM      7  C   UNL A   1      35.001  22.862  24.203  1.00  0.00     0.133 C 
BRANCH   7   8
ATOM      8  C   UNL A   1      33.747  22.503  23.361  1.00  0.00     0.147 C 
ATOM      9  N   UNL A   1      32.457  24.393  22.465  1.00  0.00    -0.320 N 
ATOM     10  C   UNL A   1      31.187  23.811  22.879  1.00  0.00     0.150 C 
ATOM     11  C   UNL A   1      33.449  23.392  22.161  1.00  0.00     0.154 C 
ATOM     12  C   UNL A   1      31.329  22.675  23.924  1.00  0.00     0.182 C 
ATOM     13  O   UNL A   1      32.606  22.030  24.103  1.00  0.00    -0.374 OA
BRANCH   9  14
ATOM     14  C   UNL A   1      32.473  25.552  21.765  1.00  0.00     0.318 C 
ATOM     15  N   UNL A   1      32.230  26.720  22.392  1.00  0.00    -0.330 N 
ATOM     16  H   UNL A   1      32.966  27.358  22.251  1.00  0.00     0.166 HD
ATOM     17  O   UNL A   1      32.877  25.588  20.602  1.00  0.00    -0.249 OA
BRANCH  15  18
ATOM     18  C   UNL A   1      31.166  27.317  23.236  1.00  0.00     0.124 C 
BRANCH  18  19
ATOM     19  C   UNL A   1      30.475  28.417  22.375  1.00  0.00     0.027 C 
ATOM     20  C   UNL A   1      29.942  29.587  23.197  1.00  0.00     0.006 C 
ENDBRANCH  18  19
BRANCH  18  21
ATOM     21  C   UNL A   1      31.426  27.881  24.627  1.00  0.00     0.027 A 
ATOM     22  C   UNL A   1      30.853  27.291  26.200  1.00  0.00     0.017 A 
ATOM     23  S   UNL A   1      33.115  29.444  24.939  1.00  0.00    -0.147 S 
ATOM     24  C   UNL A   1      31.646  28.200  27.723  1.00  0.00     0.012 A 
ATOM     25  C   UNL A   1      32.808  29.412  27.251  1.00  0.00     0.065 A 
ENDBRANCH  18  21
ENDBRANCH  15  18
ENDBRANCH   9  14
ENDBRANCH   7   8
ENDBRANCH   4   7
ENDBRANCH   2   3
ENDBRANCH   1   2
BRANCH   1  26
ATOM     26  C   UNL A   1      40.494  21.479  26.936  1.00  0.00     0.023 C 
BRANCH  26  27
ATOM     27  C   UNL A   1      41.884  20.945  27.217  1.00  0.00     0.116 C 
BRANCH  27  28
ATOM     28  N   UNL A   1      42.374  19.943  26.275  1.00  0.00    -0.352 N 
ATOM     29  C   UNL A   1      43.417  20.121  25.382  1.00  0.00     0.251 C 
ATOM     30  H   UNL A   1      41.923  19.068  26.274  1.00  0.00     0.163 HD
ATOM     31  O   UNL A   1      43.770  19.246  24.604  1.00  0.00    -0.269 OA
BRANCH  29  32
ATOM     32  C   UNL A   1      44.054  21.454  25.391  1.00  0.00     0.039 A 
ATOM     33  C   UNL A   1      43.487  22.460  24.606  1.00  0.00     0.014 A 
ATOM     34  C   UNL A   1      44.933  21.755  26.435  1.00  0.00     0.014 A 
ATOM     35  C   UNL A   1      43.728  23.794  24.938  1.00  0.00     0.010 A 
ATOM     36  C   UNL A   1      45.075  23.081  26.826  1.00  0.00     0.010 A 
ATOM     37  C   UNL A   1      44.467  24.115  26.091  1.00  0.00    -0.014 A 
BRANCH  37  38
ATOM     38  C   UNL A   1      44.615  25.525  26.546  1.00  0.00     0.031 A 
ATOM     39  C   UNL A   1      45.955  26.198  26.440  1.00  0.00     0.074 A 
ATOM     40  C   UNL A   1      43.576  26.179  27.108  1.00  0.00     0.049 A 
ATOM     41  N   UNL A   1      46.321  27.390  26.834  1.00  0.00    -0.248 NA
ATOM     42  C   UNL A   1      47.040  25.397  25.856  1.00  0.00     0.031 C 
ATOM     43  C   UNL A   1      42.235  25.627  27.316  1.00  0.00     0.029 A 
ATOM     44  N   UNL A   1      43.483  27.457  27.605  1.00  0.00    -0.354 N 
ATOM     45  C   UNL A   1      47.681  27.474  26.556  1.00  0.00     0.074 A 
ATOM     46  C   UNL A   1      48.087  26.177  26.063  1.00  0.00     0.031 C 
ATOM     47  C   UNL A   1      41.443  26.575  27.843  1.00  0.00     0.029 A 
ATOM     48  C   UNL A   1      42.227  27.788  28.061  1.00  0.00     0.049 A 
ATOM     49  H   UNL A   1      44.246  28.079  27.633  1.00  0.00     0.167 HD
ATOM     50  C   UNL A   1      48.507  28.544  26.656  1.00  0.00     0.034 A 
ATOM     51  C   UNL A   1      41.761  28.937  28.593  1.00  0.00     0.034 A 
ATOM     52  C   UNL A   1      48.083  29.834  27.143  1.00  0.00     0.049 A 
ATOM     53  C   UNL A   1      42.707  30.101  28.755  1.00  0.00     0.074 A 
ATOM     54  C   UNL A   1      48.816  31.002  27.242  1.00  0.00     0.029 A 
ATOM     55  N   UNL A   1      46.812  30.119  27.627  1.00  0.00    -0.354 N 
ATOM     56  N   UNL A   1      43.977  30.186  28.430  1.00  0.00    -0.248 NA
ATOM     57  C   UNL A   1      42.156  31.324  29.353  1.00  0.00     0.031 C 
ATOM     58  C   UNL A   1      48.015  31.969  27.858  1.00  0.00     0.029 A 
ATOM     59  C   UNL A   1      46.753  31.433  28.068  1.00  0.00     0.049 A 
ATOM     60  H   UNL A   1      46.063  29.481  27.654  1.00  0.00     0.167 HD
ATOM     61  C   UNL A   1      44.368  31.483  28.758  1.00  0.00     0.074 A 
ATOM     62  C   UNL A   1      43.195  32.144  29.294  1.00  0.00     0.031 C 
ATOM     63  C   UNL A   1      45.582  32.074  28.621  1.00  0.00     0.034 A 
BRANCH  50  64
ATOM     64  C   UNL A   1      49.950  28.332  26.254  1.00  0.00     0.023 A 
ATOM     65  C   UNL A   1      50.338  28.304  24.901  1.00  0.00     0.031 A 
ATOM     66  C   UNL A   1      50.933  28.062  27.221  1.00  0.00     0.131 A 
ATOM     67  C   UNL A   1      51.629  27.885  24.551  1.00  0.00     0.055 A 
ATOM     68  C   UNL A   1      52.249  27.757  26.867  1.00  0.00     0.041 A 
ATOM     69  F   UNL A   1      50.624  28.054  28.528  1.00  0.00    -0.206 F 
ATOM     70  C   UNL A   1      52.598  27.639  25.525  1.00  0.00     0.022 A 
BRANCH  67  71
ATOM     71  S   UNL A   1      51.949  27.451  22.817  1.00  0.00     0.124 S 
ATOM     72  O   UNL A   1      50.604  27.132  22.342  1.00  0.00    -0.237 OA
ATOM     73  O   UNL A   1      52.540  28.675  22.289  1.00  0.00    -0.237 OA
ATOM     74  O   UNL A   1      52.854  26.307  22.913  1.00  0.00    -0.744 OA
ENDBRANCH  67  71
ENDBRANCH  50  64
BRANCH  51  75
ATOM     75  C   UNL A   1      40.330  29.058  28.999  1.00  0.00     0.023 A 
ATOM     76  C   UNL A   1      39.955  28.982  30.350  1.00  0.00     0.031 A 
ATOM     77  C   UNL A   1      39.312  29.228  28.043  1.00  0.00     0.131 A 
ATOM     78  C   UNL A   1      38.600  29.045  30.708  1.00  0.00     0.055 A 
ATOM     79  C   UNL A   1      37.968  29.338  28.407  1.00  0.00     0.041 A 
ATOM     80  F   UNL A   1      39.613  29.309  26.737  1.00  0.00    -0.206 F 
ATOM     81  C   UNL A   1      37.605  29.237  29.747  1.00  0.00     0.022 A 
BRANCH  78  82
ATOM     82  S   UNL A   1      38.145  28.814  32.449  1.00  0.00     0.124 S 
ATOM     83  O   UNL A   1      39.153  29.622  33.128  1.00  0.00    -0.237 OA
ATOM     84  O   UNL A   1      36.782  29.331  32.478  1.00  0.00    -0.237 OA
ATOM     85  O   UNL A   1      38.266  27.371  32.644  1.00  0.00    -0.744 OA
ENDBRANCH  78  82
ENDBRANCH  51  75
BRANCH  63  86
ATOM     86  C   UNL A   1      45.694  33.523  29.030  1.00  0.00     0.023 A 
ATOM     87  C   UNL A   1      45.486  34.569  28.115  1.00  0.00     0.031 A 
ATOM     88  C   UNL A   1      46.006  33.861  30.360  1.00  0.00     0.131 A 
ATOM     89  C   UNL A   1      45.642  35.901  28.528  1.00  0.00     0.055 A 
ATOM     90  C   UNL A   1      46.096  35.188  30.780  1.00  0.00     0.041 A 
ATOM     91  F   UNL A   1      46.219  32.903  31.276  1.00  0.00    -0.206 F 
ATOM     92  C   UNL A   1      45.925  36.218  29.859  1.00  0.00     0.022 A 
BRANCH  89  93
ATOM     93  S   UNL A   1      45.555  37.216  27.282  1.00  0.00     0.124 S 
ATOM     94  O   UNL A   1      46.235  38.317  27.958  1.00  0.00    -0.237 OA
ATOM     95  O   UNL A   1      46.267  36.626  26.153  1.00  0.00    -0.237 OA
ATOM     96  O   UNL A   1      44.120  37.404  27.079  1.00  0.00    -0.744 OA
ENDBRANCH  89  93
ENDBRANCH  63  86
ENDBRANCH  37  38
ENDBRANCH  29  32
ENDBRANCH  27  28
ENDBRANCH  26  27
ENDBRANCH   1  26
TORSDOF 19
ENDMDL
MODEL 2
REMARK VINA RESULT:     -11.6      1.357      2.150
REMARK SMILES CC[C@@H](NC(=O)N1CCO[C@H](CC(=O)NCCCCNC(=O)c2ccc(-c3c4nc(c(-c5cc(S(=O)(=O)[O-])ccc5F)c5ccc([nH]5)c(-c5cc(S(=O)(=O)[O-])ccc5F)c5nc(c(-c6cc(S(=O)(=O)[O-])ccc6F)c6ccc3[nH]6)C=C5)C=C4)cc2)C1)c1cccs1
REMARK SMILES IDX 17 1 16 2 15 3 13 4 14 5 12 7 11 8 7 9 8 10 86 11 9 12 10 13
REMARK SMILES IDX 5 14 4 15 6 17 3 18 2 19 1 20 87 21 88 22 91 23 89 24 90 25
REMARK SMILES IDX 18 26 19 27 20 28 21 29 22 31 23 32 24 33 85 34 25 35 84 36
REMARK SMILES IDX 26 37 27 38 28 39 78 40 29 41 83 42 77 43 79 44 30 45 82 46
REMARK SMILES IDX 76 47 75 48 31 50 63 51 43 52 62 53 44 54 47 55 61 56 80 57
REMARK SMILES IDX 45 58 46 59 60 61 81 62 48 63 32 64 33 65 41 66 34 67 40 68
REMARK SMILES IDX 42 69 39 70 35 71 36 72 37 73 38 74 64 75 65 76 73 77 66 78
REMARK SMILES IDX 72 79 74 80 71 81 67 82 68 83 69 84 70 85 49 86 50 87 58 88
REMARK SMILES IDX 51 89 57 90 59 91 56 92 52 93 53 94 54 95 55 96
REMARK H PARENT 15 6 4 16 20 30 79 49 47 60
REMARK Flexibility Score: inf
ROOT
ATOM      1  C   UNL A   1      40.408  23.045  26.943  1.00  0.00     0.023 C 
ENDROOT
BRANCH   1   2
ATOM      2  C   UNL A   1      38.808  23.655  26.455  1.00  0.00     0.116 C 
BRANCH   2   3
ATOM      3  N   UNL A   1      37.652  23.223  24.711  1.00  0.00    -0.356 N 
ATOM      4  C   UNL A   1      36.494  22.948  23.977  1.00  0.00     0.222 C 
ATOM      5  O   UNL A   1      36.749  22.973  22.748  1.00  0.00    -0.275 OA
ATOM      6  H   UNL A   1      38.344  23.208  24.010  1.00  0.00     0.163 HD
BRANCH   4   7
ATOM      7  C   UNL A   1      35.037  22.498  24.308  1.00  0.00     0.133 C 
BRANCH   7   8
ATOM      8  C   UNL A   1      34.322  21.666  25.406  1.00  0.00     0.147 C 
ATOM      9  N   UNL A   1      32.166  22.536  26.203  1.00  0.00    -0.320 N 
ATOM     10  C   UNL A   1      32.522  22.330  27.600  1.00  0.00     0.150 C 
ATOM     11  C   UNL A   1      32.803  21.586  25.325  1.00  0.00     0.154 C 
ATOM     12  C   UNL A   1      34.039  22.118  27.837  1.00  0.00     0.182 C 
ATOM     13  O   UNL A   1      34.886  21.755  26.729  1.00  0.00    -0.374 OA
BRANCH   9  14
ATOM     14  C   UNL A   1      30.931  22.987  25.879  1.00  0.00     0.318 C 
ATOM     15  N   UNL A   1      30.789  23.948  24.944  1.00  0.00    -0.330 N 
ATOM     16  H   UNL A   1      30.183  23.657  24.226  1.00  0.00     0.166 HD
ATOM     17  O   UNL A   1      29.918  22.418  26.289  1.00  0.00    -0.249 OA
BRANCH  15  18
ATOM     18  C   UNL A   1      31.289  25.322  24.693  1.00  0.00     0.124 C 
BRANCH  18  19
ATOM     19  C   UNL A   1      31.769  25.882  26.066  1.00  0.00     0.027 C 
ATOM     20  C   UNL A   1      33.227  26.330  26.064  1.00  0.00     0.006 C 
ENDBRANCH  18  19
BRANCH  18  21
ATOM     21  C   UNL A   1      30.461  26.393  23.995  1.00  0.00     0.027 A 
ATOM     22  C   UNL A   1      28.697  26.540  23.866  1.00  0.00     0.017 A 
ATOM     23  S   UNL A   1      31.466  28.384  23.346  1.00  0.00    -0.147 S 
ATOM     24  C   UNL A   1      28.096  28.213  23.082  1.00  0.00     0.012 A 
ATOM     25  C   UNL A   1      29.417  29.279  22.682  1.00  0.00     0.065 A 
ENDBRANCH  18  21
ENDBRANCH  15  18
ENDBRANCH   9  14
ENDBRANCH   7   8
ENDBRANCH   4   7
ENDBRANCH   2   3
ENDBRANCH   1   2
BRANCH   1  26
ATOM     26  C   UNL A   1      40.828  21.839  26.112  1.00  0.00     0.023 C 
BRANCH  26  27
ATOM     27  C   UNL A   1      42.022  21.068  26.636  1.00  0.00     0.116 C 
BRANCH  27  28
ATOM     28  N   UNL A   1      42.559  20.053  25.735  1.00  0.00    -0.352 N 
ATOM     29  C   UNL A   1      43.708  20.180  24.973  1.00  0.00     0.251 C 
ATOM     30  H   UNL A   1      42.061  19.207  25.663  1.00  0.00     0.163 HD
ATOM     31  O   UNL A   1      44.098  19.298  24.222  1.00  0.00    -0.269 OA
BRANCH  29  32
ATOM     32  C   UNL A   1      44.417  21.472  25.085  1.00  0.00     0.039 A 
ATOM     33  C   UNL A   1      43.999  22.525  24.270  1.00  0.00     0.014 A 
ATOM     34  C   UNL A   1      45.193  21.699  26.225  1.00  0.00     0.014 A 
ATOM     35  C   UNL A   1      44.279  23.835  24.660  1.00  0.00     0.010 A 
ATOM     36  C   UNL A   1      45.368  23.006  26.663  1.00  0.00     0.010 A 
ATOM     37  C   UNL A   1      44.905  24.089  25.893  1.00  0.00    -0.014 A 
BRANCH  37  38
ATOM     38  C   UNL A   1      45.084  25.479  26.398  1.00  0.00     0.031 A 
ATOM     39  C   UNL A   1      46.439  26.125  26.314  1.00  0.00     0.074 A 
ATOM     40  C   UNL A   1      44.060  26.134  26.985  1.00  0.00     0.049 A 
ATOM     41  N   UNL A   1      46.831  27.294  26.749  1.00  0.00    -0.248 NA
ATOM     42  C   UNL A   1      47.505  25.322  25.699  1.00  0.00     0.031 C 
ATOM     43  C   UNL A   1      42.708  25.605  27.176  1.00  0.00     0.029 A 
ATOM     44  N   UNL A   1      43.996  27.395  27.528  1.00  0.00    -0.354 N 
ATOM     45  C   UNL A   1      48.192  27.358  26.471  1.00  0.00     0.074 A 
ATOM     46  C   UNL A   1      48.569  26.071  25.932  1.00  0.00     0.031 C 
ATOM     47  C   UNL A   1      41.938  26.551  27.739  1.00  0.00     0.029 A 
ATOM     48  C   UNL A   1      42.748  27.738  27.997  1.00  0.00     0.049 A 
ATOM     49  H   UNL A   1      44.773  28.000  27.576  1.00  0.00     0.167 HD
ATOM     50  C   UNL A   1      49.042  28.406  26.608  1.00  0.00     0.034 A 
ATOM     51  C   UNL A   1      42.308  28.877  28.571  1.00  0.00     0.034 A 
ATOM     52  C   UNL A   1      48.647  29.686  27.141  1.00  0.00     0.049 A 
ATOM     53  C   UNL A   1      43.279  30.014  28.772  1.00  0.00     0.074 A 
ATOM     54  C   UNL A   1      49.405  30.834  27.280  1.00  0.00     0.029 A 
ATOM     55  N   UNL A   1      47.383  29.982  27.638  1.00  0.00    -0.354 N 
ATOM     56  N   UNL A   1      44.551  30.082  28.448  1.00  0.00    -0.248 NA
ATOM     57  C   UNL A   1      42.756  31.226  29.415  1.00  0.00     0.031 C 
ATOM     58  C   UNL A   1      48.626  31.796  27.933  1.00  0.00     0.029 A 
ATOM     59  C   UNL A   1      47.353  31.280  28.125  1.00  0.00     0.049 A 
ATOM     60  H   UNL A   1      46.620  29.360  27.644  1.00  0.00     0.167 HD
ATOM     61  C   UNL A   1      44.970  31.358  28.822  1.00  0.00     0.074 A 
ATOM     62  C   UNL A   1      43.812  32.025  29.383  1.00  0.00     0.031 C 
ATOM     63  C   UNL A   1      46.197  31.926  28.703  1.00  0.00     0.034 A 
BRANCH  50  64
ATOM     64  C   UNL A   1      50.479  28.177  26.196  1.00  0.00     0.023 A 
ATOM     65  C   UNL A   1      50.905  28.389  24.871  1.00  0.00     0.031 A 
ATOM     66  C   UNL A   1      51.413  27.654  27.106  1.00  0.00     0.131 A 
ATOM     67  C   UNL A   1      52.176  27.958  24.466  1.00  0.00     0.055 A 
ATOM     68  C   UNL A   1      52.716  27.334  26.721  1.00  0.00     0.041 A 
ATOM     69  F   UNL A   1      51.065  27.411  28.380  1.00  0.00    -0.206 F 
ATOM     70  C   UNL A   1      53.097  27.458  25.388  1.00  0.00     0.022 A 
BRANCH  67  71
ATOM     71  S   UNL A   1      52.519  27.852  22.687  1.00  0.00     0.124 S 
ATOM     72  O   UNL A   1      52.344  29.243  22.271  1.00  0.00    -0.237 OA
ATOM     73  O   UNL A   1      53.885  27.344  22.658  1.00  0.00    -0.237 OA
ATOM     74  O   UNL A   1      51.495  26.931  22.196  1.00  0.00    -0.744 OA
ENDBRANCH  67  71
ENDBRANCH  50  64
BRANCH  51  75
ATOM     75  C   UNL A   1      40.880  29.014  28.984  1.00  0.00     0.023 A 
ATOM     76  C   UNL A   1      40.514  28.969  30.338  1.00  0.00     0.031 A 
ATOM     77  C   UNL A   1      39.857  29.171  28.031  1.00  0.00     0.131 A 
ATOM     78  C   UNL A   1      39.162  29.046  30.704  1.00  0.00     0.055 A 
ATOM     79  C   UNL A   1      38.516  29.296  28.402  1.00  0.00     0.041 A 
ATOM     80  F   UNL A   1      40.150  29.223  26.722  1.00  0.00    -0.206 F 
ATOM     81  C   UNL A   1      38.161  29.225  29.746  1.00  0.00     0.022 A 
BRANCH  78  82
ATOM     82  S   UNL A   1      38.718  28.853  32.452  1.00  0.00     0.124 S 
ATOM     83  O   UNL A   1      39.044  30.171  32.988  1.00  0.00    -0.237 OA
ATOM     84  O   UNL A   1      37.298  28.527  32.371  1.00  0.00    -0.237 OA
ATOM     85  O   UNL A   1      39.580  27.764  32.905  1.00  0.00    -0.744 OA
ENDBRANCH  78  82
ENDBRANCH  51  75
BRANCH  63  86
ATOM     86  C   UNL A   1      46.340  33.358  29.163  1.00  0.00     0.023 A 
ATOM     87  C   UNL A   1      46.129  34.440  28.292  1.00  0.00     0.031 A 
ATOM     88  C   UNL A   1      46.688  33.640  30.497  1.00  0.00     0.131 A 
ATOM     89  C   UNL A   1      46.316  35.753  28.752  1.00  0.00     0.055 A 
ATOM     90  C   UNL A   1      46.808  34.949  30.964  1.00  0.00     0.041 A 
ATOM     91  F   UNL A   1      46.906  32.645  31.372  1.00  0.00    -0.206 F 
ATOM     92  C   UNL A   1      46.633  36.016  30.086  1.00  0.00     0.022 A 
BRANCH  89  93
ATOM     93  S   UNL A   1      46.222  37.115  27.557  1.00  0.00     0.124 S 
ATOM     94  O   UNL A   1      46.112  36.398  26.290  1.00  0.00    -0.237 OA
ATOM     95  O   UNL A   1      45.027  37.831  27.990  1.00  0.00    -0.237 OA
ATOM     96  O   UNL A   1      47.480  37.833  27.756  1.00  0.00    -0.744 OA
ENDBRANCH  89  93
ENDBRANCH  63  86
ENDBRANCH  37  38
ENDBRANCH  29  32
ENDBRANCH  27  28
ENDBRANCH  26  27
ENDBRANCH   1  26
TORSDOF 19
ENDMDL
MODEL 3
REMARK VINA RESULT:     -11.5      2.114      3.587
REMARK SMILES CC[C@@H](NC(=O)N1CCO[C@H](CC(=O)NCCCCNC(=O)c2ccc(-c3c4nc(c(-c5cc(S(=O)(=O)[O-])ccc5F)c5ccc([nH]5)c(-c5cc(S(=O)(=O)[O-])ccc5F)c5nc(c(-c6cc(S(=O)(=O)[O-])ccc6F)c6ccc3[nH]6)C=C5)C=C4)cc2)C1)c1cccs1
REMARK SMILES IDX 17 1 16 2 15 3 13 4 14 5 12 7 11 8 7 9 8 10 86 11 9 12 10 13
REMARK SMILES IDX 5 14 4 15 6 17 3 18 2 19 1 20 87 21 88 22 91 23 89 24 90 25
REMARK SMILES IDX 18 26 19 27 20 28 21 29 22 31 23 32 24 33 85 34 25 35 84 36
REMARK SMILES IDX 26 37 27 38 28 39 78 40 29 41 83 42 77 43 79 44 30 45 82 46
REMARK SMILES IDX 76 47 75 48 31 50 63 51 43 52 62 53 44 54 47 55 61 56 80 57
REMARK SMILES IDX 45 58 46 59 60 61 81 62 48 63 32 64 33 65 41 66 34 67 40 68
REMARK SMILES IDX 42 69 39 70 35 71 36 72 37 73 38 74 64 75 65 76 73 77 66 78
REMARK SMILES IDX 72 79 74 80 71 81 67 82 68 83 69 84 70 85 49 86 50 87 58 88
REMARK SMILES IDX 51 89 57 90 59 91 56 92 52 93 53 94 54 95 55 96
REMARK H PARENT 15 6 4 16 20 30 79 49 47 60
REMARK Flexibility Score: inf
ROOT
ATOM      1  C   UNL A   1      40.332  22.945  27.653  1.00  0.00     0.023 C 
ENDROOT
BRANCH   1   2
ATOM      2  C   UNL A   1      39.084  23.909  26.826  1.00  0.00     0.116 C 
BRANCH   2   3
ATOM      3  N   UNL A   1      37.706  23.341  25.295  1.00  0.00    -0.356 N 
ATOM      4  C   UNL A   1      36.558  23.440  24.504  1.00  0.00     0.222 C 
ATOM      5  O   UNL A   1      36.609  22.606  23.567  1.00  0.00    -0.275 OA
ATOM      6  H   UNL A   1      38.131  22.528  24.934  1.00  0.00     0.163 HD
BRANCH   4   7
ATOM      7  C   UNL A   1      35.209  24.220  24.578  1.00  0.00     0.133 C 
BRANCH   7   8
ATOM      8  C   UNL A   1      34.228  24.699  25.681  1.00  0.00     0.147 C 
ATOM      9  N   UNL A   1      32.095  23.489  25.846  1.00  0.00    -0.320 N 
ATOM     10  C   UNL A   1      31.325  24.722  25.942  1.00  0.00     0.150 C 
ATOM     11  C   UNL A   1      33.421  23.623  26.396  1.00  0.00     0.154 C 
ATOM     12  C   UNL A   1      32.106  25.985  25.499  1.00  0.00     0.182 C 
ATOM     13  O   UNL A   1      33.544  25.940  25.418  1.00  0.00    -0.374 OA
BRANCH   9  14
ATOM     14  C   UNL A   1      31.471  22.292  25.950  1.00  0.00     0.318 C 
ATOM     15  N   UNL A   1      32.198  21.162  26.059  1.00  0.00    -0.330 N 
ATOM     16  H   UNL A   1      31.944  20.653  26.862  1.00  0.00     0.166 HD
ATOM     17  O   UNL A   1      30.254  22.221  26.124  1.00  0.00    -0.249 OA
BRANCH  15  18
ATOM     18  C   UNL A   1      33.273  20.467  25.309  1.00  0.00     0.124 C 
BRANCH  18  19
ATOM     19  C   UNL A   1      33.094  20.852  23.809  1.00  0.00     0.027 C 
ATOM     20  C   UNL A   1      32.154  19.920  23.050  1.00  0.00     0.006 C 
ENDBRANCH  18  19
BRANCH  18  21
ATOM     21  C   UNL A   1      33.514  18.965  25.399  1.00  0.00     0.027 A 
ATOM     22  C   UNL A   1      32.350  17.661  25.705  1.00  0.00     0.017 A 
ATOM     23  S   UNL A   1      35.515  18.072  24.631  1.00  0.00    -0.147 S 
ATOM     24  C   UNL A   1      33.086  15.876  25.486  1.00  0.00     0.012 A 
ATOM     25  C   UNL A   1      34.757  15.895  24.991  1.00  0.00     0.065 A 
ENDBRANCH  18  21
ENDBRANCH  15  18
ENDBRANCH   9  14
ENDBRANCH   7   8
ENDBRANCH   4   7
ENDBRANCH   2   3
ENDBRANCH   1   2
BRANCH   1  26
ATOM     26  C   UNL A   1      40.593  21.628  26.934  1.00  0.00     0.023 C 
BRANCH  26  27
ATOM     27  C   UNL A   1      41.911  20.954  27.260  1.00  0.00     0.116 C 
BRANCH  27  28
ATOM     28  N   UNL A   1      42.373  19.971  26.285  1.00  0.00    -0.352 N 
ATOM     29  C   UNL A   1      43.393  20.164  25.369  1.00  0.00     0.251 C 
ATOM     30  H   UNL A   1      41.920  19.097  26.278  1.00  0.00     0.163 HD
ATOM     31  O   UNL A   1      43.723  19.305  24.564  1.00  0.00    -0.269 OA
BRANCH  29  32
ATOM     32  C   UNL A   1      44.034  21.495  25.388  1.00  0.00     0.039 A 
ATOM     33  C   UNL A   1      43.465  22.512  24.619  1.00  0.00     0.014 A 
ATOM     34  C   UNL A   1      44.921  21.782  26.430  1.00  0.00     0.014 A 
ATOM     35  C   UNL A   1      43.712  23.841  24.964  1.00  0.00     0.010 A 
ATOM     36  C   UNL A   1      45.070  23.103  26.834  1.00  0.00     0.010 A 
ATOM     37  C   UNL A   1      44.460  24.147  26.115  1.00  0.00    -0.014 A 
BRANCH  37  38
ATOM     38  C   UNL A   1      44.615  25.552  26.585  1.00  0.00     0.031 A 
ATOM     39  C   UNL A   1      45.962  26.214  26.496  1.00  0.00     0.074 A 
ATOM     40  C   UNL A   1      43.577  26.208  27.145  1.00  0.00     0.049 A 
ATOM     41  N   UNL A   1      46.334  27.400  26.904  1.00  0.00    -0.248 NA
ATOM     42  C   UNL A   1      47.045  25.411  25.912  1.00  0.00     0.031 C 
ATOM     43  C   UNL A   1      42.230  25.665  27.337  1.00  0.00     0.029 A 
ATOM     44  N   UNL A   1      43.490  27.482  27.654  1.00  0.00    -0.354 N 
ATOM     45  C   UNL A   1      47.697  27.476  26.637  1.00  0.00     0.074 A 
ATOM     46  C   UNL A   1      48.096  26.180  26.135  1.00  0.00     0.031 C 
ATOM     47  C   UNL A   1      41.442  26.615  27.868  1.00  0.00     0.029 A 
ATOM     48  C   UNL A   1      42.234  27.819  28.103  1.00  0.00     0.049 A 
ATOM     49  H   UNL A   1      44.258  28.098  27.693  1.00  0.00     0.167 HD
ATOM     50  C   UNL A   1      48.531  28.538  26.754  1.00  0.00     0.034 A 
ATOM     51  C   UNL A   1      41.772  28.966  28.643  1.00  0.00     0.034 A 
ATOM     52  C   UNL A   1      48.113  29.826  27.251  1.00  0.00     0.049 A 
ATOM     53  C   UNL A   1      42.726  30.121  28.823  1.00  0.00     0.074 A 
ATOM     54  C   UNL A   1      48.854  30.988  27.367  1.00  0.00     0.029 A 
ATOM     55  N   UNL A   1      46.841  30.118  27.728  1.00  0.00    -0.354 N 
ATOM     56  N   UNL A   1      44.000  30.199  28.509  1.00  0.00    -0.248 NA
ATOM     57  C   UNL A   1      42.181  31.343  29.429  1.00  0.00     0.031 C 
ATOM     58  C   UNL A   1      48.056  31.956  27.986  1.00  0.00     0.029 A 
ATOM     59  C   UNL A   1      46.788  31.427  28.180  1.00  0.00     0.049 A 
ATOM     60  H   UNL A   1      46.086  29.485  27.742  1.00  0.00     0.167 HD
ATOM     61  C   UNL A   1      44.398  31.489  28.853  1.00  0.00     0.074 A 
ATOM     62  C   UNL A   1      43.226  32.155  29.386  1.00  0.00     0.031 C 
ATOM     63  C   UNL A   1      45.618  32.072  28.730  1.00  0.00     0.034 A 
BRANCH  50  64
ATOM     64  C   UNL A   1      49.975  28.319  26.361  1.00  0.00     0.023 A 
ATOM     65  C   UNL A   1      50.439  28.627  25.069  1.00  0.00     0.031 A 
ATOM     66  C   UNL A   1      50.877  27.710  27.251  1.00  0.00     0.131 A 
ATOM     67  C   UNL A   1      51.713  28.208  24.663  1.00  0.00     0.055 A 
ATOM     68  C   UNL A   1      52.185  27.399  26.874  1.00  0.00     0.041 A 
ATOM     69  F   UNL A   1      50.492  27.373  28.493  1.00  0.00    -0.206 F 
ATOM     70  C   UNL A   1      52.602  27.622  25.565  1.00  0.00     0.022 A 
BRANCH  67  71
ATOM     71  S   UNL A   1      52.101  28.237  22.890  1.00  0.00     0.124 S 
ATOM     72  O   UNL A   1      53.406  28.896  22.885  1.00  0.00    -0.237 OA
ATOM     73  O   UNL A   1      52.099  26.821  22.543  1.00  0.00    -0.237 OA
ATOM     74  O   UNL A   1      51.013  29.026  22.315  1.00  0.00    -0.744 OA
ENDBRANCH  67  71
ENDBRANCH  50  64
BRANCH  51  75
ATOM     75  C   UNL A   1      40.339  29.095  29.038  1.00  0.00     0.023 A 
ATOM     76  C   UNL A   1      39.956  29.031  30.387  1.00  0.00     0.031 A 
ATOM     77  C   UNL A   1      39.328  29.261  28.075  1.00  0.00     0.131 A 
ATOM     78  C   UNL A   1      38.598  29.100  30.736  1.00  0.00     0.055 A 
ATOM     79  C   UNL A   1      37.982  29.377  28.429  1.00  0.00     0.041 A 
ATOM     80  F   UNL A   1      39.638  29.330  26.770  1.00  0.00    -0.206 F 
ATOM     81  C   UNL A   1      37.610  29.288  29.768  1.00  0.00     0.022 A 
BRANCH  78  82
ATOM     82  S   UNL A   1      38.132  28.884  32.476  1.00  0.00     0.124 S 
ATOM     83  O   UNL A   1      38.320  27.449  32.657  1.00  0.00    -0.237 OA
ATOM     84  O   UNL A   1      39.090  29.748  33.156  1.00  0.00    -0.237 OA
ATOM     85  O   UNL A   1      36.745  29.342  32.517  1.00  0.00    -0.744 OA
ENDBRANCH  78  82
ENDBRANCH  51  75
BRANCH  63  86
ATOM     86  C   UNL A   1      45.738  33.517  29.154  1.00  0.00     0.023 A 
ATOM     87  C   UNL A   1      45.502  34.574  28.259  1.00  0.00     0.031 A 
ATOM     88  C   UNL A   1      46.087  33.838  30.479  1.00  0.00     0.131 A 
ATOM     89  C   UNL A   1      45.667  35.900  28.684  1.00  0.00     0.055 A 
ATOM     90  C   UNL A   1      46.186  35.161  30.913  1.00  0.00     0.041 A 
ATOM     91  F   UNL A   1      46.328  32.869  31.377  1.00  0.00    -0.206 F 
ATOM     92  C   UNL A   1      45.986  36.202  30.010  1.00  0.00     0.022 A 
BRANCH  89  93
ATOM     93  S   UNL A   1      45.542  37.231  27.457  1.00  0.00     0.124 S 
ATOM     94  O   UNL A   1      44.101  37.461  27.407  1.00  0.00    -0.237 OA
ATOM     95  O   UNL A   1      46.337  38.293  28.065  1.00  0.00    -0.237 OA
ATOM     96  O   UNL A   1      46.118  36.640  26.251  1.00  0.00    -0.744 OA
ENDBRANCH  89  93
ENDBRANCH  63  86
ENDBRANCH  37  38
ENDBRANCH  29  32
ENDBRANCH  27  28
ENDBRANCH  26  27
ENDBRANCH   1  26
TORSDOF 19
ENDMDL
