MODEL 1
REMARK VINA RESULT:     -12.2      0.000      0.000
REMARK SMILES C[C@H]1[C@H](C(=O)NCCCCNC(=O)c2ccc(-c3c4nc(c(-c5cc(S(=O)(=O)[O-])ccc5F)c5ccc([nH]5)c(-c5cc(S(=O)(=O)[O-])ccc5F)c5nc(c(-c6cc(S(=O)(=O)[O-])ccc6F)c6ccc3[nH]6)C=C5)C=C4)cc2)CCN1c1ccc(C(N)=O)c(Cl)c1
REMARK SMILES IDX 9 1 8 2 7 3 6 4 4 5 5 6 3 8 1 9 2 10 79 11 77 12 78 13 80 14
REMARK SMILES IDX 81 15 89 16 82 17 87 18 83 19 88 20 84 21 85 22 86 23 10 26
REMARK SMILES IDX 11 27 12 28 13 30 14 31 15 32 76 33 16 34 75 35 17 36 18 37
REMARK SMILES IDX 19 38 69 39 20 40 74 41 68 42 70 43 21 44 73 45 67 46 66 47
REMARK SMILES IDX 22 49 54 50 34 51 53 52 35 53 38 54 52 55 71 56 36 57 37 58
REMARK SMILES IDX 51 60 72 61 39 62 23 63 24 64 32 65 25 66 31 67 33 68 30 69
REMARK SMILES IDX 26 70 27 71 28 72 29 73 55 74 56 75 64 76 57 77 63 78 65 79
REMARK SMILES IDX 62 80 58 81 59 82 60 83 61 84 40 85 41 86 49 87 42 88 48 89
REMARK SMILES IDX 50 90 47 91 43 92 44 93 45 94 46 95
REMARK H PARENT 6 7 85 24 85 25 11 29 70 48 38 59
REMARK Flexibility Score: inf
ROOT
ATOM      1  C   UNL A   1      31.701  30.045  25.355  1.00  0.00     0.023 C 
ENDROOT
BRANCH   1   2
ATOM      2  C   UNL A   1      32.735  29.259  24.560  1.00  0.00     0.023 C 
BRANCH   2   3
ATOM      3  C   UNL A   1      32.491  27.752  24.505  1.00  0.00     0.116 C 
BRANCH   3   4
ATOM      4  N   UNL A   1      33.646  27.002  24.970  1.00  0.00    -0.356 N 
ATOM      5  C   UNL A   1      33.786  25.681  25.268  1.00  0.00     0.225 C 
ATOM      6  O   UNL A   1      34.886  25.302  25.681  1.00  0.00    -0.275 OA
ATOM      7  H   UNL A   1      34.463  27.539  25.089  1.00  0.00     0.163 HD
BRANCH   5   8
ATOM      8  C   UNL A   1      32.658  24.678  25.093  1.00  0.00     0.102 C 
ATOM      9  C   UNL A   1      32.324  23.485  22.887  1.00  0.00     0.032 C 
ATOM     10  C   UNL A   1      33.062  23.475  24.226  1.00  0.00     0.091 C 
ATOM     11  N   UNL A   1      32.659  22.303  25.011  1.00  0.00    -0.368 N 
ATOM     12  C   UNL A   1      32.128  24.124  26.414  1.00  0.00     0.037 C 
ATOM     13  C   UNL A   1      31.817  22.657  26.145  1.00  0.00     0.118 C 
BRANCH  11  14
ATOM     14  C   UNL A   1      33.108  21.021  24.817  1.00  0.00     0.038 A 
ATOM     15  C   UNL A   1      32.219  19.959  24.647  1.00  0.00     0.027 A 
ATOM     16  C   UNL A   1      34.467  20.698  24.822  1.00  0.00     0.047 A 
ATOM     17  C   UNL A   1      32.663  18.637  24.500  1.00  0.00     0.017 A 
ATOM     18  C   UNL A   1      34.935  19.374  24.720  1.00  0.00     0.055 A 
ATOM     19  C   UNL A   1      34.031  18.318  24.545  1.00  0.00     0.058 A 
ATOM     20  Cl  UNL A   1      36.651  19.190  24.845  1.00  0.00    -0.083 Cl
BRANCH  19  21
ATOM     21  C   UNL A   1      34.479  16.892  24.426  1.00  0.00     0.250 C 
ATOM     22  N   UNL A   1      35.128  16.316  25.486  1.00  0.00    -0.366 N 
ATOM     23  O   UNL A   1      34.302  16.199  23.431  1.00  0.00    -0.269 OA
ATOM     24  H   UNL A   1      35.291  16.837  26.306  1.00  0.00     0.159 HD
ATOM     25  H   UNL A   1      35.431  15.381  25.429  1.00  0.00     0.159 HD
ENDBRANCH  19  21
ENDBRANCH  11  14
ENDBRANCH   5   8
ENDBRANCH   3   4
ENDBRANCH   2   3
ENDBRANCH   1   2
BRANCH   1  26
ATOM     26  C   UNL A   1      32.177  30.517  26.721  1.00  0.00     0.116 C 
BRANCH  26  27
ATOM     27  N   UNL A   1      32.185  31.966  26.857  1.00  0.00    -0.352 N 
ATOM     28  C   UNL A   1      33.133  32.769  27.445  1.00  0.00     0.251 C 
ATOM     29  H   UNL A   1      31.407  32.434  26.474  1.00  0.00     0.163 HD
ATOM     30  O   UNL A   1      32.925  33.969  27.588  1.00  0.00    -0.269 OA
BRANCH  28  31
ATOM     31  C   UNL A   1      34.384  32.156  27.936  1.00  0.00     0.039 A 
ATOM     32  C   UNL A   1      35.520  32.954  28.079  1.00  0.00     0.014 A 
ATOM     33  C   UNL A   1      34.409  30.811  28.313  1.00  0.00     0.014 A 
ATOM     34  C   UNL A   1      36.663  32.419  28.675  1.00  0.00     0.010 A 
ATOM     35  C   UNL A   1      35.513  30.309  28.991  1.00  0.00     0.010 A 
ATOM     36  C   UNL A   1      36.654  31.107  29.177  1.00  0.00    -0.014 A 
BRANCH  36  37
ATOM     37  C   UNL A   1      37.828  30.547  29.895  1.00  0.00     0.031 A 
ATOM     38  C   UNL A   1      38.122  30.984  31.305  1.00  0.00     0.074 A 
ATOM     39  C   UNL A   1      38.660  29.698  29.259  1.00  0.00     0.049 A 
ATOM     40  N   UNL A   1      39.131  30.670  32.075  1.00  0.00    -0.248 NA
ATOM     41  C   UNL A   1      37.170  31.924  31.917  1.00  0.00     0.031 C 
ATOM     42  C   UNL A   1      38.501  29.237  27.877  1.00  0.00     0.029 A 
ATOM     43  N   UNL A   1      39.805  29.074  29.684  1.00  0.00    -0.354 N 
ATOM     44  C   UNL A   1      38.942  31.380  33.255  1.00  0.00     0.074 A 
ATOM     45  C   UNL A   1      37.762  32.196  33.069  1.00  0.00     0.031 C 
ATOM     46  C   UNL A   1      39.491  28.378  27.584  1.00  0.00     0.029 A 
ATOM     47  C   UNL A   1      40.386  28.269  28.731  1.00  0.00     0.049 A 
ATOM     48  H   UNL A   1      40.178  29.192  30.588  1.00  0.00     0.167 HD
ATOM     49  C   UNL A   1      39.669  31.336  34.399  1.00  0.00     0.034 A 
ATOM     50  C   UNL A   1      41.516  27.536  28.773  1.00  0.00     0.034 A 
ATOM     51  C   UNL A   1      40.839  30.508  34.568  1.00  0.00     0.049 A 
ATOM     52  C   UNL A   1      42.331  27.531  30.043  1.00  0.00     0.074 A 
ATOM     53  C   UNL A   1      41.621  30.344  35.698  1.00  0.00     0.029 A 
ATOM     54  N   UNL A   1      41.403  29.713  33.578  1.00  0.00    -0.354 N 
ATOM     55  N   UNL A   1      42.108  28.167  31.170  1.00  0.00    -0.248 NA
ATOM     56  C   UNL A   1      43.541  26.701  30.049  1.00  0.00     0.031 C 
ATOM     57  C   UNL A   1      42.699  29.517  35.369  1.00  0.00     0.029 A 
ATOM     58  C   UNL A   1      42.543  29.087  34.060  1.00  0.00     0.049 A 
ATOM     59  H   UNL A   1      41.046  29.609  32.667  1.00  0.00     0.167 HD
ATOM     60  C   UNL A   1      43.134  27.785  32.030  1.00  0.00     0.074 A 
ATOM     61  C   UNL A   1      43.964  26.853  31.296  1.00  0.00     0.031 C 
ATOM     62  C   UNL A   1      43.369  28.167  33.313  1.00  0.00     0.034 A 
BRANCH  49  63
ATOM     63  C   UNL A   1      39.232  32.226  35.538  1.00  0.00     0.023 A 
ATOM     64  C   UNL A   1      39.638  33.571  35.623  1.00  0.00     0.031 A 
ATOM     65  C   UNL A   1      38.419  31.721  36.567  1.00  0.00     0.131 A 
ATOM     66  C   UNL A   1      39.298  34.337  36.748  1.00  0.00     0.055 A 
ATOM     67  C   UNL A   1      38.010  32.515  37.641  1.00  0.00     0.041 A 
ATOM     68  F   UNL A   1      38.019  30.440  36.557  1.00  0.00    -0.206 F 
ATOM     69  C   UNL A   1      38.462  33.827  37.744  1.00  0.00     0.022 A 
BRANCH  66  70
ATOM     70  S   UNL A   1      40.089  35.954  36.967  1.00  0.00     0.124 S 
ATOM     71  O   UNL A   1      39.351  36.490  38.108  1.00  0.00    -0.237 OA
ATOM     72  O   UNL A   1      41.480  35.594  37.218  1.00  0.00    -0.237 OA
ATOM     73  O   UNL A   1      39.838  36.633  35.698  1.00  0.00    -0.744 OA
ENDBRANCH  66  70
ENDBRANCH  49  63
BRANCH  50  74
ATOM     74  C   UNL A   1      41.960  26.756  27.580  1.00  0.00     0.023 A 
ATOM     75  C   UNL A   1      41.665  25.389  27.457  1.00  0.00     0.031 A 
ATOM     76  C   UNL A   1      42.730  27.355  26.566  1.00  0.00     0.131 A 
ATOM     77  C   UNL A   1      42.179  24.655  26.376  1.00  0.00     0.055 A 
ATOM     78  C   UNL A   1      43.187  26.635  25.461  1.00  0.00     0.041 A 
ATOM     79  F   UNL A   1      43.041  28.659  26.631  1.00  0.00    -0.206 F 
ATOM     80  C   UNL A   1      42.924  25.272  25.370  1.00  0.00     0.022 A 
BRANCH  77  81
ATOM     81  S   UNL A   1      41.945  22.856  26.359  1.00  0.00     0.124 S 
ATOM     82  O   UNL A   1      40.495  22.746  26.252  1.00  0.00    -0.237 OA
ATOM     83  O   UNL A   1      42.708  22.463  25.179  1.00  0.00    -0.237 OA
ATOM     84  O   UNL A   1      42.512  22.428  27.637  1.00  0.00    -0.744 OA
ENDBRANCH  77  81
ENDBRANCH  50  74
BRANCH  62  85
ATOM     85  C   UNL A   1      44.546  27.534  34.016  1.00  0.00     0.023 A 
ATOM     86  C   UNL A   1      44.419  26.341  34.750  1.00  0.00     0.031 A 
ATOM     87  C   UNL A   1      45.813  28.141  33.956  1.00  0.00     0.131 A 
ATOM     88  C   UNL A   1      45.525  25.827  35.444  1.00  0.00     0.055 A 
ATOM     89  C   UNL A   1      46.926  27.587  34.591  1.00  0.00     0.041 A 
ATOM     90  F   UNL A   1      45.993  29.283  33.274  1.00  0.00    -0.206 F 
ATOM     91  C   UNL A   1      46.781  26.431  35.352  1.00  0.00     0.022 A 
BRANCH  88  92
ATOM     92  S   UNL A   1      45.276  24.414  36.553  1.00  0.00     0.124 S 
ATOM     93  O   UNL A   1      44.302  24.942  37.502  1.00  0.00    -0.237 OA
ATOM     94  O   UNL A   1      44.787  23.384  35.643  1.00  0.00    -0.237 OA
ATOM     95  O   UNL A   1      46.610  24.171  37.103  1.00  0.00    -0.744 OA
ENDBRANCH  88  92
ENDBRANCH  62  85
ENDBRANCH  36  37
ENDBRANCH  28  31
ENDBRANCH  26  27
ENDBRANCH   1  26
TORSDOF 16
ENDMDL
MODEL 2
REMARK VINA RESULT:     -12.2      5.017     10.662
REMARK SMILES C[C@H]1[C@H](C(=O)NCCCCNC(=O)c2ccc(-c3c4nc(c(-c5cc(S(=O)(=O)[O-])ccc5F)c5ccc([nH]5)c(-c5cc(S(=O)(=O)[O-])ccc5F)c5nc(c(-c6cc(S(=O)(=O)[O-])ccc6F)c6ccc3[nH]6)C=C5)C=C4)cc2)CCN1c1ccc(C(N)=O)c(Cl)c1
REMARK SMILES IDX 9 1 8 2 7 3 6 4 4 5 5 6 3 8 1 9 2 10 79 11 77 12 78 13 80 14
REMARK SMILES IDX 81 15 89 16 82 17 87 18 83 19 88 20 84 21 85 22 86 23 10 26
REMARK SMILES IDX 11 27 12 28 13 30 14 31 15 32 76 33 16 34 75 35 17 36 18 37
REMARK SMILES IDX 19 38 69 39 20 40 74 41 68 42 70 43 21 44 73 45 67 46 66 47
REMARK SMILES IDX 22 49 54 50 34 51 53 52 35 53 38 54 52 55 71 56 36 57 37 58
REMARK SMILES IDX 51 60 72 61 39 62 23 63 24 64 32 65 25 66 31 67 33 68 30 69
REMARK SMILES IDX 26 70 27 71 28 72 29 73 55 74 56 75 64 76 57 77 63 78 65 79
REMARK SMILES IDX 62 80 58 81 59 82 60 83 61 84 40 85 41 86 49 87 42 88 48 89
REMARK SMILES IDX 50 90 47 91 43 92 44 93 45 94 46 95
REMARK H PARENT 6 7 85 24 85 25 11 29 70 48 38 59
REMARK Flexibility Score: inf
ROOT
ATOM      1  C   UNL A   1      36.178  21.299  25.553  1.00  0.00     0.023 C 
ENDROOT
BRANCH   1   2
ATOM      2  C   UNL A   1      35.616  22.591  26.133  1.00  0.00     0.023 C 
BRANCH   2   3
ATOM      3  C   UNL A   1      34.097  22.619  26.284  1.00  0.00     0.116 C 
BRANCH   3   4
ATOM      4  N   UNL A   1      33.470  21.474  25.646  1.00  0.00    -0.356 N 
ATOM      5  C   UNL A   1      32.839  21.361  24.446  1.00  0.00     0.225 C 
ATOM      6  O   UNL A   1      32.359  20.262  24.152  1.00  0.00    -0.275 OA
ATOM      7  H   UNL A   1      33.510  20.640  26.169  1.00  0.00     0.163 HD
BRANCH   5   8
ATOM      8  C   UNL A   1      32.726  22.520  23.468  1.00  0.00     0.102 C 
ATOM      9  C   UNL A   1      30.645  23.956  23.404  1.00  0.00     0.032 C 
ATOM     10  C   UNL A   1      32.004  23.736  24.069  1.00  0.00     0.091 C 
ATOM     11  N   UNL A   1      32.890  24.869  23.783  1.00  0.00    -0.368 N 
ATOM     12  C   UNL A   1      34.077  23.009  22.950  1.00  0.00     0.037 C 
ATOM     13  C   UNL A   1      33.950  24.524  22.847  1.00  0.00     0.118 C 
BRANCH  11  14
ATOM     14  C   UNL A   1      32.846  26.092  24.405  1.00  0.00     0.038 A 
ATOM     15  C   UNL A   1      33.647  26.371  25.513  1.00  0.00     0.027 A 
ATOM     16  C   UNL A   1      31.976  27.106  23.997  1.00  0.00     0.047 A 
ATOM     17  C   UNL A   1      33.575  27.599  26.188  1.00  0.00     0.017 A 
ATOM     18  C   UNL A   1      31.855  28.328  24.685  1.00  0.00     0.055 A 
ATOM     19  C   UNL A   1      32.669  28.597  25.794  1.00  0.00     0.058 A 
ATOM     20  Cl  UNL A   1      30.648  29.403  24.067  1.00  0.00    -0.083 Cl
BRANCH  19  21
ATOM     21  C   UNL A   1      32.583  29.885  26.556  1.00  0.00     0.250 C 
ATOM     22  N   UNL A   1      33.418  30.073  27.626  1.00  0.00    -0.366 N 
ATOM     23  O   UNL A   1      31.805  30.792  26.284  1.00  0.00    -0.269 OA
ATOM     24  H   UNL A   1      34.060  29.371  27.879  1.00  0.00     0.159 HD
ATOM     25  H   UNL A   1      33.379  30.912  28.140  1.00  0.00     0.159 HD
ENDBRANCH  19  21
ENDBRANCH  11  14
ENDBRANCH   5   8
ENDBRANCH   3   4
ENDBRANCH   2   3
ENDBRANCH   1   2
BRANCH   1  26
ATOM     26  C   UNL A   1      37.574  21.426  24.960  1.00  0.00     0.116 C 
BRANCH  26  27
ATOM     27  N   UNL A   1      38.493  20.402  25.435  1.00  0.00    -0.352 N 
ATOM     28  C   UNL A   1      39.659  20.557  26.147  1.00  0.00     0.251 C 
ATOM     29  H   UNL A   1      38.244  19.473  25.219  1.00  0.00     0.163 HD
ATOM     30  O   UNL A   1      40.386  19.593  26.360  1.00  0.00    -0.269 OA
BRANCH  28  31
ATOM     31  C   UNL A   1      40.038  21.906  26.612  1.00  0.00     0.039 A 
ATOM     32  C   UNL A   1      41.102  22.042  27.505  1.00  0.00     0.014 A 
ATOM     33  C   UNL A   1      39.382  23.035  26.113  1.00  0.00     0.014 A 
ATOM     34  C   UNL A   1      41.558  23.318  27.838  1.00  0.00     0.010 A 
ATOM     35  C   UNL A   1      39.898  24.298  26.371  1.00  0.00     0.010 A 
ATOM     36  C   UNL A   1      40.990  24.455  27.238  1.00  0.00    -0.014 A 
BRANCH  36  37
ATOM     37  C   UNL A   1      41.520  25.816  27.510  1.00  0.00     0.031 A 
ATOM     38  C   UNL A   1      42.879  26.208  26.996  1.00  0.00     0.074 A 
ATOM     39  C   UNL A   1      40.807  26.673  28.268  1.00  0.00     0.049 A 
ATOM     40  N   UNL A   1      43.547  27.316  27.184  1.00  0.00    -0.248 NA
ATOM     41  C   UNL A   1      43.594  25.205  26.190  1.00  0.00     0.031 C 
ATOM     42  C   UNL A   1      39.496  26.389  28.858  1.00  0.00     0.029 A 
ATOM     43  N   UNL A   1      41.082  27.954  28.677  1.00  0.00    -0.354 N 
ATOM     44  C   UNL A   1      44.762  27.141  26.530  1.00  0.00     0.074 A 
ATOM     45  C   UNL A   1      44.765  25.793  26.006  1.00  0.00     0.031 C 
ATOM     46  C   UNL A   1      39.068  27.476  29.522  1.00  0.00     0.029 A 
ATOM     47  C   UNL A   1      40.093  28.513  29.454  1.00  0.00     0.049 A 
ATOM     48  H   UNL A   1      41.910  28.429  28.437  1.00  0.00     0.167 HD
ATOM     49  C   UNL A   1      45.771  28.031  26.360  1.00  0.00     0.034 A 
ATOM     50  C   UNL A   1      40.025  29.718  30.055  1.00  0.00     0.034 A 
ATOM     51  C   UNL A   1      45.744  29.375  26.885  1.00  0.00     0.049 A 
ATOM     52  C   UNL A   1      41.175  30.679  29.883  1.00  0.00     0.074 A 
ATOM     53  C   UNL A   1      46.685  30.378  26.728  1.00  0.00     0.029 A 
ATOM     54  N   UNL A   1      44.731  29.903  27.675  1.00  0.00    -0.354 N 
ATOM     55  N   UNL A   1      42.295  30.517  29.216  1.00  0.00    -0.248 NA
ATOM     56  C   UNL A   1      41.048  31.987  30.536  1.00  0.00     0.031 C 
ATOM     57  C   UNL A   1      46.281  31.480  27.489  1.00  0.00     0.029 A 
ATOM     58  C   UNL A   1      45.042  31.203  28.045  1.00  0.00     0.049 A 
ATOM     59  H   UNL A   1      43.911  29.424  27.935  1.00  0.00     0.167 HD
ATOM     60  C   UNL A   1      42.988  31.718  29.342  1.00  0.00     0.074 A 
ATOM     61  C   UNL A   1      42.153  32.596  30.134  1.00  0.00     0.031 C 
ATOM     62  C   UNL A   1      44.204  32.066  28.846  1.00  0.00     0.034 A 
BRANCH  49  63
ATOM     63  C   UNL A   1      46.990  27.566  25.600  1.00  0.00     0.023 A 
ATOM     64  C   UNL A   1      47.216  27.941  24.264  1.00  0.00     0.031 A 
ATOM     65  C   UNL A   1      47.929  26.716  26.211  1.00  0.00     0.131 A 
ATOM     66  C   UNL A   1      48.305  27.405  23.559  1.00  0.00     0.055 A 
ATOM     67  C   UNL A   1      49.060  26.258  25.530  1.00  0.00     0.041 A 
ATOM     68  F   UNL A   1      47.758  26.303  27.476  1.00  0.00    -0.206 F 
ATOM     69  C   UNL A   1      49.245  26.589  24.192  1.00  0.00     0.022 A 
BRANCH  66  70
ATOM     70  S   UNL A   1      48.389  27.665  21.766  1.00  0.00     0.124 S 
ATOM     71  O   UNL A   1      48.654  26.311  21.285  1.00  0.00    -0.237 OA
ATOM     72  O   UNL A   1      47.067  28.204  21.462  1.00  0.00    -0.237 OA
ATOM     73  O   UNL A   1      49.498  28.603  21.607  1.00  0.00    -0.744 OA
ENDBRANCH  66  70
ENDBRANCH  49  63
BRANCH  50  74
ATOM     74  C   UNL A   1      38.840  30.087  30.884  1.00  0.00     0.023 A 
ATOM     75  C   UNL A   1      37.773  30.818  30.338  1.00  0.00     0.031 A 
ATOM     76  C   UNL A   1      38.779  29.758  32.250  1.00  0.00     0.131 A 
ATOM     77  C   UNL A   1      36.718  31.240  31.162  1.00  0.00     0.055 A 
ATOM     78  C   UNL A   1      37.698  30.127  33.053  1.00  0.00     0.041 A 
ATOM     79  F   UNL A   1      39.771  29.060  32.825  1.00  0.00    -0.206 F 
ATOM     80  C   UNL A   1      36.666  30.886  32.511  1.00  0.00     0.022 A 
BRANCH  77  81
ATOM     81  S   UNL A   1      35.463  32.349  30.466  1.00  0.00     0.124 S 
ATOM     82  O   UNL A   1      36.203  33.602  30.353  1.00  0.00    -0.237 OA
ATOM     83  O   UNL A   1      35.133  31.683  29.210  1.00  0.00    -0.237 OA
ATOM     84  O   UNL A   1      34.403  32.337  31.472  1.00  0.00    -0.744 OA
ENDBRANCH  77  81
ENDBRANCH  50  74
BRANCH  62  85
ATOM     85  C   UNL A   1      44.677  33.475  29.107  1.00  0.00     0.023 A 
ATOM     86  C   UNL A   1      44.277  34.555  28.300  1.00  0.00     0.031 A 
ATOM     87  C   UNL A   1      45.550  33.740  30.178  1.00  0.00     0.131 A 
ATOM     88  C   UNL A   1      44.797  35.836  28.538  1.00  0.00     0.055 A 
ATOM     89  C   UNL A   1      46.009  35.029  30.453  1.00  0.00     0.041 A 
ATOM     90  F   UNL A   1      45.969  32.748  30.979  1.00  0.00    -0.206 F 
ATOM     91  C   UNL A   1      45.644  36.083  29.622  1.00  0.00     0.022 A 
BRANCH  88  92
ATOM     92  S   UNL A   1      44.433  37.158  27.351  1.00  0.00     0.124 S 
ATOM     93  O   UNL A   1      43.292  36.609  26.627  1.00  0.00    -0.237 OA
ATOM     94  O   UNL A   1      44.150  38.292  28.223  1.00  0.00    -0.237 OA
ATOM     95  O   UNL A   1      45.666  37.269  26.572  1.00  0.00    -0.744 OA
ENDBRANCH  88  92
ENDBRANCH  62  85
ENDBRANCH  36  37
ENDBRANCH  28  31
ENDBRANCH  26  27
ENDBRANCH   1  26
TORSDOF 16
ENDMDL
MODEL 3
REMARK VINA RESULT:     -12.2      4.967      8.259
REMARK SMILES C[C@H]1[C@H](C(=O)NCCCCNC(=O)c2ccc(-c3c4nc(c(-c5cc(S(=O)(=O)[O-])ccc5F)c5ccc([nH]5)c(-c5cc(S(=O)(=O)[O-])ccc5F)c5nc(c(-c6cc(S(=O)(=O)[O-])ccc6F)c6ccc3[nH]6)C=C5)C=C4)cc2)CCN1c1ccc(C(N)=O)c(Cl)c1
REMARK SMILES IDX 9 1 8 2 7 3 6 4 4 5 5 6 3 8 1 9 2 10 79 11 77 12 78 13 80 14
REMARK SMILES IDX 81 15 89 16 82 17 87 18 83 19 88 20 84 21 85 22 86 23 10 26
REMARK SMILES IDX 11 27 12 28 13 30 14 31 15 32 76 33 16 34 75 35 17 36 18 37
REMARK SMILES IDX 19 38 69 39 20 40 74 41 68 42 70 43 21 44 73 45 67 46 66 47
REMARK SMILES IDX 22 49 54 50 34 51 53 52 35 53 38 54 52 55 71 56 36 57 37 58
REMARK SMILES IDX 51 60 72 61 39 62 23 63 24 64 32 65 25 66 31 67 33 68 30 69
REMARK SMILES IDX 26 70 27 71 28 72 29 73 55 74 56 75 64 76 57 77 63 78 65 79
REMARK SMILES IDX 62 80 58 81 59 82 60 83 61 84 40 85 41 86 49 87 42 88 48 89
REMARK SMILES IDX 50 90 47 91 43 92 44 93 45 94 46 95
REMARK H PARENT 6 7 85 24 85 25 11 29 70 48 38 59
REMARK Flexibility Score: inf
ROOT
ATOM      1  C   UNL A   1      34.566  22.454  25.561  1.00  0.00     0.023 C 
ENDROOT
BRANCH   1   2
ATOM      2  C   UNL A   1      34.473  22.115  24.079  1.00  0.00     0.023 C 
BRANCH   2   3
ATOM      3  C   UNL A   1      33.182  22.563  23.398  1.00  0.00     0.116 C 
BRANCH   3   4
ATOM      4  N   UNL A   1      33.441  23.483  22.303  1.00  0.00    -0.356 N 
ATOM      5  C   UNL A   1      32.896  24.696  22.014  1.00  0.00     0.225 C 
ATOM      6  O   UNL A   1      33.278  25.265  20.987  1.00  0.00    -0.275 OA
ATOM      7  H   UNL A   1      34.126  23.178  21.665  1.00  0.00     0.163 HD
BRANCH   5   8
ATOM      8  C   UNL A   1      31.866  25.366  22.910  1.00  0.00     0.102 C 
ATOM      9  C   UNL A   1      31.979  25.103  25.423  1.00  0.00     0.032 C 
ATOM     10  C   UNL A   1      32.475  25.900  24.216  1.00  0.00     0.091 C 
ATOM     11  N   UNL A   1      32.002  27.285  24.304  1.00  0.00    -0.368 N 
ATOM     12  C   UNL A   1      31.145  26.533  22.238  1.00  0.00     0.037 C 
ATOM     13  C   UNL A   1      30.960  27.579  23.330  1.00  0.00     0.118 C 
BRANCH  11  14
ATOM     14  C   UNL A   1      32.541  28.264  25.101  1.00  0.00     0.038 A 
ATOM     15  C   UNL A   1      33.773  28.088  25.731  1.00  0.00     0.027 A 
ATOM     16  C   UNL A   1      31.877  29.465  25.361  1.00  0.00     0.047 A 
ATOM     17  C   UNL A   1      34.312  29.059  26.589  1.00  0.00     0.017 A 
ATOM     18  C   UNL A   1      32.376  30.434  26.251  1.00  0.00     0.055 A 
ATOM     19  C   UNL A   1      33.618  30.246  26.874  1.00  0.00     0.058 A 
ATOM     20  Cl  UNL A   1      31.347  31.803  26.501  1.00  0.00    -0.083 Cl
BRANCH  19  21
ATOM     21  C   UNL A   1      34.195  31.251  27.825  1.00  0.00     0.250 C 
ATOM     22  N   UNL A   1      35.069  30.818  28.788  1.00  0.00    -0.366 N 
ATOM     23  O   UNL A   1      33.935  32.448  27.799  1.00  0.00    -0.269 OA
ATOM     24  H   UNL A   1      35.306  29.864  28.845  1.00  0.00     0.159 HD
ATOM     25  H   UNL A   1      35.460  31.460  29.423  1.00  0.00     0.159 HD
ENDBRANCH  19  21
ENDBRANCH  11  14
ENDBRANCH   5   8
ENDBRANCH   3   4
ENDBRANCH   2   3
ENDBRANCH   1   2
BRANCH   1  26
ATOM     26  C   UNL A   1      35.979  22.710  26.065  1.00  0.00     0.116 C 
BRANCH  26  27
ATOM     27  N   UNL A   1      36.899  21.621  25.767  1.00  0.00    -0.352 N 
ATOM     28  C   UNL A   1      38.271  21.605  25.862  1.00  0.00     0.251 C 
ATOM     29  H   UNL A   1      36.482  20.784  25.458  1.00  0.00     0.163 HD
ATOM     30  O   UNL A   1      38.908  20.642  25.449  1.00  0.00    -0.269 OA
BRANCH  28  31
ATOM     31  C   UNL A   1      38.961  22.779  26.431  1.00  0.00     0.039 A 
ATOM     32  C   UNL A   1      40.085  22.582  27.235  1.00  0.00     0.014 A 
ATOM     33  C   UNL A   1      38.534  24.072  26.115  1.00  0.00     0.014 A 
ATOM     34  C   UNL A   1      40.827  23.686  27.659  1.00  0.00     0.010 A 
ATOM     35  C   UNL A   1      39.327  25.160  26.457  1.00  0.00     0.010 A 
ATOM     36  C   UNL A   1      40.481  24.980  27.236  1.00  0.00    -0.014 A 
BRANCH  36  37
ATOM     37  C   UNL A   1      41.308  26.158  27.601  1.00  0.00     0.031 A 
ATOM     38  C   UNL A   1      40.738  27.227  28.493  1.00  0.00     0.074 A 
ATOM     39  C   UNL A   1      42.545  26.296  27.081  1.00  0.00     0.049 A 
ATOM     40  N   UNL A   1      41.268  28.361  28.871  1.00  0.00    -0.248 NA
ATOM     41  C   UNL A   1      39.376  27.003  29.004  1.00  0.00     0.031 C 
ATOM     42  C   UNL A   1      43.188  25.346  26.169  1.00  0.00     0.029 A 
ATOM     43  N   UNL A   1      43.481  27.286  27.239  1.00  0.00    -0.354 N 
ATOM     44  C   UNL A   1      40.304  28.989  29.651  1.00  0.00     0.074 A 
ATOM     45  C   UNL A   1      39.132  28.142  29.631  1.00  0.00     0.031 C 
ATOM     46  C   UNL A   1      44.424  25.783  25.879  1.00  0.00     0.029 A 
ATOM     47  C   UNL A   1      44.644  27.068  26.535  1.00  0.00     0.049 A 
ATOM     48  H   UNL A   1      43.335  28.079  27.804  1.00  0.00     0.167 HD
ATOM     49  C   UNL A   1      40.397  30.152  30.343  1.00  0.00     0.034 A 
ATOM     50  C   UNL A   1      45.754  27.823  26.420  1.00  0.00     0.034 A 
ATOM     51  C   UNL A   1      41.580  30.978  30.357  1.00  0.00     0.049 A 
ATOM     52  C   UNL A   1      45.821  29.132  27.169  1.00  0.00     0.074 A 
ATOM     53  C   UNL A   1      41.804  32.147  31.064  1.00  0.00     0.029 A 
ATOM     54  N   UNL A   1      42.734  30.731  29.624  1.00  0.00    -0.354 N 
ATOM     55  N   UNL A   1      44.920  29.686  27.947  1.00  0.00    -0.248 NA
ATOM     56  C   UNL A   1      47.058  29.910  27.032  1.00  0.00     0.031 C 
ATOM     57  C   UNL A   1      43.058  32.647  30.697  1.00  0.00     0.029 A 
ATOM     58  C   UNL A   1      43.658  31.745  29.832  1.00  0.00     0.049 A 
ATOM     59  H   UNL A   1      42.876  29.951  29.042  1.00  0.00     0.167 HD
ATOM     60  C   UNL A   1      45.498  30.861  28.419  1.00  0.00     0.074 A 
ATOM     61  C   UNL A   1      46.829  30.925  27.851  1.00  0.00     0.031 C 
ATOM     62  C   UNL A   1      44.979  31.802  29.250  1.00  0.00     0.034 A 
BRANCH  49  63
ATOM     63  C   UNL A   1      39.179  30.604  31.114  1.00  0.00     0.023 A 
ATOM     64  C   UNL A   1      38.279  31.547  30.587  1.00  0.00     0.031 A 
ATOM     65  C   UNL A   1      38.926  30.104  32.403  1.00  0.00     0.131 A 
ATOM     66  C   UNL A   1      37.218  32.020  31.374  1.00  0.00     0.055 A 
ATOM     67  C   UNL A   1      37.816  30.513  33.147  1.00  0.00     0.041 A 
ATOM     68  F   UNL A   1      39.761  29.220  32.971  1.00  0.00    -0.206 F 
ATOM     69  C   UNL A   1      36.963  31.487  32.639  1.00  0.00     0.022 A 
BRANCH  66  70
ATOM     70  S   UNL A   1      36.269  33.448  30.782  1.00  0.00     0.124 S 
ATOM     71  O   UNL A   1      34.897  33.010  31.026  1.00  0.00    -0.237 OA
ATOM     72  O   UNL A   1      36.757  34.527  31.634  1.00  0.00    -0.237 OA
ATOM     73  O   UNL A   1      36.641  33.546  29.372  1.00  0.00    -0.744 OA
ENDBRANCH  66  70
ENDBRANCH  49  63
BRANCH  50  74
ATOM     74  C   UNL A   1      46.889  27.379  25.558  1.00  0.00     0.023 A 
ATOM     75  C   UNL A   1      47.045  27.875  24.254  1.00  0.00     0.031 A 
ATOM     76  C   UNL A   1      47.808  26.414  26.009  1.00  0.00     0.131 A 
ATOM     77  C   UNL A   1      48.061  27.367  23.428  1.00  0.00     0.055 A 
ATOM     78  C   UNL A   1      48.854  25.957  25.205  1.00  0.00     0.041 A 
ATOM     79  F   UNL A   1      47.707  25.906  27.247  1.00  0.00    -0.206 F 
ATOM     80  C   UNL A   1      48.975  26.424  23.900  1.00  0.00     0.022 A 
BRANCH  77  81
ATOM     81  S   UNL A   1      48.105  27.883  21.690  1.00  0.00     0.124 S 
ATOM     82  O   UNL A   1      48.274  26.607  21.005  1.00  0.00    -0.237 OA
ATOM     83  O   UNL A   1      46.806  28.530  21.533  1.00  0.00    -0.237 OA
ATOM     84  O   UNL A   1      49.257  28.781  21.632  1.00  0.00    -0.744 OA
ENDBRANCH  77  81
ENDBRANCH  50  74
BRANCH  62  85
ATOM     85  C   UNL A   1      45.875  32.956  29.631  1.00  0.00     0.023 A 
ATOM     86  C   UNL A   1      45.906  34.149  28.889  1.00  0.00     0.031 A 
ATOM     87  C   UNL A   1      46.719  32.853  30.752  1.00  0.00     0.131 A 
ATOM     88  C   UNL A   1      46.805  35.168  29.240  1.00  0.00     0.055 A 
ATOM     89  C   UNL A   1      47.561  33.897  31.138  1.00  0.00     0.041 A 
ATOM     90  F   UNL A   1      46.735  31.736  31.495  1.00  0.00    -0.206 F 
ATOM     91  C   UNL A   1      47.618  35.057  30.371  1.00  0.00     0.022 A 
BRANCH  88  92
ATOM     92  S   UNL A   1      46.974  36.599  28.138  1.00  0.00     0.124 S 
ATOM     93  O   UNL A   1      45.581  36.916  27.840  1.00  0.00    -0.237 OA
ATOM     94  O   UNL A   1      47.681  37.558  28.978  1.00  0.00    -0.237 OA
ATOM     95  O   UNL A   1      47.745  36.075  27.011  1.00  0.00    -0.744 OA
ENDBRANCH  88  92
ENDBRANCH  62  85
ENDBRANCH  36  37
ENDBRANCH  28  31
ENDBRANCH  26  27
ENDBRANCH   1  26
TORSDOF 16
ENDMDL
