MODEL 1
REMARK VINA RESULT:     -12.9      0.000      0.000
REMARK SMILES COc1ccccc1C(=O)N1[C@@H](C(=O)NCCCCNC(=O)c2ccc(-c3c4nc(c(-c5cc(S(=O)(=O)[O-])ccc5F)c5ccc([nH]5)c(-c5cc(S(=O)(=O)[O-])ccc5F)c5nc(c(-c6cc(S(=O)(=O)[O-])ccc6F)c6ccc3[nH]6)C=C5)C=C4)cc2)COC12CC[NH+](Cc1ccccc1)CC2
REMARK SMILES IDX 17 1 16 2 15 3 13 4 14 5 12 7 11 8 88 9 86 10 87 11 89 12
REMARK SMILES IDX 100 13 90 14 99 15 91 16 9 18 10 19 8 20 3 21 4 22 5 23 7 24
REMARK SMILES IDX 6 25 2 26 1 27 92 28 93 29 94 30 98 31 95 32 97 33 96 34
REMARK SMILES IDX 18 35 19 36 20 37 21 38 22 40 23 41 24 42 85 43 25 44 84 45
REMARK SMILES IDX 26 46 27 47 28 48 78 49 29 50 83 51 77 52 79 53 30 54 82 55
REMARK SMILES IDX 76 56 75 57 31 59 63 60 43 61 62 62 44 63 47 64 61 65 80 66
REMARK SMILES IDX 45 67 46 68 60 70 81 71 48 72 32 73 33 74 41 75 34 76 40 77
REMARK SMILES IDX 42 78 39 79 35 80 36 81 37 82 38 83 64 84 65 85 73 86 66 87
REMARK SMILES IDX 72 88 74 89 71 90 67 91 68 92 69 93 70 94 49 95 50 96 58 97
REMARK SMILES IDX 51 98 57 99 59 100 56 101 52 102 53 103 54 104 55 105
REMARK H PARENT 15 6 91 17 20 39 79 58 47 69
REMARK Flexibility Score: inf
ROOT
ATOM      1  C   UNL A   1      34.976  29.724  27.528  1.00  0.00     0.023 C 
ENDROOT
BRANCH   1   2
ATOM      2  C   UNL A   1      34.473  28.761  26.461  1.00  0.00     0.116 C 
BRANCH   2   3
ATOM      3  N   UNL A   1      33.174  28.184  26.723  1.00  0.00    -0.354 N 
ATOM      4  C   UNL A   1      32.664  26.979  26.321  1.00  0.00     0.245 C 
ATOM      5  O   UNL A   1      31.605  26.631  26.856  1.00  0.00    -0.273 OA
ATOM      6  H   UNL A   1      32.569  28.736  27.269  1.00  0.00     0.163 HD
BRANCH   4   7
ATOM      7  C   UNL A   1      33.355  26.049  25.293  1.00  0.00     0.203 C 
ATOM      8  N   UNL A   1      32.508  24.993  24.752  1.00  0.00    -0.295 N 
ATOM      9  C   UNL A   1      33.081  23.683  25.094  1.00  0.00     0.155 C 
ATOM     10  C   UNL A   1      34.568  25.324  25.807  1.00  0.00     0.198 C 
ATOM     11  O   UNL A   1      34.087  23.997  26.096  1.00  0.00    -0.352 OA
ATOM     12  C   UNL A   1      32.083  22.681  25.681  1.00  0.00     0.120 C 
ATOM     13  C   UNL A   1      33.860  23.007  23.955  1.00  0.00     0.120 C 
ATOM     14  C   UNL A   1      32.745  21.374  26.105  1.00  0.00     0.267 C 
ATOM     15  C   UNL A   1      34.498  21.694  24.450  1.00  0.00     0.267 C 
ATOM     16  N   UNL A   1      33.567  20.756  25.072  1.00  0.00    -0.331 N 
ATOM     17  H   UNL A   1      34.180  20.109  25.569  1.00  0.00     0.348 HD
BRANCH   8  18
ATOM     18  C   UNL A   1      31.804  25.268  23.585  1.00  0.00     0.260 C 
ATOM     19  O   UNL A   1      32.071  24.669  22.539  1.00  0.00    -0.269 OA
BRANCH  18  20
ATOM     20  C   UNL A   1      30.750  26.324  23.518  1.00  0.00     0.082 A 
ATOM     21  C   UNL A   1      30.911  27.578  22.920  1.00  0.00     0.131 A 
ATOM     22  C   UNL A   1      29.849  28.497  22.874  1.00  0.00     0.047 A 
ATOM     23  C   UNL A   1      28.579  28.125  23.308  1.00  0.00     0.004 A 
ATOM     24  C   UNL A   1      29.452  25.958  23.926  1.00  0.00     0.018 A 
ATOM     25  C   UNL A   1      28.373  26.843  23.806  1.00  0.00     0.001 A 
BRANCH  21  26
ATOM     26  O   UNL A   1      32.084  27.933  22.312  1.00  0.00    -0.496 OA
ATOM     27  C   UNL A   1      32.754  28.936  23.082  1.00  0.00     0.278 C 
ENDBRANCH  21  26
ENDBRANCH  18  20
ENDBRANCH   8  18
BRANCH  16  28
ATOM     28  C   UNL A   1      32.897  19.788  24.199  1.00  0.00     0.299 C 
BRANCH  28  29
ATOM     29  C   UNL A   1      33.139  18.322  24.479  1.00  0.00     0.006 A 
ATOM     30  C   UNL A   1      32.535  17.685  25.569  1.00  0.00     0.009 A 
ATOM     31  C   UNL A   1      33.954  17.563  23.621  1.00  0.00     0.009 A 
ATOM     32  C   UNL A   1      32.704  16.314  25.761  1.00  0.00     0.001 A 
ATOM     33  C   UNL A   1      34.079  16.185  23.787  1.00  0.00     0.001 A 
ATOM     34  C   UNL A   1      33.448  15.559  24.856  1.00  0.00     0.000 A 
ENDBRANCH  28  29
ENDBRANCH  16  28
ENDBRANCH   4   7
ENDBRANCH   2   3
ENDBRANCH   1   2
BRANCH   1  35
ATOM     35  C   UNL A   1      34.568  31.179  27.347  1.00  0.00     0.023 C 
BRANCH  35  36
ATOM     36  C   UNL A   1      33.131  31.515  27.734  1.00  0.00     0.116 C 
BRANCH  36  37
ATOM     37  N   UNL A   1      32.825  32.941  27.700  1.00  0.00    -0.352 N 
ATOM     38  C   UNL A   1      33.386  33.979  28.410  1.00  0.00     0.251 C 
ATOM     39  H   UNL A   1      32.110  33.200  27.074  1.00  0.00     0.163 HD
ATOM     40  O   UNL A   1      32.933  35.116  28.303  1.00  0.00    -0.269 OA
BRANCH  38  41
ATOM     41  C   UNL A   1      34.500  33.701  29.338  1.00  0.00     0.039 A 
ATOM     42  C   UNL A   1      34.284  32.846  30.420  1.00  0.00     0.014 A 
ATOM     43  C   UNL A   1      35.773  34.218  29.088  1.00  0.00     0.014 A 
ATOM     44  C   UNL A   1      35.371  32.409  31.179  1.00  0.00     0.010 A 
ATOM     45  C   UNL A   1      36.864  33.716  29.790  1.00  0.00     0.010 A 
ATOM     46  C   UNL A   1      36.678  32.789  30.827  1.00  0.00    -0.014 A 
BRANCH  46  47
ATOM     47  C   UNL A   1      37.866  32.200  31.501  1.00  0.00     0.031 A 
ATOM     48  C   UNL A   1      38.631  31.086  30.842  1.00  0.00     0.074 A 
ATOM     49  C   UNL A   1      38.194  32.602  32.746  1.00  0.00     0.049 A 
ATOM     50  N   UNL A   1      39.614  30.365  31.314  1.00  0.00    -0.248 NA
ATOM     51  C   UNL A   1      38.206  30.714  29.485  1.00  0.00     0.031 C 
ATOM     52  C   UNL A   1      37.497  33.637  33.515  1.00  0.00     0.029 A 
ATOM     53  N   UNL A   1      39.188  32.180  33.594  1.00  0.00    -0.354 N 
ATOM     54  C   UNL A   1      39.916  29.440  30.321  1.00  0.00     0.074 A 
ATOM     55  C   UNL A   1      38.967  29.656  29.248  1.00  0.00     0.031 C 
ATOM     56  C   UNL A   1      38.098  33.783  34.706  1.00  0.00     0.029 A 
ATOM     57  C   UNL A   1      39.192  32.824  34.810  1.00  0.00     0.049 A 
ATOM     58  H   UNL A   1      39.839  31.481  33.353  1.00  0.00     0.167 HD
ATOM     59  C   UNL A   1      40.907  28.515  30.294  1.00  0.00     0.034 A 
ATOM     60  C   UNL A   1      39.978  32.653  35.891  1.00  0.00     0.034 A 
ATOM     61  C   UNL A   1      41.857  28.325  31.363  1.00  0.00     0.049 A 
ATOM     62  C   UNL A   1      41.064  31.608  35.845  1.00  0.00     0.074 A 
ATOM     63  C   UNL A   1      42.937  27.461  31.413  1.00  0.00     0.029 A 
ATOM     64  N   UNL A   1      41.837  29.004  32.574  1.00  0.00    -0.354 N 
ATOM     65  N   UNL A   1      41.368  30.776  34.877  1.00  0.00    -0.248 NA
ATOM     66  C   UNL A   1      41.917  31.487  37.034  1.00  0.00     0.031 C 
ATOM     67  C   UNL A   1      43.534  27.576  32.674  1.00  0.00     0.029 A 
ATOM     68  C   UNL A   1      42.868  28.560  33.388  1.00  0.00     0.049 A 
ATOM     69  H   UNL A   1      41.185  29.700  32.819  1.00  0.00     0.167 HD
ATOM     70  C   UNL A   1      42.465  30.051  35.331  1.00  0.00     0.074 A 
ATOM     71  C   UNL A   1      42.776  30.552  36.654  1.00  0.00     0.031 C 
ATOM     72  C   UNL A   1      43.156  29.062  34.711  1.00  0.00     0.034 A 
BRANCH  59  73
ATOM     73  C   UNL A   1      40.991  27.629  29.074  1.00  0.00     0.023 A 
ATOM     74  C   UNL A   1      41.997  27.802  28.108  1.00  0.00     0.031 A 
ATOM     75  C   UNL A   1      40.033  26.625  28.853  1.00  0.00     0.131 A 
ATOM     76  C   UNL A   1      41.973  27.044  26.928  1.00  0.00     0.055 A 
ATOM     77  C   UNL A   1      40.064  25.816  27.715  1.00  0.00     0.041 A 
ATOM     78  F   UNL A   1      39.037  26.424  29.731  1.00  0.00    -0.206 F 
ATOM     79  C   UNL A   1      41.028  26.035  26.736  1.00  0.00     0.022 A 
BRANCH  76  80
ATOM     80  S   UNL A   1      43.102  27.503  25.584  1.00  0.00     0.124 S 
ATOM     81  O   UNL A   1      42.210  28.235  24.687  1.00  0.00    -0.237 OA
ATOM     82  O   UNL A   1      44.108  28.301  26.276  1.00  0.00    -0.237 OA
ATOM     83  O   UNL A   1      43.568  26.216  25.074  1.00  0.00    -0.744 OA
ENDBRANCH  76  80
ENDBRANCH  59  73
BRANCH  60  84
ATOM     84  C   UNL A   1      39.768  33.474  37.117  1.00  0.00     0.023 A 
ATOM     85  C   UNL A   1      39.154  32.927  38.254  1.00  0.00     0.031 A 
ATOM     86  C   UNL A   1      40.139  34.830  37.153  1.00  0.00     0.131 A 
ATOM     87  C   UNL A   1      38.891  33.741  39.367  1.00  0.00     0.055 A 
ATOM     88  C   UNL A   1      39.917  35.624  38.280  1.00  0.00     0.041 A 
ATOM     89  F   UNL A   1      40.735  35.400  36.094  1.00  0.00    -0.206 F 
ATOM     90  C   UNL A   1      39.278  35.083  39.392  1.00  0.00     0.022 A 
BRANCH  87  91
ATOM     91  S   UNL A   1      37.964  33.036  40.758  1.00  0.00     0.124 S 
ATOM     92  O   UNL A   1      38.477  31.672  40.797  1.00  0.00    -0.237 OA
ATOM     93  O   UNL A   1      38.366  33.906  41.859  1.00  0.00    -0.237 OA
ATOM     94  O   UNL A   1      36.571  33.169  40.339  1.00  0.00    -0.744 OA
ENDBRANCH  87  91
ENDBRANCH  60  84
BRANCH  72  95
ATOM     95  C   UNL A   1      44.342  28.493  35.446  1.00  0.00     0.023 A 
ATOM     96  C   UNL A   1      44.190  27.538  36.467  1.00  0.00     0.031 A 
ATOM     97  C   UNL A   1      45.643  28.920  35.125  1.00  0.00     0.131 A 
ATOM     98  C   UNL A   1      45.316  27.079  37.166  1.00  0.00     0.055 A 
ATOM     99  C   UNL A   1      46.765  28.419  35.788  1.00  0.00     0.041 A 
ATOM    100  F   UNL A   1      45.844  29.830  34.160  1.00  0.00    -0.206 F 
ATOM    101  C   UNL A   1      46.604  27.501  36.822  1.00  0.00     0.022 A 
BRANCH  98 102
ATOM    102  S   UNL A   1      45.072  25.973  38.583  1.00  0.00     0.124 S 
ATOM    103  O   UNL A   1      46.323  26.137  39.315  1.00  0.00    -0.237 OA
ATOM    104  O   UNL A   1      43.883  26.533  39.216  1.00  0.00    -0.237 OA
ATOM    105  O   UNL A   1      44.883  24.660  37.966  1.00  0.00    -0.744 OA
ENDBRANCH  98 102
ENDBRANCH  72  95
ENDBRANCH  46  47
ENDBRANCH  38  41
ENDBRANCH  36  37
ENDBRANCH  35  36
ENDBRANCH   1  35
TORSDOF 19
ENDMDL
MODEL 2
REMARK VINA RESULT:     -12.5      1.087      7.396
REMARK SMILES COc1ccccc1C(=O)N1[C@@H](C(=O)NCCCCNC(=O)c2ccc(-c3c4nc(c(-c5cc(S(=O)(=O)[O-])ccc5F)c5ccc([nH]5)c(-c5cc(S(=O)(=O)[O-])ccc5F)c5nc(c(-c6cc(S(=O)(=O)[O-])ccc6F)c6ccc3[nH]6)C=C5)C=C4)cc2)COC12CC[NH+](Cc1ccccc1)CC2
REMARK SMILES IDX 17 1 16 2 15 3 13 4 14 5 12 7 11 8 88 9 86 10 87 11 89 12
REMARK SMILES IDX 100 13 90 14 99 15 91 16 9 18 10 19 8 20 3 21 4 22 5 23 7 24
REMARK SMILES IDX 6 25 2 26 1 27 92 28 93 29 94 30 98 31 95 32 97 33 96 34
REMARK SMILES IDX 18 35 19 36 20 37 21 38 22 40 23 41 24 42 85 43 25 44 84 45
REMARK SMILES IDX 26 46 27 47 28 48 78 49 29 50 83 51 77 52 79 53 30 54 82 55
REMARK SMILES IDX 76 56 75 57 31 59 63 60 43 61 62 62 44 63 47 64 61 65 80 66
REMARK SMILES IDX 45 67 46 68 60 70 81 71 48 72 32 73 33 74 41 75 34 76 40 77
REMARK SMILES IDX 42 78 39 79 35 80 36 81 37 82 38 83 64 84 65 85 73 86 66 87
REMARK SMILES IDX 72 88 74 89 71 90 67 91 68 92 69 93 70 94 49 95 50 96 58 97
REMARK SMILES IDX 51 98 57 99 59 100 56 101 52 102 53 103 54 104 55 105
REMARK H PARENT 15 6 91 17 20 39 79 58 47 69
REMARK Flexibility Score: inf
ROOT
ATOM      1  C   UNL A   1      34.316  30.039  27.623  1.00  0.00     0.023 C 
ENDROOT
BRANCH   1   2
ATOM      2  C   UNL A   1      33.883  28.905  26.704  1.00  0.00     0.116 C 
BRANCH   2   3
ATOM      3  N   UNL A   1      32.625  28.284  27.053  1.00  0.00    -0.354 N 
ATOM      4  C   UNL A   1      32.085  27.110  26.603  1.00  0.00     0.245 C 
ATOM      5  O   UNL A   1      31.093  26.697  27.217  1.00  0.00    -0.273 OA
ATOM      6  H   UNL A   1      32.079  28.775  27.708  1.00  0.00     0.163 HD
BRANCH   4   7
ATOM      7  C   UNL A   1      32.667  26.285  25.428  1.00  0.00     0.203 C 
ATOM      8  N   UNL A   1      31.822  25.192  24.966  1.00  0.00    -0.295 N 
ATOM      9  C   UNL A   1      32.533  23.916  25.139  1.00  0.00     0.155 C 
ATOM     10  C   UNL A   1      33.994  25.635  25.706  1.00  0.00     0.198 C 
ATOM     11  O   UNL A   1      33.660  24.263  25.989  1.00  0.00    -0.352 OA
ATOM     12  C   UNL A   1      31.713  22.813  25.814  1.00  0.00     0.120 C 
ATOM     13  C   UNL A   1      33.166  23.357  23.855  1.00  0.00     0.120 C 
ATOM     14  C   UNL A   1      32.525  21.544  26.055  1.00  0.00     0.267 C 
ATOM     15  C   UNL A   1      33.966  22.077  24.169  1.00  0.00     0.267 C 
ATOM     16  N   UNL A   1      33.214  21.041  24.873  1.00  0.00    -0.331 N 
ATOM     17  H   UNL A   1      33.942  20.422  25.230  1.00  0.00     0.348 HD
BRANCH   8  18
ATOM     18  C   UNL A   1      30.923  25.463  23.939  1.00  0.00     0.260 C 
ATOM     19  O   UNL A   1      30.277  24.550  23.417  1.00  0.00    -0.269 OA
BRANCH  18  20
ATOM     20  C   UNL A   1      30.740  26.837  23.382  1.00  0.00     0.082 A 
ATOM     21  C   UNL A   1      31.620  27.464  22.494  1.00  0.00     0.131 A 
ATOM     22  C   UNL A   1      31.347  28.747  21.993  1.00  0.00     0.047 A 
ATOM     23  C   UNL A   1      30.130  29.366  22.270  1.00  0.00     0.004 A 
ATOM     24  C   UNL A   1      29.504  27.467  23.628  1.00  0.00     0.018 A 
ATOM     25  C   UNL A   1      29.194  28.711  23.064  1.00  0.00     0.001 A 
BRANCH  21  26
ATOM     26  O   UNL A   1      32.745  26.832  22.039  1.00  0.00    -0.496 OA
ATOM     27  C   UNL A   1      32.421  25.990  20.927  1.00  0.00     0.278 C 
ENDBRANCH  21  26
ENDBRANCH  18  20
ENDBRANCH   8  18
BRANCH  16  28
ATOM     28  C   UNL A   1      32.484  20.064  24.060  1.00  0.00     0.299 C 
BRANCH  28  29
ATOM     29  C   UNL A   1      32.835  18.606  24.251  1.00  0.00     0.006 A 
ATOM     30  C   UNL A   1      33.565  17.906  23.284  1.00  0.00     0.009 A 
ATOM     31  C   UNL A   1      32.462  17.937  25.429  1.00  0.00     0.009 A 
ATOM     32  C   UNL A   1      33.952  16.586  23.517  1.00  0.00     0.001 A 
ATOM     33  C   UNL A   1      32.893  16.636  25.681  1.00  0.00     0.001 A 
ATOM     34  C   UNL A   1      33.644  15.962  24.725  1.00  0.00     0.000 A 
ENDBRANCH  28  29
ENDBRANCH  16  28
ENDBRANCH   4   7
ENDBRANCH   2   3
ENDBRANCH   1   2
BRANCH   1  35
ATOM     35  C   UNL A   1      33.414  31.266  27.624  1.00  0.00     0.023 C 
BRANCH  35  36
ATOM     36  C   UNL A   1      34.131  32.612  27.592  1.00  0.00     0.116 C 
BRANCH  36  37
ATOM     37  N   UNL A   1      33.428  33.676  28.301  1.00  0.00    -0.352 N 
ATOM     38  C   UNL A   1      33.661  34.204  29.551  1.00  0.00     0.251 C 
ATOM     39  H   UNL A   1      32.674  34.078  27.811  1.00  0.00     0.163 HD
ATOM     40  O   UNL A   1      32.901  35.051  30.015  1.00  0.00    -0.269 OA
BRANCH  38  41
ATOM     41  C   UNL A   1      34.800  33.705  30.347  1.00  0.00     0.039 A 
ATOM     42  C   UNL A   1      34.586  32.670  31.260  1.00  0.00     0.014 A 
ATOM     43  C   UNL A   1      36.086  34.200  30.127  1.00  0.00     0.014 A 
ATOM     44  C   UNL A   1      35.682  32.048  31.862  1.00  0.00     0.010 A 
ATOM     45  C   UNL A   1      37.179  33.525  30.660  1.00  0.00     0.010 A 
ATOM     46  C   UNL A   1      36.990  32.427  31.515  1.00  0.00    -0.014 A 
BRANCH  46  47
ATOM     47  C   UNL A   1      38.173  31.667  31.998  1.00  0.00     0.031 A 
ATOM     48  C   UNL A   1      38.836  32.048  33.293  1.00  0.00     0.074 A 
ATOM     49  C   UNL A   1      38.707  30.700  31.225  1.00  0.00     0.049 A 
ATOM     50  N   UNL A   1      39.940  31.591  33.824  1.00  0.00    -0.248 NA
ATOM     51  C   UNL A   1      38.186  33.111  34.073  1.00  0.00     0.031 C 
ATOM     52  C   UNL A   1      38.188  30.273  29.922  1.00  0.00     0.029 A 
ATOM     53  N   UNL A   1      39.813  29.908  31.411  1.00  0.00    -0.354 N 
ATOM     54  C   UNL A   1      40.129  32.321  34.993  1.00  0.00     0.074 A 
ATOM     55  C   UNL A   1      39.056  33.293  35.055  1.00  0.00     0.031 C 
ATOM     56  C   UNL A   1      38.960  29.286  29.441  1.00  0.00     0.029 A 
ATOM     57  C   UNL A   1      40.055  29.038  30.373  1.00  0.00     0.049 A 
ATOM     58  H   UNL A   1      40.381  29.958  32.214  1.00  0.00     0.167 HD
ATOM     59  C   UNL A   1      41.091  32.178  35.938  1.00  0.00     0.034 A 
ATOM     60  C   UNL A   1      41.052  28.151  30.185  1.00  0.00     0.034 A 
ATOM     61  C   UNL A   1      42.142  31.193  35.870  1.00  0.00     0.049 A 
ATOM     62  C   UNL A   1      42.119  28.020  31.241  1.00  0.00     0.074 A 
ATOM     63  C   UNL A   1      43.129  30.920  36.802  1.00  0.00     0.029 A 
ATOM     64  N   UNL A   1      42.347  30.320  34.809  1.00  0.00    -0.354 N 
ATOM     65  N   UNL A   1      42.254  28.684  32.365  1.00  0.00    -0.248 NA
ATOM     66  C   UNL A   1      43.162  27.013  31.007  1.00  0.00     0.031 C 
ATOM     67  C   UNL A   1      43.964  29.925  36.279  1.00  0.00     0.029 A 
ATOM     68  C   UNL A   1      43.460  29.529  35.050  1.00  0.00     0.049 A 
ATOM     69  H   UNL A   1      41.784  30.271  34.003  1.00  0.00     0.167 HD
ATOM     70  C   UNL A   1      43.383  28.156  32.984  1.00  0.00     0.074 A 
ATOM     71  C   UNL A   1      43.883  27.111  32.114  1.00  0.00     0.031 C 
ATOM     72  C   UNL A   1      43.953  28.500  34.165  1.00  0.00     0.034 A 
BRANCH  59  73
ATOM     73  C   UNL A   1      41.053  33.130  37.110  1.00  0.00     0.023 A 
ATOM     74  C   UNL A   1      40.409  32.790  38.312  1.00  0.00     0.031 A 
ATOM     75  C   UNL A   1      41.634  34.406  37.012  1.00  0.00     0.131 A 
ATOM     76  C   UNL A   1      40.286  33.743  39.334  1.00  0.00     0.055 A 
ATOM     77  C   UNL A   1      41.581  35.321  38.066  1.00  0.00     0.041 A 
ATOM     78  F   UNL A   1      42.246  34.795  35.882  1.00  0.00    -0.206 F 
ATOM     79  C   UNL A   1      40.890  34.997  39.229  1.00  0.00     0.022 A 
BRANCH  76  80
ATOM     80  S   UNL A   1      39.196  33.370  40.735  1.00  0.00     0.124 S 
ATOM     81  O   UNL A   1      38.831  31.981  40.462  1.00  0.00    -0.237 OA
ATOM     82  O   UNL A   1      40.071  33.587  41.881  1.00  0.00    -0.237 OA
ATOM     83  O   UNL A   1      38.107  34.333  40.588  1.00  0.00    -0.744 OA
ENDBRANCH  76  80
ENDBRANCH  59  73
BRANCH  60  84
ATOM     84  C   UNL A   1      41.105  27.324  28.946  1.00  0.00     0.023 A 
ATOM     85  C   UNL A   1      42.072  27.567  27.959  1.00  0.00     0.031 A 
ATOM     86  C   UNL A   1      40.163  26.307  28.713  1.00  0.00     0.131 A 
ATOM     87  C   UNL A   1      42.052  26.831  26.764  1.00  0.00     0.055 A 
ATOM     88  C   UNL A   1      40.175  25.545  27.543  1.00  0.00     0.041 A 
ATOM     89  F   UNL A   1      39.221  26.030  29.629  1.00  0.00    -0.206 F 
ATOM     90  C   UNL A   1      41.117  25.815  26.554  1.00  0.00     0.022 A 
BRANCH  87  91
ATOM     91  S   UNL A   1      43.224  27.273  25.451  1.00  0.00     0.124 S 
ATOM     92  O   UNL A   1      43.621  25.962  24.952  1.00  0.00    -0.237 OA
ATOM     93  O   UNL A   1      42.390  28.075  24.561  1.00  0.00    -0.237 OA
ATOM     94  O   UNL A   1      44.265  28.014  26.162  1.00  0.00    -0.744 OA
ENDBRANCH  87  91
ENDBRANCH  60  84
BRANCH  72  95
ATOM     95  C   UNL A   1      45.158  27.704  34.599  1.00  0.00     0.023 A 
ATOM     96  C   UNL A   1      45.031  26.514  35.336  1.00  0.00     0.031 A 
ATOM     97  C   UNL A   1      46.452  28.152  34.278  1.00  0.00     0.131 A 
ATOM     98  C   UNL A   1      46.180  25.836  35.770  1.00  0.00     0.055 A 
ATOM     99  C   UNL A   1      47.591  27.445  34.666  1.00  0.00     0.041 A 
ATOM    100  F   UNL A   1      46.629  29.283  33.577  1.00  0.00    -0.206 F 
ATOM    101  C   UNL A   1      47.459  26.286  35.426  1.00  0.00     0.022 A 
BRANCH  98 102
ATOM    102  S   UNL A   1      45.986  24.395  36.854  1.00  0.00     0.124 S 
ATOM    103  O   UNL A   1      46.101  24.996  38.179  1.00  0.00    -0.237 OA
ATOM    104  O   UNL A   1      44.662  23.904  36.489  1.00  0.00    -0.237 OA
ATOM    105  O   UNL A   1      47.096  23.524  36.470  1.00  0.00    -0.744 OA
ENDBRANCH  98 102
ENDBRANCH  72  95
ENDBRANCH  46  47
ENDBRANCH  38  41
ENDBRANCH  36  37
ENDBRANCH  35  36
ENDBRANCH   1  35
TORSDOF 19
ENDMDL
MODEL 3
REMARK VINA RESULT:     -12.1      6.204     12.413
REMARK SMILES COc1ccccc1C(=O)N1[C@@H](C(=O)NCCCCNC(=O)c2ccc(-c3c4nc(c(-c5cc(S(=O)(=O)[O-])ccc5F)c5ccc([nH]5)c(-c5cc(S(=O)(=O)[O-])ccc5F)c5nc(c(-c6cc(S(=O)(=O)[O-])ccc6F)c6ccc3[nH]6)C=C5)C=C4)cc2)COC12CC[NH+](Cc1ccccc1)CC2
REMARK SMILES IDX 17 1 16 2 15 3 13 4 14 5 12 7 11 8 88 9 86 10 87 11 89 12
REMARK SMILES IDX 100 13 90 14 99 15 91 16 9 18 10 19 8 20 3 21 4 22 5 23 7 24
REMARK SMILES IDX 6 25 2 26 1 27 92 28 93 29 94 30 98 31 95 32 97 33 96 34
REMARK SMILES IDX 18 35 19 36 20 37 21 38 22 40 23 41 24 42 85 43 25 44 84 45
REMARK SMILES IDX 26 46 27 47 28 48 78 49 29 50 83 51 77 52 79 53 30 54 82 55
REMARK SMILES IDX 76 56 75 57 31 59 63 60 43 61 62 62 44 63 47 64 61 65 80 66
REMARK SMILES IDX 45 67 46 68 60 70 81 71 48 72 32 73 33 74 41 75 34 76 40 77
REMARK SMILES IDX 42 78 39 79 35 80 36 81 37 82 38 83 64 84 65 85 73 86 66 87
REMARK SMILES IDX 72 88 74 89 71 90 67 91 68 92 69 93 70 94 49 95 50 96 58 97
REMARK SMILES IDX 51 98 57 99 59 100 56 101 52 102 53 103 54 104 55 105
REMARK H PARENT 15 6 91 17 20 39 79 58 47 69
REMARK Flexibility Score: inf
ROOT
ATOM      1  C   UNL A   1      50.226  28.136  25.768  1.00  0.00     0.023 C 
ENDROOT
BRANCH   1   2
ATOM      2  C   UNL A   1      49.340  26.933  25.474  1.00  0.00     0.116 C 
BRANCH   2   3
ATOM      3  N   UNL A   1      48.305  27.163  24.492  1.00  0.00    -0.354 N 
ATOM      4  C   UNL A   1      47.048  27.676  24.663  1.00  0.00     0.245 C 
ATOM      5  O   UNL A   1      46.434  27.968  23.630  1.00  0.00    -0.273 OA
ATOM      6  H   UNL A   1      48.536  26.917  23.567  1.00  0.00     0.163 HD
BRANCH   4   7
ATOM      7  C   UNL A   1      46.402  27.936  26.047  1.00  0.00     0.203 C 
ATOM      8  N   UNL A   1      45.161  27.212  26.294  1.00  0.00    -0.295 N 
ATOM      9  C   UNL A   1      44.070  28.172  26.517  1.00  0.00     0.155 C 
ATOM     10  C   UNL A   1      46.054  29.372  26.325  1.00  0.00     0.198 C 
ATOM     11  O   UNL A   1      44.635  29.441  26.087  1.00  0.00    -0.352 OA
ATOM     12  C   UNL A   1      42.796  27.890  25.714  1.00  0.00     0.120 C 
ATOM     13  C   UNL A   1      43.698  28.386  27.992  1.00  0.00     0.120 C 
ATOM     14  C   UNL A   1      41.732  28.965  25.910  1.00  0.00     0.267 C 
ATOM     15  C   UNL A   1      42.618  29.480  28.116  1.00  0.00     0.267 C 
ATOM     16  N   UNL A   1      41.424  29.256  27.305  1.00  0.00    -0.331 N 
ATOM     17  H   UNL A   1      40.971  30.171  27.293  1.00  0.00     0.348 HD
BRANCH   8  18
ATOM     18  C   UNL A   1      45.255  25.965  26.903  1.00  0.00     0.260 C 
ATOM     19  O   UNL A   1      46.046  25.781  27.833  1.00  0.00    -0.269 OA
BRANCH  18  20
ATOM     20  C   UNL A   1      44.464  24.787  26.434  1.00  0.00     0.082 A 
ATOM     21  C   UNL A   1      43.421  24.188  27.148  1.00  0.00     0.131 A 
ATOM     22  C   UNL A   1      42.709  23.103  26.611  1.00  0.00     0.047 A 
ATOM     23  C   UNL A   1      42.943  22.688  25.302  1.00  0.00     0.004 A 
ATOM     24  C   UNL A   1      44.667  24.370  25.104  1.00  0.00     0.018 A 
ATOM     25  C   UNL A   1      43.903  23.343  24.537  1.00  0.00     0.001 A 
BRANCH  21  26
ATOM     26  O   UNL A   1      43.021  24.670  28.365  1.00  0.00    -0.496 OA
ATOM     27  C   UNL A   1      41.665  25.120  28.294  1.00  0.00     0.278 C 
ENDBRANCH  21  26
ENDBRANCH  18  20
ENDBRANCH   8  18
BRANCH  16  28
ATOM     28  C   UNL A   1      40.331  28.485  27.905  1.00  0.00     0.299 C 
BRANCH  28  29
ATOM     29  C   UNL A   1      39.173  29.265  28.485  1.00  0.00     0.006 A 
ATOM     30  C   UNL A   1      37.868  28.762  28.441  1.00  0.00     0.009 A 
ATOM     31  C   UNL A   1      39.398  30.501  29.116  1.00  0.00     0.009 A 
ATOM     32  C   UNL A   1      36.827  29.457  29.056  1.00  0.00     0.001 A 
ATOM     33  C   UNL A   1      38.366  31.168  29.773  1.00  0.00     0.001 A 
ATOM     34  C   UNL A   1      37.079  30.641  29.748  1.00  0.00     0.000 A 
ENDBRANCH  28  29
ENDBRANCH  16  28
ENDBRANCH   4   7
ENDBRANCH   2   3
ENDBRANCH   1   2
BRANCH   1  35
ATOM     35  C   UNL A   1      51.724  27.900  25.634  1.00  0.00     0.023 C 
BRANCH  35  36
ATOM     36  C   UNL A   1      52.594  28.566  26.695  1.00  0.00     0.116 C 
BRANCH  36  37
ATOM     37  N   UNL A   1      53.527  27.657  27.354  1.00  0.00    -0.352 N 
ATOM     38  C   UNL A   1      53.392  26.962  28.534  1.00  0.00     0.251 C 
ATOM     39  H   UNL A   1      54.381  27.521  26.883  1.00  0.00     0.163 HD
ATOM     40  O   UNL A   1      54.331  26.302  28.973  1.00  0.00    -0.269 OA
BRANCH  38  41
ATOM     41  C   UNL A   1      52.128  27.060  29.291  1.00  0.00     0.039 A 
ATOM     42  C   UNL A   1      52.043  27.961  30.355  1.00  0.00     0.014 A 
ATOM     43  C   UNL A   1      51.008  26.326  28.895  1.00  0.00     0.014 A 
ATOM     44  C   UNL A   1      50.802  28.216  30.942  1.00  0.00     0.010 A 
ATOM     45  C   UNL A   1      49.761  26.645  29.422  1.00  0.00     0.010 A 
ATOM     46  C   UNL A   1      49.641  27.610  30.435  1.00  0.00    -0.014 A 
BRANCH  46  47
ATOM     47  C   UNL A   1      48.289  27.997  30.917  1.00  0.00     0.031 A 
ATOM     48  C   UNL A   1      47.524  27.081  31.831  1.00  0.00     0.074 A 
ATOM     49  C   UNL A   1      47.713  29.125  30.454  1.00  0.00     0.049 A 
ATOM     50  N   UNL A   1      46.293  27.181  32.264  1.00  0.00    -0.248 NA
ATOM     51  C   UNL A   1      48.229  25.875  32.290  1.00  0.00     0.031 C 
ATOM     52  C   UNL A   1      48.331  30.070  29.519  1.00  0.00     0.029 A 
ATOM     53  N   UNL A   1      46.472  29.663  30.690  1.00  0.00    -0.354 N 
ATOM     54  C   UNL A   1      46.068  26.043  33.031  1.00  0.00     0.074 A 
ATOM     55  C   UNL A   1      47.272  25.240  32.949  1.00  0.00     0.031 C 
ATOM     56  C   UNL A   1      47.477  31.079  29.283  1.00  0.00     0.029 A 
ATOM     57  C   UNL A   1      46.235  30.834  30.007  1.00  0.00     0.049 A 
ATOM     58  H   UNL A   1      45.813  29.250  31.294  1.00  0.00     0.167 HD
ATOM     59  C   UNL A   1      44.972  25.710  33.756  1.00  0.00     0.034 A 
ATOM     60  C   UNL A   1      45.138  31.615  29.959  1.00  0.00     0.034 A 
ATOM     61  C   UNL A   1      43.788  26.530  33.842  1.00  0.00     0.049 A 
ATOM     62  C   UNL A   1      43.925  31.219  30.761  1.00  0.00     0.074 A 
ATOM     63  C   UNL A   1      42.646  26.319  34.596  1.00  0.00     0.029 A 
ATOM     64  N   UNL A   1      43.589  27.715  33.146  1.00  0.00    -0.354 N 
ATOM     65  N   UNL A   1      43.747  30.164  31.521  1.00  0.00    -0.248 NA
ATOM     66  C   UNL A   1      42.768  32.122  30.704  1.00  0.00     0.031 C 
ATOM     67  C   UNL A   1      41.736  27.344  34.312  1.00  0.00     0.029 A 
ATOM     68  C   UNL A   1      42.334  28.232  33.432  1.00  0.00     0.049 A 
ATOM     69  H   UNL A   1      44.244  28.129  32.539  1.00  0.00     0.167 HD
ATOM     70  C   UNL A   1      42.468  30.292  32.054  1.00  0.00     0.074 A 
ATOM     71  C   UNL A   1      41.925  31.532  31.537  1.00  0.00     0.031 C 
ATOM     72  C   UNL A   1      41.803  29.464  32.897  1.00  0.00     0.034 A 
BRANCH  59  73
ATOM     73  C   UNL A   1      45.004  24.392  34.491  1.00  0.00     0.023 A 
ATOM     74  C   UNL A   1      45.481  24.298  35.810  1.00  0.00     0.031 A 
ATOM     75  C   UNL A   1      44.592  23.209  33.855  1.00  0.00     0.131 A 
ATOM     76  C   UNL A   1      45.613  23.041  36.419  1.00  0.00     0.055 A 
ATOM     77  C   UNL A   1      44.647  21.970  34.497  1.00  0.00     0.041 A 
ATOM     78  F   UNL A   1      44.146  23.232  32.588  1.00  0.00    -0.206 F 
ATOM     79  C   UNL A   1      45.176  21.879  35.781  1.00  0.00     0.022 A 
BRANCH  76  80
ATOM     80  S   UNL A   1      46.505  22.935  37.995  1.00  0.00     0.124 S 
ATOM     81  O   UNL A   1      47.780  22.360  37.573  1.00  0.00    -0.237 OA
ATOM     82  O   UNL A   1      46.544  24.327  38.429  1.00  0.00    -0.237 OA
ATOM     83  O   UNL A   1      45.668  22.052  38.804  1.00  0.00    -0.744 OA
ENDBRANCH  76  80
ENDBRANCH  59  73
BRANCH  60  84
ATOM     84  C   UNL A   1      45.120  32.844  29.115  1.00  0.00     0.023 A 
ATOM     85  C   UNL A   1      44.609  32.813  27.808  1.00  0.00     0.031 A 
ATOM     86  C   UNL A   1      45.653  34.055  29.588  1.00  0.00     0.131 A 
ATOM     87  C   UNL A   1      44.679  33.960  27.003  1.00  0.00     0.055 A 
ATOM     88  C   UNL A   1      45.678  35.207  28.799  1.00  0.00     0.041 A 
ATOM     89  F   UNL A   1      46.148  34.140  30.833  1.00  0.00    -0.206 F 
ATOM     90  C   UNL A   1      45.200  35.160  27.492  1.00  0.00     0.022 A 
BRANCH  87  91
ATOM     91  S   UNL A   1      44.145  33.840  25.273  1.00  0.00     0.124 S 
ATOM     92  O   UNL A   1      45.326  34.319  24.564  1.00  0.00    -0.237 OA
ATOM     93  O   UNL A   1      43.854  32.415  25.145  1.00  0.00    -0.237 OA
ATOM     94  O   UNL A   1      42.981  34.720  25.215  1.00  0.00    -0.744 OA
ENDBRANCH  87  91
ENDBRANCH  60  84
BRANCH  72  95
ATOM     95  C   UNL A   1      40.430  29.900  33.342  1.00  0.00     0.023 A 
ATOM     96  C   UNL A   1      40.252  30.865  34.349  1.00  0.00     0.031 A 
ATOM     97  C   UNL A   1      39.285  29.334  32.755  1.00  0.00     0.131 A 
ATOM     98  C   UNL A   1      38.957  31.199  34.773  1.00  0.00     0.055 A 
ATOM     99  C   UNL A   1      37.999  29.709  33.144  1.00  0.00     0.041 A 
ATOM    100  F   UNL A   1      39.399  28.407  31.791  1.00  0.00    -0.206 F 
ATOM    101  C   UNL A   1      37.829  30.639  34.167  1.00  0.00     0.022 A 
BRANCH  98 102
ATOM    102  S   UNL A   1      38.765  32.325  36.183  1.00  0.00     0.124 S 
ATOM    103  O   UNL A   1      39.344  33.560  35.665  1.00  0.00    -0.237 OA
ATOM    104  O   UNL A   1      37.321  32.331  36.384  1.00  0.00    -0.237 OA
ATOM    105  O   UNL A   1      39.535  31.678  37.246  1.00  0.00    -0.744 OA
ENDBRANCH  98 102
ENDBRANCH  72  95
ENDBRANCH  46  47
ENDBRANCH  38  41
ENDBRANCH  36  37
ENDBRANCH  35  36
ENDBRANCH   1  35
TORSDOF 19
ENDMDL
