MODEL 1
REMARK VINA RESULT:     -14.5      0.000      0.000
REMARK SMILES Cc1c(C(=O)NCCCCNC(=O)c2ccc(-c3c4nc(c(-c5cc(S(=O)(=O)[O-])ccc5F)c5ccc([nH]5)c(-c5cc(S(=O)(=O)[O-])ccc5F)c5nc(c(-c6cc(S(=O)(=O)[O-])ccc6F)c6ccc3[nH]6)C=C5)C=C4)cc2)cccc1-n1c(C)cc(/C=C2/C(=O)NC(=S)N=C2O)c1C
REMARK SMILES IDX 8 1 7 2 6 3 4 4 5 5 3 7 1 8 2 9 80 10 77 11 79 12 78 13
REMARK SMILES IDX 81 14 82 15 96 16 83 17 84 18 85 19 97 20 86 21 87 22 88 23
REMARK SMILES IDX 94 24 89 25 90 26 93 27 91 28 92 30 95 31 9 33 10 34 11 35
REMARK SMILES IDX 12 36 13 38 14 39 15 40 76 41 16 42 75 43 17 44 18 45 19 46
REMARK SMILES IDX 69 47 20 48 74 49 68 50 70 51 21 52 73 53 67 54 66 55 22 57
REMARK SMILES IDX 54 58 34 59 53 60 35 61 38 62 52 63 71 64 36 65 37 66 51 68
REMARK SMILES IDX 72 69 39 70 23 71 24 72 32 73 25 74 31 75 33 76 30 77 26 78
REMARK SMILES IDX 27 79 28 80 29 81 55 82 56 83 64 84 57 85 63 86 65 87 62 88
REMARK SMILES IDX 58 89 59 90 60 91 61 92 40 93 41 94 49 95 42 96 48 97 50 98
REMARK SMILES IDX 47 99 43 100 44 101 45 102 46 103
REMARK H PARENT 6 6 90 29 95 32 11 37 70 56 38 67
REMARK Flexibility Score: inf
ROOT
ATOM      1  C   UNL A   1      32.134  30.858  26.316  1.00  0.00     0.023 C 
ENDROOT
BRANCH   1   2
ATOM      2  C   UNL A   1      31.210  30.001  25.423  1.00  0.00     0.116 C 
BRANCH   2   3
ATOM      3  N   UNL A   1      31.835  29.732  24.136  1.00  0.00    -0.352 N 
ATOM      4  C   UNL A   1      32.547  28.708  23.573  1.00  0.00     0.251 C 
ATOM      5  O   UNL A   1      32.881  28.922  22.396  1.00  0.00    -0.269 OA
ATOM      6  H   UNL A   1      31.713  30.481  23.509  1.00  0.00     0.163 HD
BRANCH   4   7
ATOM      7  C   UNL A   1      32.943  27.376  24.166  1.00  0.00     0.044 A 
ATOM      8  C   UNL A   1      31.332  25.797  22.949  1.00  0.00     0.047 C 
ATOM      9  C   UNL A   1      32.416  26.087  23.936  1.00  0.00    -0.014 A 
ATOM     10  C   UNL A   1      32.890  25.006  24.729  1.00  0.00     0.049 A 
ATOM     11  C   UNL A   1      33.888  27.510  25.220  1.00  0.00     0.014 A 
ATOM     12  C   UNL A   1      33.810  25.170  25.765  1.00  0.00     0.027 A 
ATOM     13  C   UNL A   1      34.307  26.436  26.014  1.00  0.00     0.003 A 
BRANCH  10  14
ATOM     14  N   UNL A   1      32.354  23.707  24.555  1.00  0.00    -0.318 N 
ATOM     15  C   UNL A   1      31.363  23.152  25.340  1.00  0.00     0.020 A 
ATOM     16  C   UNL A   1      32.929  22.711  23.764  1.00  0.00     0.027 A 
ATOM     17  C   UNL A   1      30.732  23.856  26.493  1.00  0.00     0.065 C 
ATOM     18  C   UNL A   1      31.185  21.852  24.918  1.00  0.00     0.031 A 
ATOM     19  C   UNL A   1      32.155  21.569  23.918  1.00  0.00    -0.003 A 
ATOM     20  C   UNL A   1      34.219  22.955  23.049  1.00  0.00     0.065 C 
BRANCH  19  21
ATOM     21  C   UNL A   1      32.366  20.249  23.411  1.00  0.00     0.029 C 
ATOM     22  C   UNL A   1      32.679  19.089  24.014  1.00  0.00     0.102 C 
ATOM     23  C   UNL A   1      32.658  17.879  23.156  1.00  0.00     0.262 C 
ATOM     24  C   UNL A   1      32.956  18.798  25.420  1.00  0.00     0.226 C 
ATOM     25  O   UNL A   1      32.746  17.878  21.934  1.00  0.00    -0.269 OA
ATOM     26  N   UNL A   1      32.520  16.711  23.858  1.00  0.00    -0.297 N 
ATOM     27  N   UNL A   1      32.894  17.651  25.994  1.00  0.00    -0.184 NA
ATOM     28  C   UNL A   1      32.562  16.569  25.223  1.00  0.00     0.203 C 
ATOM     29  H   UNL A   1      32.379  15.890  23.331  1.00  0.00     0.172 HD
ATOM     30  S   UNL A   1      32.276  15.042  25.855  1.00  0.00    -0.038 S 
BRANCH  24  31
ATOM     31  O   UNL A   1      33.391  19.815  26.166  1.00  0.00    -0.493 OA
ATOM     32  H   UNL A   1      33.055  20.678  26.023  1.00  0.00     0.295 HD
ENDBRANCH  24  31
ENDBRANCH  19  21
ENDBRANCH  10  14
ENDBRANCH   4   7
ENDBRANCH   2   3
ENDBRANCH   1   2
BRANCH   1  33
ATOM     33  C   UNL A   1      32.896  30.110  27.403  1.00  0.00     0.023 C 
BRANCH  33  34
ATOM     34  C   UNL A   1      34.377  30.443  27.399  1.00  0.00     0.116 C 
BRANCH  34  35
ATOM     35  N   UNL A   1      34.856  31.251  28.510  1.00  0.00    -0.352 N 
ATOM     36  C   UNL A   1      35.874  30.946  29.406  1.00  0.00     0.251 C 
ATOM     37  H   UNL A   1      34.404  32.116  28.645  1.00  0.00     0.163 HD
ATOM     38  O   UNL A   1      36.116  31.662  30.365  1.00  0.00    -0.269 OA
BRANCH  36  39
ATOM     39  C   UNL A   1      36.757  29.786  29.104  1.00  0.00     0.039 A 
ATOM     40  C   UNL A   1      37.072  28.920  30.156  1.00  0.00     0.014 A 
ATOM     41  C   UNL A   1      37.468  29.719  27.910  1.00  0.00     0.014 A 
ATOM     42  C   UNL A   1      38.253  28.181  30.102  1.00  0.00     0.010 A 
ATOM     43  C   UNL A   1      38.701  29.103  27.910  1.00  0.00     0.010 A 
ATOM     44  C   UNL A   1      39.122  28.377  29.029  1.00  0.00    -0.014 A 
BRANCH  44  45
ATOM     45  C   UNL A   1      40.515  27.938  29.022  1.00  0.00     0.031 A 
ATOM     46  C   UNL A   1      40.864  26.592  28.519  1.00  0.00     0.074 A 
ATOM     47  C   UNL A   1      41.492  28.777  29.433  1.00  0.00     0.049 A 
ATOM     48  N   UNL A   1      41.956  25.966  28.796  1.00  0.00    -0.248 NA
ATOM     49  C   UNL A   1      39.958  25.820  27.677  1.00  0.00     0.031 C 
ATOM     50  C   UNL A   1      42.935  28.596  29.304  1.00  0.00     0.029 A 
ATOM     51  N   UNL A   1      41.354  29.841  30.322  1.00  0.00    -0.354 N 
ATOM     52  C   UNL A   1      42.007  24.831  28.021  1.00  0.00     0.074 A 
ATOM     53  C   UNL A   1      40.729  24.779  27.351  1.00  0.00     0.031 C 
ATOM     54  C   UNL A   1      43.544  29.295  30.276  1.00  0.00     0.029 A 
ATOM     55  C   UNL A   1      42.507  29.841  31.132  1.00  0.00     0.049 A 
ATOM     56  H   UNL A   1      40.599  30.472  30.372  1.00  0.00     0.167 HD
ATOM     57  C   UNL A   1      43.158  24.103  27.964  1.00  0.00     0.034 A 
ATOM     58  C   UNL A   1      42.394  29.645  32.480  1.00  0.00     0.034 A 
ATOM     59  C   UNL A   1      44.167  24.617  28.887  1.00  0.00     0.049 A 
ATOM     60  C   UNL A   1      43.067  28.381  32.975  1.00  0.00     0.074 A 
ATOM     61  C   UNL A   1      45.252  25.468  28.768  1.00  0.00     0.029 A 
ATOM     62  N   UNL A   1      43.947  24.466  30.244  1.00  0.00    -0.354 N 
ATOM     63  N   UNL A   1      43.670  27.512  32.208  1.00  0.00    -0.248 NA
ATOM     64  C   UNL A   1      43.030  27.958  34.374  1.00  0.00     0.031 C 
ATOM     65  C   UNL A   1      45.629  25.884  30.081  1.00  0.00     0.029 A 
ATOM     66  C   UNL A   1      44.795  25.259  30.991  1.00  0.00     0.049 A 
ATOM     67  H   UNL A   1      43.268  23.868  30.631  1.00  0.00     0.167 HD
ATOM     68  C   UNL A   1      44.033  26.425  32.958  1.00  0.00     0.074 A 
ATOM     69  C   UNL A   1      43.613  26.751  34.309  1.00  0.00     0.031 C 
ATOM     70  C   UNL A   1      44.614  25.308  32.432  1.00  0.00     0.034 A 
BRANCH  57  71
ATOM     71  C   UNL A   1      43.443  23.045  26.927  1.00  0.00     0.023 A 
ATOM     72  C   UNL A   1      42.819  21.787  27.047  1.00  0.00     0.031 A 
ATOM     73  C   UNL A   1      44.321  23.183  25.835  1.00  0.00     0.131 A 
ATOM     74  C   UNL A   1      43.143  20.723  26.184  1.00  0.00     0.055 A 
ATOM     75  C   UNL A   1      44.700  22.107  25.022  1.00  0.00     0.041 A 
ATOM     76  F   UNL A   1      44.805  24.376  25.465  1.00  0.00    -0.206 F 
ATOM     77  C   UNL A   1      44.119  20.863  25.201  1.00  0.00     0.022 A 
BRANCH  74  78
ATOM     78  S   UNL A   1      42.256  19.151  26.352  1.00  0.00     0.124 S 
ATOM     79  O   UNL A   1      40.923  19.491  25.864  1.00  0.00    -0.237 OA
ATOM     80  O   UNL A   1      43.047  18.262  25.509  1.00  0.00    -0.237 OA
ATOM     81  O   UNL A   1      42.333  18.870  27.785  1.00  0.00    -0.744 OA
ENDBRANCH  74  78
ENDBRANCH  57  71
BRANCH  58  82
ATOM     82  C   UNL A   1      41.152  30.261  33.042  1.00  0.00     0.023 A 
ATOM     83  C   UNL A   1      41.135  31.671  33.106  1.00  0.00     0.031 A 
ATOM     84  C   UNL A   1      39.923  29.592  33.090  1.00  0.00     0.131 A 
ATOM     85  C   UNL A   1      39.929  32.364  32.953  1.00  0.00     0.055 A 
ATOM     86  C   UNL A   1      38.712  30.298  33.080  1.00  0.00     0.041 A 
ATOM     87  F   UNL A   1      39.862  28.256  33.001  1.00  0.00    -0.206 F 
ATOM     88  C   UNL A   1      38.710  31.689  32.949  1.00  0.00     0.022 A 
BRANCH  85  89
ATOM     89  S   UNL A   1      40.036  34.084  32.373  1.00  0.00     0.124 S 
ATOM     90  O   UNL A   1      39.729  34.837  33.583  1.00  0.00    -0.237 OA
ATOM     91  O   UNL A   1      41.421  34.158  31.904  1.00  0.00    -0.237 OA
ATOM     92  O   UNL A   1      39.041  34.166  31.308  1.00  0.00    -0.744 OA
ENDBRANCH  85  89
ENDBRANCH  58  82
BRANCH  70  93
ATOM     93  C   UNL A   1      45.025  24.153  33.299  1.00  0.00     0.023 A 
ATOM     94  C   UNL A   1      46.297  24.115  33.893  1.00  0.00     0.031 A 
ATOM     95  C   UNL A   1      44.187  23.043  33.522  1.00  0.00     0.131 A 
ATOM     96  C   UNL A   1      46.658  23.057  34.739  1.00  0.00     0.055 A 
ATOM     97  C   UNL A   1      44.588  21.944  34.285  1.00  0.00     0.041 A 
ATOM     98  F   UNL A   1      42.931  23.006  33.050  1.00  0.00    -0.206 F 
ATOM     99  C   UNL A   1      45.825  21.954  34.915  1.00  0.00     0.022 A 
BRANCH  96 100
ATOM    100  S   UNL A   1      48.186  23.211  35.697  1.00  0.00     0.124 S 
ATOM    101  O   UNL A   1      47.874  24.294  36.624  1.00  0.00    -0.237 OA
ATOM    102  O   UNL A   1      48.297  21.880  36.290  1.00  0.00    -0.237 OA
ATOM    103  O   UNL A   1      49.196  23.525  34.688  1.00  0.00    -0.744 OA
ENDBRANCH  96 100
ENDBRANCH  70  93
ENDBRANCH  44  45
ENDBRANCH  36  39
ENDBRANCH  34  35
ENDBRANCH  33  34
ENDBRANCH   1  33
TORSDOF 17
ENDMDL
MODEL 2
REMARK VINA RESULT:     -13.9      1.169      2.010
REMARK SMILES Cc1c(C(=O)NCCCCNC(=O)c2ccc(-c3c4nc(c(-c5cc(S(=O)(=O)[O-])ccc5F)c5ccc([nH]5)c(-c5cc(S(=O)(=O)[O-])ccc5F)c5nc(c(-c6cc(S(=O)(=O)[O-])ccc6F)c6ccc3[nH]6)C=C5)C=C4)cc2)cccc1-n1c(C)cc(/C=C2/C(=O)NC(=S)N=C2O)c1C
REMARK SMILES IDX 8 1 7 2 6 3 4 4 5 5 3 7 1 8 2 9 80 10 77 11 79 12 78 13
REMARK SMILES IDX 81 14 82 15 96 16 83 17 84 18 85 19 97 20 86 21 87 22 88 23
REMARK SMILES IDX 94 24 89 25 90 26 93 27 91 28 92 30 95 31 9 33 10 34 11 35
REMARK SMILES IDX 12 36 13 38 14 39 15 40 76 41 16 42 75 43 17 44 18 45 19 46
REMARK SMILES IDX 69 47 20 48 74 49 68 50 70 51 21 52 73 53 67 54 66 55 22 57
REMARK SMILES IDX 54 58 34 59 53 60 35 61 38 62 52 63 71 64 36 65 37 66 51 68
REMARK SMILES IDX 72 69 39 70 23 71 24 72 32 73 25 74 31 75 33 76 30 77 26 78
REMARK SMILES IDX 27 79 28 80 29 81 55 82 56 83 64 84 57 85 63 86 65 87 62 88
REMARK SMILES IDX 58 89 59 90 60 91 61 92 40 93 41 94 49 95 42 96 48 97 50 98
REMARK SMILES IDX 47 99 43 100 44 101 45 102 46 103
REMARK H PARENT 6 6 90 29 95 32 11 37 70 56 38 67
REMARK Flexibility Score: inf
ROOT
ATOM      1  C   UNL A   1      33.010  30.834  26.190  1.00  0.00     0.023 C 
ENDROOT
BRANCH   1   2
ATOM      2  C   UNL A   1      31.529  30.400  26.248  1.00  0.00     0.116 C 
BRANCH   2   3
ATOM      3  N   UNL A   1      30.906  30.501  24.937  1.00  0.00    -0.352 N 
ATOM      4  C   UNL A   1      30.506  29.633  23.957  1.00  0.00     0.251 C 
ATOM      5  O   UNL A   1      29.992  30.192  22.975  1.00  0.00    -0.269 OA
ATOM      6  H   UNL A   1      30.726  31.437  24.691  1.00  0.00     0.163 HD
BRANCH   4   7
ATOM      7  C   UNL A   1      30.576  28.124  23.927  1.00  0.00     0.044 A 
ATOM      8  C   UNL A   1      33.099  27.755  23.672  1.00  0.00     0.047 C 
ATOM      9  C   UNL A   1      31.690  27.271  23.778  1.00  0.00    -0.014 A 
ATOM     10  C   UNL A   1      31.464  25.871  23.655  1.00  0.00     0.049 A 
ATOM     11  C   UNL A   1      29.289  27.520  23.897  1.00  0.00     0.014 A 
ATOM     12  C   UNL A   1      30.188  25.309  23.616  1.00  0.00     0.027 A 
ATOM     13  C   UNL A   1      29.093  26.144  23.731  1.00  0.00     0.003 A 
BRANCH  10  14
ATOM     14  N   UNL A   1      32.555  24.989  23.462  1.00  0.00    -0.318 N 
ATOM     15  C   UNL A   1      33.071  24.632  22.232  1.00  0.00     0.020 A 
ATOM     16  C   UNL A   1      33.076  24.145  24.444  1.00  0.00     0.027 A 
ATOM     17  C   UNL A   1      32.532  25.131  20.934  1.00  0.00     0.065 C 
ATOM     18  C   UNL A   1      34.053  23.692  22.457  1.00  0.00     0.031 A 
ATOM     19  C   UNL A   1      34.073  23.388  23.845  1.00  0.00    -0.003 A 
ATOM     20  C   UNL A   1      32.467  24.095  25.809  1.00  0.00     0.065 C 
BRANCH  19  21
ATOM     21  C   UNL A   1      34.845  22.310  24.379  1.00  0.00     0.029 C 
ATOM     22  C   UNL A   1      34.552  21.020  24.619  1.00  0.00     0.102 C 
ATOM     23  C   UNL A   1      35.684  20.158  25.040  1.00  0.00     0.262 C 
ATOM     24  C   UNL A   1      33.298  20.287  24.445  1.00  0.00     0.226 C 
ATOM     25  O   UNL A   1      36.732  20.560  25.530  1.00  0.00    -0.269 OA
ATOM     26  N   UNL A   1      35.466  18.823  24.826  1.00  0.00    -0.297 N 
ATOM     27  N   UNL A   1      33.161  19.015  24.341  1.00  0.00    -0.184 NA
ATOM     28  C   UNL A   1      34.288  18.242  24.426  1.00  0.00     0.203 C 
ATOM     29  H   UNL A   1      36.230  18.220  24.974  1.00  0.00     0.172 HD
ATOM     30  S   UNL A   1      34.294  16.589  24.143  1.00  0.00    -0.038 S 
BRANCH  24  31
ATOM     31  O   UNL A   1      32.176  21.008  24.471  1.00  0.00    -0.493 OA
ATOM     32  H   UNL A   1      31.963  21.515  25.230  1.00  0.00     0.295 HD
ENDBRANCH  24  31
ENDBRANCH  19  21
ENDBRANCH  10  14
ENDBRANCH   4   7
ENDBRANCH   2   3
ENDBRANCH   1   2
BRANCH   1  33
ATOM     33  C   UNL A   1      34.028  29.808  26.674  1.00  0.00     0.023 C 
BRANCH  33  34
ATOM     34  C   UNL A   1      34.167  29.807  28.185  1.00  0.00     0.116 C 
BRANCH  34  35
ATOM     35  N   UNL A   1      34.897  30.926  28.763  1.00  0.00    -0.352 N 
ATOM     36  C   UNL A   1      36.196  30.928  29.259  1.00  0.00     0.251 C 
ATOM     37  H   UNL A   1      34.414  31.782  28.809  1.00  0.00     0.163 HD
ATOM     38  O   UNL A   1      36.664  31.908  29.816  1.00  0.00    -0.269 OA
BRANCH  36  39
ATOM     39  C   UNL A   1      37.058  29.746  28.986  1.00  0.00     0.039 A 
ATOM     40  C   UNL A   1      37.339  28.887  30.054  1.00  0.00     0.014 A 
ATOM     41  C   UNL A   1      37.786  29.648  27.804  1.00  0.00     0.014 A 
ATOM     42  C   UNL A   1      38.505  28.124  30.028  1.00  0.00     0.010 A 
ATOM     43  C   UNL A   1      39.006  29.006  27.832  1.00  0.00     0.010 A 
ATOM     44  C   UNL A   1      39.394  28.287  28.967  1.00  0.00    -0.014 A 
BRANCH  44  45
ATOM     45  C   UNL A   1      40.778  27.819  28.987  1.00  0.00     0.031 A 
ATOM     46  C   UNL A   1      41.107  26.463  28.499  1.00  0.00     0.074 A 
ATOM     47  C   UNL A   1      41.765  28.640  29.411  1.00  0.00     0.049 A 
ATOM     48  N   UNL A   1      42.181  25.816  28.798  1.00  0.00    -0.248 NA
ATOM     49  C   UNL A   1      40.201  25.705  27.645  1.00  0.00     0.031 C 
ATOM     50  C   UNL A   1      43.206  28.428  29.309  1.00  0.00     0.029 A 
ATOM     51  N   UNL A   1      41.633  29.712  30.291  1.00  0.00    -0.354 N 
ATOM     52  C   UNL A   1      42.222  24.675  28.031  1.00  0.00     0.074 A 
ATOM     53  C   UNL A   1      40.955  24.646  27.338  1.00  0.00     0.031 C 
ATOM     54  C   UNL A   1      43.811  29.120  30.287  1.00  0.00     0.029 A 
ATOM     55  C   UNL A   1      42.771  29.692  31.122  1.00  0.00     0.049 A 
ATOM     56  H   UNL A   1      40.891  30.359  30.324  1.00  0.00     0.167 HD
ATOM     57  C   UNL A   1      43.358  23.923  27.999  1.00  0.00     0.034 A 
ATOM     58  C   UNL A   1      42.630  29.507  32.468  1.00  0.00     0.034 A 
ATOM     59  C   UNL A   1      44.361  24.421  28.937  1.00  0.00     0.049 A 
ATOM     60  C   UNL A   1      43.267  28.232  32.982  1.00  0.00     0.074 A 
ATOM     61  C   UNL A   1      45.465  25.249  28.832  1.00  0.00     0.029 A 
ATOM     62  N   UNL A   1      44.113  24.284  30.291  1.00  0.00    -0.354 N 
ATOM     63  N   UNL A   1      43.865  27.346  32.232  1.00  0.00    -0.248 NA
ATOM     64  C   UNL A   1      43.196  27.819  34.384  1.00  0.00     0.031 C 
ATOM     65  C   UNL A   1      45.828  25.665  30.149  1.00  0.00     0.029 A 
ATOM     66  C   UNL A   1      44.965  25.064  31.048  1.00  0.00     0.049 A 
ATOM     67  H   UNL A   1      43.415  23.702  30.668  1.00  0.00     0.167 HD
ATOM     68  C   UNL A   1      44.192  26.257  32.994  1.00  0.00     0.074 A 
ATOM     69  C   UNL A   1      43.755  26.599  34.336  1.00  0.00     0.031 C 
ATOM     70  C   UNL A   1      44.759  25.125  32.486  1.00  0.00     0.034 A 
BRANCH  57  71
ATOM     71  C   UNL A   1      43.639  22.853  26.973  1.00  0.00     0.023 A 
ATOM     72  C   UNL A   1      42.955  21.624  27.064  1.00  0.00     0.031 A 
ATOM     73  C   UNL A   1      44.568  22.951  25.920  1.00  0.00     0.131 A 
ATOM     74  C   UNL A   1      43.267  20.547  26.215  1.00  0.00     0.055 A 
ATOM     75  C   UNL A   1      44.933  21.859  25.122  1.00  0.00     0.041 A 
ATOM     76  F   UNL A   1      45.120  24.122  25.573  1.00  0.00    -0.206 F 
ATOM     77  C   UNL A   1      44.289  20.642  25.274  1.00  0.00     0.022 A 
BRANCH  74  78
ATOM     78  S   UNL A   1      42.304  19.016  26.342  1.00  0.00     0.124 S 
ATOM     79  O   UNL A   1      42.345  18.741  27.775  1.00  0.00    -0.237 OA
ATOM     80  O   UNL A   1      41.014  19.420  25.796  1.00  0.00    -0.237 OA
ATOM     81  O   UNL A   1      43.055  18.074  25.513  1.00  0.00    -0.744 OA
ENDBRANCH  74  78
ENDBRANCH  57  71
BRANCH  58  82
ATOM     82  C   UNL A   1      41.391  30.153  33.004  1.00  0.00     0.023 A 
ATOM     83  C   UNL A   1      41.385  31.565  33.018  1.00  0.00     0.031 A 
ATOM     84  C   UNL A   1      40.157  29.496  33.073  1.00  0.00     0.131 A 
ATOM     85  C   UNL A   1      40.185  32.260  32.836  1.00  0.00     0.055 A 
ATOM     86  C   UNL A   1      38.951  30.210  33.034  1.00  0.00     0.041 A 
ATOM     87  F   UNL A   1      40.086  28.157  33.032  1.00  0.00    -0.206 F 
ATOM     88  C   UNL A   1      38.960  31.595  32.853  1.00  0.00     0.022 A 
BRANCH  85  89
ATOM     89  S   UNL A   1      40.307  33.958  32.195  1.00  0.00     0.124 S 
ATOM     90  O   UNL A   1      39.960  33.782  30.790  1.00  0.00    -0.237 OA
ATOM     91  O   UNL A   1      39.320  34.662  33.016  1.00  0.00    -0.237 OA
ATOM     92  O   UNL A   1      41.689  34.342  32.462  1.00  0.00    -0.744 OA
ENDBRANCH  85  89
ENDBRANCH  58  82
BRANCH  70  93
ATOM     93  C   UNL A   1      45.130  23.967  33.367  1.00  0.00     0.023 A 
ATOM     94  C   UNL A   1      46.419  23.862  33.913  1.00  0.00     0.031 A 
ATOM     95  C   UNL A   1      44.233  22.918  33.649  1.00  0.00     0.131 A 
ATOM     96  C   UNL A   1      46.746  22.803  34.772  1.00  0.00     0.055 A 
ATOM     97  C   UNL A   1      44.593  21.814  34.425  1.00  0.00     0.041 A 
ATOM     98  F   UNL A   1      42.960  22.950  33.226  1.00  0.00    -0.206 F 
ATOM     99  C   UNL A   1      45.852  21.760  35.008  1.00  0.00     0.022 A 
BRANCH  96 100
ATOM    100  S   UNL A   1      48.317  22.882  35.668  1.00  0.00     0.124 S 
ATOM    101  O   UNL A   1      49.301  22.811  34.594  1.00  0.00    -0.237 OA
ATOM    102  O   UNL A   1      48.205  24.173  36.342  1.00  0.00    -0.237 OA
ATOM    103  O   UNL A   1      48.269  21.718  36.550  1.00  0.00    -0.744 OA
ENDBRANCH  96 100
ENDBRANCH  70  93
ENDBRANCH  44  45
ENDBRANCH  36  39
ENDBRANCH  34  35
ENDBRANCH  33  34
ENDBRANCH   1  33
TORSDOF 17
ENDMDL
MODEL 3
REMARK VINA RESULT:     -13.5      2.562      3.585
REMARK SMILES Cc1c(C(=O)NCCCCNC(=O)c2ccc(-c3c4nc(c(-c5cc(S(=O)(=O)[O-])ccc5F)c5ccc([nH]5)c(-c5cc(S(=O)(=O)[O-])ccc5F)c5nc(c(-c6cc(S(=O)(=O)[O-])ccc6F)c6ccc3[nH]6)C=C5)C=C4)cc2)cccc1-n1c(C)cc(/C=C2/C(=O)NC(=S)N=C2O)c1C
REMARK SMILES IDX 8 1 7 2 6 3 4 4 5 5 3 7 1 8 2 9 80 10 77 11 79 12 78 13
REMARK SMILES IDX 81 14 82 15 96 16 83 17 84 18 85 19 97 20 86 21 87 22 88 23
REMARK SMILES IDX 94 24 89 25 90 26 93 27 91 28 92 30 95 31 9 33 10 34 11 35
REMARK SMILES IDX 12 36 13 38 14 39 15 40 76 41 16 42 75 43 17 44 18 45 19 46
REMARK SMILES IDX 69 47 20 48 74 49 68 50 70 51 21 52 73 53 67 54 66 55 22 57
REMARK SMILES IDX 54 58 34 59 53 60 35 61 38 62 52 63 71 64 36 65 37 66 51 68
REMARK SMILES IDX 72 69 39 70 23 71 24 72 32 73 25 74 31 75 33 76 30 77 26 78
REMARK SMILES IDX 27 79 28 80 29 81 55 82 56 83 64 84 57 85 63 86 65 87 62 88
REMARK SMILES IDX 58 89 59 90 60 91 61 92 40 93 41 94 49 95 42 96 48 97 50 98
REMARK SMILES IDX 47 99 43 100 44 101 45 102 46 103
REMARK H PARENT 6 6 90 29 95 32 11 37 70 56 38 67
REMARK Flexibility Score: inf
ROOT
ATOM      1  C   UNL A   1      31.906  28.939  26.607  1.00  0.00     0.023 C 
ENDROOT
BRANCH   1   2
ATOM      2  C   UNL A   1      31.689  27.764  25.628  1.00  0.00     0.116 C 
BRANCH   2   3
ATOM      3  N   UNL A   1      32.364  28.011  24.363  1.00  0.00    -0.352 N 
ATOM      4  C   UNL A   1      32.962  27.255  23.391  1.00  0.00     0.251 C 
ATOM      5  O   UNL A   1      33.411  27.922  22.446  1.00  0.00    -0.269 OA
ATOM      6  H   UNL A   1      32.399  28.972  24.150  1.00  0.00     0.163 HD
BRANCH   4   7
ATOM      7  C   UNL A   1      33.117  25.754  23.305  1.00  0.00     0.044 A 
ATOM      8  C   UNL A   1      34.715  25.312  25.259  1.00  0.00     0.047 C 
ATOM      9  C   UNL A   1      33.895  24.876  24.089  1.00  0.00    -0.014 A 
ATOM     10  C   UNL A   1      33.961  23.505  23.714  1.00  0.00     0.049 A 
ATOM     11  C   UNL A   1      32.485  25.207  22.155  1.00  0.00     0.014 A 
ATOM     12  C   UNL A   1      33.340  23.000  22.571  1.00  0.00     0.027 A 
ATOM     13  C   UNL A   1      32.601  23.863  21.783  1.00  0.00     0.003 A 
BRANCH  10  14
ATOM     14  N   UNL A   1      34.765  22.603  24.452  1.00  0.00    -0.318 N 
ATOM     15  C   UNL A   1      34.432  22.080  25.686  1.00  0.00     0.020 A 
ATOM     16  C   UNL A   1      36.108  22.335  24.184  1.00  0.00     0.027 A 
ATOM     17  C   UNL A   1      33.172  22.411  26.411  1.00  0.00     0.065 C 
ATOM     18  C   UNL A   1      35.504  21.325  26.113  1.00  0.00     0.031 A 
ATOM     19  C   UNL A   1      36.557  21.469  25.170  1.00  0.00    -0.003 A 
ATOM     20  C   UNL A   1      36.819  23.040  23.073  1.00  0.00     0.065 C 
BRANCH  19  21
ATOM     21  C   UNL A   1      37.874  20.969  25.416  1.00  0.00     0.029 C 
ATOM     22  C   UNL A   1      38.973  21.539  25.939  1.00  0.00     0.102 C 
ATOM     23  C   UNL A   1      40.126  20.638  26.181  1.00  0.00     0.262 C 
ATOM     24  C   UNL A   1      39.200  22.908  26.403  1.00  0.00     0.226 C 
ATOM     25  O   UNL A   1      40.304  19.556  25.633  1.00  0.00    -0.269 OA
ATOM     26  N   UNL A   1      41.015  21.119  27.105  1.00  0.00    -0.297 N 
ATOM     27  N   UNL A   1      40.118  23.304  27.208  1.00  0.00    -0.184 NA
ATOM     28  C   UNL A   1      41.006  22.369  27.672  1.00  0.00     0.203 C 
ATOM     29  H   UNL A   1      41.732  20.507  27.392  1.00  0.00     0.172 HD
ATOM     30  S   UNL A   1      42.151  22.696  28.854  1.00  0.00    -0.038 S 
BRANCH  24  31
ATOM     31  O   UNL A   1      38.419  23.854  25.879  1.00  0.00    -0.493 OA
ATOM     32  H   UNL A   1      37.849  23.648  25.164  1.00  0.00     0.295 HD
ENDBRANCH  24  31
ENDBRANCH  19  21
ENDBRANCH  10  14
ENDBRANCH   4   7
ENDBRANCH   2   3
ENDBRANCH   1   2
BRANCH   1  33
ATOM     33  C   UNL A   1      33.090  29.850  26.307  1.00  0.00     0.023 C 
BRANCH  33  34
ATOM     34  C   UNL A   1      34.275  29.569  27.213  1.00  0.00     0.116 C 
BRANCH  34  35
ATOM     35  N   UNL A   1      34.603  30.606  28.180  1.00  0.00    -0.352 N 
ATOM     36  C   UNL A   1      35.741  30.699  28.973  1.00  0.00     0.251 C 
ATOM     37  H   UNL A   1      33.941  31.327  28.286  1.00  0.00     0.163 HD
ATOM     38  O   UNL A   1      35.856  31.565  29.826  1.00  0.00    -0.269 OA
BRANCH  36  39
ATOM     39  C   UNL A   1      36.884  29.792  28.678  1.00  0.00     0.039 A 
ATOM     40  C   UNL A   1      37.177  28.792  29.613  1.00  0.00     0.014 A 
ATOM     41  C   UNL A   1      37.796  30.092  27.671  1.00  0.00     0.014 A 
ATOM     42  C   UNL A   1      38.475  28.291  29.691  1.00  0.00     0.010 A 
ATOM     43  C   UNL A   1      39.109  29.706  27.834  1.00  0.00     0.010 A 
ATOM     44  C   UNL A   1      39.463  28.846  28.879  1.00  0.00    -0.014 A 
BRANCH  44  45
ATOM     45  C   UNL A   1      40.895  28.659  29.099  1.00  0.00     0.031 A 
ATOM     46  C   UNL A   1      41.616  27.577  28.395  1.00  0.00     0.074 A 
ATOM     47  C   UNL A   1      41.572  29.501  29.911  1.00  0.00     0.049 A 
ATOM     48  N   UNL A   1      42.747  27.085  28.769  1.00  0.00    -0.248 NA
ATOM     49  C   UNL A   1      41.073  26.927  27.209  1.00  0.00     0.031 C 
ATOM     50  C   UNL A   1      43.018  29.600  30.087  1.00  0.00     0.029 A 
ATOM     51  N   UNL A   1      41.042  30.246  30.963  1.00  0.00    -0.354 N 
ATOM     52  C   UNL A   1      43.187  26.229  27.787  1.00  0.00     0.074 A 
ATOM     53  C   UNL A   1      42.098  26.154  26.842  1.00  0.00     0.031 C 
ATOM     54  C   UNL A   1      43.268  30.097  31.309  1.00  0.00     0.029 A 
ATOM     55  C   UNL A   1      41.997  30.212  32.000  1.00  0.00     0.049 A 
ATOM     56  H   UNL A   1      40.173  30.707  30.979  1.00  0.00     0.167 HD
ATOM     57  C   UNL A   1      44.460  25.742  27.836  1.00  0.00     0.034 A 
ATOM     58  C   UNL A   1      41.682  29.641  33.200  1.00  0.00     0.034 A 
ATOM     59  C   UNL A   1      45.143  26.142  29.064  1.00  0.00     0.049 A 
ATOM     60  C   UNL A   1      42.510  28.417  33.533  1.00  0.00     0.074 A 
ATOM     61  C   UNL A   1      46.019  27.158  29.403  1.00  0.00     0.029 A 
ATOM     62  N   UNL A   1      44.713  25.593  30.258  1.00  0.00    -0.354 N 
ATOM     63  N   UNL A   1      43.419  27.900  32.751  1.00  0.00    -0.248 NA
ATOM     64  C   UNL A   1      42.307  27.628  34.748  1.00  0.00     0.031 C 
ATOM     65  C   UNL A   1      46.046  27.256  30.827  1.00  0.00     0.029 A 
ATOM     66  C   UNL A   1      45.214  26.280  31.346  1.00  0.00     0.049 A 
ATOM     67  H   UNL A   1      44.121  24.809  30.325  1.00  0.00     0.167 HD
ATOM     68  C   UNL A   1      43.865  26.725  33.293  1.00  0.00     0.074 A 
ATOM     69  C   UNL A   1      43.141  26.596  34.545  1.00  0.00     0.031 C 
ATOM     70  C   UNL A   1      44.763  25.904  32.675  1.00  0.00     0.034 A 
BRANCH  57  71
ATOM     71  C   UNL A   1      45.155  25.068  26.679  1.00  0.00     0.023 A 
ATOM     72  C   UNL A   1      44.757  23.768  26.307  1.00  0.00     0.031 A 
ATOM     73  C   UNL A   1      46.217  25.612  25.932  1.00  0.00     0.131 A 
ATOM     74  C   UNL A   1      45.452  23.043  25.322  1.00  0.00     0.055 A 
ATOM     75  C   UNL A   1      46.956  24.867  25.004  1.00  0.00     0.041 A 
ATOM     76  F   UNL A   1      46.549  26.908  26.018  1.00  0.00    -0.206 F 
ATOM     77  C   UNL A   1      46.583  23.568  24.702  1.00  0.00     0.022 A 
BRANCH  74  78
ATOM     78  S   UNL A   1      44.847  21.401  24.845  1.00  0.00     0.124 S 
ATOM     79  O   UNL A   1      46.054  20.586  24.937  1.00  0.00    -0.237 OA
ATOM     80  O   UNL A   1      43.818  21.151  25.848  1.00  0.00    -0.237 OA
ATOM     81  O   UNL A   1      44.345  21.607  23.487  1.00  0.00    -0.744 OA
ENDBRANCH  74  78
ENDBRANCH  57  71
BRANCH  58  82
ATOM     82  C   UNL A   1      40.252  29.869  33.580  1.00  0.00     0.023 A 
ATOM     83  C   UNL A   1      39.917  31.186  33.962  1.00  0.00     0.031 A 
ATOM     84  C   UNL A   1      39.212  29.021  33.182  1.00  0.00     0.131 A 
ATOM     85  C   UNL A   1      38.639  31.688  33.693  1.00  0.00     0.055 A 
ATOM     86  C   UNL A   1      37.900  29.496  33.051  1.00  0.00     0.041 A 
ATOM     87  F   UNL A   1      39.462  27.768  32.776  1.00  0.00    -0.206 F 
ATOM     88  C   UNL A   1      37.619  30.850  33.247  1.00  0.00     0.022 A 
BRANCH  85  89
ATOM     89  S   UNL A   1      38.474  33.495  33.567  1.00  0.00     0.124 S 
ATOM     90  O   UNL A   1      39.828  33.904  33.214  1.00  0.00    -0.237 OA
ATOM     91  O   UNL A   1      37.466  33.633  32.514  1.00  0.00    -0.237 OA
ATOM     92  O   UNL A   1      38.014  33.905  34.890  1.00  0.00    -0.744 OA
ENDBRANCH  85  89
ENDBRANCH  58  82
BRANCH  70  93
ATOM     93  C   UNL A   1      45.248  24.639  33.324  1.00  0.00     0.023 A 
ATOM     94  C   UNL A   1      46.521  24.574  33.912  1.00  0.00     0.031 A 
ATOM     95  C   UNL A   1      44.481  23.456  33.335  1.00  0.00     0.131 A 
ATOM     96  C   UNL A   1      46.950  23.404  34.557  1.00  0.00     0.055 A 
ATOM     97  C   UNL A   1      44.952  22.265  33.891  1.00  0.00     0.041 A 
ATOM     98  F   UNL A   1      43.229  23.427  32.853  1.00  0.00    -0.206 F 
ATOM     99  C   UNL A   1      46.187  22.238  34.524  1.00  0.00     0.022 A 
BRANCH  96 100
ATOM    100  S   UNL A   1      48.467  23.478  35.541  1.00  0.00     0.124 S 
ATOM    101  O   UNL A   1      48.404  22.244  36.318  1.00  0.00    -0.237 OA
ATOM    102  O   UNL A   1      49.491  23.522  34.500  1.00  0.00    -0.237 OA
ATOM    103  O   UNL A   1      48.317  24.710  36.313  1.00  0.00    -0.744 OA
ENDBRANCH  96 100
ENDBRANCH  70  93
ENDBRANCH  44  45
ENDBRANCH  36  39
ENDBRANCH  34  35
ENDBRANCH  33  34
ENDBRANCH   1  33
TORSDOF 17
ENDMDL
