MODEL 1
REMARK VINA RESULT:     -12.8      0.000      0.000
REMARK SMILES COc1ccc([C@@H]2[C@H](C(=O)NCCCCNC(=O)c3ccc(-c4c5nc(c(-c6cc(S(=O)(=O)[O-])ccc6F)c6ccc([nH]6)c(-c6cc(S(=O)(=O)[O-])ccc6F)c6nc(c(-c7cc(S(=O)(=O)[O-])ccc7F)c7ccc4[nH]7)C=C6)C=C5)cc3)c3ccccc3C(=O)N2C2CC2)cc1
REMARK SMILES IDX 14 1 13 2 12 3 11 4 9 5 10 6 8 8 7 9 90 10 82 11 88 12 83 13
REMARK SMILES IDX 87 14 89 15 84 16 86 17 85 18 6 19 3 20 4 21 95 22 5 23
REMARK SMILES IDX 94 24 2 25 1 26 91 27 92 28 93 29 15 30 16 31 17 32 18 34
REMARK SMILES IDX 19 35 20 36 81 37 21 38 80 39 22 40 23 41 24 42 74 43 25 44
REMARK SMILES IDX 79 45 73 46 75 47 26 48 78 49 72 50 71 51 27 53 59 54 39 55
REMARK SMILES IDX 58 56 40 57 43 58 57 59 76 60 41 61 42 62 56 64 77 65 44 66
REMARK SMILES IDX 28 67 29 68 37 69 30 70 36 71 38 72 35 73 31 74 32 75 33 76
REMARK SMILES IDX 34 77 60 78 61 79 69 80 62 81 68 82 70 83 67 84 63 85 64 86
REMARK SMILES IDX 65 87 66 88 45 89 46 90 54 91 47 92 53 93 55 94 52 95 48 96
REMARK SMILES IDX 49 97 50 98 51 99
REMARK H PARENT 11 7 16 33 75 52 43 63
REMARK Flexibility Score: inf
ROOT
ATOM      1  C   UNL A   1      36.365  21.116  24.449  1.00  0.00     0.023 C 
ENDROOT
BRANCH   1   2
ATOM      2  C   UNL A   1      36.818  22.215  23.478  1.00  0.00     0.023 C 
BRANCH   2   3
ATOM      3  C   UNL A   1      35.799  23.332  23.167  1.00  0.00     0.116 C 
BRANCH   3   4
ATOM      4  N   UNL A   1      34.937  23.691  24.288  1.00  0.00    -0.355 N 
ATOM      5  C   UNL A   1      33.807  24.440  24.081  1.00  0.00     0.230 C 
ATOM      6  O   UNL A   1      33.975  25.658  24.159  1.00  0.00    -0.274 OA
ATOM      7  H   UNL A   1      35.167  23.394  25.198  1.00  0.00     0.163 HD
BRANCH   5   8
ATOM      8  C   UNL A   1      32.504  23.778  23.555  1.00  0.00     0.136 C 
ATOM      9  C   UNL A   1      31.987  22.535  24.371  1.00  0.00     0.133 C 
ATOM     10  N   UNL A   1      31.738  22.891  25.778  1.00  0.00    -0.327 N 
ATOM     11  C   UNL A   1      31.404  24.850  23.704  1.00  0.00    -0.020 A 
ATOM     12  C   UNL A   1      30.663  23.799  25.922  1.00  0.00     0.254 C 
ATOM     13  C   UNL A   1      31.339  25.920  22.796  1.00  0.00     0.005 A 
ATOM     14  C   UNL A   1      30.576  24.868  24.856  1.00  0.00     0.044 A 
ATOM     15  O   UNL A   1      29.929  23.829  26.905  1.00  0.00    -0.269 OA
ATOM     16  C   UNL A   1      30.551  27.035  23.080  1.00  0.00     0.000 A 
ATOM     17  C   UNL A   1      29.751  25.973  25.099  1.00  0.00     0.014 A 
ATOM     18  C   UNL A   1      29.766  27.065  24.230  1.00  0.00     0.001 A 
BRANCH   9  19
ATOM     19  C   UNL A   1      32.317  21.068  24.017  1.00  0.00    -0.024 A 
ATOM     20  C   UNL A   1      32.737  18.335  23.286  1.00  0.00     0.118 A 
ATOM     21  C   UNL A   1      32.845  18.735  24.604  1.00  0.00     0.047 A 
ATOM     22  C   UNL A   1      32.330  19.259  22.331  1.00  0.00     0.047 A 
ATOM     23  C   UNL A   1      32.619  20.073  24.953  1.00  0.00     0.010 A 
ATOM     24  C   UNL A   1      32.141  20.608  22.689  1.00  0.00     0.010 A 
BRANCH  20  25
ATOM     25  O   UNL A   1      32.992  17.019  23.025  1.00  0.00    -0.497 OA
ATOM     26  C   UNL A   1      33.885  16.431  23.968  1.00  0.00     0.278 C 
ENDBRANCH  20  25
ENDBRANCH   9  19
BRANCH  10  27
ATOM     27  C   UNL A   1      32.810  23.141  26.748  1.00  0.00     0.086 C 
ATOM     28  C   UNL A   1      32.883  22.592  28.139  1.00  0.00     0.027 C 
ATOM     29  C   UNL A   1      33.918  22.190  27.125  1.00  0.00     0.027 C 
ENDBRANCH  10  27
ENDBRANCH   5   8
ENDBRANCH   3   4
ENDBRANCH   2   3
ENDBRANCH   1   2
BRANCH   1  30
ATOM     30  C   UNL A   1      37.065  21.090  25.806  1.00  0.00     0.116 C 
BRANCH  30  31
ATOM     31  N   UNL A   1      38.228  20.215  25.843  1.00  0.00    -0.352 N 
ATOM     32  C   UNL A   1      39.542  20.506  26.121  1.00  0.00     0.251 C 
ATOM     33  H   UNL A   1      38.045  19.270  25.636  1.00  0.00     0.163 HD
ATOM     34  O   UNL A   1      40.387  19.620  26.001  1.00  0.00    -0.269 OA
BRANCH  32  35
ATOM     35  C   UNL A   1      39.950  21.872  26.524  1.00  0.00     0.039 A 
ATOM     36  C   UNL A   1      41.073  22.023  27.344  1.00  0.00     0.014 A 
ATOM     37  C   UNL A   1      39.243  23.002  26.106  1.00  0.00     0.014 A 
ATOM     38  C   UNL A   1      41.527  23.303  27.681  1.00  0.00     0.010 A 
ATOM     39  C   UNL A   1      39.736  24.277  26.382  1.00  0.00     0.010 A 
ATOM     40  C   UNL A   1      40.888  24.443  27.167  1.00  0.00    -0.014 A 
BRANCH  40  41
ATOM     41  C   UNL A   1      41.415  25.811  27.428  1.00  0.00     0.031 A 
ATOM     42  C   UNL A   1      42.768  26.215  26.900  1.00  0.00     0.074 A 
ATOM     43  C   UNL A   1      40.709  26.662  28.201  1.00  0.00     0.049 A 
ATOM     44  N   UNL A   1      43.435  27.323  27.099  1.00  0.00    -0.248 NA
ATOM     45  C   UNL A   1      43.473  25.235  26.060  1.00  0.00     0.031 C 
ATOM     46  C   UNL A   1      39.405  26.373  28.803  1.00  0.00     0.029 A 
ATOM     47  N   UNL A   1      40.988  27.938  28.627  1.00  0.00    -0.354 N 
ATOM     48  C   UNL A   1      44.643  27.166  26.429  1.00  0.00     0.074 A 
ATOM     49  C   UNL A   1      44.636  25.837  25.856  1.00  0.00     0.031 C 
ATOM     50  C   UNL A   1      38.993  27.443  29.501  1.00  0.00     0.029 A 
ATOM     51  C   UNL A   1      40.020  28.477  29.445  1.00  0.00     0.049 A 
ATOM     52  H   UNL A   1      41.806  28.424  28.370  1.00  0.00     0.167 HD
ATOM     53  C   UNL A   1      45.658  28.055  26.291  1.00  0.00     0.034 A 
ATOM     54  C   UNL A   1      39.974  29.660  30.092  1.00  0.00     0.034 A 
ATOM     55  C   UNL A   1      45.641  29.387  26.846  1.00  0.00     0.049 A 
ATOM     56  C   UNL A   1      41.126  30.623  29.931  1.00  0.00     0.074 A 
ATOM     57  C   UNL A   1      46.583  30.390  26.698  1.00  0.00     0.029 A 
ATOM     58  N   UNL A   1      44.637  29.901  27.657  1.00  0.00    -0.354 N 
ATOM     59  N   UNL A   1      42.231  30.480  29.235  1.00  0.00    -0.248 NA
ATOM     60  C   UNL A   1      41.021  31.910  30.631  1.00  0.00     0.031 C 
ATOM     61  C   UNL A   1      46.191  31.479  27.481  1.00  0.00     0.029 A 
ATOM     62  C   UNL A   1      44.959  31.192  28.047  1.00  0.00     0.049 A 
ATOM     63  H   UNL A   1      43.819  29.420  27.915  1.00  0.00     0.167 HD
ATOM     64  C   UNL A   1      42.929  31.677  29.384  1.00  0.00     0.074 A 
ATOM     65  C   UNL A   1      42.113  32.533  30.218  1.00  0.00     0.031 C 
ATOM     66  C   UNL A   1      44.135  32.037  28.877  1.00  0.00     0.034 A 
BRANCH  53  67
ATOM     67  C   UNL A   1      46.887  27.616  25.534  1.00  0.00     0.023 A 
ATOM     68  C   UNL A   1      47.073  27.925  24.175  1.00  0.00     0.031 A 
ATOM     69  C   UNL A   1      47.904  26.900  26.192  1.00  0.00     0.131 A 
ATOM     70  C   UNL A   1      48.225  27.480  23.509  1.00  0.00     0.055 A 
ATOM     71  C   UNL A   1      49.081  26.524  25.542  1.00  0.00     0.041 A 
ATOM     72  F   UNL A   1      47.771  26.558  27.483  1.00  0.00    -0.206 F 
ATOM     73  C   UNL A   1      49.243  26.807  24.189  1.00  0.00     0.022 A 
BRANCH  70  74
ATOM     74  S   UNL A   1      48.331  27.705  21.712  1.00  0.00     0.124 S 
ATOM     75  O   UNL A   1      49.454  28.632  21.596  1.00  0.00    -0.237 OA
ATOM     76  O   UNL A   1      48.571  26.348  21.236  1.00  0.00    -0.237 OA
ATOM     77  O   UNL A   1      47.029  28.268  21.359  1.00  0.00    -0.744 OA
ENDBRANCH  70  74
ENDBRANCH  53  67
BRANCH  54  78
ATOM     78  C   UNL A   1      38.820  30.007  30.976  1.00  0.00     0.023 A 
ATOM     79  C   UNL A   1      37.774  30.824  30.514  1.00  0.00     0.031 A 
ATOM     80  C   UNL A   1      38.790  29.604  32.323  1.00  0.00     0.131 A 
ATOM     81  C   UNL A   1      36.788  31.272  31.407  1.00  0.00     0.055 A 
ATOM     82  C   UNL A   1      37.766  29.995  33.190  1.00  0.00     0.041 A 
ATOM     83  F   UNL A   1      39.761  28.823  32.822  1.00  0.00    -0.206 F 
ATOM     84  C   UNL A   1      36.768  30.852  32.737  1.00  0.00     0.022 A 
BRANCH  81  85
ATOM     85  S   UNL A   1      35.610  32.529  30.834  1.00  0.00     0.124 S 
ATOM     86  O   UNL A   1      36.322  33.763  31.141  1.00  0.00    -0.237 OA
ATOM     87  O   UNL A   1      35.479  32.198  29.419  1.00  0.00    -0.237 OA
ATOM     88  O   UNL A   1      34.421  32.274  31.646  1.00  0.00    -0.744 OA
ENDBRANCH  81  85
ENDBRANCH  54  78
BRANCH  66  89
ATOM     89  C   UNL A   1      44.612  33.441  29.161  1.00  0.00     0.023 A 
ATOM     90  C   UNL A   1      44.288  34.521  28.321  1.00  0.00     0.031 A 
ATOM     91  C   UNL A   1      45.413  33.698  30.289  1.00  0.00     0.131 A 
ATOM     92  C   UNL A   1      44.810  35.796  28.590  1.00  0.00     0.055 A 
ATOM     93  C   UNL A   1      45.875  34.980  30.588  1.00  0.00     0.041 A 
ATOM     94  F   UNL A   1      45.757  32.704  31.125  1.00  0.00    -0.206 F 
ATOM     95  C   UNL A   1      45.585  36.036  29.728  1.00  0.00     0.022 A 
BRANCH  92  96
ATOM     96  S   UNL A   1      44.543  37.120  27.379  1.00  0.00     0.124 S 
ATOM     97  O   UNL A   1      44.491  38.304  28.230  1.00  0.00    -0.237 OA
ATOM     98  O   UNL A   1      45.721  37.002  26.525  1.00  0.00    -0.237 OA
ATOM     99  O   UNL A   1      43.279  36.754  26.744  1.00  0.00    -0.744 OA
ENDBRANCH  92  96
ENDBRANCH  66  89
ENDBRANCH  40  41
ENDBRANCH  32  35
ENDBRANCH  30  31
ENDBRANCH   1  30
TORSDOF 17
ENDMDL
MODEL 2
REMARK VINA RESULT:     -12.7      5.501      9.035
REMARK SMILES COc1ccc([C@@H]2[C@H](C(=O)NCCCCNC(=O)c3ccc(-c4c5nc(c(-c6cc(S(=O)(=O)[O-])ccc6F)c6ccc([nH]6)c(-c6cc(S(=O)(=O)[O-])ccc6F)c6nc(c(-c7cc(S(=O)(=O)[O-])ccc7F)c7ccc4[nH]7)C=C6)C=C5)cc3)c3ccccc3C(=O)N2C2CC2)cc1
REMARK SMILES IDX 14 1 13 2 12 3 11 4 9 5 10 6 8 8 7 9 90 10 82 11 88 12 83 13
REMARK SMILES IDX 87 14 89 15 84 16 86 17 85 18 6 19 3 20 4 21 95 22 5 23
REMARK SMILES IDX 94 24 2 25 1 26 91 27 92 28 93 29 15 30 16 31 17 32 18 34
REMARK SMILES IDX 19 35 20 36 81 37 21 38 80 39 22 40 23 41 24 42 74 43 25 44
REMARK SMILES IDX 79 45 73 46 75 47 26 48 78 49 72 50 71 51 27 53 59 54 39 55
REMARK SMILES IDX 58 56 40 57 43 58 57 59 76 60 41 61 42 62 56 64 77 65 44 66
REMARK SMILES IDX 28 67 29 68 37 69 30 70 36 71 38 72 35 73 31 74 32 75 33 76
REMARK SMILES IDX 34 77 60 78 61 79 69 80 62 81 68 82 70 83 67 84 63 85 64 86
REMARK SMILES IDX 65 87 66 88 45 89 46 90 54 91 47 92 53 93 55 94 52 95 48 96
REMARK SMILES IDX 49 97 50 98 51 99
REMARK H PARENT 11 7 16 33 75 52 43 63
REMARK Flexibility Score: inf
ROOT
ATOM      1  C   UNL A   1      31.874  31.071  26.885  1.00  0.00     0.023 C 
ENDROOT
BRANCH   1   2
ATOM      2  C   UNL A   1      32.186  29.632  27.319  1.00  0.00     0.023 C 
BRANCH   2   3
ATOM      3  C   UNL A   1      31.472  28.503  26.546  1.00  0.00     0.116 C 
BRANCH   3   4
ATOM      4  N   UNL A   1      32.352  27.696  25.707  1.00  0.00    -0.355 N 
ATOM      5  C   UNL A   1      32.065  26.377  25.468  1.00  0.00     0.230 C 
ATOM      6  O   UNL A   1      32.551  25.589  26.282  1.00  0.00    -0.274 OA
ATOM      7  H   UNL A   1      33.156  28.102  25.309  1.00  0.00     0.163 HD
BRANCH   5   8
ATOM      8  C   UNL A   1      31.014  25.976  24.398  1.00  0.00     0.136 C 
ATOM      9  C   UNL A   1      31.005  26.843  23.084  1.00  0.00     0.133 C 
ATOM     10  N   UNL A   1      32.318  26.806  22.417  1.00  0.00    -0.327 N 
ATOM     11  C   UNL A   1      31.402  24.552  23.946  1.00  0.00    -0.020 A 
ATOM     12  C   UNL A   1      32.631  25.521  21.914  1.00  0.00     0.254 C 
ATOM     13  C   UNL A   1      31.120  23.452  24.772  1.00  0.00     0.005 A 
ATOM     14  C   UNL A   1      32.208  24.366  22.793  1.00  0.00     0.044 A 
ATOM     15  O   UNL A   1      33.319  25.334  20.916  1.00  0.00    -0.269 OA
ATOM     16  C   UNL A   1      31.713  22.216  24.521  1.00  0.00     0.000 A 
ATOM     17  C   UNL A   1      32.753  23.104  22.528  1.00  0.00     0.014 A 
ATOM     18  C   UNL A   1      32.533  22.044  23.407  1.00  0.00     0.001 A 
BRANCH   9  19
ATOM     19  C   UNL A   1      30.083  28.061  22.855  1.00  0.00    -0.024 A 
ATOM     20  C   UNL A   1      28.247  30.190  22.332  1.00  0.00     0.118 A 
ATOM     21  C   UNL A   1      29.541  30.243  21.851  1.00  0.00     0.047 A 
ATOM     22  C   UNL A   1      27.819  29.045  22.994  1.00  0.00     0.047 A 
ATOM     23  C   UNL A   1      30.427  29.186  22.098  1.00  0.00     0.010 A 
ATOM     24  C   UNL A   1      28.729  28.005  23.267  1.00  0.00     0.010 A 
BRANCH  20  25
ATOM     25  O   UNL A   1      27.452  31.269  22.067  1.00  0.00    -0.497 OA
ATOM     26  C   UNL A   1      28.090  32.510  22.357  1.00  0.00     0.278 C 
ENDBRANCH  20  25
ENDBRANCH   9  19
BRANCH  10  27
ATOM     27  C   UNL A   1      33.502  27.506  22.928  1.00  0.00     0.086 C 
ATOM     28  C   UNL A   1      34.489  28.276  22.108  1.00  0.00     0.027 C 
ATOM     29  C   UNL A   1      33.648  28.993  23.126  1.00  0.00     0.027 C 
ENDBRANCH  10  27
ENDBRANCH   5   8
ENDBRANCH   3   4
ENDBRANCH   2   3
ENDBRANCH   1   2
BRANCH   1  30
ATOM     30  C   UNL A   1      33.038  32.057  26.945  1.00  0.00     0.116 C 
BRANCH  30  31
ATOM     31  N   UNL A   1      32.649  33.389  27.386  1.00  0.00    -0.352 N 
ATOM     32  C   UNL A   1      33.166  34.172  28.390  1.00  0.00     0.251 C 
ATOM     33  H   UNL A   1      31.900  33.790  26.889  1.00  0.00     0.163 HD
ATOM     34  O   UNL A   1      32.615  35.239  28.657  1.00  0.00    -0.269 OA
BRANCH  32  35
ATOM     35  C   UNL A   1      34.344  33.729  29.171  1.00  0.00     0.039 A 
ATOM     36  C   UNL A   1      34.158  32.794  30.195  1.00  0.00     0.014 A 
ATOM     37  C   UNL A   1      35.624  34.223  28.910  1.00  0.00     0.014 A 
ATOM     38  C   UNL A   1      35.260  32.302  30.902  1.00  0.00     0.010 A 
ATOM     39  C   UNL A   1      36.729  33.680  29.565  1.00  0.00     0.010 A 
ATOM     40  C   UNL A   1      36.562  32.708  30.564  1.00  0.00    -0.014 A 
BRANCH  40  41
ATOM     41  C   UNL A   1      37.755  32.121  31.233  1.00  0.00     0.031 A 
ATOM     42  C   UNL A   1      38.518  30.999  30.575  1.00  0.00     0.074 A 
ATOM     43  C   UNL A   1      38.108  32.547  32.464  1.00  0.00     0.049 A 
ATOM     44  N   UNL A   1      39.521  30.299  31.038  1.00  0.00    -0.248 NA
ATOM     45  C   UNL A   1      38.076  30.596  29.231  1.00  0.00     0.031 C 
ATOM     46  C   UNL A   1      37.425  33.598  33.222  1.00  0.00     0.029 A 
ATOM     47  N   UNL A   1      39.118  32.144  33.304  1.00  0.00    -0.354 N 
ATOM     48  C   UNL A   1      39.817  29.362  30.055  1.00  0.00     0.074 A 
ATOM     49  C   UNL A   1      38.858  29.552  28.989  1.00  0.00     0.031 C 
ATOM     50  C   UNL A   1      38.045  33.768  34.400  1.00  0.00     0.029 A 
ATOM     51  C   UNL A   1      39.136  32.806  34.511  1.00  0.00     0.049 A 
ATOM     52  H   UNL A   1      39.770  31.446  33.064  1.00  0.00     0.167 HD
ATOM     53  C   UNL A   1      40.810  28.437  30.037  1.00  0.00     0.034 A 
ATOM     54  C   UNL A   1      39.927  32.644  35.592  1.00  0.00     0.034 A 
ATOM     55  C   UNL A   1      41.777  28.276  31.095  1.00  0.00     0.049 A 
ATOM     56  C   UNL A   1      41.013  31.595  35.547  1.00  0.00     0.074 A 
ATOM     57  C   UNL A   1      42.867  27.422  31.139  1.00  0.00     0.029 A 
ATOM     58  N   UNL A   1      41.771  28.973  32.296  1.00  0.00    -0.354 N 
ATOM     59  N   UNL A   1      41.320  30.764  34.577  1.00  0.00    -0.248 NA
ATOM     60  C   UNL A   1      41.869  31.472  36.735  1.00  0.00     0.031 C 
ATOM     61  C   UNL A   1      43.471  27.546  32.393  1.00  0.00     0.029 A 
ATOM     62  C   UNL A   1      42.814  28.541  33.100  1.00  0.00     0.049 A 
ATOM     63  H   UNL A   1      41.122  29.672  32.539  1.00  0.00     0.167 HD
ATOM     64  C   UNL A   1      42.428  30.050  35.029  1.00  0.00     0.074 A 
ATOM     65  C   UNL A   1      42.746  30.561  36.344  1.00  0.00     0.031 C 
ATOM     66  C   UNL A   1      43.123  29.062  34.410  1.00  0.00     0.034 A 
BRANCH  53  67
ATOM     67  C   UNL A   1      40.892  27.508  28.851  1.00  0.00     0.023 A 
ATOM     68  C   UNL A   1      41.862  27.667  27.847  1.00  0.00     0.031 A 
ATOM     69  C   UNL A   1      39.999  26.426  28.739  1.00  0.00     0.131 A 
ATOM     70  C   UNL A   1      41.888  26.787  26.753  1.00  0.00     0.055 A 
ATOM     71  C   UNL A   1      40.076  25.512  27.687  1.00  0.00     0.041 A 
ATOM     72  F   UNL A   1      39.037  26.238  29.656  1.00  0.00    -0.206 F 
ATOM     73  C   UNL A   1      41.020  25.695  26.681  1.00  0.00     0.022 A 
BRANCH  70  74
ATOM     74  S   UNL A   1      43.006  27.150  25.372  1.00  0.00     0.124 S 
ATOM     75  O   UNL A   1      42.274  28.201  24.669  1.00  0.00    -0.237 OA
ATOM     76  O   UNL A   1      44.226  27.567  26.053  1.00  0.00    -0.237 OA
ATOM     77  O   UNL A   1      43.095  25.877  24.659  1.00  0.00    -0.744 OA
ENDBRANCH  70  74
ENDBRANCH  53  67
BRANCH  54  78
ATOM     78  C   UNL A   1      39.720  33.462  36.825  1.00  0.00     0.023 A 
ATOM     79  C   UNL A   1      39.064  32.928  37.947  1.00  0.00     0.031 A 
ATOM     80  C   UNL A   1      40.093  34.818  36.869  1.00  0.00     0.131 A 
ATOM     81  C   UNL A   1      38.734  33.760  39.029  1.00  0.00     0.055 A 
ATOM     82  C   UNL A   1      39.826  35.624  37.978  1.00  0.00     0.041 A 
ATOM     83  F   UNL A   1      40.723  35.384  35.827  1.00  0.00    -0.206 F 
ATOM     84  C   UNL A   1      39.123  35.100  39.058  1.00  0.00     0.022 A 
BRANCH  81  85
ATOM     85  S   UNL A   1      37.663  33.097  40.335  1.00  0.00     0.124 S 
ATOM     86  O   UNL A   1      36.434  32.823  39.599  1.00  0.00    -0.237 OA
ATOM     87  O   UNL A   1      38.418  31.930  40.781  1.00  0.00    -0.237 OA
ATOM     88  O   UNL A   1      37.584  34.193  41.298  1.00  0.00    -0.744 OA
ENDBRANCH  81  85
ENDBRANCH  54  78
BRANCH  66  89
ATOM     89  C   UNL A   1      44.333  28.514  35.128  1.00  0.00     0.023 A 
ATOM     90  C   UNL A   1      44.241  27.433  36.022  1.00  0.00     0.031 A 
ATOM     91  C   UNL A   1      45.598  29.094  34.920  1.00  0.00     0.131 A 
ATOM     92  C   UNL A   1      45.382  27.002  36.717  1.00  0.00     0.055 A 
ATOM     93  C   UNL A   1      46.741  28.618  35.563  1.00  0.00     0.041 A 
ATOM     94  F   UNL A   1      45.745  30.131  34.079  1.00  0.00    -0.206 F 
ATOM     95  C   UNL A   1      46.634  27.575  36.479  1.00  0.00     0.022 A 
BRANCH  92  96
ATOM     96  S   UNL A   1      45.191  25.746  38.011  1.00  0.00     0.124 S 
ATOM     97  O   UNL A   1      43.913  25.138  37.658  1.00  0.00    -0.237 OA
ATOM     98  O   UNL A   1      46.370  24.909  37.809  1.00  0.00    -0.237 OA
ATOM     99  O   UNL A   1      45.190  26.524  39.248  1.00  0.00    -0.744 OA
ENDBRANCH  92  96
ENDBRANCH  66  89
ENDBRANCH  40  41
ENDBRANCH  32  35
ENDBRANCH  30  31
ENDBRANCH   1  30
TORSDOF 17
ENDMDL
MODEL 3
REMARK VINA RESULT:     -12.6      4.726      9.124
REMARK SMILES COc1ccc([C@@H]2[C@H](C(=O)NCCCCNC(=O)c3ccc(-c4c5nc(c(-c6cc(S(=O)(=O)[O-])ccc6F)c6ccc([nH]6)c(-c6cc(S(=O)(=O)[O-])ccc6F)c6nc(c(-c7cc(S(=O)(=O)[O-])ccc7F)c7ccc4[nH]7)C=C6)C=C5)cc3)c3ccccc3C(=O)N2C2CC2)cc1
REMARK SMILES IDX 14 1 13 2 12 3 11 4 9 5 10 6 8 8 7 9 90 10 82 11 88 12 83 13
REMARK SMILES IDX 87 14 89 15 84 16 86 17 85 18 6 19 3 20 4 21 95 22 5 23
REMARK SMILES IDX 94 24 2 25 1 26 91 27 92 28 93 29 15 30 16 31 17 32 18 34
REMARK SMILES IDX 19 35 20 36 81 37 21 38 80 39 22 40 23 41 24 42 74 43 25 44
REMARK SMILES IDX 79 45 73 46 75 47 26 48 78 49 72 50 71 51 27 53 59 54 39 55
REMARK SMILES IDX 58 56 40 57 43 58 57 59 76 60 41 61 42 62 56 64 77 65 44 66
REMARK SMILES IDX 28 67 29 68 37 69 30 70 36 71 38 72 35 73 31 74 32 75 33 76
REMARK SMILES IDX 34 77 60 78 61 79 69 80 62 81 68 82 70 83 67 84 63 85 64 86
REMARK SMILES IDX 65 87 66 88 45 89 46 90 54 91 47 92 53 93 55 94 52 95 48 96
REMARK SMILES IDX 49 97 50 98 51 99
REMARK H PARENT 11 7 16 33 75 52 43 63
REMARK Flexibility Score: inf
ROOT
ATOM      1  C   UNL A   1      32.962  28.023  25.493  1.00  0.00     0.023 C 
ENDROOT
BRANCH   1   2
ATOM      2  C   UNL A   1      33.271  27.242  24.209  1.00  0.00     0.023 C 
BRANCH   2   3
ATOM      3  C   UNL A   1      33.507  25.724  24.359  1.00  0.00     0.116 C 
BRANCH   3   4
ATOM      4  N   UNL A   1      33.362  24.965  23.122  1.00  0.00    -0.355 N 
ATOM      5  C   UNL A   1      33.353  23.594  23.147  1.00  0.00     0.230 C 
ATOM      6  O   UNL A   1      34.462  23.069  23.031  1.00  0.00    -0.274 OA
ATOM      7  H   UNL A   1      33.269  25.439  22.265  1.00  0.00     0.163 HD
BRANCH   5   8
ATOM      8  C   UNL A   1      32.065  22.817  23.534  1.00  0.00     0.136 C 
ATOM      9  C   UNL A   1      32.210  21.797  24.724  1.00  0.00     0.133 C 
ATOM     10  N   UNL A   1      32.677  22.470  25.947  1.00  0.00    -0.327 N 
ATOM     11  C   UNL A   1      31.069  23.886  24.032  1.00  0.00    -0.020 A 
ATOM     12  C   UNL A   1      31.722  23.379  26.460  1.00  0.00     0.254 C 
ATOM     13  C   UNL A   1      30.407  24.712  23.110  1.00  0.00     0.005 A 
ATOM     14  C   UNL A   1      30.959  24.166  25.418  1.00  0.00     0.044 A 
ATOM     15  O   UNL A   1      31.601  23.633  27.654  1.00  0.00    -0.269 OA
ATOM     16  C   UNL A   1      29.739  25.856  23.545  1.00  0.00     0.000 A 
ATOM     17  C   UNL A   1      30.240  25.291  25.841  1.00  0.00     0.014 A 
ATOM     18  C   UNL A   1      29.662  26.149  24.905  1.00  0.00     0.001 A 
BRANCH   9  19
ATOM     19  C   UNL A   1      32.499  20.290  24.543  1.00  0.00    -0.024 A 
ATOM     20  C   UNL A   1      32.848  17.482  24.128  1.00  0.00     0.118 A 
ATOM     21  C   UNL A   1      32.927  18.020  25.397  1.00  0.00     0.047 A 
ATOM     22  C   UNL A   1      32.503  18.307  23.064  1.00  0.00     0.047 A 
ATOM     23  C   UNL A   1      32.737  19.394  25.591  1.00  0.00     0.010 A 
ATOM     24  C   UNL A   1      32.350  19.693  23.267  1.00  0.00     0.010 A 
BRANCH  20  25
ATOM     25  O   UNL A   1      33.065  16.138  24.019  1.00  0.00    -0.497 OA
ATOM     26  C   UNL A   1      33.804  15.607  25.118  1.00  0.00     0.278 C 
ENDBRANCH  20  25
ENDBRANCH   9  19
BRANCH  10  27
ATOM     27  C   UNL A   1      34.052  22.950  26.129  1.00  0.00     0.086 C 
ATOM     28  C   UNL A   1      34.850  22.871  27.392  1.00  0.00     0.027 C 
ATOM     29  C   UNL A   1      35.297  22.101  26.181  1.00  0.00     0.027 C 
ENDBRANCH  10  27
ENDBRANCH   5   8
ENDBRANCH   3   4
ENDBRANCH   2   3
ENDBRANCH   1   2
BRANCH   1  30
ATOM     30  C   UNL A   1      34.136  28.770  26.123  1.00  0.00     0.116 C 
BRANCH  30  31
ATOM     31  N   UNL A   1      33.783  30.093  26.619  1.00  0.00    -0.352 N 
ATOM     32  C   UNL A   1      34.422  30.890  27.537  1.00  0.00     0.251 C 
ATOM     33  H   UNL A   1      32.959  30.475  26.238  1.00  0.00     0.163 HD
ATOM     34  O   UNL A   1      33.891  31.944  27.884  1.00  0.00    -0.269 OA
BRANCH  32  35
ATOM     35  C   UNL A   1      35.713  30.477  28.136  1.00  0.00     0.039 A 
ATOM     36  C   UNL A   1      35.697  29.729  29.317  1.00  0.00     0.014 A 
ATOM     37  C   UNL A   1      36.935  30.820  27.551  1.00  0.00     0.014 A 
ATOM     38  C   UNL A   1      36.896  29.262  29.866  1.00  0.00     0.010 A 
ATOM     39  C   UNL A   1      38.123  30.295  28.058  1.00  0.00     0.010 A 
ATOM     40  C   UNL A   1      38.118  29.505  29.218  1.00  0.00    -0.014 A 
BRANCH  40  41
ATOM     41  C   UNL A   1      39.393  28.931  29.729  1.00  0.00     0.031 A 
ATOM     42  C   UNL A   1      40.135  29.611  30.851  1.00  0.00     0.074 A 
ATOM     43  C   UNL A   1      39.919  27.839  29.135  1.00  0.00     0.049 A 
ATOM     44  N   UNL A   1      41.300  29.319  31.369  1.00  0.00    -0.248 NA
ATOM     45  C   UNL A   1      39.493  30.791  31.451  1.00  0.00     0.031 C 
ATOM     46  C   UNL A   1      39.316  27.114  28.014  1.00  0.00     0.029 A 
ATOM     47  N   UNL A   1      41.085  27.153  29.377  1.00  0.00    -0.354 N 
ATOM     48  C   UNL A   1      41.541  30.286  32.338  1.00  0.00     0.074 A 
ATOM     49  C   UNL A   1      40.421  31.202  32.305  1.00  0.00     0.031 C 
ATOM     50  C   UNL A   1      40.104  26.079  27.681  1.00  0.00     0.029 A 
ATOM     51  C   UNL A   1      41.295  26.093  28.524  1.00  0.00     0.049 A 
ATOM     52  H   UNL A   1      41.713  27.397  30.096  1.00  0.00     0.167 HD
ATOM     53  C   UNL A   1      42.592  30.391  33.189  1.00  0.00     0.034 A 
ATOM     54  C   UNL A   1      42.336  25.241  28.419  1.00  0.00     0.034 A 
ATOM     55  C   UNL A   1      43.690  29.455  33.229  1.00  0.00     0.049 A 
ATOM     56  C   UNL A   1      43.499  25.393  29.369  1.00  0.00     0.074 A 
ATOM     57  C   UNL A   1      44.763  29.428  34.103  1.00  0.00     0.029 A 
ATOM     58  N   UNL A   1      43.860  28.386  32.358  1.00  0.00    -0.354 N 
ATOM     59  N   UNL A   1      43.675  26.276  30.327  1.00  0.00    -0.248 NA
ATOM     60  C   UNL A   1      44.598  24.427  29.237  1.00  0.00     0.031 C 
ATOM     61  C   UNL A   1      45.621  28.396  33.714  1.00  0.00     0.029 A 
ATOM     62  C   UNL A   1      45.040  27.720  32.652  1.00  0.00     0.049 A 
ATOM     63  H   UNL A   1      43.236  28.139  31.639  1.00  0.00     0.167 HD
ATOM     64  C   UNL A   1      44.885  25.942  30.932  1.00  0.00     0.074 A 
ATOM     65  C   UNL A   1      45.383  24.770  30.246  1.00  0.00     0.031 C 
ATOM     66  C   UNL A   1      45.525  26.549  31.963  1.00  0.00     0.034 A 
BRANCH  53  67
ATOM     67  C   UNL A   1      42.628  31.569  34.131  1.00  0.00     0.023 A 
ATOM     68  C   UNL A   1      42.081  31.504  35.424  1.00  0.00     0.031 A 
ATOM     69  C   UNL A   1      43.246  32.770  33.736  1.00  0.00     0.131 A 
ATOM     70  C   UNL A   1      42.122  32.632  36.258  1.00  0.00     0.055 A 
ATOM     71  C   UNL A   1      43.348  33.864  34.597  1.00  0.00     0.041 A 
ATOM     72  F   UNL A   1      43.765  32.897  32.505  1.00  0.00    -0.206 F 
ATOM     73  C   UNL A   1      42.776  33.801  35.864  1.00  0.00     0.022 A 
BRANCH  70  74
ATOM     74  S   UNL A   1      41.217  32.583  37.829  1.00  0.00     0.124 S 
ATOM     75  O   UNL A   1      42.061  31.696  38.627  1.00  0.00    -0.237 OA
ATOM     76  O   UNL A   1      41.204  33.984  38.230  1.00  0.00    -0.237 OA
ATOM     77  O   UNL A   1      39.916  32.028  37.459  1.00  0.00    -0.744 OA
ENDBRANCH  70  74
ENDBRANCH  53  67
BRANCH  54  78
ATOM     78  C   UNL A   1      42.358  24.182  27.364  1.00  0.00     0.023 A 
ATOM     79  C   UNL A   1      41.732  22.941  27.571  1.00  0.00     0.031 A 
ATOM     80  C   UNL A   1      43.082  24.359  26.172  1.00  0.00     0.131 A 
ATOM     81  C   UNL A   1      41.905  21.905  26.640  1.00  0.00     0.055 A 
ATOM     82  C   UNL A   1      43.191  23.347  25.214  1.00  0.00     0.041 A 
ATOM     83  F   UNL A   1      43.702  25.523  25.918  1.00  0.00    -0.206 F 
ATOM     84  C   UNL A   1      42.618  22.103  25.457  1.00  0.00     0.022 A 
BRANCH  81  85
ATOM     85  S   UNL A   1      41.301  20.248  27.069  1.00  0.00     0.124 S 
ATOM     86  O   UNL A   1      40.769  20.465  28.410  1.00  0.00    -0.237 OA
ATOM     87  O   UNL A   1      40.317  20.004  26.020  1.00  0.00    -0.237 OA
ATOM     88  O   UNL A   1      42.504  19.420  27.000  1.00  0.00    -0.744 OA
ENDBRANCH  81  85
ENDBRANCH  54  78
BRANCH  66  89
ATOM     89  C   UNL A   1      46.806  25.914  32.449  1.00  0.00     0.023 A 
ATOM     90  C   UNL A   1      46.818  24.959  33.481  1.00  0.00     0.031 A 
ATOM     91  C   UNL A   1      48.037  26.281  31.873  1.00  0.00     0.131 A 
ATOM     92  C   UNL A   1      48.039  24.446  33.944  1.00  0.00     0.055 A 
ATOM     93  C   UNL A   1      49.242  25.718  32.293  1.00  0.00     0.041 A 
ATOM     94  F   UNL A   1      48.086  27.190  30.886  1.00  0.00    -0.206 F 
ATOM     95  C   UNL A   1      49.250  24.805  33.344  1.00  0.00     0.022 A 
BRANCH  92  96
ATOM     96  S   UNL A   1      48.036  23.376  35.408  1.00  0.00     0.124 S 
ATOM     97  O   UNL A   1      46.608  23.173  35.632  1.00  0.00    -0.237 OA
ATOM     98  O   UNL A   1      48.779  22.209  34.943  1.00  0.00    -0.237 OA
ATOM     99  O   UNL A   1      48.717  24.178  36.422  1.00  0.00    -0.744 OA
ENDBRANCH  92  96
ENDBRANCH  66  89
ENDBRANCH  40  41
ENDBRANCH  32  35
ENDBRANCH  30  31
ENDBRANCH   1  30
TORSDOF 17
ENDMDL
