MODEL 1
REMARK VINA RESULT:     -12.6      0.000      0.000
REMARK SMILES O=C(NCCCCNC(=O)[C@@H]1CCCC[C@H]1C(=O)Nc1ccc(NC(=O)c2ccco2)cc1)c1ccc(-c2c3nc(c(-c4cc(S(=O)(=O)[O-])ccc4F)c4ccc([nH]4)c(-c4cc(S(=O)(=O)[O-])ccc4F)c4nc(c(-c5cc(S(=O)(=O)[O-])ccc5F)c5ccc2[nH]5)C=C4)C=C3)cc1
REMARK SMILES IDX 6 1 5 2 4 3 3 4 1 5 2 6 34 8 35 9 96 10 36 11 95 12 37 13
REMARK SMILES IDX 38 14 39 15 89 16 40 17 94 18 88 19 90 20 41 21 93 22 87 23
REMARK SMILES IDX 86 24 42 26 74 27 54 28 73 29 55 30 58 31 72 32 91 33 56 34
REMARK SMILES IDX 57 35 71 37 92 38 59 39 43 40 44 41 52 42 45 43 51 44 53 45
REMARK SMILES IDX 50 46 46 47 47 48 48 49 49 50 75 51 76 52 84 53 77 54 83 55
REMARK SMILES IDX 85 56 82 57 78 58 79 59 80 60 81 61 60 62 61 63 69 64 62 65
REMARK SMILES IDX 68 66 70 67 67 68 63 69 64 70 65 71 66 72 7 73 8 74 9 75
REMARK SMILES IDX 10 77 11 78 12 79 16 80 13 81 15 82 14 83 17 84 18 85 19 86
REMARK SMILES IDX 20 88 21 89 33 90 22 91 32 92 23 93 24 94 25 95 26 97 27 98
REMARK SMILES IDX 28 99 31 100 29 101 30 102
REMARK H PARENT 3 7 90 25 58 36 8 76 19 87 24 96
REMARK Flexibility Score: inf
ROOT
ATOM      1  C   UNL A   1      32.662  27.519  27.092  1.00  0.00     0.023 C 
ENDROOT
BRANCH   1   2
ATOM      2  C   UNL A   1      31.984  28.868  26.957  1.00  0.00     0.023 C 
BRANCH   2   3
ATOM      3  C   UNL A   1      32.737  29.922  26.157  1.00  0.00     0.116 C 
BRANCH   3   4
ATOM      4  N   UNL A   1      32.492  31.301  26.571  1.00  0.00    -0.352 N 
ATOM      5  O   UNL A   1      32.912  33.258  27.634  1.00  0.00    -0.269 OA
ATOM      6  C   UNL A   1      33.294  32.132  27.327  1.00  0.00     0.251 C 
ATOM      7  H   UNL A   1      31.640  31.689  26.269  1.00  0.00     0.163 HD
BRANCH   6   8
ATOM      8  C   UNL A   1      34.602  31.631  27.801  1.00  0.00     0.039 A 
ATOM      9  C   UNL A   1      34.747  30.286  28.144  1.00  0.00     0.014 A 
ATOM     10  C   UNL A   1      35.655  32.526  28.002  1.00  0.00     0.014 A 
ATOM     11  C   UNL A   1      35.844  29.892  28.896  1.00  0.00     0.010 A 
ATOM     12  C   UNL A   1      36.816  32.093  28.652  1.00  0.00     0.010 A 
ATOM     13  C   UNL A   1      36.896  30.786  29.157  1.00  0.00    -0.014 A 
BRANCH  13  14
ATOM     14  C   UNL A   1      38.070  30.305  29.935  1.00  0.00     0.031 A 
ATOM     15  C   UNL A   1      39.103  29.396  29.319  1.00  0.00     0.074 A 
ATOM     16  C   UNL A   1      38.228  30.751  31.197  1.00  0.00     0.049 A 
ATOM     17  N   UNL A   1      40.188  28.899  29.856  1.00  0.00    -0.248 NA
ATOM     18  C   UNL A   1      38.885  28.984  27.924  1.00  0.00     0.031 C 
ATOM     19  C   UNL A   1      37.293  31.638  31.896  1.00  0.00     0.029 A 
ATOM     20  N   UNL A   1      39.233  30.551  32.106  1.00  0.00    -0.354 N 
ATOM     21  C   UNL A   1      40.771  28.097  28.880  1.00  0.00     0.074 A 
ATOM     22  C   UNL A   1      39.899  28.154  27.724  1.00  0.00     0.031 C 
ATOM     23  C   UNL A   1      37.799  31.957  33.094  1.00  0.00     0.029 A 
ATOM     24  C   UNL A   1      39.046  31.229  33.288  1.00  0.00     0.049 A 
ATOM     25  H   UNL A   1      40.014  29.978  31.931  1.00  0.00     0.167 HD
ATOM     26  C   UNL A   1      41.924  27.383  28.944  1.00  0.00     0.034 A 
ATOM     27  C   UNL A   1      39.779  31.246  34.417  1.00  0.00     0.034 A 
ATOM     28  C   UNL A   1      42.786  27.351  30.104  1.00  0.00     0.049 A 
ATOM     29  C   UNL A   1      41.035  30.424  34.471  1.00  0.00     0.074 A 
ATOM     30  C   UNL A   1      43.990  26.686  30.267  1.00  0.00     0.029 A 
ATOM     31  N   UNL A   1      42.535  28.008  31.303  1.00  0.00    -0.354 N 
ATOM     32  N   UNL A   1      41.564  29.666  33.539  1.00  0.00    -0.248 NA
ATOM     33  C   UNL A   1      41.788  30.458  35.729  1.00  0.00     0.031 C 
ATOM     34  C   UNL A   1      44.433  26.889  31.579  1.00  0.00     0.029 A 
ATOM     35  C   UNL A   1      43.545  27.739  32.217  1.00  0.00     0.049 A 
ATOM     36  H   UNL A   1      41.755  28.581  31.479  1.00  0.00     0.167 HD
ATOM     37  C   UNL A   1      42.721  29.136  34.099  1.00  0.00     0.074 A 
ATOM     38  C   UNL A   1      42.824  29.685  35.437  1.00  0.00     0.031 C 
ATOM     39  C   UNL A   1      43.616  28.272  33.557  1.00  0.00     0.034 A 
BRANCH  26  40
ATOM     40  C   UNL A   1      42.294  26.537  27.747  1.00  0.00     0.023 A 
ATOM     41  C   UNL A   1      42.062  25.150  27.711  1.00  0.00     0.031 A 
ATOM     42  C   UNL A   1      42.898  27.131  26.623  1.00  0.00     0.131 A 
ATOM     43  C   UNL A   1      42.487  24.397  26.606  1.00  0.00     0.055 A 
ATOM     44  C   UNL A   1      43.252  26.386  25.495  1.00  0.00     0.041 A 
ATOM     45  F   UNL A   1      43.162  28.446  26.604  1.00  0.00    -0.206 F 
ATOM     46  C   UNL A   1      43.059  25.009  25.487  1.00  0.00     0.022 A 
BRANCH  43  47
ATOM     47  S   UNL A   1      42.399  22.586  26.701  1.00  0.00     0.124 S 
ATOM     48  O   UNL A   1      43.791  22.235  26.966  1.00  0.00    -0.237 OA
ATOM     49  O   UNL A   1      41.465  22.374  27.801  1.00  0.00    -0.237 OA
ATOM     50  O   UNL A   1      41.906  22.197  25.382  1.00  0.00    -0.744 OA
ENDBRANCH  43  47
ENDBRANCH  26  40
BRANCH  27  51
ATOM     51  C   UNL A   1      39.312  32.029  35.595  1.00  0.00     0.023 A 
ATOM     52  C   UNL A   1      38.564  31.427  36.616  1.00  0.00     0.031 A 
ATOM     53  C   UNL A   1      39.606  33.400  35.709  1.00  0.00     0.131 A 
ATOM     54  C   UNL A   1      38.109  32.201  37.695  1.00  0.00     0.055 A 
ATOM     55  C   UNL A   1      39.198  34.153  36.809  1.00  0.00     0.041 A 
ATOM     56  F   UNL A   1      40.325  34.022  34.759  1.00  0.00    -0.206 F 
ATOM     57  C   UNL A   1      38.434  33.556  37.805  1.00  0.00     0.022 A 
BRANCH  54  58
ATOM     58  S   UNL A   1      37.022  31.427  38.922  1.00  0.00     0.124 S 
ATOM     59  O   UNL A   1      36.864  30.084  38.376  1.00  0.00    -0.237 OA
ATOM     60  O   UNL A   1      37.817  31.535  40.141  1.00  0.00    -0.237 OA
ATOM     61  O   UNL A   1      35.822  32.261  38.887  1.00  0.00    -0.744 OA
ENDBRANCH  54  58
ENDBRANCH  27  51
BRANCH  39  62
ATOM     62  C   UNL A   1      44.794  27.897  34.421  1.00  0.00     0.023 A 
ATOM     63  C   UNL A   1      44.725  26.830  35.332  1.00  0.00     0.031 A 
ATOM     64  C   UNL A   1      45.983  28.643  34.360  1.00  0.00     0.131 A 
ATOM     65  C   UNL A   1      45.803  26.575  36.192  1.00  0.00     0.055 A 
ATOM     66  C   UNL A   1      47.075  28.349  35.177  1.00  0.00     0.041 A 
ATOM     67  F   UNL A   1      46.100  29.675  33.509  1.00  0.00    -0.206 F 
ATOM     68  C   UNL A   1      46.984  27.319  36.110  1.00  0.00     0.022 A 
BRANCH  65  69
ATOM     69  S   UNL A   1      45.608  25.319  37.486  1.00  0.00     0.124 S 
ATOM     70  O   UNL A   1      44.161  25.290  37.663  1.00  0.00    -0.237 OA
ATOM     71  O   UNL A   1      46.199  24.138  36.866  1.00  0.00    -0.237 OA
ATOM     72  O   UNL A   1      46.360  25.868  38.613  1.00  0.00    -0.744 OA
ENDBRANCH  65  69
ENDBRANCH  39  62
ENDBRANCH  13  14
ENDBRANCH   6   8
ENDBRANCH   3   4
ENDBRANCH   2   3
ENDBRANCH   1   2
BRANCH   1  73
ATOM     73  C   UNL A   1      32.265  26.459  26.083  1.00  0.00     0.116 C 
BRANCH  73  74
ATOM     74  N   UNL A   1      31.394  25.388  26.480  1.00  0.00    -0.356 N 
ATOM     75  C   UNL A   1      31.698  24.051  26.549  1.00  0.00     0.223 C 
ATOM     76  H   UNL A   1      30.476  25.642  26.730  1.00  0.00     0.163 HD
ATOM     77  O   UNL A   1      30.930  23.340  27.201  1.00  0.00    -0.275 OA
BRANCH  75  78
ATOM     78  C   UNL A   1      32.865  23.433  25.730  1.00  0.00     0.091 C 
ATOM     79  C   UNL A   1      34.180  23.650  26.527  1.00  0.00     0.014 C 
ATOM     80  C   UNL A   1      33.037  23.888  24.259  1.00  0.00     0.091 C 
ATOM     81  C   UNL A   1      35.401  23.062  25.829  1.00  0.00     0.001 C 
ATOM     82  C   UNL A   1      34.377  23.484  23.603  1.00  0.00     0.014 C 
ATOM     83  C   UNL A   1      35.592  23.725  24.479  1.00  0.00     0.001 C 
BRANCH  80  84
ATOM     84  C   UNL A   1      31.962  23.599  23.199  1.00  0.00     0.228 C 
ATOM     85  O   UNL A   1      31.875  22.445  22.754  1.00  0.00    -0.274 OA
ATOM     86  N   UNL A   1      30.992  24.462  22.763  1.00  0.00    -0.326 N 
ATOM     87  H   UNL A   1      30.305  24.005  22.227  1.00  0.00     0.169 HD
BRANCH  86  88
ATOM     88  C   UNL A   1      30.734  25.837  22.895  1.00  0.00     0.041 A 
ATOM     89  C   UNL A   1      29.539  26.205  23.502  1.00  0.00     0.028 A 
ATOM     90  C   UNL A   1      31.527  26.867  22.414  1.00  0.00     0.028 A 
ATOM     91  C   UNL A   1      29.306  27.542  23.844  1.00  0.00     0.028 A 
ATOM     92  C   UNL A   1      31.340  28.191  22.810  1.00  0.00     0.028 A 
ATOM     93  C   UNL A   1      30.281  28.515  23.641  1.00  0.00     0.041 A 
BRANCH  93  94
ATOM     94  N   UNL A   1      30.313  29.788  24.230  1.00  0.00    -0.319 N 
ATOM     95  C   UNL A   1      29.747  30.992  23.857  1.00  0.00     0.291 C 
ATOM     96  H   UNL A   1      30.836  29.832  25.063  1.00  0.00     0.170 HD
ATOM     97  O   UNL A   1      29.891  31.948  24.621  1.00  0.00    -0.265 OA
BRANCH  95  98
ATOM     98  C   UNL A   1      28.990  31.078  22.635  1.00  0.00     0.191 A 
ATOM     99  C   UNL A   1      28.616  30.135  21.692  1.00  0.00     0.056 A 
ATOM    100  O   UNL A   1      28.595  32.320  22.219  1.00  0.00    -0.459 OA
ATOM    101  C   UNL A   1      28.029  30.852  20.619  1.00  0.00     0.043 A 
ATOM    102  C   UNL A   1      28.030  32.174  20.995  1.00  0.00     0.196 A 
ENDBRANCH  95  98
ENDBRANCH  93  94
ENDBRANCH  86  88
ENDBRANCH  80  84
ENDBRANCH  75  78
ENDBRANCH  73  74
ENDBRANCH   1  73
TORSDOF 18
ENDMDL
MODEL 2
REMARK VINA RESULT:     -12.6      3.386      8.841
REMARK SMILES O=C(NCCCCNC(=O)[C@@H]1CCCC[C@H]1C(=O)Nc1ccc(NC(=O)c2ccco2)cc1)c1ccc(-c2c3nc(c(-c4cc(S(=O)(=O)[O-])ccc4F)c4ccc([nH]4)c(-c4cc(S(=O)(=O)[O-])ccc4F)c4nc(c(-c5cc(S(=O)(=O)[O-])ccc5F)c5ccc2[nH]5)C=C4)C=C3)cc1
REMARK SMILES IDX 6 1 5 2 4 3 3 4 1 5 2 6 34 8 35 9 96 10 36 11 95 12 37 13
REMARK SMILES IDX 38 14 39 15 89 16 40 17 94 18 88 19 90 20 41 21 93 22 87 23
REMARK SMILES IDX 86 24 42 26 74 27 54 28 73 29 55 30 58 31 72 32 91 33 56 34
REMARK SMILES IDX 57 35 71 37 92 38 59 39 43 40 44 41 52 42 45 43 51 44 53 45
REMARK SMILES IDX 50 46 46 47 47 48 48 49 49 50 75 51 76 52 84 53 77 54 83 55
REMARK SMILES IDX 85 56 82 57 78 58 79 59 80 60 81 61 60 62 61 63 69 64 62 65
REMARK SMILES IDX 68 66 70 67 67 68 63 69 64 70 65 71 66 72 7 73 8 74 9 75
REMARK SMILES IDX 10 77 11 78 12 79 16 80 13 81 15 82 14 83 17 84 18 85 19 86
REMARK SMILES IDX 20 88 21 89 33 90 22 91 32 92 23 93 24 94 25 95 26 97 27 98
REMARK SMILES IDX 28 99 31 100 29 101 30 102
REMARK H PARENT 3 7 90 25 58 36 8 76 19 87 24 96
REMARK Flexibility Score: inf
ROOT
ATOM      1  C   UNL A   1      31.733  28.668  26.498  1.00  0.00     0.023 C 
ENDROOT
BRANCH   1   2
ATOM      2  C   UNL A   1      33.034  28.751  27.272  1.00  0.00     0.023 C 
BRANCH   2   3
ATOM      3  C   UNL A   1      33.939  29.929  26.943  1.00  0.00     0.116 C 
BRANCH   3   4
ATOM      4  N   UNL A   1      33.818  31.070  27.847  1.00  0.00    -0.352 N 
ATOM      5  O   UNL A   1      34.431  32.468  29.523  1.00  0.00    -0.269 OA
ATOM      6  C   UNL A   1      34.711  31.514  28.801  1.00  0.00     0.251 C 
ATOM      7  H   UNL A   1      32.989  31.592  27.764  1.00  0.00     0.163 HD
BRANCH   6   8
ATOM      8  C   UNL A   1      35.994  30.798  28.974  1.00  0.00     0.039 A 
ATOM      9  C   UNL A   1      36.049  29.659  29.778  1.00  0.00     0.014 A 
ATOM     10  C   UNL A   1      37.161  31.323  28.415  1.00  0.00     0.014 A 
ATOM     11  C   UNL A   1      37.282  29.193  30.210  1.00  0.00     0.010 A 
ATOM     12  C   UNL A   1      38.400  30.770  28.758  1.00  0.00     0.010 A 
ATOM     13  C   UNL A   1      38.475  29.736  29.704  1.00  0.00    -0.014 A 
BRANCH  13  14
ATOM     14  C   UNL A   1      39.773  29.177  30.169  1.00  0.00     0.031 A 
ATOM     15  C   UNL A   1      40.456  29.700  31.406  1.00  0.00     0.074 A 
ATOM     16  C   UNL A   1      40.303  28.140  29.491  1.00  0.00     0.049 A 
ATOM     17  N   UNL A   1      41.582  29.314  31.952  1.00  0.00    -0.248 NA
ATOM     18  C   UNL A   1      39.797  30.806  32.118  1.00  0.00     0.031 C 
ATOM     19  C   UNL A   1      39.726  27.548  28.280  1.00  0.00     0.029 A 
ATOM     20  N   UNL A   1      41.419  27.382  29.728  1.00  0.00    -0.354 N 
ATOM     21  C   UNL A   1      41.782  30.141  33.053  1.00  0.00     0.074 A 
ATOM     22  C   UNL A   1      40.671  31.069  33.080  1.00  0.00     0.031 C 
ATOM     23  C   UNL A   1      40.453  26.482  27.921  1.00  0.00     0.029 A 
ATOM     24  C   UNL A   1      41.597  26.367  28.817  1.00  0.00     0.049 A 
ATOM     25  H   UNL A   1      42.035  27.547  30.478  1.00  0.00     0.167 HD
ATOM     26  C   UNL A   1      42.797  30.123  33.955  1.00  0.00     0.034 A 
ATOM     27  C   UNL A   1      42.582  25.459  28.694  1.00  0.00     0.034 A 
ATOM     28  C   UNL A   1      43.891  29.178  33.916  1.00  0.00     0.049 A 
ATOM     29  C   UNL A   1      43.708  25.481  29.687  1.00  0.00     0.074 A 
ATOM     30  C   UNL A   1      44.954  29.052  34.794  1.00  0.00     0.029 A 
ATOM     31  N   UNL A   1      44.064  28.199  32.945  1.00  0.00    -0.354 N 
ATOM     32  N   UNL A   1      43.883  26.276  30.717  1.00  0.00    -0.248 NA
ATOM     33  C   UNL A   1      44.770  24.486  29.500  1.00  0.00     0.031 C 
ATOM     34  C   UNL A   1      45.801  28.043  34.321  1.00  0.00     0.029 A 
ATOM     35  C   UNL A   1      45.232  27.487  33.186  1.00  0.00     0.049 A 
ATOM     36  H   UNL A   1      43.450  28.033  32.195  1.00  0.00     0.167 HD
ATOM     37  C   UNL A   1      45.075  25.871  31.306  1.00  0.00     0.074 A 
ATOM     38  C   UNL A   1      45.558  24.744  30.533  1.00  0.00     0.031 C 
ATOM     39  C   UNL A   1      45.714  26.385  32.388  1.00  0.00     0.034 A 
BRANCH  26  40
ATOM     40  C   UNL A   1      42.801  31.188  35.028  1.00  0.00     0.023 A 
ATOM     41  C   UNL A   1      43.377  32.455  34.821  1.00  0.00     0.031 A 
ATOM     42  C   UNL A   1      42.226  30.926  36.285  1.00  0.00     0.131 A 
ATOM     43  C   UNL A   1      43.418  33.386  35.870  1.00  0.00     0.055 A 
ATOM     44  C   UNL A   1      42.206  31.883  37.302  1.00  0.00     0.041 A 
ATOM     45  F   UNL A   1      41.679  29.730  36.549  1.00  0.00    -0.206 F 
ATOM     46  C   UNL A   1      42.816  33.117  37.102  1.00  0.00     0.022 A 
BRANCH  43  47
ATOM     47  S   UNL A   1      44.384  34.906  35.647  1.00  0.00     0.124 S 
ATOM     48  O   UNL A   1      44.650  35.295  37.029  1.00  0.00    -0.237 OA
ATOM     49  O   UNL A   1      45.535  34.440  34.882  1.00  0.00    -0.237 OA
ATOM     50  O   UNL A   1      43.471  35.790  34.924  1.00  0.00    -0.744 OA
ENDBRANCH  43  47
ENDBRANCH  26  40
BRANCH  27  51
ATOM     51  C   UNL A   1      42.566  24.494  27.560  1.00  0.00     0.023 A 
ATOM     52  C   UNL A   1      41.934  23.247  27.676  1.00  0.00     0.031 A 
ATOM     53  C   UNL A   1      43.193  24.807  26.340  1.00  0.00     0.131 A 
ATOM     54  C   UNL A   1      41.969  22.346  26.600  1.00  0.00     0.055 A 
ATOM     55  C   UNL A   1      43.178  23.930  25.256  1.00  0.00     0.041 A 
ATOM     56  F   UNL A   1      43.808  25.991  26.176  1.00  0.00    -0.206 F 
ATOM     57  C   UNL A   1      42.574  22.686  25.387  1.00  0.00     0.022 A 
BRANCH  54  58
ATOM     58  S   UNL A   1      41.273  20.689  26.834  1.00  0.00     0.124 S 
ATOM     59  O   UNL A   1      42.403  19.837  26.481  1.00  0.00    -0.237 OA
ATOM     60  O   UNL A   1      40.904  20.713  28.246  1.00  0.00    -0.237 OA
ATOM     61  O   UNL A   1      40.150  20.657  25.899  1.00  0.00    -0.744 OA
ENDBRANCH  54  58
ENDBRANCH  27  51
BRANCH  39  62
ATOM     62  C   UNL A   1      46.994  25.703  32.797  1.00  0.00     0.023 A 
ATOM     63  C   UNL A   1      48.213  25.985  32.157  1.00  0.00     0.031 A 
ATOM     64  C   UNL A   1      46.986  24.729  33.811  1.00  0.00     0.131 A 
ATOM     65  C   UNL A   1      49.363  25.257  32.494  1.00  0.00     0.055 A 
ATOM     66  C   UNL A   1      48.145  24.049  34.183  1.00  0.00     0.041 A 
ATOM     67  F   UNL A   1      45.847  24.419  34.451  1.00  0.00    -0.206 F 
ATOM     68  C   UNL A   1      49.340  24.300  33.514  1.00  0.00     0.022 A 
BRANCH  65  69
ATOM     69  S   UNL A   1      50.871  25.508  31.518  1.00  0.00     0.124 S 
ATOM     70  O   UNL A   1      50.387  25.305  30.157  1.00  0.00    -0.237 OA
ATOM     71  O   UNL A   1      51.245  26.875  31.866  1.00  0.00    -0.237 OA
ATOM     72  O   UNL A   1      51.777  24.474  32.014  1.00  0.00    -0.744 OA
ENDBRANCH  65  69
ENDBRANCH  39  62
ENDBRANCH  13  14
ENDBRANCH   6   8
ENDBRANCH   3   4
ENDBRANCH   2   3
ENDBRANCH   1   2
BRANCH   1  73
ATOM     73  C   UNL A   1      31.774  29.134  25.055  1.00  0.00     0.116 C 
BRANCH  73  74
ATOM     74  N   UNL A   1      30.647  28.896  24.198  1.00  0.00    -0.356 N 
ATOM     75  C   UNL A   1      30.169  27.681  23.771  1.00  0.00     0.223 C 
ATOM     76  H   UNL A   1      30.162  29.693  23.881  1.00  0.00     0.163 HD
ATOM     77  O   UNL A   1      29.026  27.665  23.308  1.00  0.00    -0.275 OA
BRANCH  75  78
ATOM     78  C   UNL A   1      31.068  26.415  23.735  1.00  0.00     0.091 C 
ATOM     79  C   UNL A   1      31.394  26.098  22.249  1.00  0.00     0.014 C 
ATOM     80  C   UNL A   1      30.560  25.146  24.464  1.00  0.00     0.091 C 
ATOM     81  C   UNL A   1      32.295  24.880  22.086  1.00  0.00     0.001 C 
ATOM     82  C   UNL A   1      31.335  23.849  24.135  1.00  0.00     0.014 C 
ATOM     83  C   UNL A   1      31.611  23.653  22.655  1.00  0.00     0.001 C 
BRANCH  80  84
ATOM     84  C   UNL A   1      30.359  25.123  25.988  1.00  0.00     0.228 C 
ATOM     85  O   UNL A   1      29.311  25.604  26.446  1.00  0.00    -0.274 OA
ATOM     86  N   UNL A   1      31.169  24.516  26.910  1.00  0.00    -0.326 N 
ATOM     87  H   UNL A   1      30.747  24.469  27.798  1.00  0.00     0.169 HD
BRANCH  86  88
ATOM     88  C   UNL A   1      32.451  23.943  26.901  1.00  0.00     0.041 A 
ATOM     89  C   UNL A   1      32.630  22.772  27.627  1.00  0.00     0.028 A 
ATOM     90  C   UNL A   1      33.579  24.471  26.291  1.00  0.00     0.028 A 
ATOM     91  C   UNL A   1      33.818  22.041  27.505  1.00  0.00     0.028 A 
ATOM     92  C   UNL A   1      34.740  23.720  26.106  1.00  0.00     0.028 A 
ATOM     93  C   UNL A   1      34.813  22.435  26.616  1.00  0.00     0.041 A 
BRANCH  93  94
ATOM     94  N   UNL A   1      35.873  21.638  26.155  1.00  0.00    -0.319 N 
ATOM     95  C   UNL A   1      35.913  20.578  25.270  1.00  0.00     0.291 C 
ATOM     96  H   UNL A   1      36.750  21.879  26.531  1.00  0.00     0.170 HD
ATOM     97  O   UNL A   1      37.019  20.107  24.998  1.00  0.00    -0.265 OA
BRANCH  95  98
ATOM     98  C   UNL A   1      34.692  20.096  24.676  1.00  0.00     0.191 A 
ATOM     99  C   UNL A   1      33.565  20.738  24.191  1.00  0.00     0.056 A 
ATOM    100  O   UNL A   1      34.507  18.742  24.618  1.00  0.00    -0.459 OA
ATOM    101  C   UNL A   1      32.623  19.722  23.891  1.00  0.00     0.043 A 
ATOM    102  C   UNL A   1      33.250  18.527  24.157  1.00  0.00     0.196 A 
ENDBRANCH  95  98
ENDBRANCH  93  94
ENDBRANCH  86  88
ENDBRANCH  80  84
ENDBRANCH  75  78
ENDBRANCH  73  74
ENDBRANCH   1  73
TORSDOF 18
ENDMDL
MODEL 3
REMARK VINA RESULT:     -12.5      2.528      8.668
REMARK SMILES O=C(NCCCCNC(=O)[C@@H]1CCCC[C@H]1C(=O)Nc1ccc(NC(=O)c2ccco2)cc1)c1ccc(-c2c3nc(c(-c4cc(S(=O)(=O)[O-])ccc4F)c4ccc([nH]4)c(-c4cc(S(=O)(=O)[O-])ccc4F)c4nc(c(-c5cc(S(=O)(=O)[O-])ccc5F)c5ccc2[nH]5)C=C4)C=C3)cc1
REMARK SMILES IDX 6 1 5 2 4 3 3 4 1 5 2 6 34 8 35 9 96 10 36 11 95 12 37 13
REMARK SMILES IDX 38 14 39 15 89 16 40 17 94 18 88 19 90 20 41 21 93 22 87 23
REMARK SMILES IDX 86 24 42 26 74 27 54 28 73 29 55 30 58 31 72 32 91 33 56 34
REMARK SMILES IDX 57 35 71 37 92 38 59 39 43 40 44 41 52 42 45 43 51 44 53 45
REMARK SMILES IDX 50 46 46 47 47 48 48 49 49 50 75 51 76 52 84 53 77 54 83 55
REMARK SMILES IDX 85 56 82 57 78 58 79 59 80 60 81 61 60 62 61 63 69 64 62 65
REMARK SMILES IDX 68 66 70 67 67 68 63 69 64 70 65 71 66 72 7 73 8 74 9 75
REMARK SMILES IDX 10 77 11 78 12 79 16 80 13 81 15 82 14 83 17 84 18 85 19 86
REMARK SMILES IDX 20 88 21 89 33 90 22 91 32 92 23 93 24 94 25 95 26 97 27 98
REMARK SMILES IDX 28 99 31 100 29 101 30 102
REMARK H PARENT 3 7 90 25 58 36 8 76 19 87 24 96
REMARK Flexibility Score: inf
ROOT
ATOM      1  C   UNL A   1      31.506  28.487  27.197  1.00  0.00     0.023 C 
ENDROOT
BRANCH   1   2
ATOM      2  C   UNL A   1      31.480  29.477  26.049  1.00  0.00     0.023 C 
BRANCH   2   3
ATOM      3  C   UNL A   1      32.639  30.461  25.984  1.00  0.00     0.116 C 
BRANCH   3   4
ATOM      4  N   UNL A   1      32.358  31.782  26.541  1.00  0.00    -0.352 N 
ATOM      5  O   UNL A   1      32.715  33.615  27.826  1.00  0.00    -0.269 OA
ATOM      6  C   UNL A   1      33.125  32.536  27.405  1.00  0.00     0.251 C 
ATOM      7  H   UNL A   1      31.507  32.188  26.262  1.00  0.00     0.163 HD
BRANCH   6   8
ATOM      8  C   UNL A   1      34.431  32.006  27.855  1.00  0.00     0.039 A 
ATOM      9  C   UNL A   1      34.545  30.667  28.228  1.00  0.00     0.014 A 
ATOM     10  C   UNL A   1      35.516  32.873  28.003  1.00  0.00     0.014 A 
ATOM     11  C   UNL A   1      35.650  30.257  28.958  1.00  0.00     0.010 A 
ATOM     12  C   UNL A   1      36.681  32.420  28.632  1.00  0.00     0.010 A 
ATOM     13  C   UNL A   1      36.737  31.124  29.167  1.00  0.00    -0.014 A 
BRANCH  13  14
ATOM     14  C   UNL A   1      37.917  30.626  29.924  1.00  0.00     0.031 A 
ATOM     15  C   UNL A   1      38.137  30.994  31.369  1.00  0.00     0.074 A 
ATOM     16  C   UNL A   1      38.765  29.781  29.305  1.00  0.00     0.049 A 
ATOM     17  N   UNL A   1      39.106  30.635  32.173  1.00  0.00    -0.248 NA
ATOM     18  C   UNL A   1      37.148  31.888  31.990  1.00  0.00     0.031 C 
ATOM     19  C   UNL A   1      38.649  29.352  27.908  1.00  0.00     0.029 A 
ATOM     20  N   UNL A   1      39.867  29.110  29.765  1.00  0.00    -0.354 N 
ATOM     21  C   UNL A   1      38.862  31.275  33.384  1.00  0.00     0.074 A 
ATOM     22  C   UNL A   1      37.664  32.068  33.198  1.00  0.00     0.031 C 
ATOM     23  C   UNL A   1      39.597  28.443  27.645  1.00  0.00     0.029 A 
ATOM     24  C   UNL A   1      40.443  28.291  28.822  1.00  0.00     0.049 A 
ATOM     25  H   UNL A   1      40.213  29.204  30.681  1.00  0.00     0.167 HD
ATOM     26  C   UNL A   1      39.571  31.204  34.540  1.00  0.00     0.034 A 
ATOM     27  C   UNL A   1      41.546  27.522  28.881  1.00  0.00     0.034 A 
ATOM     28  C   UNL A   1      40.757  30.394  34.707  1.00  0.00     0.049 A 
ATOM     29  C   UNL A   1      42.328  27.485  30.163  1.00  0.00     0.074 A 
ATOM     30  C   UNL A   1      41.534  30.226  35.841  1.00  0.00     0.029 A 
ATOM     31  N   UNL A   1      41.341  29.620  33.712  1.00  0.00    -0.354 N 
ATOM     32  N   UNL A   1      42.085  28.104  31.295  1.00  0.00    -0.248 NA
ATOM     33  C   UNL A   1      43.534  26.650  30.174  1.00  0.00     0.031 C 
ATOM     34  C   UNL A   1      42.620  29.405  35.515  1.00  0.00     0.029 A 
ATOM     35  C   UNL A   1      42.484  28.999  34.197  1.00  0.00     0.049 A 
ATOM     36  H   UNL A   1      40.996  29.526  32.796  1.00  0.00     0.167 HD
ATOM     37  C   UNL A   1      43.106  27.725  32.157  1.00  0.00     0.074 A 
ATOM     38  C   UNL A   1      43.950  26.804  31.422  1.00  0.00     0.031 C 
ATOM     39  C   UNL A   1      43.330  28.106  33.441  1.00  0.00     0.034 A 
BRANCH  26  40
ATOM     40  C   UNL A   1      39.113  32.062  35.697  1.00  0.00     0.023 A 
ATOM     41  C   UNL A   1      39.546  33.390  35.859  1.00  0.00     0.031 A 
ATOM     42  C   UNL A   1      38.233  31.537  36.662  1.00  0.00     0.131 A 
ATOM     43  C   UNL A   1      39.149  34.125  36.988  1.00  0.00     0.055 A 
ATOM     44  C   UNL A   1      37.784  32.297  37.744  1.00  0.00     0.041 A 
ATOM     45  F   UNL A   1      37.800  30.270  36.573  1.00  0.00    -0.206 F 
ATOM     46  C   UNL A   1      38.253  33.595  37.919  1.00  0.00     0.022 A 
BRANCH  43  47
ATOM     47  S   UNL A   1      39.922  35.738  37.292  1.00  0.00     0.124 S 
ATOM     48  O   UNL A   1      41.314  35.362  37.525  1.00  0.00    -0.237 OA
ATOM     49  O   UNL A   1      39.654  36.456  36.051  1.00  0.00    -0.237 OA
ATOM     50  O   UNL A   1      39.215  36.241  38.468  1.00  0.00    -0.744 OA
ENDBRANCH  43  47
ENDBRANCH  26  40
BRANCH  27  51
ATOM     51  C   UNL A   1      41.995  26.771  27.676  1.00  0.00     0.023 A 
ATOM     52  C   UNL A   1      41.773  25.391  27.557  1.00  0.00     0.031 A 
ATOM     53  C   UNL A   1      42.662  27.428  26.627  1.00  0.00     0.131 A 
ATOM     54  C   UNL A   1      42.241  24.707  26.424  1.00  0.00     0.055 A 
ATOM     55  C   UNL A   1      43.077  26.753  25.479  1.00  0.00     0.041 A 
ATOM     56  F   UNL A   1      42.894  28.750  26.691  1.00  0.00    -0.206 F 
ATOM     57  C   UNL A   1      42.877  25.381  25.379  1.00  0.00     0.022 A 
BRANCH  54  58
ATOM     58  S   UNL A   1      42.069  22.903  26.367  1.00  0.00     0.124 S 
ATOM     59  O   UNL A   1      42.648  22.588  25.066  1.00  0.00    -0.237 OA
ATOM     60  O   UNL A   1      42.846  22.489  27.532  1.00  0.00    -0.237 OA
ATOM     61  O   UNL A   1      40.626  22.695  26.477  1.00  0.00    -0.744 OA
ENDBRANCH  54  58
ENDBRANCH  27  51
BRANCH  39  62
ATOM     62  C   UNL A   1      44.528  27.496  34.123  1.00  0.00     0.023 A 
ATOM     63  C   UNL A   1      45.788  28.115  34.084  1.00  0.00     0.031 A 
ATOM     64  C   UNL A   1      44.414  26.261  34.784  1.00  0.00     0.131 A 
ATOM     65  C   UNL A   1      46.901  27.468  34.641  1.00  0.00     0.055 A 
ATOM     66  C   UNL A   1      45.513  25.649  35.387  1.00  0.00     0.041 A 
ATOM     67  F   UNL A   1      43.233  25.625  34.846  1.00  0.00    -0.206 F 
ATOM     68  C   UNL A   1      46.769  26.245  35.305  1.00  0.00     0.022 A 
BRANCH  65  69
ATOM     69  S   UNL A   1      48.544  28.200  34.404  1.00  0.00     0.124 S 
ATOM     70  O   UNL A   1      48.645  28.252  32.949  1.00  0.00    -0.237 OA
ATOM     71  O   UNL A   1      48.414  29.486  35.081  1.00  0.00    -0.237 OA
ATOM     72  O   UNL A   1      49.441  27.247  35.054  1.00  0.00    -0.744 OA
ENDBRANCH  65  69
ENDBRANCH  39  62
ENDBRANCH  13  14
ENDBRANCH   6   8
ENDBRANCH   3   4
ENDBRANCH   2   3
ENDBRANCH   1   2
BRANCH   1  73
ATOM     73  C   UNL A   1      31.008  27.087  26.894  1.00  0.00     0.116 C 
BRANCH  73  74
ATOM     74  N   UNL A   1      31.941  25.996  26.842  1.00  0.00    -0.356 N 
ATOM     75  C   UNL A   1      32.841  25.719  25.843  1.00  0.00     0.223 C 
ATOM     76  H   UNL A   1      31.934  25.378  27.609  1.00  0.00     0.163 HD
ATOM     77  O   UNL A   1      33.756  24.939  26.120  1.00  0.00    -0.275 OA
BRANCH  75  78
ATOM     78  C   UNL A   1      32.643  26.242  24.393  1.00  0.00     0.091 C 
ATOM     79  C   UNL A   1      33.717  27.331  24.124  1.00  0.00     0.014 C 
ATOM     80  C   UNL A   1      31.236  26.753  23.995  1.00  0.00     0.091 C 
ATOM     81  C   UNL A   1      33.637  27.907  22.715  1.00  0.00     0.001 C 
ATOM     82  C   UNL A   1      31.179  27.537  22.664  1.00  0.00     0.014 C 
ATOM     83  C   UNL A   1      32.286  28.562  22.502  1.00  0.00     0.001 C 
BRANCH  80  84
ATOM     84  C   UNL A   1      30.020  25.813  23.965  1.00  0.00     0.228 C 
ATOM     85  O   UNL A   1      28.891  26.321  23.883  1.00  0.00    -0.274 OA
ATOM     86  N   UNL A   1      30.046  24.446  23.903  1.00  0.00    -0.326 N 
ATOM     87  H   UNL A   1      29.159  24.068  23.704  1.00  0.00     0.169 HD
BRANCH  86  88
ATOM     88  C   UNL A   1      31.025  23.449  24.049  1.00  0.00     0.041 A 
ATOM     89  C   UNL A   1      31.817  23.168  22.943  1.00  0.00     0.028 A 
ATOM     90  C   UNL A   1      31.235  22.668  25.175  1.00  0.00     0.028 A 
ATOM     91  C   UNL A   1      32.935  22.335  23.070  1.00  0.00     0.028 A 
ATOM     92  C   UNL A   1      32.383  21.892  25.335  1.00  0.00     0.028 A 
ATOM     93  C   UNL A   1      33.311  21.824  24.309  1.00  0.00     0.041 A 
BRANCH  93  94
ATOM     94  N   UNL A   1      34.562  21.275  24.632  1.00  0.00    -0.319 N 
ATOM     95  C   UNL A   1      34.985  19.968  24.778  1.00  0.00     0.291 C 
ATOM     96  H   UNL A   1      35.268  21.944  24.782  1.00  0.00     0.170 HD
ATOM     97  O   UNL A   1      36.182  19.781  25.003  1.00  0.00    -0.265 OA
BRANCH  95  98
ATOM     98  C   UNL A   1      34.043  18.889  24.627  1.00  0.00     0.191 A 
ATOM     99  C   UNL A   1      33.663  18.119  23.540  1.00  0.00     0.056 A 
ATOM    100  O   UNL A   1      33.279  18.556  25.711  1.00  0.00    -0.459 OA
ATOM    101  C   UNL A   1      32.566  17.331  23.971  1.00  0.00     0.043 A 
ATOM    102  C   UNL A   1      32.381  17.626  25.301  1.00  0.00     0.196 A 
ENDBRANCH  95  98
ENDBRANCH  93  94
ENDBRANCH  86  88
ENDBRANCH  80  84
ENDBRANCH  75  78
ENDBRANCH  73  74
ENDBRANCH   1  73
TORSDOF 18
ENDMDL
