MODEL 1
REMARK VINA RESULT:     -11.3      0.000      0.000
REMARK SMILES C[C@](NC(=O)Cc1csc(N)n1)(C(=O)NCCCCNC(=O)c1ccc(-c2c3nc(c(-c4cc(S(=O)(=O)[O-])ccc4F)c4ccc([nH]4)c(-c4cc(S(=O)(=O)[O-])ccc4F)c4nc(c(-c5cc(S(=O)(=O)[O-])ccc5F)c5ccc2[nH]5)C=C4)C=C3)cc1)C(F)(F)F
REMARK SMILES IDX 17 1 16 2 15 3 13 4 14 5 2 7 1 8 86 9 87 10 88 11 89 12 3 13
REMARK SMILES IDX 4 14 5 16 6 17 7 18 8 19 12 20 9 21 10 22 11 23 18 26 19 27
REMARK SMILES IDX 20 28 21 29 22 31 23 32 24 33 85 34 25 35 84 36 26 37 27 38
REMARK SMILES IDX 28 39 78 40 29 41 83 42 77 43 79 44 30 45 82 46 76 47 75 48
REMARK SMILES IDX 31 50 63 51 43 52 62 53 44 54 47 55 61 56 80 57 45 58 46 59
REMARK SMILES IDX 60 61 81 62 48 63 32 64 33 65 41 66 34 67 40 68 42 69 39 70
REMARK SMILES IDX 35 71 36 72 37 73 38 74 64 75 65 76 73 77 66 78 72 79 74 80
REMARK SMILES IDX 71 81 67 82 68 83 69 84 70 85 49 86 50 87 58 88 51 89 57 90
REMARK SMILES IDX 59 91 56 92 52 93 53 94 54 95 55 96
REMARK H PARENT 15 6 3 15 11 24 11 25 20 30 79 49 47 60
REMARK Flexibility Score: inf
ROOT
ATOM      1  C   UNL A   1      31.004  30.876  25.541  1.00  0.00     0.023 C 
ENDROOT
BRANCH   1   2
ATOM      2  C   UNL A   1      32.082  29.805  25.695  1.00  0.00     0.116 C 
BRANCH   2   3
ATOM      3  N   UNL A   1      32.940  29.694  24.528  1.00  0.00    -0.354 N 
ATOM      4  C   UNL A   1      33.380  28.583  23.855  1.00  0.00     0.254 C 
ATOM      5  O   UNL A   1      33.922  28.794  22.768  1.00  0.00    -0.272 OA
ATOM      6  H   UNL A   1      33.254  30.552  24.162  1.00  0.00     0.163 HD
BRANCH   4   7
ATOM      7  C   UNL A   1      33.048  27.147  24.344  1.00  0.00     0.212 C 
ATOM      8  C   UNL A   1      33.716  26.153  23.394  1.00  0.00     0.056 C 
BRANCH   7   9
ATOM      9  C   UNL A   1      33.720  26.994  25.730  1.00  0.00     0.420 C 
ATOM     10  F   UNL A   1      32.811  26.917  26.730  1.00  0.00    -0.168 F 
ATOM     11  F   UNL A   1      34.434  25.835  25.770  1.00  0.00    -0.168 F 
ATOM     12  F   UNL A   1      34.594  27.981  26.024  1.00  0.00    -0.168 F 
ENDBRANCH   7   9
BRANCH   7  13
ATOM     13  N   UNL A   1      31.552  27.035  24.470  1.00  0.00    -0.334 N 
ATOM     14  C   UNL A   1      30.439  27.375  23.775  1.00  0.00     0.227 C 
ATOM     15  H   UNL A   1      31.310  26.577  25.307  1.00  0.00     0.164 HD
ATOM     16  O   UNL A   1      29.373  27.003  24.283  1.00  0.00    -0.275 OA
BRANCH  14  17
ATOM     17  C   UNL A   1      30.432  28.092  22.440  1.00  0.00     0.157 C 
BRANCH  17  18
ATOM     18  C   UNL A   1      29.527  29.281  22.342  1.00  0.00     0.063 A 
ATOM     19  C   UNL A   1      28.623  29.680  23.310  1.00  0.00     0.093 A 
ATOM     20  N   UNL A   1      29.571  30.123  21.235  1.00  0.00    -0.225 NA
ATOM     21  S   UNL A   1      27.744  31.048  22.781  1.00  0.00    -0.106 S 
ATOM     22  C   UNL A   1      28.677  31.080  21.340  1.00  0.00     0.180 A 
BRANCH  22  23
ATOM     23  N   UNL A   1      28.464  32.018  20.414  1.00  0.00    -0.375 N 
ATOM     24  H   UNL A   1      27.782  31.877  19.717  1.00  0.00     0.159 HD
ATOM     25  H   UNL A   1      28.990  32.850  20.426  1.00  0.00     0.159 HD
ENDBRANCH  22  23
ENDBRANCH  17  18
ENDBRANCH  14  17
ENDBRANCH   7  13
ENDBRANCH   4   7
ENDBRANCH   2   3
ENDBRANCH   1   2
BRANCH   1  26
ATOM     26  C   UNL A   1      31.035  31.954  26.627  1.00  0.00     0.023 C 
BRANCH  26  27
ATOM     27  C   UNL A   1      32.404  32.587  26.875  1.00  0.00     0.116 C 
BRANCH  27  28
ATOM     28  N   UNL A   1      32.345  33.889  27.521  1.00  0.00    -0.352 N 
ATOM     29  C   UNL A   1      33.260  34.443  28.389  1.00  0.00     0.251 C 
ATOM     30  H   UNL A   1      31.558  34.441  27.311  1.00  0.00     0.163 HD
ATOM     31  O   UNL A   1      33.073  35.570  28.837  1.00  0.00    -0.269 OA
BRANCH  29  32
ATOM     32  C   UNL A   1      34.445  33.658  28.795  1.00  0.00     0.039 A 
ATOM     33  C   UNL A   1      35.713  34.219  28.626  1.00  0.00     0.014 A 
ATOM     34  C   UNL A   1      34.304  32.404  29.396  1.00  0.00     0.014 A 
ATOM     35  C   UNL A   1      36.833  33.565  29.146  1.00  0.00     0.010 A 
ATOM     36  C   UNL A   1      35.414  31.783  29.965  1.00  0.00     0.010 A 
ATOM     37  C   UNL A   1      36.687  32.367  29.866  1.00  0.00    -0.014 A 
BRANCH  37  38
ATOM     38  C   UNL A   1      37.843  31.743  30.561  1.00  0.00     0.031 A 
ATOM     39  C   UNL A   1      38.665  30.686  29.878  1.00  0.00     0.074 A 
ATOM     40  C   UNL A   1      38.102  32.079  31.841  1.00  0.00     0.049 A 
ATOM     41  N   UNL A   1      39.667  29.987  30.346  1.00  0.00    -0.248 NA
ATOM     42  C   UNL A   1      38.292  30.354  28.496  1.00  0.00     0.031 C 
ATOM     43  C   UNL A   1      37.345  33.055  32.627  1.00  0.00     0.029 A 
ATOM     44  N   UNL A   1      39.065  31.631  32.711  1.00  0.00    -0.354 N 
ATOM     45  C   UNL A   1      40.040  29.125  29.320  1.00  0.00     0.074 A 
ATOM     46  C   UNL A   1      39.117  29.353  28.228  1.00  0.00     0.031 C 
ATOM     47  C   UNL A   1      37.887  33.150  33.852  1.00  0.00     0.029 A 
ATOM     48  C   UNL A   1      39.001  32.213  33.957  1.00  0.00     0.049 A 
ATOM     49  H   UNL A   1      39.740  30.956  32.467  1.00  0.00     0.167 HD
ATOM     50  C   UNL A   1      41.068  28.239  29.288  1.00  0.00     0.034 A 
ATOM     51  C   UNL A   1      39.748  32.010  35.060  1.00  0.00     0.034 A 
ATOM     52  C   UNL A   1      41.984  28.029  30.384  1.00  0.00     0.049 A 
ATOM     53  C   UNL A   1      40.871  31.006  35.006  1.00  0.00     0.074 A 
ATOM     54  C   UNL A   1      43.096  27.206  30.433  1.00  0.00     0.029 A 
ATOM     55  N   UNL A   1      41.889  28.637  31.630  1.00  0.00    -0.354 N 
ATOM     56  N   UNL A   1      41.250  30.243  34.007  1.00  0.00    -0.248 NA
ATOM     57  C   UNL A   1      41.673  30.845  36.225  1.00  0.00     0.031 C 
ATOM     58  C   UNL A   1      43.632  27.264  31.724  1.00  0.00     0.029 A 
ATOM     59  C   UNL A   1      42.900  28.181  32.463  1.00  0.00     0.049 A 
ATOM     60  H   UNL A   1      41.203  29.295  31.885  1.00  0.00     0.167 HD
ATOM     61  C   UNL A   1      42.355  29.535  34.469  1.00  0.00     0.074 A 
ATOM     62  C   UNL A   1      42.588  29.971  35.832  1.00  0.00     0.031 C 
ATOM     63  C   UNL A   1      43.115  28.613  33.824  1.00  0.00     0.034 A 
BRANCH  50  64
ATOM     64  C   UNL A   1      41.234  27.416  28.031  1.00  0.00     0.023 A 
ATOM     65  C   UNL A   1      40.864  26.061  27.983  1.00  0.00     0.031 A 
ATOM     66  C   UNL A   1      41.796  27.987  26.876  1.00  0.00     0.131 A 
ATOM     67  C   UNL A   1      41.133  25.302  26.834  1.00  0.00     0.055 A 
ATOM     68  C   UNL A   1      41.985  27.246  25.707  1.00  0.00     0.041 A 
ATOM     69  F   UNL A   1      42.187  29.271  26.867  1.00  0.00    -0.206 F 
ATOM     70  C   UNL A   1      41.669  25.890  25.686  1.00  0.00     0.022 A 
BRANCH  67  71
ATOM     71  S   UNL A   1      40.913  23.504  26.915  1.00  0.00     0.124 S 
ATOM     72  O   UNL A   1      39.476  23.372  26.688  1.00  0.00    -0.237 OA
ATOM     73  O   UNL A   1      41.778  23.030  25.840  1.00  0.00    -0.237 OA
ATOM     74  O   UNL A   1      41.356  23.166  28.267  1.00  0.00    -0.744 OA
ENDBRANCH  67  71
ENDBRANCH  50  64
BRANCH  51  75
ATOM     75  C   UNL A   1      39.463  32.763  36.314  1.00  0.00     0.023 A 
ATOM     76  C   UNL A   1      38.581  32.250  37.279  1.00  0.00     0.031 A 
ATOM     77  C   UNL A   1      40.034  34.027  36.548  1.00  0.00     0.131 A 
ATOM     78  C   UNL A   1      38.261  33.014  38.411  1.00  0.00     0.055 A 
ATOM     79  C   UNL A   1      39.750  34.762  37.701  1.00  0.00     0.041 A 
ATOM     80  F   UNL A   1      40.888  34.560  35.661  1.00  0.00    -0.206 F 
ATOM     81  C   UNL A   1      38.847  34.261  38.635  1.00  0.00     0.022 A 
BRANCH  78  82
ATOM     82  S   UNL A   1      36.998  32.386  39.552  1.00  0.00     0.124 S 
ATOM     83  O   UNL A   1      35.771  32.638  38.805  1.00  0.00    -0.237 OA
ATOM     84  O   UNL A   1      37.388  30.988  39.693  1.00  0.00    -0.237 OA
ATOM     85  O   UNL A   1      37.182  33.207  40.747  1.00  0.00    -0.744 OA
ENDBRANCH  78  82
ENDBRANCH  51  75
BRANCH  63  86
ATOM     86  C   UNL A   1      44.294  28.052  34.578  1.00  0.00     0.023 A 
ATOM     87  C   UNL A   1      44.202  26.861  35.320  1.00  0.00     0.031 A 
ATOM     88  C   UNL A   1      45.526  28.728  34.565  1.00  0.00     0.131 A 
ATOM     89  C   UNL A   1      45.305  26.412  36.062  1.00  0.00     0.055 A 
ATOM     90  C   UNL A   1      46.637  28.247  35.259  1.00  0.00     0.041 A 
ATOM     91  F   UNL A   1      45.671  29.872  33.875  1.00  0.00    -0.206 F 
ATOM     92  C   UNL A   1      46.526  27.090  36.023  1.00  0.00     0.022 A 
BRANCH  89  93
ATOM     93  S   UNL A   1      45.098  24.976  37.152  1.00  0.00     0.124 S 
ATOM     94  O   UNL A   1      46.408  24.339  37.065  1.00  0.00    -0.237 OA
ATOM     95  O   UNL A   1      44.777  25.600  38.432  1.00  0.00    -0.237 OA
ATOM     96  O   UNL A   1      44.002  24.232  36.534  1.00  0.00    -0.744 OA
ENDBRANCH  89  93
ENDBRANCH  63  86
ENDBRANCH  37  38
ENDBRANCH  29  32
ENDBRANCH  27  28
ENDBRANCH  26  27
ENDBRANCH   1  26
TORSDOF 19
ENDMDL
MODEL 2
REMARK VINA RESULT:     -11.3      6.427     11.663
REMARK SMILES C[C@](NC(=O)Cc1csc(N)n1)(C(=O)NCCCCNC(=O)c1ccc(-c2c3nc(c(-c4cc(S(=O)(=O)[O-])ccc4F)c4ccc([nH]4)c(-c4cc(S(=O)(=O)[O-])ccc4F)c4nc(c(-c5cc(S(=O)(=O)[O-])ccc5F)c5ccc2[nH]5)C=C4)C=C3)cc1)C(F)(F)F
REMARK SMILES IDX 17 1 16 2 15 3 13 4 14 5 2 7 1 8 86 9 87 10 88 11 89 12 3 13
REMARK SMILES IDX 4 14 5 16 6 17 7 18 8 19 12 20 9 21 10 22 11 23 18 26 19 27
REMARK SMILES IDX 20 28 21 29 22 31 23 32 24 33 85 34 25 35 84 36 26 37 27 38
REMARK SMILES IDX 28 39 78 40 29 41 83 42 77 43 79 44 30 45 82 46 76 47 75 48
REMARK SMILES IDX 31 50 63 51 43 52 62 53 44 54 47 55 61 56 80 57 45 58 46 59
REMARK SMILES IDX 60 61 81 62 48 63 32 64 33 65 41 66 34 67 40 68 42 69 39 70
REMARK SMILES IDX 35 71 36 72 37 73 38 74 64 75 65 76 73 77 66 78 72 79 74 80
REMARK SMILES IDX 71 81 67 82 68 83 69 84 70 85 49 86 50 87 58 88 51 89 57 90
REMARK SMILES IDX 59 91 56 92 52 93 53 94 54 95 55 96
REMARK H PARENT 15 6 3 15 11 24 11 25 20 30 79 49 47 60
REMARK Flexibility Score: inf
ROOT
ATOM      1  C   UNL A   1      37.462  21.077  24.611  1.00  0.00     0.023 C 
ENDROOT
BRANCH   1   2
ATOM      2  C   UNL A   1      35.946  20.909  24.691  1.00  0.00     0.116 C 
BRANCH   2   3
ATOM      3  N   UNL A   1      35.432  21.036  26.044  1.00  0.00    -0.354 N 
ATOM      4  C   UNL A   1      34.545  21.938  26.573  1.00  0.00     0.254 C 
ATOM      5  O   UNL A   1      34.123  21.676  27.702  1.00  0.00    -0.272 OA
ATOM      6  H   UNL A   1      35.776  20.369  26.682  1.00  0.00     0.163 HD
BRANCH   4   7
ATOM      7  C   UNL A   1      33.967  23.107  25.730  1.00  0.00     0.212 C 
ATOM      8  C   UNL A   1      32.929  23.840  26.579  1.00  0.00     0.056 C 
BRANCH   7   9
ATOM      9  C   UNL A   1      35.143  24.083  25.480  1.00  0.00     0.420 C 
ATOM     10  F   UNL A   1      36.210  23.805  26.265  1.00  0.00    -0.168 F 
ATOM     11  F   UNL A   1      35.573  23.966  24.193  1.00  0.00    -0.168 F 
ATOM     12  F   UNL A   1      34.817  25.383  25.647  1.00  0.00    -0.168 F 
ENDBRANCH   7   9
BRANCH   7  13
ATOM     13  N   UNL A   1      33.472  22.538  24.427  1.00  0.00    -0.334 N 
ATOM     14  C   UNL A   1      32.710  21.507  23.986  1.00  0.00     0.227 C 
ATOM     15  H   UNL A   1      33.798  23.075  23.669  1.00  0.00     0.164 HD
ATOM     16  O   UNL A   1      32.530  21.479  22.761  1.00  0.00    -0.275 OA
BRANCH  14  17
ATOM     17  C   UNL A   1      32.042  20.476  24.872  1.00  0.00     0.157 C 
BRANCH  17  18
ATOM     18  C   UNL A   1      32.612  19.093  24.810  1.00  0.00     0.063 A 
ATOM     19  C   UNL A   1      32.684  18.209  25.872  1.00  0.00     0.093 A 
ATOM     20  N   UNL A   1      33.091  18.570  23.614  1.00  0.00    -0.225 NA
ATOM     21  S   UNL A   1      33.458  16.761  25.395  1.00  0.00    -0.106 S 
ATOM     22  C   UNL A   1      33.572  17.360  23.791  1.00  0.00     0.180 A 
BRANCH  22  23
ATOM     23  N   UNL A   1      34.130  16.622  22.828  1.00  0.00    -0.375 N 
ATOM     24  H   UNL A   1      34.512  15.740  23.042  1.00  0.00     0.159 HD
ATOM     25  H   UNL A   1      34.158  16.958  21.903  1.00  0.00     0.159 HD
ENDBRANCH  22  23
ENDBRANCH  17  18
ENDBRANCH  14  17
ENDBRANCH   7  13
ENDBRANCH   4   7
ENDBRANCH   2   3
ENDBRANCH   1   2
BRANCH   1  26
ATOM     26  C   UNL A   1      38.248  19.792  24.885  1.00  0.00     0.023 C 
BRANCH  26  27
ATOM     27  C   UNL A   1      39.083  19.802  26.164  1.00  0.00     0.116 C 
BRANCH  27  28
ATOM     28  N   UNL A   1      40.355  19.106  26.046  1.00  0.00    -0.352 N 
ATOM     29  C   UNL A   1      41.617  19.610  26.271  1.00  0.00     0.251 C 
ATOM     30  H   UNL A   1      40.308  18.161  25.773  1.00  0.00     0.163 HD
ATOM     31  O   UNL A   1      42.598  18.884  26.144  1.00  0.00    -0.269 OA
BRANCH  29  32
ATOM     32  C   UNL A   1      41.777  21.035  26.634  1.00  0.00     0.039 A 
ATOM     33  C   UNL A   1      42.218  21.354  27.921  1.00  0.00     0.014 A 
ATOM     34  C   UNL A   1      41.555  22.044  25.694  1.00  0.00     0.014 A 
ATOM     35  C   UNL A   1      42.527  22.680  28.235  1.00  0.00     0.010 A 
ATOM     36  C   UNL A   1      41.920  23.356  25.991  1.00  0.00     0.010 A 
ATOM     37  C   UNL A   1      42.431  23.684  27.257  1.00  0.00    -0.014 A 
BRANCH  37  38
ATOM     38  C   UNL A   1      42.906  25.067  27.526  1.00  0.00     0.031 A 
ATOM     39  C   UNL A   1      41.992  26.080  28.155  1.00  0.00     0.074 A 
ATOM     40  C   UNL A   1      44.145  25.427  27.130  1.00  0.00     0.049 A 
ATOM     41  N   UNL A   1      42.209  27.346  28.407  1.00  0.00    -0.248 NA
ATOM     42  C   UNL A   1      40.648  25.614  28.522  1.00  0.00     0.031 C 
ATOM     43  C   UNL A   1      45.108  24.546  26.466  1.00  0.00     0.029 A 
ATOM     44  N   UNL A   1      44.804  26.628  27.219  1.00  0.00    -0.354 N 
ATOM     45  C   UNL A   1      41.026  27.832  28.954  1.00  0.00     0.074 A 
ATOM     46  C   UNL A   1      40.080  26.735  28.942  1.00  0.00     0.031 C 
ATOM     47  C   UNL A   1      46.239  25.229  26.230  1.00  0.00     0.029 A 
ATOM     48  C   UNL A   1      46.072  26.605  26.685  1.00  0.00     0.049 A 
ATOM     49  H   UNL A   1      44.406  27.432  27.627  1.00  0.00     0.167 HD
ATOM     50  C   UNL A   1      40.761  29.072  29.438  1.00  0.00     0.034 A 
ATOM     51  C   UNL A   1      46.992  27.583  26.567  1.00  0.00     0.034 A 
ATOM     52  C   UNL A   1      41.719  30.152  29.449  1.00  0.00     0.049 A 
ATOM     53  C   UNL A   1      46.667  28.958  27.092  1.00  0.00     0.074 A 
ATOM     54  C   UNL A   1      41.576  31.426  29.973  1.00  0.00     0.029 A 
ATOM     55  N   UNL A   1      42.994  30.093  28.900  1.00  0.00    -0.354 N 
ATOM     56  N   UNL A   1      45.565  29.384  27.664  1.00  0.00    -0.248 NA
ATOM     57  C   UNL A   1      47.715  29.979  26.967  1.00  0.00     0.031 C 
ATOM     58  C   UNL A   1      42.735  32.155  29.683  1.00  0.00     0.029 A 
ATOM     59  C   UNL A   1      43.634  31.316  29.042  1.00  0.00     0.049 A 
ATOM     60  H   UNL A   1      43.387  29.299  28.472  1.00  0.00     0.167 HD
ATOM     61  C   UNL A   1      45.801  30.715  27.995  1.00  0.00     0.074 A 
ATOM     62  C   UNL A   1      47.154  31.016  27.569  1.00  0.00     0.031 C 
ATOM     63  C   UNL A   1      44.978  31.608  28.602  1.00  0.00     0.034 A 
BRANCH  50  64
ATOM     64  C   UNL A   1      39.370  29.326  29.970  1.00  0.00     0.023 A 
ATOM     65  C   UNL A   1      38.410  30.029  29.222  1.00  0.00     0.031 A 
ATOM     66  C   UNL A   1      39.008  28.883  31.254  1.00  0.00     0.131 A 
ATOM     67  C   UNL A   1      37.167  30.340  29.792  1.00  0.00     0.055 A 
ATOM     68  C   UNL A   1      37.738  29.123  31.785  1.00  0.00     0.041 A 
ATOM     69  F   UNL A   1      39.887  28.223  32.024  1.00  0.00    -0.206 F 
ATOM     70  C   UNL A   1      36.814  29.870  31.059  1.00  0.00     0.022 A 
BRANCH  67  71
ATOM     71  S   UNL A   1      36.077  31.493  28.914  1.00  0.00     0.124 S 
ATOM     72  O   UNL A   1      36.984  32.604  28.639  1.00  0.00    -0.237 OA
ATOM     73  O   UNL A   1      35.656  30.710  27.757  1.00  0.00    -0.237 OA
ATOM     74  O   UNL A   1      35.027  31.781  29.889  1.00  0.00    -0.744 OA
ENDBRANCH  67  71
ENDBRANCH  50  64
BRANCH  51  75
ATOM     75  C   UNL A   1      48.307  27.308  25.921  1.00  0.00     0.023 A 
ATOM     76  C   UNL A   1      48.482  27.485  24.539  1.00  0.00     0.031 A 
ATOM     77  C   UNL A   1      49.396  26.824  26.668  1.00  0.00     0.131 A 
ATOM     78  C   UNL A   1      49.702  27.138  23.939  1.00  0.00     0.055 A 
ATOM     79  C   UNL A   1      50.624  26.528  26.073  1.00  0.00     0.041 A 
ATOM     80  F   UNL A   1      49.283  26.644  27.993  1.00  0.00    -0.206 F 
ATOM     81  C   UNL A   1      50.778  26.672  24.697  1.00  0.00     0.022 A 
BRANCH  78  82
ATOM     82  S   UNL A   1      49.837  27.230  22.132  1.00  0.00     0.124 S 
ATOM     83  O   UNL A   1      48.893  26.201  21.711  1.00  0.00    -0.237 OA
ATOM     84  O   UNL A   1      49.442  28.609  21.870  1.00  0.00    -0.237 OA
ATOM     85  O   UNL A   1      51.244  26.927  21.880  1.00  0.00    -0.744 OA
ENDBRANCH  78  82
ENDBRANCH  51  75
BRANCH  63  86
ATOM     86  C   UNL A   1      45.541  32.979  28.879  1.00  0.00     0.023 A 
ATOM     87  C   UNL A   1      45.430  34.028  27.949  1.00  0.00     0.031 A 
ATOM     88  C   UNL A   1      46.214  33.235  30.086  1.00  0.00     0.131 A 
ATOM     89  C   UNL A   1      46.030  35.268  28.218  1.00  0.00     0.055 A 
ATOM     90  C   UNL A   1      46.760  34.487  30.374  1.00  0.00     0.041 A 
ATOM     91  F   UNL A   1      46.353  32.269  31.009  1.00  0.00    -0.206 F 
ATOM     92  C   UNL A   1      46.680  35.508  29.432  1.00  0.00     0.022 A 
BRANCH  89  93
ATOM     93  S   UNL A   1      46.026  36.539  26.924  1.00  0.00     0.124 S 
ATOM     94  O   UNL A   1      47.060  37.454  27.395  1.00  0.00    -0.237 OA
ATOM     95  O   UNL A   1      46.354  35.768  25.729  1.00  0.00    -0.237 OA
ATOM     96  O   UNL A   1      44.664  37.067  26.965  1.00  0.00    -0.744 OA
ENDBRANCH  89  93
ENDBRANCH  63  86
ENDBRANCH  37  38
ENDBRANCH  29  32
ENDBRANCH  27  28
ENDBRANCH  26  27
ENDBRANCH   1  26
TORSDOF 19
ENDMDL
MODEL 3
REMARK VINA RESULT:     -11.2      2.781      8.455
REMARK SMILES C[C@](NC(=O)Cc1csc(N)n1)(C(=O)NCCCCNC(=O)c1ccc(-c2c3nc(c(-c4cc(S(=O)(=O)[O-])ccc4F)c4ccc([nH]4)c(-c4cc(S(=O)(=O)[O-])ccc4F)c4nc(c(-c5cc(S(=O)(=O)[O-])ccc5F)c5ccc2[nH]5)C=C4)C=C3)cc1)C(F)(F)F
REMARK SMILES IDX 17 1 16 2 15 3 13 4 14 5 2 7 1 8 86 9 87 10 88 11 89 12 3 13
REMARK SMILES IDX 4 14 5 16 6 17 7 18 8 19 12 20 9 21 10 22 11 23 18 26 19 27
REMARK SMILES IDX 20 28 21 29 22 31 23 32 24 33 85 34 25 35 84 36 26 37 27 38
REMARK SMILES IDX 28 39 78 40 29 41 83 42 77 43 79 44 30 45 82 46 76 47 75 48
REMARK SMILES IDX 31 50 63 51 43 52 62 53 44 54 47 55 61 56 80 57 45 58 46 59
REMARK SMILES IDX 60 61 81 62 48 63 32 64 33 65 41 66 34 67 40 68 42 69 39 70
REMARK SMILES IDX 35 71 36 72 37 73 38 74 64 75 65 76 73 77 66 78 72 79 74 80
REMARK SMILES IDX 71 81 67 82 68 83 69 84 70 85 49 86 50 87 58 88 51 89 57 90
REMARK SMILES IDX 59 91 56 92 52 93 53 94 54 95 55 96
REMARK H PARENT 15 6 3 15 11 24 11 25 20 30 79 49 47 60
REMARK Flexibility Score: inf
ROOT
ATOM      1  C   UNL A   1      31.772  28.544  27.246  1.00  0.00     0.023 C 
ENDROOT
BRANCH   1   2
ATOM      2  C   UNL A   1      31.455  27.201  26.590  1.00  0.00     0.116 C 
BRANCH   2   3
ATOM      3  N   UNL A   1      30.888  27.341  25.260  1.00  0.00    -0.354 N 
ATOM      4  C   UNL A   1      31.081  26.587  24.131  1.00  0.00     0.254 C 
ATOM      5  O   UNL A   1      30.302  26.805  23.201  1.00  0.00    -0.272 OA
ATOM      6  H   UNL A   1      30.265  28.096  25.153  1.00  0.00     0.163 HD
BRANCH   4   7
ATOM      7  C   UNL A   1      32.092  25.408  24.099  1.00  0.00     0.212 C 
ATOM      8  C   UNL A   1      31.842  24.600  22.826  1.00  0.00     0.056 C 
BRANCH   7   9
ATOM      9  C   UNL A   1      33.497  26.046  23.982  1.00  0.00     0.420 C 
ATOM     10  F   UNL A   1      34.271  25.409  23.072  1.00  0.00    -0.168 F 
ATOM     11  F   UNL A   1      33.384  27.335  23.554  1.00  0.00    -0.168 F 
ATOM     12  F   UNL A   1      34.171  26.100  25.151  1.00  0.00    -0.168 F 
ENDBRANCH   7   9
BRANCH   7  13
ATOM     13  N   UNL A   1      31.964  24.653  25.395  1.00  0.00    -0.334 N 
ATOM     14  C   UNL A   1      32.522  23.583  26.014  1.00  0.00     0.227 C 
ATOM     15  H   UNL A   1      31.269  25.056  25.963  1.00  0.00     0.164 HD
ATOM     16  O   UNL A   1      32.103  23.366  27.159  1.00  0.00    -0.275 OA
BRANCH  14  17
ATOM     17  C   UNL A   1      33.625  22.721  25.436  1.00  0.00     0.157 C 
BRANCH  17  18
ATOM     18  C   UNL A   1      33.262  21.296  25.154  1.00  0.00     0.063 A 
ATOM     19  C   UNL A   1      32.920  20.788  23.913  1.00  0.00     0.093 A 
ATOM     20  N   UNL A   1      33.285  20.339  26.163  1.00  0.00    -0.225 NA
ATOM     21  S   UNL A   1      32.516  19.132  24.034  1.00  0.00    -0.106 S 
ATOM     22  C   UNL A   1      32.903  19.168  25.706  1.00  0.00     0.180 A 
BRANCH  22  23
ATOM     23  N   UNL A   1      32.795  18.066  26.452  1.00  0.00    -0.375 N 
ATOM     24  H   UNL A   1      33.355  17.957  27.255  1.00  0.00     0.159 HD
ATOM     25  H   UNL A   1      32.155  17.361  26.200  1.00  0.00     0.159 HD
ENDBRANCH  22  23
ENDBRANCH  17  18
ENDBRANCH  14  17
ENDBRANCH   7  13
ENDBRANCH   4   7
ENDBRANCH   2   3
ENDBRANCH   1   2
BRANCH   1  26
ATOM     26  C   UNL A   1      31.411  29.759  26.387  1.00  0.00     0.023 C 
BRANCH  26  27
ATOM     27  C   UNL A   1      32.561  30.727  26.114  1.00  0.00     0.116 C 
BRANCH  27  28
ATOM     28  N   UNL A   1      32.376  32.045  26.702  1.00  0.00    -0.352 N 
ATOM     29  C   UNL A   1      33.227  32.717  27.552  1.00  0.00     0.251 C 
ATOM     30  H   UNL A   1      31.544  32.513  26.463  1.00  0.00     0.163 HD
ATOM     31  O   UNL A   1      32.933  33.840  27.951  1.00  0.00    -0.269 OA
BRANCH  29  32
ATOM     32  C   UNL A   1      34.474  32.061  28.001  1.00  0.00     0.039 A 
ATOM     33  C   UNL A   1      35.624  32.840  28.157  1.00  0.00     0.014 A 
ATOM     34  C   UNL A   1      34.494  30.703  28.326  1.00  0.00     0.014 A 
ATOM     35  C   UNL A   1      36.767  32.277  28.729  1.00  0.00     0.010 A 
ATOM     36  C   UNL A   1      35.616  30.159  28.950  1.00  0.00     0.010 A 
ATOM     37  C   UNL A   1      36.756  30.945  29.178  1.00  0.00    -0.014 A 
BRANCH  37  38
ATOM     38  C   UNL A   1      37.905  30.379  29.932  1.00  0.00     0.031 A 
ATOM     39  C   UNL A   1      38.169  30.798  31.350  1.00  0.00     0.074 A 
ATOM     40  C   UNL A   1      38.756  29.541  29.304  1.00  0.00     0.049 A 
ATOM     41  N   UNL A   1      39.155  30.461  32.143  1.00  0.00    -0.248 NA
ATOM     42  C   UNL A   1      37.214  31.742  31.946  1.00  0.00     0.031 C 
ATOM     43  C   UNL A   1      38.632  29.098  27.914  1.00  0.00     0.029 A 
ATOM     44  N   UNL A   1      39.897  28.920  29.748  1.00  0.00    -0.354 N 
ATOM     45  C   UNL A   1      38.945  31.159  33.328  1.00  0.00     0.074 A 
ATOM     46  C   UNL A   1      37.769  31.979  33.125  1.00  0.00     0.031 C 
ATOM     47  C   UNL A   1      39.642  28.259  27.628  1.00  0.00     0.029 A 
ATOM     48  C   UNL A   1      40.508  28.137  28.796  1.00  0.00     0.049 A 
ATOM     49  H   UNL A   1      40.246  29.024  30.663  1.00  0.00     0.167 HD
ATOM     50  C   UNL A   1      39.656  31.104  34.482  1.00  0.00     0.034 A 
ATOM     51  C   UNL A   1      41.641  27.409  28.853  1.00  0.00     0.034 A 
ATOM     52  C   UNL A   1      40.823  30.274  34.670  1.00  0.00     0.049 A 
ATOM     53  C   UNL A   1      42.426  27.381  30.139  1.00  0.00     0.074 A 
ATOM     54  C   UNL A   1      41.578  30.095  35.816  1.00  0.00     0.029 A 
ATOM     55  N   UNL A   1      41.413  29.494  33.683  1.00  0.00    -0.354 N 
ATOM     56  N   UNL A   1      42.179  27.998  31.272  1.00  0.00    -0.248 NA
ATOM     57  C   UNL A   1      43.636  26.549  30.158  1.00  0.00     0.031 C 
ATOM     58  C   UNL A   1      42.659  29.262  35.506  1.00  0.00     0.029 A 
ATOM     59  C   UNL A   1      42.540  28.860  34.185  1.00  0.00     0.049 A 
ATOM     60  H   UNL A   1      41.080  29.404  32.761  1.00  0.00     0.167 HD
ATOM     61  C   UNL A   1      43.186  27.602  32.147  1.00  0.00     0.074 A 
ATOM     62  C   UNL A   1      44.036  26.684  31.413  1.00  0.00     0.031 C 
ATOM     63  C   UNL A   1      43.387  27.957  33.441  1.00  0.00     0.034 A 
BRANCH  50  64
ATOM     64  C   UNL A   1      39.201  31.988  35.619  1.00  0.00     0.023 A 
ATOM     65  C   UNL A   1      39.605  33.332  35.717  1.00  0.00     0.031 A 
ATOM     66  C   UNL A   1      38.374  31.475  36.634  1.00  0.00     0.131 A 
ATOM     67  C   UNL A   1      39.250  34.089  36.844  1.00  0.00     0.055 A 
ATOM     68  C   UNL A   1      37.956  32.260  37.711  1.00  0.00     0.041 A 
ATOM     69  F   UNL A   1      37.971  30.194  36.605  1.00  0.00    -0.206 F 
ATOM     70  C   UNL A   1      38.408  33.571  37.829  1.00  0.00     0.022 A 
BRANCH  67  71
ATOM     71  S   UNL A   1      40.029  35.711  37.074  1.00  0.00     0.124 S 
ATOM     72  O   UNL A   1      41.447  35.357  37.087  1.00  0.00    -0.237 OA
ATOM     73  O   UNL A   1      39.565  36.453  35.907  1.00  0.00    -0.237 OA
ATOM     74  O   UNL A   1      39.497  36.167  38.356  1.00  0.00    -0.744 OA
ENDBRANCH  67  71
ENDBRANCH  50  64
BRANCH  51  75
ATOM     75  C   UNL A   1      42.112  26.650  27.660  1.00  0.00     0.023 A 
ATOM     76  C   UNL A   1      41.860  25.274  27.535  1.00  0.00     0.031 A 
ATOM     77  C   UNL A   1      42.858  27.278  26.647  1.00  0.00     0.131 A 
ATOM     78  C   UNL A   1      42.386  24.562  26.447  1.00  0.00     0.055 A 
ATOM     79  C   UNL A   1      43.338  26.574  25.540  1.00  0.00     0.041 A 
ATOM     80  F   UNL A   1      43.122  28.592  26.715  1.00  0.00    -0.206 F 
ATOM     81  C   UNL A   1      43.113  25.204  25.443  1.00  0.00     0.022 A 
BRANCH  78  82
ATOM     82  S   UNL A   1      42.174  22.761  26.405  1.00  0.00     0.124 S 
ATOM     83  O   UNL A   1      40.721  22.632  26.441  1.00  0.00    -0.237 OA
ATOM     84  O   UNL A   1      42.819  22.411  25.144  1.00  0.00    -0.237 OA
ATOM     85  O   UNL A   1      42.871  22.308  27.607  1.00  0.00    -0.744 OA
ENDBRANCH  78  82
ENDBRANCH  51  75
BRANCH  63  86
ATOM     86  C   UNL A   1      44.550  27.313  34.154  1.00  0.00     0.023 A 
ATOM     87  C   UNL A   1      44.431  26.064  34.790  1.00  0.00     0.031 A 
ATOM     88  C   UNL A   1      45.793  27.968  34.211  1.00  0.00     0.131 A 
ATOM     89  C   UNL A   1      45.518  25.534  35.500  1.00  0.00     0.055 A 
ATOM     90  C   UNL A   1      46.888  27.410  34.871  1.00  0.00     0.041 A 
ATOM     91  F   UNL A   1      45.963  29.164  33.624  1.00  0.00    -0.206 F 
ATOM     92  C   UNL A   1      46.751  26.192  35.530  1.00  0.00     0.022 A 
BRANCH  89  93
ATOM     93  S   UNL A   1      45.277  24.014  36.459  1.00  0.00     0.124 S 
ATOM     94  O   UNL A   1      45.026  24.537  37.798  1.00  0.00    -0.237 OA
ATOM     95  O   UNL A   1      44.134  23.401  35.790  1.00  0.00    -0.237 OA
ATOM     96  O   UNL A   1      46.543  23.302  36.298  1.00  0.00    -0.744 OA
ENDBRANCH  89  93
ENDBRANCH  63  86
ENDBRANCH  37  38
ENDBRANCH  29  32
ENDBRANCH  27  28
ENDBRANCH  26  27
ENDBRANCH   1  26
TORSDOF 19
ENDMDL
