MODEL 1
REMARK VINA RESULT:     -12.5      0.000      0.000
REMARK SMILES Cc1c(CC(=O)NCCCCNC(=O)c2ccc(-c3c4nc(c(-c5cc(S(=O)(=O)[O-])ccc5F)c5ccc([nH]5)c(-c5cc(S(=O)(=O)[O-])ccc5F)c5nc(c(-c6cc(S(=O)(=O)[O-])ccc6F)c6ccc3[nH]6)C=C5)C=C4)cc2)c2ccccc2n1C(=O)c1ccc(Cl)cc1
REMARK SMILES IDX 9 1 8 2 7 3 5 4 6 5 4 7 3 8 1 9 2 10 84 11 78 12 83 13 79 14
REMARK SMILES IDX 82 15 80 16 81 17 85 18 86 19 87 20 88 21 93 22 89 23 92 24
REMARK SMILES IDX 90 25 91 26 10 27 11 28 12 29 13 30 14 32 15 33 16 34 77 35
REMARK SMILES IDX 17 36 76 37 18 38 19 39 20 40 70 41 21 42 75 43 69 44 71 45
REMARK SMILES IDX 22 46 74 47 68 48 67 49 23 51 55 52 35 53 54 54 36 55 39 56
REMARK SMILES IDX 53 57 72 58 37 59 38 60 52 62 73 63 40 64 24 65 25 66 33 67
REMARK SMILES IDX 26 68 32 69 34 70 31 71 27 72 28 73 29 74 30 75 56 76 57 77
REMARK SMILES IDX 65 78 58 79 64 80 66 81 63 82 59 83 60 84 61 85 62 86 41 87
REMARK SMILES IDX 42 88 50 89 43 90 49 91 51 92 48 93 44 94 45 95 46 96 47 97
REMARK H PARENT 7 6 12 31 71 50 39 61
REMARK Flexibility Score: inf
ROOT
ATOM      1  C   UNL A   1      37.598  22.570  25.741  1.00  0.00     0.023 C 
ENDROOT
BRANCH   1   2
ATOM      2  C   UNL A   1      36.474  23.584  25.532  1.00  0.00     0.116 C 
BRANCH   2   3
ATOM      3  N   UNL A   1      35.185  23.061  25.938  1.00  0.00    -0.356 N 
ATOM      4  C   UNL A   1      33.949  23.385  25.456  1.00  0.00     0.224 C 
ATOM      5  O   UNL A   1      32.964  22.808  25.925  1.00  0.00    -0.275 OA
ATOM      6  H   UNL A   1      35.202  22.386  26.654  1.00  0.00     0.163 HD
BRANCH   4   7
ATOM      7  C   UNL A   1      33.812  24.381  24.314  1.00  0.00     0.138 C 
BRANCH   7   8
ATOM      8  C   UNL A   1      32.724  25.395  24.531  1.00  0.00    -0.010 A 
ATOM      9  C   UNL A   1      30.799  24.351  23.127  1.00  0.00     0.065 C 
ATOM     10  C   UNL A   1      31.437  25.380  24.010  1.00  0.00     0.028 A 
ATOM     11  N   UNL A   1      30.780  26.562  24.388  1.00  0.00    -0.280 N 
ATOM     12  C   UNL A   1      32.835  26.557  25.345  1.00  0.00     0.004 A 
ATOM     13  C   UNL A   1      31.607  27.227  25.309  1.00  0.00     0.056 A 
ATOM     14  C   UNL A   1      33.890  27.079  26.128  1.00  0.00     0.010 A 
ATOM     15  C   UNL A   1      31.410  28.365  26.121  1.00  0.00     0.027 A 
ATOM     16  C   UNL A   1      33.708  28.249  26.864  1.00  0.00     0.001 A 
ATOM     17  C   UNL A   1      32.475  28.878  26.868  1.00  0.00     0.002 A 
BRANCH  11  18
ATOM     18  C   UNL A   1      29.500  26.980  23.918  1.00  0.00     0.262 C 
ATOM     19  O   UNL A   1      28.508  26.324  24.237  1.00  0.00    -0.268 OA
BRANCH  18  20
ATOM     20  C   UNL A   1      29.232  28.182  23.111  1.00  0.00     0.040 A 
ATOM     21  C   UNL A   1      30.244  28.820  22.383  1.00  0.00     0.015 A 
ATOM     22  C   UNL A   1      27.929  28.691  23.124  1.00  0.00     0.015 A 
ATOM     23  C   UNL A   1      29.963  30.035  21.750  1.00  0.00     0.021 A 
ATOM     24  C   UNL A   1      27.654  29.897  22.483  1.00  0.00     0.021 A 
ATOM     25  C   UNL A   1      28.678  30.576  21.820  1.00  0.00     0.041 A 
ATOM     26  Cl  UNL A   1      28.350  32.108  21.110  1.00  0.00    -0.084 Cl
ENDBRANCH  18  20
ENDBRANCH  11  18
ENDBRANCH   7   8
ENDBRANCH   4   7
ENDBRANCH   2   3
ENDBRANCH   1   2
BRANCH   1  27
ATOM     27  C   UNL A   1      38.815  23.124  26.497  1.00  0.00     0.023 C 
BRANCH  27  28
ATOM     28  C   UNL A   1      39.905  22.088  26.780  1.00  0.00     0.116 C 
BRANCH  28  29
ATOM     29  N   UNL A   1      41.038  22.188  25.883  1.00  0.00    -0.352 N 
ATOM     30  C   UNL A   1      42.077  23.065  25.743  1.00  0.00     0.251 C 
ATOM     31  H   UNL A   1      41.067  21.457  25.225  1.00  0.00     0.163 HD
ATOM     32  O   UNL A   1      42.955  22.727  24.944  1.00  0.00    -0.269 OA
BRANCH  30  33
ATOM     33  C   UNL A   1      42.175  24.392  26.410  1.00  0.00     0.039 A 
ATOM     34  C   UNL A   1      42.859  24.652  27.597  1.00  0.00     0.014 A 
ATOM     35  C   UNL A   1      41.428  25.431  25.821  1.00  0.00     0.014 A 
ATOM     36  C   UNL A   1      42.702  25.870  28.244  1.00  0.00     0.010 A 
ATOM     37  C   UNL A   1      41.280  26.657  26.456  1.00  0.00     0.010 A 
ATOM     38  C   UNL A   1      41.866  26.846  27.701  1.00  0.00    -0.014 A 
BRANCH  38  39
ATOM     39  C   UNL A   1      41.667  28.063  28.480  1.00  0.00     0.031 A 
ATOM     40  C   UNL A   1      42.653  29.150  28.215  1.00  0.00     0.074 A 
ATOM     41  C   UNL A   1      40.639  28.215  29.338  1.00  0.00     0.049 A 
ATOM     42  N   UNL A   1      43.529  29.660  29.020  1.00  0.00    -0.248 NA
ATOM     43  C   UNL A   1      42.761  29.631  26.831  1.00  0.00     0.031 C 
ATOM     44  C   UNL A   1      39.446  27.376  29.489  1.00  0.00     0.029 A 
ATOM     45  N   UNL A   1      40.405  29.234  30.207  1.00  0.00    -0.354 N 
ATOM     46  C   UNL A   1      44.193  30.653  28.294  1.00  0.00     0.074 A 
ATOM     47  C   UNL A   1      43.774  30.494  26.924  1.00  0.00     0.031 C 
ATOM     48  C   UNL A   1      38.516  28.049  30.205  1.00  0.00     0.029 A 
ATOM     49  C   UNL A   1      39.109  29.280  30.697  1.00  0.00     0.049 A 
ATOM     50  H   UNL A   1      41.096  29.885  30.466  1.00  0.00     0.167 HD
ATOM     51  C   UNL A   1      44.916  31.641  28.897  1.00  0.00     0.034 A 
ATOM     52  C   UNL A   1      38.543  30.294  31.398  1.00  0.00     0.034 A 
ATOM     53  C   UNL A   1      45.200  31.317  30.266  1.00  0.00     0.049 A 
ATOM     54  C   UNL A   1      39.633  31.141  31.939  1.00  0.00     0.074 A 
ATOM     55  C   UNL A   1      45.984  30.380  30.903  1.00  0.00     0.029 A 
ATOM     56  N   UNL A   1      44.358  31.825  31.224  1.00  0.00    -0.354 N 
ATOM     57  N   UNL A   1      40.456  30.765  32.877  1.00  0.00    -0.248 NA
ATOM     58  C   UNL A   1      40.085  32.254  31.118  1.00  0.00     0.031 C 
ATOM     59  C   UNL A   1      45.266  30.043  32.084  1.00  0.00     0.029 A 
ATOM     60  C   UNL A   1      44.111  30.829  32.130  1.00  0.00     0.049 A 
ATOM     61  H   UNL A   1      43.998  32.741  31.254  1.00  0.00     0.167 HD
ATOM     62  C   UNL A   1      41.686  31.275  32.487  1.00  0.00     0.074 A 
ATOM     63  C   UNL A   1      41.378  32.264  31.455  1.00  0.00     0.031 C 
ATOM     64  C   UNL A   1      42.854  30.658  32.833  1.00  0.00     0.034 A 
BRANCH  51  65
ATOM     65  C   UNL A   1      45.110  33.034  28.342  1.00  0.00     0.023 A 
ATOM     66  C   UNL A   1      44.038  33.895  28.049  1.00  0.00     0.031 A 
ATOM     67  C   UNL A   1      46.393  33.622  28.311  1.00  0.00     0.131 A 
ATOM     68  C   UNL A   1      44.241  35.250  27.749  1.00  0.00     0.055 A 
ATOM     69  C   UNL A   1      46.593  34.988  28.074  1.00  0.00     0.041 A 
ATOM     70  F   UNL A   1      47.494  32.898  28.570  1.00  0.00    -0.206 F 
ATOM     71  C   UNL A   1      45.511  35.812  27.795  1.00  0.00     0.022 A 
BRANCH  68  72
ATOM     72  S   UNL A   1      42.833  36.307  27.312  1.00  0.00     0.124 S 
ATOM     73  O   UNL A   1      42.017  36.233  28.525  1.00  0.00    -0.237 OA
ATOM     74  O   UNL A   1      43.492  37.592  27.077  1.00  0.00    -0.237 OA
ATOM     75  O   UNL A   1      42.278  35.671  26.131  1.00  0.00    -0.744 OA
ENDBRANCH  68  72
ENDBRANCH  51  65
BRANCH  52  76
ATOM     76  C   UNL A   1      37.177  30.827  31.206  1.00  0.00     0.023 A 
ATOM     77  C   UNL A   1      36.707  31.068  29.900  1.00  0.00     0.031 A 
ATOM     78  C   UNL A   1      36.455  31.394  32.269  1.00  0.00     0.131 A 
ATOM     79  C   UNL A   1      35.590  31.884  29.685  1.00  0.00     0.055 A 
ATOM     80  C   UNL A   1      35.326  32.193  32.053  1.00  0.00     0.041 A 
ATOM     81  F   UNL A   1      36.875  31.238  33.534  1.00  0.00    -0.206 F 
ATOM     82  C   UNL A   1      34.896  32.453  30.754  1.00  0.00     0.022 A 
BRANCH  79  83
ATOM     83  S   UNL A   1      35.068  32.308  28.000  1.00  0.00     0.124 S 
ATOM     84  O   UNL A   1      35.363  31.078  27.270  1.00  0.00    -0.237 OA
ATOM     85  O   UNL A   1      33.652  32.602  28.192  1.00  0.00    -0.237 OA
ATOM     86  O   UNL A   1      35.913  33.448  27.656  1.00  0.00    -0.744 OA
ENDBRANCH  79  83
ENDBRANCH  52  76
BRANCH  64  87
ATOM     87  C   UNL A   1      42.815  29.533  33.845  1.00  0.00     0.023 A 
ATOM     88  C   UNL A   1      43.387  29.787  35.104  1.00  0.00     0.031 A 
ATOM     89  C   UNL A   1      42.483  28.199  33.540  1.00  0.00     0.131 A 
ATOM     90  C   UNL A   1      43.665  28.735  35.982  1.00  0.00     0.055 A 
ATOM     91  C   UNL A   1      42.689  27.158  34.454  1.00  0.00     0.041 A 
ATOM     92  F   UNL A   1      42.038  27.846  32.329  1.00  0.00    -0.206 F 
ATOM     93  C   UNL A   1      43.303  27.421  35.673  1.00  0.00     0.022 A 
BRANCH  90  94
ATOM     94  S   UNL A   1      44.667  29.025  37.463  1.00  0.00     0.124 S 
ATOM     95  O   UNL A   1      44.501  27.774  38.197  1.00  0.00    -0.237 OA
ATOM     96  O   UNL A   1      45.997  29.246  36.897  1.00  0.00    -0.237 OA
ATOM     97  O   UNL A   1      44.056  30.198  38.080  1.00  0.00    -0.744 OA
ENDBRANCH  90  94
ENDBRANCH  64  87
ENDBRANCH  38  39
ENDBRANCH  30  33
ENDBRANCH  28  29
ENDBRANCH  27  28
ENDBRANCH   1  27
TORSDOF 17
ENDMDL
MODEL 2
REMARK VINA RESULT:     -12.4      1.312      1.497
REMARK SMILES Cc1c(CC(=O)NCCCCNC(=O)c2ccc(-c3c4nc(c(-c5cc(S(=O)(=O)[O-])ccc5F)c5ccc([nH]5)c(-c5cc(S(=O)(=O)[O-])ccc5F)c5nc(c(-c6cc(S(=O)(=O)[O-])ccc6F)c6ccc3[nH]6)C=C5)C=C4)cc2)c2ccccc2n1C(=O)c1ccc(Cl)cc1
REMARK SMILES IDX 9 1 8 2 7 3 5 4 6 5 4 7 3 8 1 9 2 10 84 11 78 12 83 13 79 14
REMARK SMILES IDX 82 15 80 16 81 17 85 18 86 19 87 20 88 21 93 22 89 23 92 24
REMARK SMILES IDX 90 25 91 26 10 27 11 28 12 29 13 30 14 32 15 33 16 34 77 35
REMARK SMILES IDX 17 36 76 37 18 38 19 39 20 40 70 41 21 42 75 43 69 44 71 45
REMARK SMILES IDX 22 46 74 47 68 48 67 49 23 51 55 52 35 53 54 54 36 55 39 56
REMARK SMILES IDX 53 57 72 58 37 59 38 60 52 62 73 63 40 64 24 65 25 66 33 67
REMARK SMILES IDX 26 68 32 69 34 70 31 71 27 72 28 73 29 74 30 75 56 76 57 77
REMARK SMILES IDX 65 78 58 79 64 80 66 81 63 82 59 83 60 84 61 85 62 86 41 87
REMARK SMILES IDX 42 88 50 89 43 90 49 91 51 92 48 93 44 94 45 95 46 96 47 97
REMARK H PARENT 7 6 12 31 71 50 39 61
REMARK Flexibility Score: inf
ROOT
ATOM      1  C   UNL A   1      37.618  22.066  25.029  1.00  0.00     0.023 C 
ENDROOT
BRANCH   1   2
ATOM      2  C   UNL A   1      36.364  22.645  24.376  1.00  0.00     0.116 C 
BRANCH   2   3
ATOM      3  N   UNL A   1      35.232  22.653  25.280  1.00  0.00    -0.356 N 
ATOM      4  C   UNL A   1      34.243  23.589  25.393  1.00  0.00     0.224 C 
ATOM      5  O   UNL A   1      33.348  23.403  26.221  1.00  0.00    -0.275 OA
ATOM      6  H   UNL A   1      35.167  21.886  25.893  1.00  0.00     0.163 HD
BRANCH   4   7
ATOM      7  C   UNL A   1      34.222  24.791  24.461  1.00  0.00     0.138 C 
BRANCH   7   8
ATOM      8  C   UNL A   1      33.024  25.678  24.655  1.00  0.00    -0.010 A 
ATOM      9  C   UNL A   1      31.284  24.484  23.133  1.00  0.00     0.065 C 
ATOM     10  C   UNL A   1      31.769  25.544  24.074  1.00  0.00     0.028 A 
ATOM     11  N   UNL A   1      30.975  26.638  24.453  1.00  0.00    -0.280 N 
ATOM     12  C   UNL A   1      32.974  26.817  25.505  1.00  0.00     0.004 A 
ATOM     13  C   UNL A   1      31.685  27.356  25.430  1.00  0.00     0.056 A 
ATOM     14  C   UNL A   1      33.932  27.422  26.351  1.00  0.00     0.010 A 
ATOM     15  C   UNL A   1      31.332  28.440  26.263  1.00  0.00     0.027 A 
ATOM     16  C   UNL A   1      33.594  28.541  27.110  1.00  0.00     0.001 A 
ATOM     17  C   UNL A   1      32.302  29.037  27.074  1.00  0.00     0.002 A 
BRANCH  11  18
ATOM     18  C   UNL A   1      29.679  26.935  23.935  1.00  0.00     0.262 C 
ATOM     19  O   UNL A   1      28.744  26.180  24.207  1.00  0.00    -0.268 OA
BRANCH  18  20
ATOM     20  C   UNL A   1      29.326  28.114  23.128  1.00  0.00     0.040 A 
ATOM     21  C   UNL A   1      30.292  28.834  22.415  1.00  0.00     0.015 A 
ATOM     22  C   UNL A   1      27.986  28.517  23.126  1.00  0.00     0.015 A 
ATOM     23  C   UNL A   1      29.923  30.025  21.783  1.00  0.00     0.021 A 
ATOM     24  C   UNL A   1      27.624  29.700  22.484  1.00  0.00     0.021 A 
ATOM     25  C   UNL A   1      28.598  30.461  21.837  1.00  0.00     0.041 A 
ATOM     26  Cl  UNL A   1      28.158  31.965  21.128  1.00  0.00    -0.084 Cl
ENDBRANCH  18  20
ENDBRANCH  11  18
ENDBRANCH   7   8
ENDBRANCH   4   7
ENDBRANCH   2   3
ENDBRANCH   1   2
BRANCH   1  27
ATOM     27  C   UNL A   1      38.277  22.993  26.062  1.00  0.00     0.023 C 
BRANCH  27  28
ATOM     28  C   UNL A   1      39.477  22.376  26.785  1.00  0.00     0.116 C 
BRANCH  28  29
ATOM     29  N   UNL A   1      40.688  22.377  25.990  1.00  0.00    -0.352 N 
ATOM     30  C   UNL A   1      41.782  23.193  25.907  1.00  0.00     0.251 C 
ATOM     31  H   UNL A   1      40.734  21.616  25.368  1.00  0.00     0.163 HD
ATOM     32  O   UNL A   1      42.706  22.774  25.205  1.00  0.00    -0.269 OA
BRANCH  30  33
ATOM     33  C   UNL A   1      41.893  24.543  26.524  1.00  0.00     0.039 A 
ATOM     34  C   UNL A   1      42.713  24.874  27.602  1.00  0.00     0.014 A 
ATOM     35  C   UNL A   1      41.018  25.523  26.017  1.00  0.00     0.014 A 
ATOM     36  C   UNL A   1      42.576  26.102  28.235  1.00  0.00     0.010 A 
ATOM     37  C   UNL A   1      40.888  26.758  26.637  1.00  0.00     0.010 A 
ATOM     38  C   UNL A   1      41.622  27.015  27.788  1.00  0.00    -0.014 A 
BRANCH  38  39
ATOM     39  C   UNL A   1      41.462  28.243  28.558  1.00  0.00     0.031 A 
ATOM     40  C   UNL A   1      42.458  29.311  28.259  1.00  0.00     0.074 A 
ATOM     41  C   UNL A   1      40.457  28.421  29.438  1.00  0.00     0.049 A 
ATOM     42  N   UNL A   1      43.361  29.815  29.037  1.00  0.00    -0.248 NA
ATOM     43  C   UNL A   1      42.542  29.777  26.867  1.00  0.00     0.031 C 
ATOM     44  C   UNL A   1      39.254  27.603  29.626  1.00  0.00     0.029 A 
ATOM     45  N   UNL A   1      40.259  29.453  30.302  1.00  0.00    -0.354 N 
ATOM     46  C   UNL A   1      44.023  30.790  28.285  1.00  0.00     0.074 A 
ATOM     47  C   UNL A   1      43.570  30.623  26.928  1.00  0.00     0.031 C 
ATOM     48  C   UNL A   1      38.351  28.299  30.356  1.00  0.00     0.029 A 
ATOM     49  C   UNL A   1      38.976  29.526  30.821  1.00  0.00     0.049 A 
ATOM     50  H   UNL A   1      40.967  30.095  30.537  1.00  0.00     0.167 HD
ATOM     51  C   UNL A   1      44.776  31.772  28.861  1.00  0.00     0.034 A 
ATOM     52  C   UNL A   1      38.443  30.556  31.524  1.00  0.00     0.034 A 
ATOM     53  C   UNL A   1      45.087  31.457  30.227  1.00  0.00     0.049 A 
ATOM     54  C   UNL A   1      39.559  31.390  32.030  1.00  0.00     0.074 A 
ATOM     55  C   UNL A   1      45.870  30.514  30.856  1.00  0.00     0.029 A 
ATOM     56  N   UNL A   1      44.276  31.989  31.199  1.00  0.00    -0.354 N 
ATOM     57  N   UNL A   1      40.397  31.010  32.953  1.00  0.00    -0.248 NA
ATOM     58  C   UNL A   1      40.010  32.487  31.188  1.00  0.00     0.031 C 
ATOM     59  C   UNL A   1      45.175  30.201  32.056  1.00  0.00     0.029 A 
ATOM     60  C   UNL A   1      44.034  31.007  32.121  1.00  0.00     0.049 A 
ATOM     61  H   UNL A   1      43.932  32.911  31.227  1.00  0.00     0.167 HD
ATOM     62  C   UNL A   1      41.626  31.496  32.529  1.00  0.00     0.074 A 
ATOM     63  C   UNL A   1      41.310  32.479  31.494  1.00  0.00     0.031 C 
ATOM     64  C   UNL A   1      42.792  30.864  32.854  1.00  0.00     0.034 A 
BRANCH  51  65
ATOM     65  C   UNL A   1      44.980  33.155  28.287  1.00  0.00     0.023 A 
ATOM     66  C   UNL A   1      46.173  33.552  27.656  1.00  0.00     0.031 A 
ATOM     67  C   UNL A   1      43.891  34.044  28.150  1.00  0.00     0.131 A 
ATOM     68  C   UNL A   1      46.262  34.754  26.938  1.00  0.00     0.055 A 
ATOM     69  C   UNL A   1      43.961  35.213  27.381  1.00  0.00     0.041 A 
ATOM     70  F   UNL A   1      42.701  33.774  28.711  1.00  0.00    -0.206 F 
ATOM     71  C   UNL A   1      45.153  35.571  26.765  1.00  0.00     0.022 A 
BRANCH  68  72
ATOM     72  S   UNL A   1      47.841  35.256  26.198  1.00  0.00     0.124 S 
ATOM     73  O   UNL A   1      48.801  34.792  27.200  1.00  0.00    -0.237 OA
ATOM     74  O   UNL A   1      47.830  34.503  24.943  1.00  0.00    -0.237 OA
ATOM     75  O   UNL A   1      47.713  36.695  26.056  1.00  0.00    -0.744 OA
ENDBRANCH  68  72
ENDBRANCH  51  65
BRANCH  52  76
ATOM     76  C   UNL A   1      37.081  31.109  31.358  1.00  0.00     0.023 A 
ATOM     77  C   UNL A   1      36.650  31.507  30.078  1.00  0.00     0.031 A 
ATOM     78  C   UNL A   1      36.327  31.542  32.460  1.00  0.00     0.131 A 
ATOM     79  C   UNL A   1      35.537  32.344  29.931  1.00  0.00     0.055 A 
ATOM     80  C   UNL A   1      35.202  32.362  32.311  1.00  0.00     0.041 A 
ATOM     81  F   UNL A   1      36.709  31.233  33.709  1.00  0.00    -0.206 F 
ATOM     82  C   UNL A   1      34.810  32.778  31.041  1.00  0.00     0.022 A 
BRANCH  79  83
ATOM     83  S   UNL A   1      35.064  32.971  28.296  1.00  0.00     0.124 S 
ATOM     84  O   UNL A   1      34.109  31.962  27.845  1.00  0.00    -0.237 OA
ATOM     85  O   UNL A   1      34.493  34.272  28.630  1.00  0.00    -0.237 OA
ATOM     86  O   UNL A   1      36.325  33.000  27.561  1.00  0.00    -0.744 OA
ENDBRANCH  79  83
ENDBRANCH  52  76
BRANCH  64  87
ATOM     87  C   UNL A   1      42.759  29.750  33.879  1.00  0.00     0.023 A 
ATOM     88  C   UNL A   1      43.317  30.026  35.140  1.00  0.00     0.031 A 
ATOM     89  C   UNL A   1      42.445  28.409  33.587  1.00  0.00     0.131 A 
ATOM     90  C   UNL A   1      43.600  28.987  36.032  1.00  0.00     0.055 A 
ATOM     91  C   UNL A   1      42.657  27.381  34.515  1.00  0.00     0.041 A 
ATOM     92  F   UNL A   1      42.015  28.036  32.376  1.00  0.00    -0.206 F 
ATOM     93  C   UNL A   1      43.257  27.665  35.736  1.00  0.00     0.022 A 
BRANCH  90  94
ATOM     94  S   UNL A   1      44.586  29.306  37.518  1.00  0.00     0.124 S 
ATOM     95  O   UNL A   1      44.531  28.020  38.207  1.00  0.00    -0.237 OA
ATOM     96  O   UNL A   1      45.888  29.659  36.954  1.00  0.00    -0.237 OA
ATOM     97  O   UNL A   1      43.883  30.401  38.180  1.00  0.00    -0.744 OA
ENDBRANCH  90  94
ENDBRANCH  64  87
ENDBRANCH  38  39
ENDBRANCH  30  33
ENDBRANCH  28  29
ENDBRANCH  27  28
ENDBRANCH   1  27
TORSDOF 17
ENDMDL
MODEL 3
REMARK VINA RESULT:     -12.3      3.586      8.877
REMARK SMILES Cc1c(CC(=O)NCCCCNC(=O)c2ccc(-c3c4nc(c(-c5cc(S(=O)(=O)[O-])ccc5F)c5ccc([nH]5)c(-c5cc(S(=O)(=O)[O-])ccc5F)c5nc(c(-c6cc(S(=O)(=O)[O-])ccc6F)c6ccc3[nH]6)C=C5)C=C4)cc2)c2ccccc2n1C(=O)c1ccc(Cl)cc1
REMARK SMILES IDX 9 1 8 2 7 3 5 4 6 5 4 7 3 8 1 9 2 10 84 11 78 12 83 13 79 14
REMARK SMILES IDX 82 15 80 16 81 17 85 18 86 19 87 20 88 21 93 22 89 23 92 24
REMARK SMILES IDX 90 25 91 26 10 27 11 28 12 29 13 30 14 32 15 33 16 34 77 35
REMARK SMILES IDX 17 36 76 37 18 38 19 39 20 40 70 41 21 42 75 43 69 44 71 45
REMARK SMILES IDX 22 46 74 47 68 48 67 49 23 51 55 52 35 53 54 54 36 55 39 56
REMARK SMILES IDX 53 57 72 58 37 59 38 60 52 62 73 63 40 64 24 65 25 66 33 67
REMARK SMILES IDX 26 68 32 69 34 70 31 71 27 72 28 73 29 74 30 75 56 76 57 77
REMARK SMILES IDX 65 78 58 79 64 80 66 81 63 82 59 83 60 84 61 85 62 86 41 87
REMARK SMILES IDX 42 88 50 89 43 90 49 91 51 92 48 93 44 94 45 95 46 96 47 97
REMARK H PARENT 7 6 12 31 71 50 39 61
REMARK Flexibility Score: inf
ROOT
ATOM      1  C   UNL A   1      34.154  30.306  27.475  1.00  0.00     0.023 C 
ENDROOT
BRANCH   1   2
ATOM      2  C   UNL A   1      32.793  30.565  26.831  1.00  0.00     0.116 C 
BRANCH   2   3
ATOM      3  N   UNL A   1      31.811  29.569  27.209  1.00  0.00    -0.356 N 
ATOM      4  C   UNL A   1      31.960  28.213  27.274  1.00  0.00     0.224 C 
ATOM      5  O   UNL A   1      30.998  27.532  27.640  1.00  0.00    -0.275 OA
ATOM      6  H   UNL A   1      30.922  29.914  27.450  1.00  0.00     0.163 HD
BRANCH   4   7
ATOM      7  C   UNL A   1      33.308  27.578  26.969  1.00  0.00     0.138 C 
BRANCH   7   8
ATOM      8  C   UNL A   1      33.299  26.715  25.739  1.00  0.00    -0.010 A 
ATOM      9  C   UNL A   1      32.720  24.399  26.772  1.00  0.00     0.065 C 
ATOM     10  C   UNL A   1      33.055  25.350  25.664  1.00  0.00     0.028 A 
ATOM     11  N   UNL A   1      33.237  24.928  24.337  1.00  0.00    -0.280 N 
ATOM     12  C   UNL A   1      33.526  27.175  24.411  1.00  0.00     0.004 A 
ATOM     13  C   UNL A   1      33.410  26.079  23.549  1.00  0.00     0.056 A 
ATOM     14  C   UNL A   1      33.804  28.454  23.877  1.00  0.00     0.010 A 
ATOM     15  C   UNL A   1      33.486  26.279  22.154  1.00  0.00     0.027 A 
ATOM     16  C   UNL A   1      33.955  28.624  22.501  1.00  0.00     0.001 A 
ATOM     17  C   UNL A   1      33.786  27.547  21.649  1.00  0.00     0.002 A 
BRANCH  11  18
ATOM     18  C   UNL A   1      33.228  23.572  23.894  1.00  0.00     0.262 C 
ATOM     19  O   UNL A   1      32.250  23.159  23.270  1.00  0.00    -0.268 OA
BRANCH  18  20
ATOM     20  C   UNL A   1      34.324  22.605  24.067  1.00  0.00     0.040 A 
ATOM     21  C   UNL A   1      34.100  21.321  24.575  1.00  0.00     0.015 A 
ATOM     22  C   UNL A   1      35.616  23.030  23.736  1.00  0.00     0.015 A 
ATOM     23  C   UNL A   1      35.196  20.497  24.850  1.00  0.00     0.021 A 
ATOM     24  C   UNL A   1      36.703  22.199  24.002  1.00  0.00     0.021 A 
ATOM     25  C   UNL A   1      36.490  20.947  24.581  1.00  0.00     0.041 A 
ATOM     26  Cl  UNL A   1      37.843  19.968  24.991  1.00  0.00    -0.084 Cl
ENDBRANCH  18  20
ENDBRANCH  11  18
ENDBRANCH   7   8
ENDBRANCH   4   7
ENDBRANCH   2   3
ENDBRANCH   1   2
BRANCH   1  27
ATOM     27  C   UNL A   1      34.988  31.573  27.719  1.00  0.00     0.023 C 
BRANCH  27  28
ATOM     28  C   UNL A   1      34.277  32.643  28.550  1.00  0.00     0.116 C 
BRANCH  28  29
ATOM     29  N   UNL A   1      34.384  32.426  29.979  1.00  0.00    -0.352 N 
ATOM     30  C   UNL A   1      35.342  31.901  30.801  1.00  0.00     0.251 C 
ATOM     31  H   UNL A   1      33.585  32.724  30.469  1.00  0.00     0.163 HD
ATOM     32  O   UNL A   1      35.133  32.029  32.010  1.00  0.00    -0.269 OA
BRANCH  30  33
ATOM     33  C   UNL A   1      36.540  31.143  30.347  1.00  0.00     0.039 A 
ATOM     34  C   UNL A   1      36.641  29.754  30.284  1.00  0.00     0.014 A 
ATOM     35  C   UNL A   1      37.680  31.916  30.054  1.00  0.00     0.014 A 
ATOM     36  C   UNL A   1      37.871  29.150  30.059  1.00  0.00     0.010 A 
ATOM     37  C   UNL A   1      38.910  31.317  29.813  1.00  0.00     0.010 A 
ATOM     38  C   UNL A   1      39.011  29.934  29.884  1.00  0.00    -0.014 A 
BRANCH  38  39
ATOM     39  C   UNL A   1      40.286  29.237  29.752  1.00  0.00     0.031 A 
ATOM     40  C   UNL A   1      41.036  29.046  31.026  1.00  0.00     0.074 A 
ATOM     41  C   UNL A   1      40.730  28.755  28.575  1.00  0.00     0.049 A 
ATOM     42  N   UNL A   1      42.183  29.538  31.370  1.00  0.00    -0.248 NA
ATOM     43  C   UNL A   1      40.348  28.322  32.105  1.00  0.00     0.031 C 
ATOM     44  C   UNL A   1      39.994  28.604  27.315  1.00  0.00     0.029 A 
ATOM     45  N   UNL A   1      41.938  28.199  28.288  1.00  0.00    -0.354 N 
ATOM     46  C   UNL A   1      42.448  29.046  32.652  1.00  0.00     0.074 A 
ATOM     47  C   UNL A   1      41.229  28.422  33.101  1.00  0.00     0.031 C 
ATOM     48  C   UNL A   1      40.683  27.781  26.492  1.00  0.00     0.029 A 
ATOM     49  C   UNL A   1      41.972  27.491  27.096  1.00  0.00     0.049 A 
ATOM     50  H   UNL A   1      42.721  28.291  28.877  1.00  0.00     0.167 HD
ATOM     51  C   UNL A   1      43.702  29.045  33.190  1.00  0.00     0.034 A 
ATOM     52  C   UNL A   1      42.963  26.669  26.672  1.00  0.00     0.034 A 
ATOM     53  C   UNL A   1      44.584  29.911  32.459  1.00  0.00     0.049 A 
ATOM     54  C   UNL A   1      44.184  26.980  27.453  1.00  0.00     0.074 A 
ATOM     55  C   UNL A   1      44.683  31.274  32.280  1.00  0.00     0.029 A 
ATOM     56  N   UNL A   1      45.374  29.340  31.493  1.00  0.00    -0.354 N 
ATOM     57  N   UNL A   1      44.864  28.086  27.339  1.00  0.00    -0.248 NA
ATOM     58  C   UNL A   1      44.397  26.238  28.686  1.00  0.00     0.031 C 
ATOM     59  C   UNL A   1      45.145  31.435  30.944  1.00  0.00     0.029 A 
ATOM     60  C   UNL A   1      45.352  30.164  30.399  1.00  0.00     0.049 A 
ATOM     61  H   UNL A   1      45.867  28.492  31.572  1.00  0.00     0.167 HD
ATOM     62  C   UNL A   1      45.230  28.406  28.639  1.00  0.00     0.074 A 
ATOM     63  C   UNL A   1      45.003  27.184  29.409  1.00  0.00     0.031 C 
ATOM     64  C   UNL A   1      45.419  29.701  29.027  1.00  0.00     0.034 A 
BRANCH  51  65
ATOM     65  C   UNL A   1      44.214  28.034  34.191  1.00  0.00     0.023 A 
ATOM     66  C   UNL A   1      44.429  28.344  35.546  1.00  0.00     0.031 A 
ATOM     67  C   UNL A   1      44.276  26.663  33.859  1.00  0.00     0.131 A 
ATOM     68  C   UNL A   1      44.688  27.346  36.498  1.00  0.00     0.055 A 
ATOM     69  C   UNL A   1      44.471  25.661  34.819  1.00  0.00     0.041 A 
ATOM     70  F   UNL A   1      44.090  26.246  32.596  1.00  0.00    -0.206 F 
ATOM     71  C   UNL A   1      44.674  26.002  36.150  1.00  0.00     0.022 A 
BRANCH  68  72
ATOM     72  S   UNL A   1      45.026  27.799  38.222  1.00  0.00     0.124 S 
ATOM     73  O   UNL A   1      44.360  26.718  38.950  1.00  0.00    -0.237 OA
ATOM     74  O   UNL A   1      46.489  27.769  38.252  1.00  0.00    -0.237 OA
ATOM     75  O   UNL A   1      44.432  29.117  38.355  1.00  0.00    -0.744 OA
ENDBRANCH  68  72
ENDBRANCH  51  65
BRANCH  52  76
ATOM     76  C   UNL A   1      42.781  25.353  26.020  1.00  0.00     0.023 A 
ATOM     77  C   UNL A   1      41.800  24.470  26.512  1.00  0.00     0.031 A 
ATOM     78  C   UNL A   1      43.746  24.829  25.145  1.00  0.00     0.131 A 
ATOM     79  C   UNL A   1      41.831  23.112  26.169  1.00  0.00     0.055 A 
ATOM     80  C   UNL A   1      43.762  23.476  24.787  1.00  0.00     0.041 A 
ATOM     81  F   UNL A   1      44.732  25.609  24.674  1.00  0.00    -0.206 F 
ATOM     82  C   UNL A   1      42.809  22.607  25.311  1.00  0.00     0.022 A 
BRANCH  79  83
ATOM     83  S   UNL A   1      40.655  21.948  26.912  1.00  0.00     0.124 S 
ATOM     84  O   UNL A   1      39.369  22.545  26.559  1.00  0.00    -0.237 OA
ATOM     85  O   UNL A   1      40.984  20.708  26.216  1.00  0.00    -0.237 OA
ATOM     86  O   UNL A   1      40.985  21.986  28.334  1.00  0.00    -0.744 OA
ENDBRANCH  79  83
ENDBRANCH  52  76
BRANCH  64  87
ATOM     87  C   UNL A   1      45.452  30.784  27.969  1.00  0.00     0.023 A 
ATOM     88  C   UNL A   1      46.716  31.282  27.605  1.00  0.00     0.031 A 
ATOM     89  C   UNL A   1      44.321  31.491  27.518  1.00  0.00     0.131 A 
ATOM     90  C   UNL A   1      46.826  32.469  26.874  1.00  0.00     0.055 A 
ATOM     91  C   UNL A   1      44.435  32.636  26.719  1.00  0.00     0.041 A 
ATOM     92  F   UNL A   1      43.084  31.158  27.906  1.00  0.00    -0.206 F 
ATOM     93  C   UNL A   1      45.692  33.142  26.411  1.00  0.00     0.022 A 
BRANCH  90  94
ATOM     94  S   UNL A   1      48.441  33.262  26.665  1.00  0.00     0.124 S 
ATOM     95  O   UNL A   1      48.615  33.950  27.941  1.00  0.00    -0.237 OA
ATOM     96  O   UNL A   1      49.322  32.116  26.446  1.00  0.00    -0.237 OA
ATOM     97  O   UNL A   1      48.261  34.131  25.505  1.00  0.00    -0.744 OA
ENDBRANCH  90  94
ENDBRANCH  64  87
ENDBRANCH  38  39
ENDBRANCH  30  33
ENDBRANCH  28  29
ENDBRANCH  27  28
ENDBRANCH   1  27
TORSDOF 17
ENDMDL
