MODEL 1
REMARK VINA RESULT:     -12.7      0.000      0.000
REMARK SMILES O=C(NCCCCNC(=O)c1cccc(F)c1N1CCN2C(=O)NC[C@@H]2C1)c1ccc(-c2c3nc(c(-c4cc(S(=O)(=O)[O-])ccc4F)c4ccc([nH]4)c(-c4cc(S(=O)(=O)[O-])ccc4F)c4nc(c(-c5cc(S(=O)(=O)[O-])ccc5F)c5ccc2[nH]5)C=C4)C=C3)cc1
REMARK SMILES IDX 4 1 3 2 1 3 2 4 28 6 29 7 90 8 30 9 89 10 31 11 32 12 33 13
REMARK SMILES IDX 83 14 34 15 88 16 82 17 84 18 35 19 87 20 81 21 80 22 36 24
REMARK SMILES IDX 68 25 48 26 67 27 49 28 52 29 66 30 85 31 50 32 51 33 65 35
REMARK SMILES IDX 86 36 53 37 37 38 38 39 46 40 39 41 45 42 47 43 44 44 40 45
REMARK SMILES IDX 41 46 42 47 43 48 69 49 70 50 78 51 71 52 77 53 79 54 76 55
REMARK SMILES IDX 72 56 73 57 74 58 75 59 54 60 55 61 63 62 56 63 62 64 64 65
REMARK SMILES IDX 61 66 57 67 58 68 59 69 60 70 5 71 6 72 7 73 8 74 9 75 10 77
REMARK SMILES IDX 11 78 12 79 17 80 13 81 15 82 14 83 16 84 18 85 19 86 27 87
REMARK SMILES IDX 20 88 26 89 21 90 25 91 22 92 24 93 23 94
REMARK H PARENT 3 5 84 23 52 34 8 76 24 95
REMARK Flexibility Score: inf
ROOT
ATOM      1  C   UNL A   1      35.921  22.632  25.994  1.00  0.00     0.116 C 
ENDROOT
BRANCH   1   2
ATOM      2  N   UNL A   1      36.829  21.529  25.703  1.00  0.00    -0.352 N 
ATOM      3  O   UNL A   1      38.832  20.511  25.428  1.00  0.00    -0.269 OA
ATOM      4  C   UNL A   1      38.204  21.495  25.809  1.00  0.00     0.251 C 
ATOM      5  H   UNL A   1      36.405  20.698  25.391  1.00  0.00     0.163 HD
BRANCH   4   6
ATOM      6  C   UNL A   1      38.910  22.674  26.354  1.00  0.00     0.039 A 
ATOM      7  C   UNL A   1      38.568  23.951  25.909  1.00  0.00     0.014 A 
ATOM      8  C   UNL A   1      39.964  22.501  27.255  1.00  0.00     0.014 A 
ATOM      9  C   UNL A   1      39.405  25.018  26.196  1.00  0.00     0.010 A 
ATOM     10  C   UNL A   1      40.725  23.607  27.652  1.00  0.00     0.010 A 
ATOM     11  C   UNL A   1      40.474  24.870  27.097  1.00  0.00    -0.014 A 
BRANCH  11  12
ATOM     12  C   UNL A   1      41.236  26.085  27.488  1.00  0.00     0.031 A 
ATOM     13  C   UNL A   1      42.601  26.383  26.935  1.00  0.00     0.074 A 
ATOM     14  C   UNL A   1      40.628  26.968  28.305  1.00  0.00     0.049 A 
ATOM     15  N   UNL A   1      43.345  27.443  27.124  1.00  0.00    -0.248 NA
ATOM     16  C   UNL A   1      43.218  25.367  26.071  1.00  0.00     0.031 C 
ATOM     17  C   UNL A   1      39.302  26.776  28.902  1.00  0.00     0.029 A 
ATOM     18  N   UNL A   1      41.005  28.213  28.738  1.00  0.00    -0.354 N 
ATOM     19  C   UNL A   1      44.523  27.219  26.420  1.00  0.00     0.074 A 
ATOM     20  C   UNL A   1      44.405  25.905  25.822  1.00  0.00     0.031 C 
ATOM     21  C   UNL A   1      38.937  27.897  29.535  1.00  0.00     0.029 A 
ATOM     22  C   UNL A   1      40.038  28.849  29.481  1.00  0.00     0.049 A 
ATOM     23  H   UNL A   1      41.882  28.612  28.535  1.00  0.00     0.167 HD
ATOM     24  C   UNL A   1      45.596  28.037  26.287  1.00  0.00     0.034 A 
ATOM     25  C   UNL A   1      40.034  30.057  30.075  1.00  0.00     0.034 A 
ATOM     26  C   UNL A   1      45.687  29.347  26.889  1.00  0.00     0.049 A 
ATOM     27  C   UNL A   1      41.250  30.924  29.954  1.00  0.00     0.074 A 
ATOM     28  C   UNL A   1      46.714  30.270  26.785  1.00  0.00     0.029 A 
ATOM     29  N   UNL A   1      44.726  29.917  27.715  1.00  0.00    -0.354 N 
ATOM     30  N   UNL A   1      42.359  30.689  29.295  1.00  0.00    -0.248 NA
ATOM     31  C   UNL A   1      41.228  32.207  30.666  1.00  0.00     0.031 C 
ATOM     32  C   UNL A   1      46.412  31.358  27.607  1.00  0.00     0.029 A 
ATOM     33  C   UNL A   1      45.156  31.159  28.158  1.00  0.00     0.049 A 
ATOM     34  H   UNL A   1      43.866  29.501  27.950  1.00  0.00     0.167 HD
ATOM     35  C   UNL A   1      43.165  31.801  29.499  1.00  0.00     0.074 A 
ATOM     36  C   UNL A   1      42.414  32.709  30.345  1.00  0.00     0.031 C 
ATOM     37  C   UNL A   1      44.409  32.047  29.020  1.00  0.00     0.034 A 
BRANCH  24  38
ATOM     38  C   UNL A   1      46.780  27.530  25.500  1.00  0.00     0.023 A 
ATOM     39  C   UNL A   1      47.008  27.913  24.167  1.00  0.00     0.031 A 
ATOM     40  C   UNL A   1      47.711  26.665  26.104  1.00  0.00     0.131 A 
ATOM     41  C   UNL A   1      48.111  27.396  23.469  1.00  0.00     0.055 A 
ATOM     42  C   UNL A   1      48.844  26.210  25.427  1.00  0.00     0.041 A 
ATOM     43  F   UNL A   1      47.537  26.251  27.370  1.00  0.00    -0.206 F 
ATOM     44  C   UNL A   1      49.043  26.566  24.098  1.00  0.00     0.022 A 
BRANCH  41  45
ATOM     45  S   UNL A   1      48.254  27.740  21.694  1.00  0.00     0.124 S 
ATOM     46  O   UNL A   1      46.940  28.304  21.394  1.00  0.00    -0.237 OA
ATOM     47  O   UNL A   1      49.375  28.672  21.642  1.00  0.00    -0.237 OA
ATOM     48  O   UNL A   1      48.509  26.425  21.108  1.00  0.00    -0.744 OA
ENDBRANCH  41  45
ENDBRANCH  24  38
BRANCH  25  49
ATOM     49  C   UNL A   1      38.837  30.471  30.855  1.00  0.00     0.023 A 
ATOM     50  C   UNL A   1      37.810  31.219  30.264  1.00  0.00     0.031 A 
ATOM     51  C   UNL A   1      38.666  30.033  32.182  1.00  0.00     0.131 A 
ATOM     52  C   UNL A   1      36.649  31.502  31.000  1.00  0.00     0.055 A 
ATOM     53  C   UNL A   1      37.494  30.284  32.894  1.00  0.00     0.041 A 
ATOM     54  F   UNL A   1      39.616  29.295  32.780  1.00  0.00    -0.206 F 
ATOM     55  C   UNL A   1      36.476  31.024  32.302  1.00  0.00     0.022 A 
BRANCH  52  56
ATOM     56  S   UNL A   1      35.347  32.500  30.226  1.00  0.00     0.124 S 
ATOM     57  O   UNL A   1      34.975  31.669  29.087  1.00  0.00    -0.237 OA
ATOM     58  O   UNL A   1      34.360  32.601  31.297  1.00  0.00    -0.237 OA
ATOM     59  O   UNL A   1      36.028  33.749  29.893  1.00  0.00    -0.744 OA
ENDBRANCH  52  56
ENDBRANCH  25  49
BRANCH  37  60
ATOM     60  C   UNL A   1      45.041  33.368  29.368  1.00  0.00     0.023 A 
ATOM     61  C   UNL A   1      44.846  34.511  28.576  1.00  0.00     0.031 A 
ATOM     62  C   UNL A   1      45.787  33.495  30.553  1.00  0.00     0.131 A 
ATOM     63  C   UNL A   1      45.404  35.735  28.974  1.00  0.00     0.055 A 
ATOM     64  C   UNL A   1      46.301  34.724  30.966  1.00  0.00     0.041 A 
ATOM     65  F   UNL A   1      45.999  32.431  31.343  1.00  0.00    -0.206 F 
ATOM     66  C   UNL A   1      46.113  35.853  30.174  1.00  0.00     0.022 A 
BRANCH  63  67
ATOM     67  S   UNL A   1      45.208  37.179  27.896  1.00  0.00     0.124 S 
ATOM     68  O   UNL A   1      46.272  36.972  26.918  1.00  0.00    -0.237 OA
ATOM     69  O   UNL A   1      43.845  37.020  27.398  1.00  0.00    -0.237 OA
ATOM     70  O   UNL A   1      45.406  38.312  28.799  1.00  0.00    -0.744 OA
ENDBRANCH  63  67
ENDBRANCH  37  60
ENDBRANCH  11  12
ENDBRANCH   4   6
ENDBRANCH   1   2
BRANCH   1  71
ATOM     71  C   UNL A   1      34.583  22.190  26.563  1.00  0.00     0.023 C 
BRANCH  71  72
ATOM     72  C   UNL A   1      33.621  23.318  26.909  1.00  0.00     0.023 C 
BRANCH  72  73
ATOM     73  C   UNL A   1      32.172  22.896  27.114  1.00  0.00     0.116 C 
BRANCH  73  74
ATOM     74  N   UNL A   1      31.219  23.982  26.950  1.00  0.00    -0.352 N 
ATOM     75  C   UNL A   1      30.906  24.702  25.818  1.00  0.00     0.253 C 
ATOM     76  H   UNL A   1      30.727  24.240  27.764  1.00  0.00     0.163 HD
ATOM     77  O   UNL A   1      30.018  25.546  25.850  1.00  0.00    -0.269 OA
BRANCH  75  78
ATOM     78  C   UNL A   1      31.647  24.424  24.570  1.00  0.00     0.066 A 
ATOM     79  C   UNL A   1      31.450  23.146  24.004  1.00  0.00     0.016 A 
ATOM     80  C   UNL A   1      32.463  25.393  23.949  1.00  0.00     0.086 A 
ATOM     81  C   UNL A   1      32.154  22.758  22.871  1.00  0.00     0.004 A 
ATOM     82  C   UNL A   1      33.146  24.957  22.795  1.00  0.00     0.147 A 
ATOM     83  C   UNL A   1      33.021  23.664  22.277  1.00  0.00     0.041 A 
ATOM     84  F   UNL A   1      33.988  25.792  22.161  1.00  0.00    -0.205 F 
BRANCH  80  85
ATOM     85  N   UNL A   1      32.576  26.701  24.395  1.00  0.00    -0.365 N 
ATOM     86  C   UNL A   1      31.822  27.785  23.727  1.00  0.00     0.138 C 
ATOM     87  C   UNL A   1      33.620  27.127  25.346  1.00  0.00     0.143 C 
ATOM     88  C   UNL A   1      31.288  28.828  24.738  1.00  0.00     0.143 C 
ATOM     89  C   UNL A   1      32.988  28.037  26.403  1.00  0.00     0.125 C 
ATOM     90  N   UNL A   1      32.241  29.123  25.789  1.00  0.00    -0.317 N 
ATOM     91  C   UNL A   1      33.945  28.780  27.326  1.00  0.00     0.144 C 
ATOM     92  C   UNL A   1      32.285  30.253  26.585  1.00  0.00     0.317 C 
ATOM     93  N   UNL A   1      33.262  30.033  27.548  1.00  0.00    -0.336 N 
ATOM     94  O   UNL A   1      31.605  31.259  26.480  1.00  0.00    -0.249 OA
ATOM     95  H   UNL A   1      33.463  30.652  28.287  1.00  0.00     0.165 HD
ENDBRANCH  80  85
ENDBRANCH  75  78
ENDBRANCH  73  74
ENDBRANCH  72  73
ENDBRANCH  71  72
ENDBRANCH   1  71
TORSDOF 15
ENDMDL
MODEL 2
REMARK VINA RESULT:     -12.5      5.047     10.148
REMARK SMILES O=C(NCCCCNC(=O)c1cccc(F)c1N1CCN2C(=O)NC[C@@H]2C1)c1ccc(-c2c3nc(c(-c4cc(S(=O)(=O)[O-])ccc4F)c4ccc([nH]4)c(-c4cc(S(=O)(=O)[O-])ccc4F)c4nc(c(-c5cc(S(=O)(=O)[O-])ccc5F)c5ccc2[nH]5)C=C4)C=C3)cc1
REMARK SMILES IDX 4 1 3 2 1 3 2 4 28 6 29 7 90 8 30 9 89 10 31 11 32 12 33 13
REMARK SMILES IDX 83 14 34 15 88 16 82 17 84 18 35 19 87 20 81 21 80 22 36 24
REMARK SMILES IDX 68 25 48 26 67 27 49 28 52 29 66 30 85 31 50 32 51 33 65 35
REMARK SMILES IDX 86 36 53 37 37 38 38 39 46 40 39 41 45 42 47 43 44 44 40 45
REMARK SMILES IDX 41 46 42 47 43 48 69 49 70 50 78 51 71 52 77 53 79 54 76 55
REMARK SMILES IDX 72 56 73 57 74 58 75 59 54 60 55 61 63 62 56 63 62 64 64 65
REMARK SMILES IDX 61 66 57 67 58 68 59 69 60 70 5 71 6 72 7 73 8 74 9 75 10 77
REMARK SMILES IDX 11 78 12 79 17 80 13 81 15 82 14 83 16 84 18 85 19 86 27 87
REMARK SMILES IDX 20 88 26 89 21 90 25 91 22 92 24 93 23 94
REMARK H PARENT 3 5 84 23 52 34 8 76 24 95
REMARK Flexibility Score: inf
ROOT
ATOM      1  C   UNL A   1      33.183  28.941  25.492  1.00  0.00     0.116 C 
ENDROOT
BRANCH   1   2
ATOM      2  N   UNL A   1      32.618  30.210  25.936  1.00  0.00    -0.352 N 
ATOM      3  O   UNL A   1      32.456  32.073  27.211  1.00  0.00    -0.269 OA
ATOM      4  C   UNL A   1      33.109  31.087  26.881  1.00  0.00     0.251 C 
ATOM      5  H   UNL A   1      31.774  30.476  25.505  1.00  0.00     0.163 HD
BRANCH   4   6
ATOM      6  C   UNL A   1      34.415  30.803  27.512  1.00  0.00     0.039 A 
ATOM      7  C   UNL A   1      34.684  29.525  28.000  1.00  0.00     0.014 A 
ATOM      8  C   UNL A   1      35.346  31.832  27.683  1.00  0.00     0.014 A 
ATOM      9  C   UNL A   1      35.773  29.330  28.834  1.00  0.00     0.010 A 
ATOM     10  C   UNL A   1      36.516  31.593  28.412  1.00  0.00     0.010 A 
ATOM     11  C   UNL A   1      36.722  30.349  29.026  1.00  0.00    -0.014 A 
BRANCH  11  12
ATOM     12  C   UNL A   1      37.950  30.029  29.801  1.00  0.00     0.031 A 
ATOM     13  C   UNL A   1      38.142  30.490  31.218  1.00  0.00     0.074 A 
ATOM     14  C   UNL A   1      38.869  29.235  29.216  1.00  0.00     0.049 A 
ATOM     15  N   UNL A   1      39.123  30.216  32.040  1.00  0.00    -0.248 NA
ATOM     16  C   UNL A   1      37.115  31.375  31.787  1.00  0.00     0.031 C 
ATOM     17  C   UNL A   1      38.783  28.732  27.840  1.00  0.00     0.029 A 
ATOM     18  N   UNL A   1      40.019  28.669  29.701  1.00  0.00    -0.354 N 
ATOM     19  C   UNL A   1      38.845  30.905  33.216  1.00  0.00     0.074 A 
ATOM     20  C   UNL A   1      37.615  31.634  32.989  1.00  0.00     0.031 C 
ATOM     21  C   UNL A   1      39.774  27.859  27.627  1.00  0.00     0.029 A 
ATOM     22  C   UNL A   1      40.626  27.816  28.808  1.00  0.00     0.049 A 
ATOM     23  H   UNL A   1      40.375  28.854  30.600  1.00  0.00     0.167 HD
ATOM     24  C   UNL A   1      39.553  30.921  34.372  1.00  0.00     0.034 A 
ATOM     25  C   UNL A   1      41.755  27.089  28.910  1.00  0.00     0.034 A 
ATOM     26  C   UNL A   1      40.776  30.179  34.576  1.00  0.00     0.049 A 
ATOM     27  C   UNL A   1      42.545  27.160  30.181  1.00  0.00     0.074 A 
ATOM     28  C   UNL A   1      41.549  30.097  35.722  1.00  0.00     0.029 A 
ATOM     29  N   UNL A   1      41.410  29.402  33.615  1.00  0.00    -0.354 N 
ATOM     30  N   UNL A   1      42.273  27.827  31.277  1.00  0.00    -0.248 NA
ATOM     31  C   UNL A   1      43.799  26.399  30.228  1.00  0.00     0.031 C 
ATOM     32  C   UNL A   1      42.687  29.341  35.431  1.00  0.00     0.029 A 
ATOM     33  C   UNL A   1      42.584  28.873  34.130  1.00  0.00     0.049 A 
ATOM     34  H   UNL A   1      41.075  29.248  32.703  1.00  0.00     0.167 HD
ATOM     35  C   UNL A   1      43.315  27.557  32.153  1.00  0.00     0.074 A 
ATOM     36  C   UNL A   1      44.223  26.665  31.458  1.00  0.00     0.031 C 
ATOM     37  C   UNL A   1      43.494  28.003  33.421  1.00  0.00     0.034 A 
BRANCH  24  38
ATOM     38  C   UNL A   1      39.055  31.799  35.495  1.00  0.00     0.023 A 
ATOM     39  C   UNL A   1      38.387  31.273  36.612  1.00  0.00     0.031 A 
ATOM     40  C   UNL A   1      39.278  33.188  35.455  1.00  0.00     0.131 A 
ATOM     41  C   UNL A   1      37.922  32.132  37.620  1.00  0.00     0.055 A 
ATOM     42  C   UNL A   1      38.875  34.030  36.494  1.00  0.00     0.041 A 
ATOM     43  F   UNL A   1      39.896  33.751  34.404  1.00  0.00    -0.206 F 
ATOM     44  C   UNL A   1      38.184  33.505  37.580  1.00  0.00     0.022 A 
BRANCH  41  45
ATOM     45  S   UNL A   1      36.879  31.446  38.936  1.00  0.00     0.124 S 
ATOM     46  O   UNL A   1      37.749  31.577  40.102  1.00  0.00    -0.237 OA
ATOM     47  O   UNL A   1      35.715  32.325  38.907  1.00  0.00    -0.237 OA
ATOM     48  O   UNL A   1      36.635  30.072  38.501  1.00  0.00    -0.744 OA
ENDBRANCH  41  45
ENDBRANCH  24  38
BRANCH  25  49
ATOM     49  C   UNL A   1      42.189  26.270  27.748  1.00  0.00     0.023 A 
ATOM     50  C   UNL A   1      41.887  24.904  27.669  1.00  0.00     0.031 A 
ATOM     51  C   UNL A   1      42.833  26.875  26.651  1.00  0.00     0.131 A 
ATOM     52  C   UNL A   1      42.222  24.185  26.511  1.00  0.00     0.055 A 
ATOM     53  C   UNL A   1      43.128  26.165  25.487  1.00  0.00     0.041 A 
ATOM     54  F   UNL A   1      43.122  28.186  26.675  1.00  0.00    -0.206 F 
ATOM     55  C   UNL A   1      42.822  24.811  25.413  1.00  0.00     0.022 A 
BRANCH  52  56
ATOM     56  S   UNL A   1      41.850  22.411  26.445  1.00  0.00     0.124 S 
ATOM     57  O   UNL A   1      42.387  21.950  27.720  1.00  0.00    -0.237 OA
ATOM     58  O   UNL A   1      40.396  22.407  26.320  1.00  0.00    -0.237 OA
ATOM     59  O   UNL A   1      42.575  21.956  25.261  1.00  0.00    -0.744 OA
ENDBRANCH  52  56
ENDBRANCH  25  49
BRANCH  37  60
ATOM     60  C   UNL A   1      44.707  27.512  34.167  1.00  0.00     0.023 A 
ATOM     61  C   UNL A   1      44.689  26.313  34.897  1.00  0.00     0.031 A 
ATOM     62  C   UNL A   1      45.916  28.224  34.080  1.00  0.00     0.131 A 
ATOM     63  C   UNL A   1      45.861  25.865  35.525  1.00  0.00     0.055 A 
ATOM     64  C   UNL A   1      47.088  27.751  34.669  1.00  0.00     0.041 A 
ATOM     65  F   UNL A   1      45.981  29.375  33.393  1.00  0.00    -0.206 F 
ATOM     66  C   UNL A   1      47.065  26.565  35.398  1.00  0.00     0.022 A 
BRANCH  63  67
ATOM     67  S   UNL A   1      45.796  24.356  36.527  1.00  0.00     0.124 S 
ATOM     68  O   UNL A   1      45.701  23.319  35.504  1.00  0.00    -0.237 OA
ATOM     69  O   UNL A   1      47.054  24.410  37.265  1.00  0.00    -0.237 OA
ATOM     70  O   UNL A   1      44.595  24.535  37.341  1.00  0.00    -0.744 OA
ENDBRANCH  63  67
ENDBRANCH  37  60
ENDBRANCH  11  12
ENDBRANCH   4   6
ENDBRANCH   1   2
BRANCH   1  71
ATOM     71  C   UNL A   1      33.452  28.880  23.998  1.00  0.00     0.023 C 
BRANCH  71  72
ATOM     72  C   UNL A   1      33.863  27.513  23.468  1.00  0.00     0.023 C 
BRANCH  72  73
ATOM     73  C   UNL A   1      33.230  27.114  22.141  1.00  0.00     0.116 C 
BRANCH  73  74
ATOM     74  N   UNL A   1      33.342  25.695  21.844  1.00  0.00    -0.352 N 
ATOM     75  C   UNL A   1      32.743  24.625  22.472  1.00  0.00     0.253 C 
ATOM     76  H   UNL A   1      33.930  25.466  21.088  1.00  0.00     0.163 HD
ATOM     77  O   UNL A   1      32.900  23.490  22.038  1.00  0.00    -0.269 OA
BRANCH  75  78
ATOM     78  C   UNL A   1      31.899  24.876  23.659  1.00  0.00     0.066 A 
ATOM     79  C   UNL A   1      30.692  25.570  23.425  1.00  0.00     0.016 A 
ATOM     80  C   UNL A   1      32.250  24.407  24.942  1.00  0.00     0.086 A 
ATOM     81  C   UNL A   1      29.862  25.920  24.483  1.00  0.00     0.004 A 
ATOM     82  C   UNL A   1      31.370  24.775  25.981  1.00  0.00     0.147 A 
ATOM     83  C   UNL A   1      30.215  25.535  25.769  1.00  0.00     0.041 A 
ATOM     84  F   UNL A   1      31.644  24.419  27.248  1.00  0.00    -0.205 F 
BRANCH  80  85
ATOM     85  N   UNL A   1      33.354  23.607  25.192  1.00  0.00    -0.365 N 
ATOM     86  C   UNL A   1      33.197  22.142  25.332  1.00  0.00     0.138 C 
ATOM     87  C   UNL A   1      34.662  24.161  25.591  1.00  0.00     0.143 C 
ATOM     88  C   UNL A   1      34.372  21.368  24.686  1.00  0.00     0.143 C 
ATOM     89  C   UNL A   1      35.765  23.450  24.802  1.00  0.00     0.125 C 
ATOM     90  N   UNL A   1      35.653  22.005  24.918  1.00  0.00    -0.317 N 
ATOM     91  C   UNL A   1      37.198  23.703  25.251  1.00  0.00     0.144 C 
ATOM     92  C   UNL A   1      36.902  21.415  24.862  1.00  0.00     0.317 C 
ATOM     93  N   UNL A   1      37.838  22.433  25.000  1.00  0.00    -0.336 N 
ATOM     94  O   UNL A   1      37.156  20.232  24.719  1.00  0.00    -0.249 OA
ATOM     95  H   UNL A   1      38.812  22.305  24.934  1.00  0.00     0.165 HD
ENDBRANCH  80  85
ENDBRANCH  75  78
ENDBRANCH  73  74
ENDBRANCH  72  73
ENDBRANCH  71  72
ENDBRANCH   1  71
TORSDOF 15
ENDMDL
MODEL 3
REMARK VINA RESULT:     -12.4      4.988      7.633
REMARK SMILES O=C(NCCCCNC(=O)c1cccc(F)c1N1CCN2C(=O)NC[C@@H]2C1)c1ccc(-c2c3nc(c(-c4cc(S(=O)(=O)[O-])ccc4F)c4ccc([nH]4)c(-c4cc(S(=O)(=O)[O-])ccc4F)c4nc(c(-c5cc(S(=O)(=O)[O-])ccc5F)c5ccc2[nH]5)C=C4)C=C3)cc1
REMARK SMILES IDX 4 1 3 2 1 3 2 4 28 6 29 7 90 8 30 9 89 10 31 11 32 12 33 13
REMARK SMILES IDX 83 14 34 15 88 16 82 17 84 18 35 19 87 20 81 21 80 22 36 24
REMARK SMILES IDX 68 25 48 26 67 27 49 28 52 29 66 30 85 31 50 32 51 33 65 35
REMARK SMILES IDX 86 36 53 37 37 38 38 39 46 40 39 41 45 42 47 43 44 44 40 45
REMARK SMILES IDX 41 46 42 47 43 48 69 49 70 50 78 51 71 52 77 53 79 54 76 55
REMARK SMILES IDX 72 56 73 57 74 58 75 59 54 60 55 61 63 62 56 63 62 64 64 65
REMARK SMILES IDX 61 66 57 67 58 68 59 69 60 70 5 71 6 72 7 73 8 74 9 75 10 77
REMARK SMILES IDX 11 78 12 79 17 80 13 81 15 82 14 83 16 84 18 85 19 86 27 87
REMARK SMILES IDX 20 88 26 89 21 90 25 91 22 92 24 93 23 94
REMARK H PARENT 3 5 84 23 52 34 8 76 24 95
REMARK Flexibility Score: inf
ROOT
ATOM      1  C   UNL A   1      32.450  29.638  25.875  1.00  0.00     0.116 C 
ENDROOT
BRANCH   1   2
ATOM      2  N   UNL A   1      32.140  31.026  26.194  1.00  0.00    -0.352 N 
ATOM      3  O   UNL A   1      32.371  33.006  27.264  1.00  0.00    -0.269 OA
ATOM      4  C   UNL A   1      32.823  31.891  27.024  1.00  0.00     0.251 C 
ATOM      5  H   UNL A   1      31.338  31.395  25.760  1.00  0.00     0.163 HD
BRANCH   4   6
ATOM      6  C   UNL A   1      34.086  31.440  27.646  1.00  0.00     0.039 A 
ATOM      7  C   UNL A   1      34.267  30.089  27.943  1.00  0.00     0.014 A 
ATOM      8  C   UNL A   1      35.061  32.375  28.002  1.00  0.00     0.014 A 
ATOM      9  C   UNL A   1      35.310  29.708  28.772  1.00  0.00     0.010 A 
ATOM     10  C   UNL A   1      36.187  31.962  28.724  1.00  0.00     0.010 A 
ATOM     11  C   UNL A   1      36.302  30.630  29.147  1.00  0.00    -0.014 A 
BRANCH  11  12
ATOM     12  C   UNL A   1      37.479  30.126  29.903  1.00  0.00     0.031 A 
ATOM     13  C   UNL A   1      38.543  29.286  29.255  1.00  0.00     0.074 A 
ATOM     14  C   UNL A   1      37.609  30.513  31.188  1.00  0.00     0.049 A 
ATOM     15  N   UNL A   1      39.663  28.847  29.770  1.00  0.00    -0.248 NA
ATOM     16  C   UNL A   1      38.326  28.878  27.860  1.00  0.00     0.031 C 
ATOM     17  C   UNL A   1      36.631  31.328  31.917  1.00  0.00     0.029 A 
ATOM     18  N   UNL A   1      38.621  30.326  32.093  1.00  0.00    -0.354 N 
ATOM     19  C   UNL A   1      40.278  28.097  28.774  1.00  0.00     0.074 A 
ATOM     20  C   UNL A   1      39.390  28.118  27.630  1.00  0.00     0.031 C 
ATOM     21  C   UNL A   1      37.133  31.652  33.114  1.00  0.00     0.029 A 
ATOM     22  C   UNL A   1      38.419  30.988  33.282  1.00  0.00     0.049 A 
ATOM     23  H   UNL A   1      39.415  29.774  31.909  1.00  0.00     0.167 HD
ATOM     24  C   UNL A   1      41.473  27.456  28.816  1.00  0.00     0.034 A 
ATOM     25  C   UNL A   1      39.168  31.045  34.399  1.00  0.00     0.034 A 
ATOM     26  C   UNL A   1      42.345  27.455  29.968  1.00  0.00     0.049 A 
ATOM     27  C   UNL A   1      40.462  30.289  34.438  1.00  0.00     0.074 A 
ATOM     28  C   UNL A   1      43.592  26.869  30.099  1.00  0.00     0.029 A 
ATOM     29  N   UNL A   1      42.060  28.058  31.187  1.00  0.00    -0.354 N 
ATOM     30  N   UNL A   1      41.020  29.575  33.491  1.00  0.00    -0.248 NA
ATOM     31  C   UNL A   1      41.219  30.329  35.695  1.00  0.00     0.031 C 
ATOM     32  C   UNL A   1      44.024  27.047  31.416  1.00  0.00     0.029 A 
ATOM     33  C   UNL A   1      43.089  27.820  32.086  1.00  0.00     0.049 A 
ATOM     34  H   UNL A   1      41.248  28.577  31.384  1.00  0.00     0.167 HD
ATOM     35  C   UNL A   1      42.204  29.090  34.030  1.00  0.00     0.074 A 
ATOM     36  C   UNL A   1      42.280  29.593  35.388  1.00  0.00     0.031 C 
ATOM     37  C   UNL A   1      43.144  28.307  33.446  1.00  0.00     0.034 A 
BRANCH  24  38
ATOM     38  C   UNL A   1      41.893  26.663  27.602  1.00  0.00     0.023 A 
ATOM     39  C   UNL A   1      41.658  25.282  27.496  1.00  0.00     0.031 A 
ATOM     40  C   UNL A   1      42.521  27.308  26.520  1.00  0.00     0.131 A 
ATOM     41  C   UNL A   1      42.088  24.584  26.357  1.00  0.00     0.055 A 
ATOM     42  C   UNL A   1      42.885  26.621  25.361  1.00  0.00     0.041 A 
ATOM     43  F   UNL A   1      42.788  28.624  26.572  1.00  0.00    -0.206 F 
ATOM     44  C   UNL A   1      42.679  25.248  25.278  1.00  0.00     0.022 A 
BRANCH  41  45
ATOM     45  S   UNL A   1      41.961  22.774  26.348  1.00  0.00     0.124 S 
ATOM     46  O   UNL A   1      42.656  22.422  27.584  1.00  0.00    -0.237 OA
ATOM     47  O   UNL A   1      40.519  22.559  26.344  1.00  0.00    -0.237 OA
ATOM     48  O   UNL A   1      42.654  22.387  25.120  1.00  0.00    -0.744 OA
ENDBRANCH  41  45
ENDBRANCH  24  38
BRANCH  25  49
ATOM     49  C   UNL A   1      38.669  31.828  35.561  1.00  0.00     0.023 A 
ATOM     50  C   UNL A   1      38.021  31.201  36.634  1.00  0.00     0.031 A 
ATOM     51  C   UNL A   1      38.925  33.209  35.651  1.00  0.00     0.131 A 
ATOM     52  C   UNL A   1      37.656  31.955  37.760  1.00  0.00     0.055 A 
ATOM     53  C   UNL A   1      38.596  33.946  36.788  1.00  0.00     0.041 A 
ATOM     54  F   UNL A   1      39.562  33.846  34.655  1.00  0.00    -0.206 F 
ATOM     55  C   UNL A   1      37.957  33.318  37.852  1.00  0.00     0.022 A 
BRANCH  52  56
ATOM     56  S   UNL A   1      36.790  31.129  39.122  1.00  0.00     0.124 S 
ATOM     57  O   UNL A   1      36.635  29.777  38.597  1.00  0.00    -0.237 OA
ATOM     58  O   UNL A   1      37.732  31.286  40.225  1.00  0.00    -0.237 OA
ATOM     59  O   UNL A   1      35.552  31.894  39.251  1.00  0.00    -0.744 OA
ENDBRANCH  52  56
ENDBRANCH  25  49
BRANCH  37  60
ATOM     60  C   UNL A   1      44.365  27.961  34.257  1.00  0.00     0.023 A 
ATOM     61  C   UNL A   1      44.424  26.797  35.041  1.00  0.00     0.031 A 
ATOM     62  C   UNL A   1      45.508  28.775  34.181  1.00  0.00     0.131 A 
ATOM     63  C   UNL A   1      45.604  26.485  35.731  1.00  0.00     0.055 A 
ATOM     64  C   UNL A   1      46.693  28.436  34.833  1.00  0.00     0.041 A 
ATOM     65  F   UNL A   1      45.499  29.896  33.443  1.00  0.00    -0.206 F 
ATOM     66  C   UNL A   1      46.745  27.285  35.615  1.00  0.00     0.022 A 
BRANCH  63  67
ATOM     67  S   UNL A   1      45.633  25.021  36.800  1.00  0.00     0.124 S 
ATOM     68  O   UNL A   1      46.177  24.005  35.904  1.00  0.00    -0.237 OA
ATOM     69  O   UNL A   1      46.507  25.442  37.891  1.00  0.00    -0.237 OA
ATOM     70  O   UNL A   1      44.231  24.837  37.169  1.00  0.00    -0.744 OA
ENDBRANCH  63  67
ENDBRANCH  37  60
ENDBRANCH  11  12
ENDBRANCH   4   6
ENDBRANCH   1   2
BRANCH   1  71
ATOM     71  C   UNL A   1      32.003  29.215  24.485  1.00  0.00     0.023 C 
BRANCH  71  72
ATOM     72  C   UNL A   1      33.125  28.820  23.535  1.00  0.00     0.023 C 
BRANCH  72  73
ATOM     73  C   UNL A   1      33.854  27.531  23.890  1.00  0.00     0.116 C 
BRANCH  73  74
ATOM     74  N   UNL A   1      33.697  26.479  22.899  1.00  0.00    -0.352 N 
ATOM     75  C   UNL A   1      32.775  25.457  22.853  1.00  0.00     0.253 C 
ATOM     76  H   UNL A   1      34.341  26.500  22.154  1.00  0.00     0.163 HD
ATOM     77  O   UNL A   1      32.748  24.693  21.895  1.00  0.00    -0.269 OA
BRANCH  75  78
ATOM     78  C   UNL A   1      31.815  25.313  23.968  1.00  0.00     0.066 A 
ATOM     79  C   UNL A   1      30.575  25.967  23.806  1.00  0.00     0.016 A 
ATOM     80  C   UNL A   1      32.097  24.527  25.105  1.00  0.00     0.086 A 
ATOM     81  C   UNL A   1      29.630  25.955  24.825  1.00  0.00     0.004 A 
ATOM     82  C   UNL A   1      31.103  24.535  26.106  1.00  0.00     0.147 A 
ATOM     83  C   UNL A   1      29.907  25.250  25.988  1.00  0.00     0.041 A 
ATOM     84  F   UNL A   1      31.301  23.857  27.250  1.00  0.00    -0.205 F 
BRANCH  80  85
ATOM     85  N   UNL A   1      33.243  23.760  25.243  1.00  0.00    -0.365 N 
ATOM     86  C   UNL A   1      33.209  22.309  24.953  1.00  0.00     0.138 C 
ATOM     87  C   UNL A   1      34.455  24.258  25.923  1.00  0.00     0.143 C 
ATOM     88  C   UNL A   1      34.502  21.828  24.251  1.00  0.00     0.143 C 
ATOM     89  C   UNL A   1      35.683  23.873  25.094  1.00  0.00     0.125 C 
ATOM     90  N   UNL A   1      35.694  22.451  24.791  1.00  0.00    -0.317 N 
ATOM     91  C   UNL A   1      37.042  24.077  25.751  1.00  0.00     0.144 C 
ATOM     92  C   UNL A   1      36.992  21.981  24.711  1.00  0.00     0.317 C 
ATOM     93  N   UNL A   1      37.815  22.974  25.229  1.00  0.00    -0.336 N 
ATOM     94  O   UNL A   1      37.365  20.906  24.275  1.00  0.00    -0.249 OA
ATOM     95  H   UNL A   1      38.799  22.931  25.238  1.00  0.00     0.165 HD
ENDBRANCH  80  85
ENDBRANCH  75  78
ENDBRANCH  73  74
ENDBRANCH  72  73
ENDBRANCH  71  72
ENDBRANCH   1  71
TORSDOF 15
ENDMDL
