MODEL 1
REMARK VINA RESULT:     -11.4      0.000      0.000
REMARK SMILES CC(C)CCOCC[N@@H+]1[C@@H](C(=O)NCCCCNC(=O)c2ccc(-c3c4nc(c(-c5cc(S(=O)(=O)[O-])ccc5F)c5ccc([nH]5)c(-c5cc(S(=O)(=O)[O-])ccc5F)c5nc(c(-c6cc(S(=O)(=O)[O-])ccc6F)c6ccc3[nH]6)C=C5)C=C4)cc2)CC[C@H]2CCCC[C@H]21
REMARK SMILES IDX 14 1 13 2 11 3 12 4 10 6 9 7 91 8 84 10 86 11 90 12 85 13
REMARK SMILES IDX 87 14 89 15 88 16 8 17 7 18 6 19 5 20 4 21 2 22 1 23 3 24
REMARK SMILES IDX 15 25 16 26 17 27 18 28 19 29 20 31 21 32 22 33 83 34 23 35
REMARK SMILES IDX 82 36 24 37 25 38 26 39 76 40 27 41 81 42 75 43 77 44 28 45
REMARK SMILES IDX 80 46 74 47 73 48 29 50 61 51 41 52 60 53 42 54 45 55 59 56
REMARK SMILES IDX 78 57 43 58 44 59 58 61 79 62 46 63 30 64 31 65 39 66 32 67
REMARK SMILES IDX 38 68 40 69 37 70 33 71 34 72 35 73 36 74 62 75 63 76 71 77
REMARK SMILES IDX 64 78 70 79 72 80 69 81 65 82 66 83 67 84 68 85 47 86 48 87
REMARK SMILES IDX 56 88 49 89 55 90 57 91 54 92 50 93 51 94 52 95 53 96
REMARK H PARENT 13 5 9 9 18 30 77 49 45 60
REMARK Flexibility Score: inf
ROOT
ATOM      1  C   UNL A   1      35.789  22.544  24.645  1.00  0.00     0.116 C 
ENDROOT
BRANCH   1   2
ATOM      2  N   UNL A   1      35.073  22.901  23.438  1.00  0.00    -0.351 N 
ATOM      3  C   UNL A   1      34.118  23.863  23.265  1.00  0.00     0.278 C 
ATOM      4  O   UNL A   1      33.762  24.123  22.112  1.00  0.00    -0.268 OA
ATOM      5  H   UNL A   1      35.305  22.381  22.635  1.00  0.00     0.163 HD
BRANCH   3   6
ATOM      6  C   UNL A   1      33.483  24.600  24.463  1.00  0.00     0.274 C 
ATOM      7  N   UNL A   1      31.972  24.507  24.477  1.00  0.00    -0.320 N 
ATOM      8  C   UNL A   1      31.426  25.351  25.588  1.00  0.00     0.187 C 
ATOM      9  H   UNL A   1      31.576  24.851  23.602  1.00  0.00     0.349 HD
ATOM     10  C   UNL A   1      34.070  26.015  24.526  1.00  0.00     0.076 C 
ATOM     11  C   UNL A   1      31.977  26.799  25.629  1.00  0.00     0.048 C 
ATOM     12  C   UNL A   1      29.892  25.524  25.637  1.00  0.00     0.065 C 
ATOM     13  C   UNL A   1      33.499  26.801  25.688  1.00  0.00     0.016 C 
ATOM     14  C   UNL A   1      31.432  27.736  24.527  1.00  0.00     0.010 C 
ATOM     15  C   UNL A   1      29.271  26.350  24.513  1.00  0.00     0.006 C 
ATOM     16  C   UNL A   1      30.243  27.216  23.732  1.00  0.00     0.001 C 
BRANCH   7  17
ATOM     17  C   UNL A   1      31.605  23.059  24.671  1.00  0.00     0.291 C 
BRANCH  17  18
ATOM     18  C   UNL A   1      31.926  22.424  26.055  1.00  0.00     0.221 C 
BRANCH  18  19
ATOM     19  O   UNL A   1      32.680  21.210  25.972  1.00  0.00    -0.376 OA
BRANCH  19  20
ATOM     20  C   UNL A   1      32.580  20.566  24.713  1.00  0.00     0.160 C 
BRANCH  20  21
ATOM     21  C   UNL A   1      33.658  19.487  24.546  1.00  0.00     0.031 C 
BRANCH  21  22
ATOM     22  C   UNL A   1      33.297  18.110  23.919  1.00  0.00    -0.015 C 
ATOM     23  C   UNL A   1      32.770  17.035  24.861  1.00  0.00     0.007 C 
ATOM     24  C   UNL A   1      32.326  18.273  22.745  1.00  0.00     0.007 C 
ENDBRANCH  21  22
ENDBRANCH  20  21
ENDBRANCH  19  20
ENDBRANCH  18  19
ENDBRANCH  17  18
ENDBRANCH   7  17
ENDBRANCH   3   6
ENDBRANCH   1   2
BRANCH   1  25
ATOM     25  C   UNL A   1      37.259  22.233  24.393  1.00  0.00     0.023 C 
BRANCH  25  26
ATOM     26  C   UNL A   1      37.749  20.932  25.022  1.00  0.00     0.023 C 
BRANCH  26  27
ATOM     27  C   UNL A   1      38.975  21.068  25.916  1.00  0.00     0.116 C 
BRANCH  27  28
ATOM     28  N   UNL A   1      39.811  19.875  25.918  1.00  0.00    -0.352 N 
ATOM     29  C   UNL A   1      41.173  19.778  26.074  1.00  0.00     0.251 C 
ATOM     30  H   UNL A   1      39.335  19.022  25.790  1.00  0.00     0.163 HD
ATOM     31  O   UNL A   1      41.737  18.698  25.911  1.00  0.00    -0.269 OA
BRANCH  29  32
ATOM     32  C   UNL A   1      41.953  20.992  26.396  1.00  0.00     0.039 A 
ATOM     33  C   UNL A   1      42.344  21.841  25.360  1.00  0.00     0.014 A 
ATOM     34  C   UNL A   1      42.238  21.317  27.726  1.00  0.00     0.014 A 
ATOM     35  C   UNL A   1      42.940  23.068  25.663  1.00  0.00     0.010 A 
ATOM     36  C   UNL A   1      42.768  22.568  28.027  1.00  0.00     0.010 A 
ATOM     37  C   UNL A   1      43.109  23.464  27.001  1.00  0.00    -0.014 A 
BRANCH  37  38
ATOM     38  C   UNL A   1      43.603  24.820  27.354  1.00  0.00     0.031 A 
ATOM     39  C   UNL A   1      42.651  25.852  27.892  1.00  0.00     0.074 A 
ATOM     40  C   UNL A   1      44.886  25.147  27.096  1.00  0.00     0.049 A 
ATOM     41  N   UNL A   1      42.862  27.117  28.146  1.00  0.00    -0.248 NA
ATOM     42  C   UNL A   1      41.272  25.409  28.150  1.00  0.00     0.031 C 
ATOM     43  C   UNL A   1      45.894  24.242  26.533  1.00  0.00     0.029 A 
ATOM     44  N   UNL A   1      45.561  26.333  27.251  1.00  0.00    -0.354 N 
ATOM     45  C   UNL A   1      41.640  27.629  28.569  1.00  0.00     0.074 A 
ATOM     46  C   UNL A   1      40.684  26.543  28.500  1.00  0.00     0.031 C 
ATOM     47  C   UNL A   1      47.056  24.904  26.400  1.00  0.00     0.029 A 
ATOM     48  C   UNL A   1      46.868  26.290  26.817  1.00  0.00     0.049 A 
ATOM     49  H   UNL A   1      45.149  27.140  27.636  1.00  0.00     0.167 HD
ATOM     50  C   UNL A   1      41.349  28.884  28.986  1.00  0.00     0.034 A 
ATOM     51  C   UNL A   1      47.801  27.260  26.739  1.00  0.00     0.034 A 
ATOM     52  C   UNL A   1      42.321  29.944  29.082  1.00  0.00     0.049 A 
ATOM     53  C   UNL A   1      47.440  28.654  27.191  1.00  0.00     0.074 A 
ATOM     54  C   UNL A   1      42.156  31.217  29.602  1.00  0.00     0.029 A 
ATOM     55  N   UNL A   1      43.633  29.864  28.635  1.00  0.00    -0.354 N 
ATOM     56  N   UNL A   1      46.300  29.096  27.671  1.00  0.00    -0.248 NA
ATOM     57  C   UNL A   1      48.488  29.678  27.091  1.00  0.00     0.031 C 
ATOM     58  C   UNL A   1      43.345  31.928  29.403  1.00  0.00     0.029 A 
ATOM     59  C   UNL A   1      44.273  31.080  28.823  1.00  0.00     0.049 A 
ATOM     60  H   UNL A   1      44.047  29.062  28.243  1.00  0.00     0.167 HD
ATOM     61  C   UNL A   1      46.508  30.443  27.956  1.00  0.00     0.074 A 
ATOM     62  C   UNL A   1      47.882  30.736  27.609  1.00  0.00     0.031 C 
ATOM     63  C   UNL A   1      45.642  31.357  28.462  1.00  0.00     0.034 A 
BRANCH  50  64
ATOM     64  C   UNL A   1      39.917  29.193  29.345  1.00  0.00     0.023 A 
ATOM     65  C   UNL A   1      39.498  29.329  30.679  1.00  0.00     0.031 A 
ATOM     66  C   UNL A   1      38.960  29.370  28.330  1.00  0.00     0.131 A 
ATOM     67  C   UNL A   1      38.148  29.581  30.966  1.00  0.00     0.055 A 
ATOM     68  C   UNL A   1      37.632  29.688  28.619  1.00  0.00     0.041 A 
ATOM     69  F   UNL A   1      39.301  29.233  27.039  1.00  0.00    -0.206 F 
ATOM     70  C   UNL A   1      37.217  29.785  29.944  1.00  0.00     0.022 A 
BRANCH  67  71
ATOM     71  S   UNL A   1      37.603  29.539  32.694  1.00  0.00     0.124 S 
ATOM     72  O   UNL A   1      38.707  30.222  33.367  1.00  0.00    -0.237 OA
ATOM     73  O   UNL A   1      36.340  30.265  32.646  1.00  0.00    -0.237 OA
ATOM     74  O   UNL A   1      37.492  28.112  32.984  1.00  0.00    -0.744 OA
ENDBRANCH  67  71
ENDBRANCH  50  64
BRANCH  51  75
ATOM     75  C   UNL A   1      49.156  26.977  26.182  1.00  0.00     0.023 A 
ATOM     76  C   UNL A   1      49.507  27.397  24.889  1.00  0.00     0.031 A 
ATOM     77  C   UNL A   1      50.094  26.217  26.905  1.00  0.00     0.131 A 
ATOM     78  C   UNL A   1      50.735  27.003  24.334  1.00  0.00     0.055 A 
ATOM     79  C   UNL A   1      51.338  25.879  26.371  1.00  0.00     0.041 A 
ATOM     80  F   UNL A   1      49.811  25.790  28.147  1.00  0.00    -0.206 F 
ATOM     81  C   UNL A   1      51.658  26.258  25.071  1.00  0.00     0.022 A 
BRANCH  78  82
ATOM     82  S   UNL A   1      51.061  27.386  22.592  1.00  0.00     0.124 S 
ATOM     83  O   UNL A   1      52.351  26.737  22.382  1.00  0.00    -0.237 OA
ATOM     84  O   UNL A   1      49.916  26.770  21.928  1.00  0.00    -0.237 OA
ATOM     85  O   UNL A   1      51.084  28.847  22.563  1.00  0.00    -0.744 OA
ENDBRANCH  78  82
ENDBRANCH  51  75
BRANCH  63  86
ATOM     86  C   UNL A   1      46.175  32.747  28.702  1.00  0.00     0.023 A 
ATOM     87  C   UNL A   1      46.140  33.732  27.700  1.00  0.00     0.031 A 
ATOM     88  C   UNL A   1      46.726  33.086  29.950  1.00  0.00     0.131 A 
ATOM     89  C   UNL A   1      46.689  34.999  27.948  1.00  0.00     0.055 A 
ATOM     90  C   UNL A   1      47.221  34.365  30.209  1.00  0.00     0.041 A 
ATOM     91  F   UNL A   1      46.786  32.182  30.941  1.00  0.00    -0.206 F 
ATOM     92  C   UNL A   1      47.214  35.326  29.202  1.00  0.00     0.022 A 
BRANCH  89  93
ATOM     93  S   UNL A   1      46.771  36.195  26.588  1.00  0.00     0.124 S 
ATOM     94  O   UNL A   1      45.981  37.304  27.112  1.00  0.00    -0.237 OA
ATOM     95  O   UNL A   1      48.205  36.434  26.467  1.00  0.00    -0.237 OA
ATOM     96  O   UNL A   1      46.167  35.479  25.465  1.00  0.00    -0.744 OA
ENDBRANCH  89  93
ENDBRANCH  63  86
ENDBRANCH  37  38
ENDBRANCH  29  32
ENDBRANCH  27  28
ENDBRANCH  26  27
ENDBRANCH  25  26
ENDBRANCH   1  25
TORSDOF 20
ENDMDL
MODEL 2
REMARK VINA RESULT:     -11.2      1.817      2.111
REMARK SMILES CC(C)CCOCC[N@@H+]1[C@@H](C(=O)NCCCCNC(=O)c2ccc(-c3c4nc(c(-c5cc(S(=O)(=O)[O-])ccc5F)c5ccc([nH]5)c(-c5cc(S(=O)(=O)[O-])ccc5F)c5nc(c(-c6cc(S(=O)(=O)[O-])ccc6F)c6ccc3[nH]6)C=C5)C=C4)cc2)CC[C@H]2CCCC[C@H]21
REMARK SMILES IDX 14 1 13 2 11 3 12 4 10 6 9 7 91 8 84 10 86 11 90 12 85 13
REMARK SMILES IDX 87 14 89 15 88 16 8 17 7 18 6 19 5 20 4 21 2 22 1 23 3 24
REMARK SMILES IDX 15 25 16 26 17 27 18 28 19 29 20 31 21 32 22 33 83 34 23 35
REMARK SMILES IDX 82 36 24 37 25 38 26 39 76 40 27 41 81 42 75 43 77 44 28 45
REMARK SMILES IDX 80 46 74 47 73 48 29 50 61 51 41 52 60 53 42 54 45 55 59 56
REMARK SMILES IDX 78 57 43 58 44 59 58 61 79 62 46 63 30 64 31 65 39 66 32 67
REMARK SMILES IDX 38 68 40 69 37 70 33 71 34 72 35 73 36 74 62 75 63 76 71 77
REMARK SMILES IDX 64 78 70 79 72 80 69 81 65 82 66 83 67 84 68 85 47 86 48 87
REMARK SMILES IDX 56 88 49 89 55 90 57 91 54 92 50 93 51 94 52 95 53 96
REMARK H PARENT 13 5 9 9 18 30 77 49 45 60
REMARK Flexibility Score: inf
ROOT
ATOM      1  C   UNL A   1      35.686  22.420  24.555  1.00  0.00     0.116 C 
ENDROOT
BRANCH   1   2
ATOM      2  N   UNL A   1      34.998  22.830  23.347  1.00  0.00    -0.351 N 
ATOM      3  C   UNL A   1      34.054  23.805  23.193  1.00  0.00     0.278 C 
ATOM      4  O   UNL A   1      33.725  24.114  22.043  1.00  0.00    -0.268 OA
ATOM      5  H   UNL A   1      35.244  22.341  22.529  1.00  0.00     0.163 HD
BRANCH   3   6
ATOM      6  C   UNL A   1      33.398  24.499  24.406  1.00  0.00     0.274 C 
ATOM      7  N   UNL A   1      31.889  24.550  24.309  1.00  0.00    -0.320 N 
ATOM      8  C   UNL A   1      31.338  25.347  25.450  1.00  0.00     0.187 C 
ATOM      9  H   UNL A   1      31.593  25.000  23.443  1.00  0.00     0.349 HD
ATOM     10  C   UNL A   1      34.103  25.841  24.634  1.00  0.00     0.076 C 
ATOM     11  C   UNL A   1      32.010  26.728  25.657  1.00  0.00     0.048 C 
ATOM     12  C   UNL A   1      29.825  25.662  25.410  1.00  0.00     0.065 C 
ATOM     13  C   UNL A   1      33.518  26.580  25.820  1.00  0.00     0.016 C 
ATOM     14  C   UNL A   1      31.637  27.800  24.609  1.00  0.00     0.010 C 
ATOM     15  C   UNL A   1      29.369  26.633  24.324  1.00  0.00     0.006 C 
ATOM     16  C   UNL A   1      30.470  27.464  23.691  1.00  0.00     0.001 C 
BRANCH   7  17
ATOM     17  C   UNL A   1      31.380  23.132  24.348  1.00  0.00     0.291 C 
BRANCH  17  18
ATOM     18  C   UNL A   1      31.771  22.271  25.583  1.00  0.00     0.221 C 
BRANCH  18  19
ATOM     19  O   UNL A   1      31.620  20.863  25.377  1.00  0.00    -0.376 OA
BRANCH  19  20
ATOM     20  C   UNL A   1      32.852  20.182  25.204  1.00  0.00     0.160 C 
BRANCH  20  21
ATOM     21  C   UNL A   1      32.873  19.383  23.894  1.00  0.00     0.031 C 
BRANCH  21  22
ATOM     22  C   UNL A   1      32.754  17.832  23.920  1.00  0.00    -0.015 C 
ATOM     23  C   UNL A   1      33.863  17.039  23.240  1.00  0.00     0.007 C 
ATOM     24  C   UNL A   1      32.569  17.315  25.352  1.00  0.00     0.007 C 
ENDBRANCH  21  22
ENDBRANCH  20  21
ENDBRANCH  19  20
ENDBRANCH  18  19
ENDBRANCH  17  18
ENDBRANCH   7  17
ENDBRANCH   3   6
ENDBRANCH   1   2
BRANCH   1  25
ATOM     25  C   UNL A   1      37.176  22.184  24.337  1.00  0.00     0.023 C 
BRANCH  25  26
ATOM     26  C   UNL A   1      37.722  20.926  25.005  1.00  0.00     0.023 C 
BRANCH  26  27
ATOM     27  C   UNL A   1      38.987  21.128  25.830  1.00  0.00     0.116 C 
BRANCH  27  28
ATOM     28  N   UNL A   1      39.810  19.930  25.911  1.00  0.00    -0.352 N 
ATOM     29  C   UNL A   1      41.165  19.828  26.117  1.00  0.00     0.251 C 
ATOM     30  H   UNL A   1      39.331  19.076  25.802  1.00  0.00     0.163 HD
ATOM     31  O   UNL A   1      41.724  18.737  26.018  1.00  0.00    -0.269 OA
BRANCH  29  32
ATOM     32  C   UNL A   1      41.946  21.048  26.414  1.00  0.00     0.039 A 
ATOM     33  C   UNL A   1      42.320  21.887  25.363  1.00  0.00     0.014 A 
ATOM     34  C   UNL A   1      42.247  21.390  27.736  1.00  0.00     0.014 A 
ATOM     35  C   UNL A   1      42.917  23.118  25.644  1.00  0.00     0.010 A 
ATOM     36  C   UNL A   1      42.777  22.646  28.016  1.00  0.00     0.010 A 
ATOM     37  C   UNL A   1      43.102  23.531  26.974  1.00  0.00    -0.014 A 
BRANCH  37  38
ATOM     38  C   UNL A   1      43.596  24.892  27.304  1.00  0.00     0.031 A 
ATOM     39  C   UNL A   1      42.648  25.929  27.838  1.00  0.00     0.074 A 
ATOM     40  C   UNL A   1      44.876  25.219  27.029  1.00  0.00     0.049 A 
ATOM     41  N   UNL A   1      42.858  27.198  28.074  1.00  0.00    -0.248 NA
ATOM     42  C   UNL A   1      41.272  25.487  28.116  1.00  0.00     0.031 C 
ATOM     43  C   UNL A   1      45.880  24.309  26.468  1.00  0.00     0.029 A 
ATOM     44  N   UNL A   1      45.550  26.408  27.162  1.00  0.00    -0.354 N 
ATOM     45  C   UNL A   1      41.639  27.712  28.503  1.00  0.00     0.074 A 
ATOM     46  C   UNL A   1      40.685  26.624  28.458  1.00  0.00     0.031 C 
ATOM     47  C   UNL A   1      47.039  24.971  26.315  1.00  0.00     0.029 A 
ATOM     48  C   UNL A   1      46.852  26.362  26.716  1.00  0.00     0.049 A 
ATOM     49  H   UNL A   1      45.140  27.220  27.540  1.00  0.00     0.167 HD
ATOM     50  C   UNL A   1      41.349  28.973  28.906  1.00  0.00     0.034 A 
ATOM     51  C   UNL A   1      47.782  27.334  26.615  1.00  0.00     0.034 A 
ATOM     52  C   UNL A   1      42.320  30.036  28.978  1.00  0.00     0.049 A 
ATOM     53  C   UNL A   1      47.422  28.733  27.052  1.00  0.00     0.074 A 
ATOM     54  C   UNL A   1      42.157  31.315  29.484  1.00  0.00     0.029 A 
ATOM     55  N   UNL A   1      43.628  29.953  28.519  1.00  0.00    -0.354 N 
ATOM     56  N   UNL A   1      46.287  29.178  27.539  1.00  0.00    -0.248 NA
ATOM     57  C   UNL A   1      48.467  29.758  26.929  1.00  0.00     0.031 C 
ATOM     58  C   UNL A   1      43.342  32.026  29.264  1.00  0.00     0.029 A 
ATOM     59  C   UNL A   1      44.267  31.172  28.685  1.00  0.00     0.049 A 
ATOM     60  H   UNL A   1      44.040  29.147  28.134  1.00  0.00     0.167 HD
ATOM     61  C   UNL A   1      46.494  30.529  27.804  1.00  0.00     0.074 A 
ATOM     62  C   UNL A   1      47.864  30.821  27.439  1.00  0.00     0.031 C 
ATOM     63  C   UNL A   1      45.631  31.448  28.307  1.00  0.00     0.034 A 
BRANCH  50  64
ATOM     64  C   UNL A   1      39.921  29.283  29.276  1.00  0.00     0.023 A 
ATOM     65  C   UNL A   1      39.505  29.390  30.613  1.00  0.00     0.031 A 
ATOM     66  C   UNL A   1      38.963  29.491  28.267  1.00  0.00     0.131 A 
ATOM     67  C   UNL A   1      38.157  29.644  30.909  1.00  0.00     0.055 A 
ATOM     68  C   UNL A   1      37.638  29.811  28.566  1.00  0.00     0.041 A 
ATOM     69  F   UNL A   1      39.300  29.383  26.973  1.00  0.00    -0.206 F 
ATOM     70  C   UNL A   1      37.226  29.880  29.894  1.00  0.00     0.022 A 
BRANCH  67  71
ATOM     71  S   UNL A   1      37.616  29.565  32.637  1.00  0.00     0.124 S 
ATOM     72  O   UNL A   1      37.535  28.122  32.854  1.00  0.00    -0.237 OA
ATOM     73  O   UNL A   1      38.692  30.255  33.338  1.00  0.00    -0.237 OA
ATOM     74  O   UNL A   1      36.331  30.260  32.627  1.00  0.00    -0.744 OA
ENDBRANCH  67  71
ENDBRANCH  50  64
BRANCH  51  75
ATOM     75  C   UNL A   1      49.132  27.046  26.049  1.00  0.00     0.023 A 
ATOM     76  C   UNL A   1      50.221  26.761  26.888  1.00  0.00     0.031 A 
ATOM     77  C   UNL A   1      49.371  27.126  24.664  1.00  0.00     0.131 A 
ATOM     78  C   UNL A   1      51.509  26.627  26.344  1.00  0.00     0.055 A 
ATOM     79  C   UNL A   1      50.643  26.933  24.123  1.00  0.00     0.041 A 
ATOM     80  F   UNL A   1      48.366  27.395  23.815  1.00  0.00    -0.206 F 
ATOM     81  C   UNL A   1      51.725  26.699  24.967  1.00  0.00     0.022 A 
BRANCH  78  82
ATOM     82  S   UNL A   1      52.915  26.469  27.477  1.00  0.00     0.124 S 
ATOM     83  O   UNL A   1      52.245  26.306  28.762  1.00  0.00    -0.237 OA
ATOM     84  O   UNL A   1      53.595  25.290  26.952  1.00  0.00    -0.237 OA
ATOM     85  O   UNL A   1      53.634  27.730  27.304  1.00  0.00    -0.744 OA
ENDBRANCH  78  82
ENDBRANCH  51  75
BRANCH  63  86
ATOM     86  C   UNL A   1      46.163  32.842  28.523  1.00  0.00     0.023 A 
ATOM     87  C   UNL A   1      46.786  33.212  29.727  1.00  0.00     0.031 A 
ATOM     88  C   UNL A   1      46.043  33.810  27.511  1.00  0.00     0.131 A 
ATOM     89  C   UNL A   1      47.226  34.532  29.907  1.00  0.00     0.055 A 
ATOM     90  C   UNL A   1      46.532  35.106  27.674  1.00  0.00     0.041 A 
ATOM     91  F   UNL A   1      45.454  33.508  26.342  1.00  0.00    -0.206 F 
ATOM     92  C   UNL A   1      47.118  35.477  28.881  1.00  0.00     0.022 A 
BRANCH  89  93
ATOM     93  S   UNL A   1      47.882  35.020  31.526  1.00  0.00     0.124 S 
ATOM     94  O   UNL A   1      47.256  34.045  32.412  1.00  0.00    -0.237 OA
ATOM     95  O   UNL A   1      49.322  34.878  31.336  1.00  0.00    -0.237 OA
ATOM     96  O   UNL A   1      47.413  36.396  31.685  1.00  0.00    -0.744 OA
ENDBRANCH  89  93
ENDBRANCH  63  86
ENDBRANCH  37  38
ENDBRANCH  29  32
ENDBRANCH  27  28
ENDBRANCH  26  27
ENDBRANCH  25  26
ENDBRANCH   1  25
TORSDOF 20
ENDMDL
MODEL 3
REMARK VINA RESULT:     -10.9      3.372      8.296
REMARK SMILES CC(C)CCOCC[N@@H+]1[C@@H](C(=O)NCCCCNC(=O)c2ccc(-c3c4nc(c(-c5cc(S(=O)(=O)[O-])ccc5F)c5ccc([nH]5)c(-c5cc(S(=O)(=O)[O-])ccc5F)c5nc(c(-c6cc(S(=O)(=O)[O-])ccc6F)c6ccc3[nH]6)C=C5)C=C4)cc2)CC[C@H]2CCCC[C@H]21
REMARK SMILES IDX 14 1 13 2 11 3 12 4 10 6 9 7 91 8 84 10 86 11 90 12 85 13
REMARK SMILES IDX 87 14 89 15 88 16 8 17 7 18 6 19 5 20 4 21 2 22 1 23 3 24
REMARK SMILES IDX 15 25 16 26 17 27 18 28 19 29 20 31 21 32 22 33 83 34 23 35
REMARK SMILES IDX 82 36 24 37 25 38 26 39 76 40 27 41 81 42 75 43 77 44 28 45
REMARK SMILES IDX 80 46 74 47 73 48 29 50 61 51 41 52 60 53 42 54 45 55 59 56
REMARK SMILES IDX 78 57 43 58 44 59 58 61 79 62 46 63 30 64 31 65 39 66 32 67
REMARK SMILES IDX 38 68 40 69 37 70 33 71 34 72 35 73 36 74 62 75 63 76 71 77
REMARK SMILES IDX 64 78 70 79 72 80 69 81 65 82 66 83 67 84 68 85 47 86 48 87
REMARK SMILES IDX 56 88 49 89 55 90 57 91 54 92 50 93 51 94 52 95 53 96
REMARK H PARENT 13 5 9 9 18 30 77 49 45 60
REMARK Flexibility Score: inf
ROOT
ATOM      1  C   UNL A   1      34.042  24.905  25.766  1.00  0.00     0.116 C 
ENDROOT
BRANCH   1   2
ATOM      2  N   UNL A   1      32.920  24.328  26.479  1.00  0.00    -0.351 N 
ATOM      3  C   UNL A   1      31.647  24.808  26.596  1.00  0.00     0.278 C 
ATOM      4  O   UNL A   1      30.795  24.071  27.102  1.00  0.00    -0.268 OA
ATOM      5  H   UNL A   1      33.100  23.478  26.940  1.00  0.00     0.163 HD
BRANCH   3   6
ATOM      6  C   UNL A   1      31.269  26.231  26.130  1.00  0.00     0.274 C 
ATOM      7  N   UNL A   1      31.482  26.440  24.646  1.00  0.00    -0.320 N 
ATOM      8  C   UNL A   1      31.219  27.873  24.298  1.00  0.00     0.187 C 
ATOM      9  H   UNL A   1      32.444  26.227  24.382  1.00  0.00     0.349 HD
ATOM     10  C   UNL A   1      31.954  27.240  27.057  1.00  0.00     0.076 C 
ATOM     11  C   UNL A   1      31.948  28.901  25.199  1.00  0.00     0.048 C 
ATOM     12  C   UNL A   1      31.569  28.311  22.858  1.00  0.00     0.065 C 
ATOM     13  C   UNL A   1      31.621  28.666  26.669  1.00  0.00     0.016 C 
ATOM     14  C   UNL A   1      33.468  29.025  24.950  1.00  0.00     0.010 C 
ATOM     15  C   UNL A   1      33.054  28.351  22.508  1.00  0.00     0.006 C 
ATOM     16  C   UNL A   1      34.000  28.347  23.695  1.00  0.00     0.001 C 
BRANCH   7  17
ATOM     17  C   UNL A   1      30.535  25.525  23.914  1.00  0.00     0.291 C 
BRANCH  17  18
ATOM     18  C   UNL A   1      31.164  24.368  23.087  1.00  0.00     0.221 C 
BRANCH  18  19
ATOM     19  O   UNL A   1      31.015  23.079  23.691  1.00  0.00    -0.376 OA
BRANCH  19  20
ATOM     20  C   UNL A   1      32.165  22.259  23.565  1.00  0.00     0.160 C 
BRANCH  20  21
ATOM     21  C   UNL A   1      32.118  21.071  24.535  1.00  0.00     0.031 C 
BRANCH  21  22
ATOM     22  C   UNL A   1      33.201  19.957  24.463  1.00  0.00    -0.015 C 
ATOM     23  C   UNL A   1      34.617  20.336  24.879  1.00  0.00     0.007 C 
ATOM     24  C   UNL A   1      32.764  18.709  25.239  1.00  0.00     0.007 C 
ENDBRANCH  21  22
ENDBRANCH  20  21
ENDBRANCH  19  20
ENDBRANCH  18  19
ENDBRANCH  17  18
ENDBRANCH   7  17
ENDBRANCH   3   6
ENDBRANCH   1   2
BRANCH   1  25
ATOM     25  C   UNL A   1      34.674  23.936  24.774  1.00  0.00     0.023 C 
BRANCH  25  26
ATOM     26  C   UNL A   1      36.200  23.924  24.786  1.00  0.00     0.023 C 
BRANCH  26  27
ATOM     27  C   UNL A   1      36.834  23.693  26.153  1.00  0.00     0.116 C 
BRANCH  27  28
ATOM     28  N   UNL A   1      37.746  22.558  26.171  1.00  0.00    -0.352 N 
ATOM     29  C   UNL A   1      39.101  22.546  26.399  1.00  0.00     0.251 C 
ATOM     30  H   UNL A   1      37.336  21.679  25.997  1.00  0.00     0.163 HD
ATOM     31  O   UNL A   1      39.744  21.509  26.241  1.00  0.00    -0.269 OA
BRANCH  29  32
ATOM     32  C   UNL A   1      39.781  23.798  26.793  1.00  0.00     0.039 A 
ATOM     33  C   UNL A   1      40.074  24.747  25.812  1.00  0.00     0.014 A 
ATOM     34  C   UNL A   1      40.066  24.056  28.137  1.00  0.00     0.014 A 
ATOM     35  C   UNL A   1      40.569  25.997  26.190  1.00  0.00     0.010 A 
ATOM     36  C   UNL A   1      40.492  25.325  28.516  1.00  0.00     0.010 A 
ATOM     37  C   UNL A   1      40.733  26.315  27.549  1.00  0.00    -0.014 A 
BRANCH  37  38
ATOM     38  C   UNL A   1      41.116  27.682  27.988  1.00  0.00     0.031 A 
ATOM     39  C   UNL A   1      42.562  28.091  28.002  1.00  0.00     0.074 A 
ATOM     40  C   UNL A   1      40.168  28.516  28.464  1.00  0.00     0.049 A 
ATOM     41  N   UNL A   1      43.105  29.189  28.458  1.00  0.00    -0.248 NA
ATOM     42  C   UNL A   1      43.529  27.124  27.459  1.00  0.00     0.031 C 
ATOM     43  C   UNL A   1      38.735  28.213  28.540  1.00  0.00     0.029 A 
ATOM     44  N   UNL A   1      40.265  29.778  28.996  1.00  0.00    -0.354 N 
ATOM     45  C   UNL A   1      44.476  29.038  28.282  1.00  0.00     0.074 A 
ATOM     46  C   UNL A   1      44.683  27.724  27.711  1.00  0.00     0.031 C 
ATOM     47  C   UNL A   1      38.090  29.263  29.077  1.00  0.00     0.029 A 
ATOM     48  C   UNL A   1      39.064  30.292  29.430  1.00  0.00     0.049 A 
ATOM     49  H   UNL A   1      41.115  30.271  29.060  1.00  0.00     0.167 HD
ATOM     50  C   UNL A   1      45.466  29.919  28.561  1.00  0.00     0.034 A 
ATOM     51  C   UNL A   1      38.779  31.448  30.066  1.00  0.00     0.034 A 
ATOM     52  C   UNL A   1      45.240  31.238  29.098  1.00  0.00     0.049 A 
ATOM     53  C   UNL A   1      39.907  32.399  30.382  1.00  0.00     0.074 A 
ATOM     54  C   UNL A   1      46.161  32.250  29.306  1.00  0.00     0.029 A 
ATOM     55  N   UNL A   1      44.011  31.723  29.525  1.00  0.00    -0.354 N 
ATOM     56  N   UNL A   1      41.189  32.274  30.126  1.00  0.00    -0.248 NA
ATOM     57  C   UNL A   1      39.551  33.646  31.071  1.00  0.00     0.031 C 
ATOM     58  C   UNL A   1      45.504  33.319  29.926  1.00  0.00     0.029 A 
ATOM     59  C   UNL A   1      44.161  33.002  30.041  1.00  0.00     0.049 A 
ATOM     60  H   UNL A   1      43.161  31.233  29.469  1.00  0.00     0.167 HD
ATOM     61  C   UNL A   1      41.784  33.440  30.599  1.00  0.00     0.074 A 
ATOM     62  C   UNL A   1      40.722  34.261  31.140  1.00  0.00     0.031 C 
ATOM     63  C   UNL A   1      43.092  33.803  30.586  1.00  0.00     0.034 A 
BRANCH  50  64
ATOM     64  C   UNL A   1      46.889  29.481  28.320  1.00  0.00     0.023 A 
ATOM     65  C   UNL A   1      47.647  28.838  29.312  1.00  0.00     0.031 A 
ATOM     66  C   UNL A   1      47.488  29.698  27.066  1.00  0.00     0.131 A 
ATOM     67  C   UNL A   1      48.980  28.481  29.052  1.00  0.00     0.055 A 
ATOM     68  C   UNL A   1      48.791  29.279  26.791  1.00  0.00     0.041 A 
ATOM     69  F   UNL A   1      46.816  30.325  26.087  1.00  0.00    -0.206 F 
ATOM     70  C   UNL A   1      49.548  28.676  27.791  1.00  0.00     0.022 A 
BRANCH  67  71
ATOM     71  S   UNL A   1      49.992  27.848  30.416  1.00  0.00     0.124 S 
ATOM     72  O   UNL A   1      49.054  27.916  31.535  1.00  0.00    -0.237 OA
ATOM     73  O   UNL A   1      50.341  26.509  29.957  1.00  0.00    -0.237 OA
ATOM     74  O   UNL A   1      51.103  28.794  30.486  1.00  0.00    -0.744 OA
ENDBRANCH  67  71
ENDBRANCH  50  64
BRANCH  51  75
ATOM     75  C   UNL A   1      37.384  31.768  30.484  1.00  0.00     0.023 A 
ATOM     76  C   UNL A   1      36.504  32.431  29.613  1.00  0.00     0.031 A 
ATOM     77  C   UNL A   1      36.931  31.485  31.786  1.00  0.00     0.131 A 
ATOM     78  C   UNL A   1      35.243  32.844  30.071  1.00  0.00     0.055 A 
ATOM     79  C   UNL A   1      35.654  31.844  32.218  1.00  0.00     0.041 A 
ATOM     80  F   UNL A   1      37.730  30.851  32.660  1.00  0.00    -0.206 F 
ATOM     81  C   UNL A   1      34.807  32.544  31.364  1.00  0.00     0.022 A 
BRANCH  78  82
ATOM     82  S   UNL A   1      34.223  33.880  28.987  1.00  0.00     0.124 S 
ATOM     83  O   UNL A   1      33.670  32.892  28.067  1.00  0.00    -0.237 OA
ATOM     84  O   UNL A   1      33.284  34.474  29.933  1.00  0.00    -0.237 OA
ATOM     85  O   UNL A   1      35.187  34.809  28.400  1.00  0.00    -0.744 OA
ENDBRANCH  78  82
ENDBRANCH  51  75
BRANCH  63  86
ATOM     86  C   UNL A   1      43.431  35.163  31.141  1.00  0.00     0.023 A 
ATOM     87  C   UNL A   1      43.452  36.306  30.324  1.00  0.00     0.031 A 
ATOM     88  C   UNL A   1      43.738  35.313  32.504  1.00  0.00     0.131 A 
ATOM     89  C   UNL A   1      43.819  37.546  30.870  1.00  0.00     0.055 A 
ATOM     90  C   UNL A   1      44.048  36.558  33.053  1.00  0.00     0.041 A 
ATOM     91  F   UNL A   1      43.734  34.252  33.328  1.00  0.00    -0.206 F 
ATOM     92  C   UNL A   1      44.100  37.682  32.233  1.00  0.00     0.022 A 
BRANCH  89  93
ATOM     93  S   UNL A   1      43.990  38.970  29.761  1.00  0.00     0.124 S 
ATOM     94  O   UNL A   1      43.043  38.644  28.700  1.00  0.00    -0.237 OA
ATOM     95  O   UNL A   1      43.620  40.086  30.624  1.00  0.00    -0.237 OA
ATOM     96  O   UNL A   1      45.398  38.932  29.369  1.00  0.00    -0.744 OA
ENDBRANCH  89  93
ENDBRANCH  63  86
ENDBRANCH  37  38
ENDBRANCH  29  32
ENDBRANCH  27  28
ENDBRANCH  26  27
ENDBRANCH  25  26
ENDBRANCH   1  25
TORSDOF 20
ENDMDL
