MODEL 1
REMARK VINA RESULT:     -12.8      0.000      0.000
REMARK SMILES O=C(NCCCCNC(=O)[C@H]1C[C@](O)(c2ccc(Cl)cc2)[C@@H](c2ccc(Cl)cc2)O1)c1ccc(-c2c3nc(c(-c4cc(S(=O)(=O)[O-])ccc4F)c4ccc([nH]4)c(-c4cc(S(=O)(=O)[O-])ccc4F)c4nc(c(-c5cc(S(=O)(=O)[O-])ccc5F)c5ccc2[nH]5)C=C4)C=C3)cc1
REMARK SMILES IDX 4 1 3 2 1 3 2 4 31 6 32 7 93 8 33 9 92 10 34 11 35 12 36 13
REMARK SMILES IDX 86 14 37 15 91 16 85 17 87 18 38 19 90 20 84 21 83 22 39 24
REMARK SMILES IDX 71 25 51 26 70 27 52 28 55 29 69 30 88 31 53 32 54 33 68 35
REMARK SMILES IDX 89 36 56 37 40 38 41 39 49 40 42 41 48 42 50 43 47 44 43 45
REMARK SMILES IDX 44 46 45 47 46 48 72 49 73 50 81 51 74 52 80 53 82 54 79 55
REMARK SMILES IDX 75 56 76 57 77 58 78 59 57 60 58 61 66 62 59 63 65 64 67 65
REMARK SMILES IDX 64 66 60 67 61 68 62 69 63 70 5 71 6 72 7 73 8 74 9 75 10 77
REMARK SMILES IDX 11 78 12 79 30 80 13 81 22 82 15 83 16 84 21 85 17 86 20 87
REMARK SMILES IDX 18 88 19 89 14 90 23 92 24 93 29 94 25 95 28 96 26 97 27 98
REMARK H PARENT 3 5 87 23 55 34 8 76 14 91
REMARK Flexibility Score: inf
ROOT
ATOM      1  C   UNL A   1      40.806  21.769  26.313  1.00  0.00     0.116 C 
ENDROOT
BRANCH   1   2
ATOM      2  N   UNL A   1      41.923  22.201  25.488  1.00  0.00    -0.352 N 
ATOM      3  O   UNL A   1      43.403  23.647  24.603  1.00  0.00    -0.269 OA
ATOM      4  C   UNL A   1      42.580  23.412  25.478  1.00  0.00     0.251 C 
ATOM      5  H   UNL A   1      42.257  21.534  24.846  1.00  0.00     0.163 HD
BRANCH   4   6
ATOM      6  C   UNL A   1      42.276  24.430  26.512  1.00  0.00     0.039 A 
ATOM      7  C   UNL A   1      41.891  24.053  27.800  1.00  0.00     0.014 A 
ATOM      8  C   UNL A   1      42.399  25.786  26.191  1.00  0.00     0.014 A 
ATOM      9  C   UNL A   1      41.503  25.023  28.720  1.00  0.00     0.010 A 
ATOM     10  C   UNL A   1      42.083  26.763  27.144  1.00  0.00     0.010 A 
ATOM     11  C   UNL A   1      41.605  26.389  28.409  1.00  0.00    -0.014 A 
BRANCH  11  12
ATOM     12  C   UNL A   1      41.251  27.395  29.447  1.00  0.00     0.031 A 
ATOM     13  C   UNL A   1      40.037  28.271  29.305  1.00  0.00     0.074 A 
ATOM     14  C   UNL A   1      42.013  27.469  30.558  1.00  0.00     0.049 A 
ATOM     15  N   UNL A   1      39.558  29.158  30.140  1.00  0.00    -0.248 NA
ATOM     16  C   UNL A   1      39.266  28.144  28.060  1.00  0.00     0.031 C 
ATOM     17  C   UNL A   1      43.225  26.681  30.797  1.00  0.00     0.029 A 
ATOM     18  N   UNL A   1      41.877  28.219  31.697  1.00  0.00    -0.354 N 
ATOM     19  C   UNL A   1      38.430  29.695  29.528  1.00  0.00     0.074 A 
ATOM     20  C   UNL A   1      38.326  29.064  28.229  1.00  0.00     0.031 C 
ATOM     21  C   UNL A   1      43.691  26.952  32.025  1.00  0.00     0.029 A 
ATOM     22  C   UNL A   1      42.852  27.976  32.637  1.00  0.00     0.049 A 
ATOM     23  H   UNL A   1      41.150  28.870  31.830  1.00  0.00     0.167 HD
ATOM     24  C   UNL A   1      37.559  30.617  30.009  1.00  0.00     0.034 A 
ATOM     25  C   UNL A   1      43.059  28.522  33.850  1.00  0.00     0.034 A 
ATOM     26  C   UNL A   1      37.682  31.245  31.305  1.00  0.00     0.049 A 
ATOM     27  C   UNL A   1      42.089  29.557  34.352  1.00  0.00     0.074 A 
ATOM     28  C   UNL A   1      36.858  32.192  31.891  1.00  0.00     0.029 A 
ATOM     29  N   UNL A   1      38.698  30.992  32.220  1.00  0.00    -0.354 N 
ATOM     30  N   UNL A   1      41.023  30.044  33.759  1.00  0.00    -0.248 NA
ATOM     31  C   UNL A   1      42.343  30.108  35.687  1.00  0.00     0.031 C 
ATOM     32  C   UNL A   1      37.403  32.550  33.129  1.00  0.00     0.029 A 
ATOM     33  C   UNL A   1      38.531  31.778  33.351  1.00  0.00     0.049 A 
ATOM     34  H   UNL A   1      39.430  30.348  32.085  1.00  0.00     0.167 HD
ATOM     35  C   UNL A   1      40.473  30.953  34.659  1.00  0.00     0.074 A 
ATOM     36  C   UNL A   1      41.306  30.917  35.844  1.00  0.00     0.031 C 
ATOM     37  C   UNL A   1      39.383  31.749  34.516  1.00  0.00     0.034 A 
BRANCH  24  38
ATOM     38  C   UNL A   1      36.412  31.026  29.114  1.00  0.00     0.023 A 
ATOM     39  C   UNL A   1      35.507  30.082  28.598  1.00  0.00     0.031 A 
ATOM     40  C   UNL A   1      36.224  32.374  28.765  1.00  0.00     0.131 A 
ATOM     41  C   UNL A   1      34.495  30.489  27.714  1.00  0.00     0.055 A 
ATOM     42  C   UNL A   1      35.171  32.785  27.944  1.00  0.00     0.041 A 
ATOM     43  F   UNL A   1      37.067  33.320  29.212  1.00  0.00    -0.206 F 
ATOM     44  C   UNL A   1      34.306  31.838  27.403  1.00  0.00     0.022 A 
BRANCH  41  45
ATOM     45  S   UNL A   1      33.504  29.220  26.881  1.00  0.00     0.124 S 
ATOM     46  O   UNL A   1      34.417  28.079  26.890  1.00  0.00    -0.237 OA
ATOM     47  O   UNL A   1      32.337  29.110  27.749  1.00  0.00    -0.237 OA
ATOM     48  O   UNL A   1      33.248  29.793  25.562  1.00  0.00    -0.744 OA
ENDBRANCH  41  45
ENDBRANCH  24  38
BRANCH  25  49
ATOM     49  C   UNL A   1      44.248  28.127  34.659  1.00  0.00     0.023 A 
ATOM     50  C   UNL A   1      44.142  27.204  35.710  1.00  0.00     0.031 A 
ATOM     51  C   UNL A   1      45.507  28.702  34.409  1.00  0.00     0.131 A 
ATOM     52  C   UNL A   1      45.265  26.917  36.501  1.00  0.00     0.055 A 
ATOM     53  C   UNL A   1      46.633  28.369  35.162  1.00  0.00     0.041 A 
ATOM     54  F   UNL A   1      45.664  29.588  33.412  1.00  0.00    -0.206 F 
ATOM     55  C   UNL A   1      46.513  27.482  36.225  1.00  0.00     0.022 A 
BRANCH  52  56
ATOM     56  S   UNL A   1      45.053  25.860  37.960  1.00  0.00     0.124 S 
ATOM     57  O   UNL A   1      44.026  26.579  38.704  1.00  0.00    -0.237 OA
ATOM     58  O   UNL A   1      44.642  24.595  37.359  1.00  0.00    -0.237 OA
ATOM     59  O   UNL A   1      46.380  25.854  38.572  1.00  0.00    -0.744 OA
ENDBRANCH  52  56
ENDBRANCH  25  49
BRANCH  37  60
ATOM     60  C   UNL A   1      39.031  32.623  35.694  1.00  0.00     0.023 A 
ATOM     61  C   UNL A   1      39.518  33.938  35.806  1.00  0.00     0.031 A 
ATOM     62  C   UNL A   1      38.235  32.120  36.739  1.00  0.00     0.131 A 
ATOM     63  C   UNL A   1      39.264  34.680  36.969  1.00  0.00     0.055 A 
ATOM     64  C   UNL A   1      37.936  32.886  37.866  1.00  0.00     0.041 A 
ATOM     65  F   UNL A   1      37.745  30.871  36.684  1.00  0.00    -0.206 F 
ATOM     66  C   UNL A   1      38.465  34.167  37.993  1.00  0.00     0.022 A 
BRANCH  63  67
ATOM     67  S   UNL A   1      40.083  36.286  37.171  1.00  0.00     0.124 S 
ATOM     68  O   UNL A   1      41.423  35.892  37.593  1.00  0.00    -0.237 OA
ATOM     69  O   UNL A   1      39.979  36.861  35.834  1.00  0.00    -0.237 OA
ATOM     70  O   UNL A   1      39.282  36.954  38.196  1.00  0.00    -0.744 OA
ENDBRANCH  63  67
ENDBRANCH  37  60
ENDBRANCH  11  12
ENDBRANCH   4   6
ENDBRANCH   1   2
BRANCH   1  71
ATOM     71  C   UNL A   1      39.457  22.177  25.732  1.00  0.00     0.023 C 
BRANCH  71  72
ATOM     72  C   UNL A   1      38.717  23.285  26.493  1.00  0.00     0.023 C 
BRANCH  72  73
ATOM     73  C   UNL A   1      37.375  23.706  25.885  1.00  0.00     0.116 C 
BRANCH  73  74
ATOM     74  N   UNL A   1      37.327  23.362  24.480  1.00  0.00    -0.354 N 
ATOM     75  C   UNL A   1      36.250  23.350  23.644  1.00  0.00     0.249 C 
ATOM     76  H   UNL A   1      38.185  23.103  24.074  1.00  0.00     0.163 HD
ATOM     77  O   UNL A   1      36.289  22.556  22.703  1.00  0.00    -0.272 OA
BRANCH  75  78
ATOM     78  C   UNL A   1      35.067  24.316  23.884  1.00  0.00     0.211 C 
ATOM     79  C   UNL A   1      34.152  24.423  22.662  1.00  0.00     0.085 C 
ATOM     80  O   UNL A   1      34.248  23.880  24.985  1.00  0.00    -0.357 OA
ATOM     81  C   UNL A   1      32.785  23.909  23.118  1.00  0.00     0.123 C 
ATOM     82  C   UNL A   1      33.114  23.175  24.446  1.00  0.00     0.186 C 
BRANCH  81  83
ATOM     83  C   UNL A   1      31.781  25.070  23.231  1.00  0.00    -0.013 A 
ATOM     84  C   UNL A   1      32.126  26.330  22.695  1.00  0.00     0.008 A 
ATOM     85  C   UNL A   1      30.512  24.947  23.825  1.00  0.00     0.008 A 
ATOM     86  C   UNL A   1      31.226  27.399  22.702  1.00  0.00     0.021 A 
ATOM     87  C   UNL A   1      29.603  26.013  23.819  1.00  0.00     0.021 A 
ATOM     88  C   UNL A   1      29.960  27.231  23.250  1.00  0.00     0.041 A 
ATOM     89  Cl  UNL A   1      28.833  28.531  23.226  1.00  0.00    -0.084 Cl
ENDBRANCH  81  83
BRANCH  81  90
ATOM     90  O   UNL A   1      32.245  23.032  22.121  1.00  0.00    -0.382 OA
ATOM     91  H   UNL A   1      31.392  23.378  21.814  1.00  0.00     0.212 HD
ENDBRANCH  81  90
BRANCH  82  92
ATOM     92  C   UNL A   1      33.384  21.674  24.456  1.00  0.00    -0.016 A 
ATOM     93  C   UNL A   1      32.537  20.725  23.862  1.00  0.00     0.008 A 
ATOM     94  C   UNL A   1      34.579  21.217  25.043  1.00  0.00     0.008 A 
ATOM     95  C   UNL A   1      32.878  19.368  23.843  1.00  0.00     0.021 A 
ATOM     96  C   UNL A   1      34.911  19.860  25.043  1.00  0.00     0.021 A 
ATOM     97  C   UNL A   1      34.061  18.941  24.435  1.00  0.00     0.041 A 
ATOM     98  Cl  UNL A   1      34.477  17.272  24.418  1.00  0.00    -0.084 Cl
ENDBRANCH  82  92
ENDBRANCH  75  78
ENDBRANCH  73  74
ENDBRANCH  72  73
ENDBRANCH  71  72
ENDBRANCH   1  71
TORSDOF 17
ENDMDL
MODEL 2
REMARK VINA RESULT:     -12.8      5.627      7.740
REMARK SMILES O=C(NCCCCNC(=O)[C@H]1C[C@](O)(c2ccc(Cl)cc2)[C@@H](c2ccc(Cl)cc2)O1)c1ccc(-c2c3nc(c(-c4cc(S(=O)(=O)[O-])ccc4F)c4ccc([nH]4)c(-c4cc(S(=O)(=O)[O-])ccc4F)c4nc(c(-c5cc(S(=O)(=O)[O-])ccc5F)c5ccc2[nH]5)C=C4)C=C3)cc1
REMARK SMILES IDX 4 1 3 2 1 3 2 4 31 6 32 7 93 8 33 9 92 10 34 11 35 12 36 13
REMARK SMILES IDX 86 14 37 15 91 16 85 17 87 18 38 19 90 20 84 21 83 22 39 24
REMARK SMILES IDX 71 25 51 26 70 27 52 28 55 29 69 30 88 31 53 32 54 33 68 35
REMARK SMILES IDX 89 36 56 37 40 38 41 39 49 40 42 41 48 42 50 43 47 44 43 45
REMARK SMILES IDX 44 46 45 47 46 48 72 49 73 50 81 51 74 52 80 53 82 54 79 55
REMARK SMILES IDX 75 56 76 57 77 58 78 59 57 60 58 61 66 62 59 63 65 64 67 65
REMARK SMILES IDX 64 66 60 67 61 68 62 69 63 70 5 71 6 72 7 73 8 74 9 75 10 77
REMARK SMILES IDX 11 78 12 79 30 80 13 81 22 82 15 83 16 84 21 85 17 86 20 87
REMARK SMILES IDX 18 88 19 89 14 90 23 92 24 93 29 94 25 95 28 96 26 97 27 98
REMARK H PARENT 3 5 87 23 55 34 8 76 14 91
REMARK Flexibility Score: inf
ROOT
ATOM      1  C   UNL A   1      39.719  19.933  26.097  1.00  0.00     0.116 C 
ENDROOT
BRANCH   1   2
ATOM      2  N   UNL A   1      40.850  19.022  26.153  1.00  0.00    -0.352 N 
ATOM      3  O   UNL A   1      43.014  18.406  26.103  1.00  0.00    -0.269 OA
ATOM      4  C   UNL A   1      42.196  19.310  26.218  1.00  0.00     0.251 C 
ATOM      5  H   UNL A   1      40.623  18.064  26.142  1.00  0.00     0.163 HD
BRANCH   4   6
ATOM      6  C   UNL A   1      42.648  20.708  26.409  1.00  0.00     0.039 A 
ATOM      7  C   UNL A   1      42.732  21.268  27.685  1.00  0.00     0.014 A 
ATOM      8  C   UNL A   1      43.013  21.466  25.291  1.00  0.00     0.014 A 
ATOM      9  C   UNL A   1      43.050  22.616  27.832  1.00  0.00     0.010 A 
ATOM     10  C   UNL A   1      43.409  22.800  25.447  1.00  0.00     0.010 A 
ATOM     11  C   UNL A   1      43.405  23.395  26.718  1.00  0.00    -0.014 A 
BRANCH  11  12
ATOM     12  C   UNL A   1      43.812  24.811  26.928  1.00  0.00     0.031 A 
ATOM     13  C   UNL A   1      42.853  25.826  27.487  1.00  0.00     0.074 A 
ATOM     14  C   UNL A   1      45.086  25.162  26.658  1.00  0.00     0.049 A 
ATOM     15  N   UNL A   1      43.062  27.084  27.781  1.00  0.00    -0.248 NA
ATOM     16  C   UNL A   1      41.477  25.372  27.740  1.00  0.00     0.031 C 
ATOM     17  C   UNL A   1      46.100  24.266  26.096  1.00  0.00     0.029 A 
ATOM     18  N   UNL A   1      45.753  26.345  26.839  1.00  0.00    -0.354 N 
ATOM     19  C   UNL A   1      41.850  27.576  28.255  1.00  0.00     0.074 A 
ATOM     20  C   UNL A   1      40.898  26.488  28.164  1.00  0.00     0.031 C 
ATOM     21  C   UNL A   1      47.271  24.917  26.024  1.00  0.00     0.029 A 
ATOM     22  C   UNL A   1      47.080  26.290  26.475  1.00  0.00     0.049 A 
ATOM     23  H   UNL A   1      45.325  27.158  27.194  1.00  0.00     0.167 HD
ATOM     24  C   UNL A   1      41.562  28.814  28.732  1.00  0.00     0.034 A 
ATOM     25  C   UNL A   1      48.034  27.240  26.489  1.00  0.00     0.034 A 
ATOM     26  C   UNL A   1      42.522  29.892  28.808  1.00  0.00     0.049 A 
ATOM     27  C   UNL A   1      47.684  28.610  27.004  1.00  0.00     0.074 A 
ATOM     28  C   UNL A   1      42.337  31.184  29.271  1.00  0.00     0.029 A 
ATOM     29  N   UNL A   1      43.850  29.807  28.406  1.00  0.00    -0.354 N 
ATOM     30  N   UNL A   1      46.533  29.052  27.456  1.00  0.00    -0.248 NA
ATOM     31  C   UNL A   1      48.762  29.605  27.020  1.00  0.00     0.031 C 
ATOM     32  C   UNL A   1      43.531  31.893  29.099  1.00  0.00     0.029 A 
ATOM     33  C   UNL A   1      44.486  31.026  28.592  1.00  0.00     0.049 A 
ATOM     34  H   UNL A   1      44.277  28.999  28.042  1.00  0.00     0.167 HD
ATOM     35  C   UNL A   1      46.754  30.376  27.821  1.00  0.00     0.074 A 
ATOM     36  C   UNL A   1      48.155  30.647  27.569  1.00  0.00     0.031 C 
ATOM     37  C   UNL A   1      45.878  31.288  28.314  1.00  0.00     0.034 A 
BRANCH  24  38
ATOM     38  C   UNL A   1      40.143  29.076  29.179  1.00  0.00     0.023 A 
ATOM     39  C   UNL A   1      39.779  29.040  30.537  1.00  0.00     0.031 A 
ATOM     40  C   UNL A   1      39.138  29.357  28.237  1.00  0.00     0.131 A 
ATOM     41  C   UNL A   1      38.437  29.221  30.909  1.00  0.00     0.055 A 
ATOM     42  C   UNL A   1      37.818  29.609  28.619  1.00  0.00     0.041 A 
ATOM     43  F   UNL A   1      39.421  29.387  26.924  1.00  0.00    -0.206 F 
ATOM     44  C   UNL A   1      37.459  29.530  29.961  1.00  0.00     0.022 A 
BRANCH  41  45
ATOM     45  S   UNL A   1      37.966  28.928  32.635  1.00  0.00     0.124 S 
ATOM     46  O   UNL A   1      39.118  29.471  33.352  1.00  0.00    -0.237 OA
ATOM     47  O   UNL A   1      36.725  29.683  32.757  1.00  0.00    -0.237 OA
ATOM     48  O   UNL A   1      37.823  27.476  32.711  1.00  0.00    -0.744 OA
ENDBRANCH  41  45
ENDBRANCH  24  38
BRANCH  25  49
ATOM     49  C   UNL A   1      49.400  26.940  25.971  1.00  0.00     0.023 A 
ATOM     50  C   UNL A   1      49.789  27.316  24.677  1.00  0.00     0.031 A 
ATOM     51  C   UNL A   1      50.327  26.236  26.761  1.00  0.00     0.131 A 
ATOM     52  C   UNL A   1      51.054  26.947  24.193  1.00  0.00     0.055 A 
ATOM     53  C   UNL A   1      51.604  25.922  26.296  1.00  0.00     0.041 A 
ATOM     54  F   UNL A   1      50.008  25.857  28.008  1.00  0.00    -0.206 F 
ATOM     55  C   UNL A   1      51.969  26.265  24.999  1.00  0.00     0.022 A 
BRANCH  52  56
ATOM     56  S   UNL A   1      51.455  27.290  22.458  1.00  0.00     0.124 S 
ATOM     57  O   UNL A   1      50.217  26.916  21.784  1.00  0.00    -0.237 OA
ATOM     58  O   UNL A   1      51.759  28.717  22.495  1.00  0.00    -0.237 OA
ATOM     59  O   UNL A   1      52.598  26.419  22.194  1.00  0.00    -0.744 OA
ENDBRANCH  52  56
ENDBRANCH  25  49
BRANCH  37  60
ATOM     60  C   UNL A   1      46.436  32.654  28.630  1.00  0.00     0.023 A 
ATOM     61  C   UNL A   1      46.507  33.663  27.654  1.00  0.00     0.031 A 
ATOM     62  C   UNL A   1      46.944  32.934  29.911  1.00  0.00     0.131 A 
ATOM     63  C   UNL A   1      47.136  34.881  27.952  1.00  0.00     0.055 A 
ATOM     64  C   UNL A   1      47.514  34.170  30.219  1.00  0.00     0.041 A 
ATOM     65  F   UNL A   1      46.903  32.006  30.880  1.00  0.00    -0.206 F 
ATOM     66  C   UNL A   1      47.628  35.145  29.232  1.00  0.00     0.022 A 
BRANCH  63  67
ATOM     67  S   UNL A   1      47.400  36.074  26.611  1.00  0.00     0.124 S 
ATOM     68  O   UNL A   1      47.783  35.206  25.503  1.00  0.00    -0.237 OA
ATOM     69  O   UNL A   1      46.093  36.712  26.499  1.00  0.00    -0.237 OA
ATOM     70  O   UNL A   1      48.466  36.934  27.123  1.00  0.00    -0.744 OA
ENDBRANCH  63  67
ENDBRANCH  37  60
ENDBRANCH  11  12
ENDBRANCH   4   6
ENDBRANCH   1   2
BRANCH   1  71
ATOM     71  C   UNL A   1      38.570  19.390  25.255  1.00  0.00     0.023 C 
BRANCH  71  72
ATOM     72  C   UNL A   1      37.305  20.259  25.224  1.00  0.00     0.023 C 
BRANCH  72  73
ATOM     73  C   UNL A   1      37.556  21.766  25.117  1.00  0.00     0.116 C 
BRANCH  73  74
ATOM     74  N   UNL A   1      37.210  22.245  23.796  1.00  0.00    -0.354 N 
ATOM     75  C   UNL A   1      36.130  22.984  23.415  1.00  0.00     0.249 C 
ATOM     76  H   UNL A   1      37.838  22.005  23.077  1.00  0.00     0.163 HD
ATOM     77  O   UNL A   1      35.736  22.833  22.258  1.00  0.00    -0.272 OA
BRANCH  75  78
ATOM     78  C   UNL A   1      35.474  23.971  24.408  1.00  0.00     0.211 C 
ATOM     79  C   UNL A   1      34.475  24.905  23.718  1.00  0.00     0.085 C 
ATOM     80  O   UNL A   1      34.752  23.275  25.440  1.00  0.00    -0.357 OA
ATOM     81  C   UNL A   1      33.116  24.605  24.355  1.00  0.00     0.123 C 
ATOM     82  C   UNL A   1      33.359  23.252  25.076  1.00  0.00     0.186 C 
BRANCH  81  83
ATOM     83  C   UNL A   1      32.674  25.771  25.259  1.00  0.00    -0.013 A 
ATOM     84  C   UNL A   1      33.650  26.666  25.749  1.00  0.00     0.008 A 
ATOM     85  C   UNL A   1      31.336  26.015  25.615  1.00  0.00     0.008 A 
ATOM     86  C   UNL A   1      33.300  27.784  26.512  1.00  0.00     0.021 A 
ATOM     87  C   UNL A   1      30.981  27.144  26.366  1.00  0.00     0.021 A 
ATOM     88  C   UNL A   1      31.963  28.027  26.803  1.00  0.00     0.041 A 
ATOM     89  Cl  UNL A   1      31.521  29.423  27.707  1.00  0.00    -0.084 Cl
ENDBRANCH  81  83
BRANCH  81  90
ATOM     90  O   UNL A   1      32.116  24.515  23.332  1.00  0.00    -0.382 OA
ATOM     91  H   UNL A   1      31.287  24.899  23.655  1.00  0.00     0.212 HD
ENDBRANCH  81  90
BRANCH  82  92
ATOM     92  C   UNL A   1      33.025  21.935  24.385  1.00  0.00    -0.016 A 
ATOM     93  C   UNL A   1      32.343  21.846  23.161  1.00  0.00     0.008 A 
ATOM     94  C   UNL A   1      33.478  20.739  24.976  1.00  0.00     0.008 A 
ATOM     95  C   UNL A   1      32.132  20.609  22.542  1.00  0.00     0.021 A 
ATOM     96  C   UNL A   1      33.249  19.501  24.370  1.00  0.00     0.021 A 
ATOM     97  C   UNL A   1      32.583  19.442  23.151  1.00  0.00     0.041 A 
ATOM     98  Cl  UNL A   1      32.317  17.921  22.394  1.00  0.00    -0.084 Cl
ENDBRANCH  82  92
ENDBRANCH  75  78
ENDBRANCH  73  74
ENDBRANCH  72  73
ENDBRANCH  71  72
ENDBRANCH   1  71
TORSDOF 17
ENDMDL
MODEL 3
REMARK VINA RESULT:     -12.8      2.733      9.600
REMARK SMILES O=C(NCCCCNC(=O)[C@H]1C[C@](O)(c2ccc(Cl)cc2)[C@@H](c2ccc(Cl)cc2)O1)c1ccc(-c2c3nc(c(-c4cc(S(=O)(=O)[O-])ccc4F)c4ccc([nH]4)c(-c4cc(S(=O)(=O)[O-])ccc4F)c4nc(c(-c5cc(S(=O)(=O)[O-])ccc5F)c5ccc2[nH]5)C=C4)C=C3)cc1
REMARK SMILES IDX 4 1 3 2 1 3 2 4 31 6 32 7 93 8 33 9 92 10 34 11 35 12 36 13
REMARK SMILES IDX 86 14 37 15 91 16 85 17 87 18 38 19 90 20 84 21 83 22 39 24
REMARK SMILES IDX 71 25 51 26 70 27 52 28 55 29 69 30 88 31 53 32 54 33 68 35
REMARK SMILES IDX 89 36 56 37 40 38 41 39 49 40 42 41 48 42 50 43 47 44 43 45
REMARK SMILES IDX 44 46 45 47 46 48 72 49 73 50 81 51 74 52 80 53 82 54 79 55
REMARK SMILES IDX 75 56 76 57 77 58 78 59 57 60 58 61 66 62 59 63 65 64 67 65
REMARK SMILES IDX 64 66 60 67 61 68 62 69 63 70 5 71 6 72 7 73 8 74 9 75 10 77
REMARK SMILES IDX 11 78 12 79 30 80 13 81 22 82 15 83 16 84 21 85 17 86 20 87
REMARK SMILES IDX 18 88 19 89 14 90 23 92 24 93 29 94 25 95 28 96 26 97 27 98
REMARK H PARENT 3 5 87 23 55 34 8 76 14 91
REMARK Flexibility Score: inf
ROOT
ATOM      1  C   UNL A   1      32.873  33.185  27.328  1.00  0.00     0.116 C 
ENDROOT
BRANCH   1   2
ATOM      2  N   UNL A   1      32.572  34.467  27.941  1.00  0.00    -0.352 N 
ATOM      3  O   UNL A   1      32.648  36.078  29.512  1.00  0.00    -0.269 OA
ATOM      4  C   UNL A   1      33.140  35.055  29.050  1.00  0.00     0.251 C 
ATOM      5  H   UNL A   1      31.862  34.990  27.503  1.00  0.00     0.163 HD
BRANCH   4   6
ATOM      6  C   UNL A   1      34.327  34.441  29.691  1.00  0.00     0.039 A 
ATOM      7  C   UNL A   1      35.605  34.627  29.161  1.00  0.00     0.014 A 
ATOM      8  C   UNL A   1      34.160  33.682  30.854  1.00  0.00     0.014 A 
ATOM      9  C   UNL A   1      36.690  33.950  29.712  1.00  0.00     0.010 A 
ATOM     10  C   UNL A   1      35.265  33.065  31.454  1.00  0.00     0.010 A 
ATOM     11  C   UNL A   1      36.537  33.171  30.871  1.00  0.00    -0.014 A 
BRANCH  11  12
ATOM     12  C   UNL A   1      37.736  32.526  31.472  1.00  0.00     0.031 A 
ATOM     13  C   UNL A   1      38.272  32.963  32.808  1.00  0.00     0.074 A 
ATOM     14  C   UNL A   1      38.308  31.494  30.818  1.00  0.00     0.049 A 
ATOM     15  N   UNL A   1      39.272  32.472  33.495  1.00  0.00    -0.248 NA
ATOM     16  C   UNL A   1      37.607  34.105  33.451  1.00  0.00     0.031 C 
ATOM     17  C   UNL A   1      37.884  30.995  29.508  1.00  0.00     0.029 A 
ATOM     18  N   UNL A   1      39.343  30.668  31.168  1.00  0.00    -0.354 N 
ATOM     19  C   UNL A   1      39.358  33.240  34.652  1.00  0.00     0.074 A 
ATOM     20  C   UNL A   1      38.335  34.260  34.549  1.00  0.00     0.031 C 
ATOM     21  C   UNL A   1      38.619  29.920  29.187  1.00  0.00     0.029 A 
ATOM     22  C   UNL A   1      39.605  29.689  30.236  1.00  0.00     0.049 A 
ATOM     23  H   UNL A   1      39.852  30.764  32.006  1.00  0.00     0.167 HD
ATOM     24  C   UNL A   1      40.202  33.099  35.706  1.00  0.00     0.034 A 
ATOM     25  C   UNL A   1      40.541  28.721  30.219  1.00  0.00     0.034 A 
ATOM     26  C   UNL A   1      41.225  32.081  35.790  1.00  0.00     0.049 A 
ATOM     27  C   UNL A   1      41.478  28.599  31.390  1.00  0.00     0.074 A 
ATOM     28  C   UNL A   1      42.134  31.849  36.809  1.00  0.00     0.029 A 
ATOM     29  N   UNL A   1      41.478  31.122  34.815  1.00  0.00    -0.354 N 
ATOM     30  N   UNL A   1      41.536  29.331  32.479  1.00  0.00    -0.248 NA
ATOM     31  C   UNL A   1      42.467  27.517  31.335  1.00  0.00     0.031 C 
ATOM     32  C   UNL A   1      42.969  30.792  36.428  1.00  0.00     0.029 A 
ATOM     33  C   UNL A   1      42.539  30.315  35.200  1.00  0.00     0.049 A 
ATOM     34  H   UNL A   1      40.976  31.030  33.973  1.00  0.00     0.167 HD
ATOM     35  C   UNL A   1      42.563  28.787  33.244  1.00  0.00     0.074 A 
ATOM     36  C   UNL A   1      43.070  27.647  32.507  1.00  0.00     0.031 C 
ATOM     37  C   UNL A   1      43.049  29.196  34.444  1.00  0.00     0.034 A 
BRANCH  24  38
ATOM     38  C   UNL A   1      40.075  34.091  36.838  1.00  0.00     0.023 A 
ATOM     39  C   UNL A   1      41.039  35.093  37.051  1.00  0.00     0.031 A 
ATOM     40  C   UNL A   1      38.983  34.032  37.721  1.00  0.00     0.131 A 
ATOM     41  C   UNL A   1      40.923  35.955  38.154  1.00  0.00     0.055 A 
ATOM     42  C   UNL A   1      38.835  34.939  38.774  1.00  0.00     0.041 A 
ATOM     43  F   UNL A   1      38.041  33.086  37.580  1.00  0.00    -0.206 F 
ATOM     44  C   UNL A   1      39.815  35.900  39.002  1.00  0.00     0.022 A 
BRANCH  41  45
ATOM     45  S   UNL A   1      42.302  37.070  38.535  1.00  0.00     0.124 S 
ATOM     46  O   UNL A   1      41.605  38.210  39.126  1.00  0.00    -0.237 OA
ATOM     47  O   UNL A   1      43.111  36.271  39.448  1.00  0.00    -0.237 OA
ATOM     48  O   UNL A   1      42.907  37.327  37.230  1.00  0.00    -0.744 OA
ENDBRANCH  41  45
ENDBRANCH  24  38
BRANCH  25  49
ATOM     49  C   UNL A   1      40.662  27.814  29.041  1.00  0.00     0.023 A 
ATOM     50  C   UNL A   1      41.598  28.057  28.025  1.00  0.00     0.031 A 
ATOM     51  C   UNL A   1      39.808  26.704  28.901  1.00  0.00     0.131 A 
ATOM     52  C   UNL A   1      41.629  27.228  26.892  1.00  0.00     0.055 A 
ATOM     53  C   UNL A   1      39.882  25.851  27.801  1.00  0.00     0.041 A 
ATOM     54  F   UNL A   1      38.897  26.424  29.847  1.00  0.00    -0.206 F 
ATOM     55  C   UNL A   1      40.787  26.119  26.780  1.00  0.00     0.022 A 
BRANCH  52  56
ATOM     56  S   UNL A   1      42.726  27.676  25.518  1.00  0.00     0.124 S 
ATOM     57  O   UNL A   1      42.068  28.862  24.984  1.00  0.00    -0.237 OA
ATOM     58  O   UNL A   1      43.994  27.899  26.205  1.00  0.00    -0.237 OA
ATOM     59  O   UNL A   1      42.687  26.497  24.655  1.00  0.00    -0.744 OA
ENDBRANCH  52  56
ENDBRANCH  25  49
BRANCH  37  60
ATOM     60  C   UNL A   1      44.171  28.376  35.030  1.00  0.00     0.023 A 
ATOM     61  C   UNL A   1      43.928  27.381  35.993  1.00  0.00     0.031 A 
ATOM     62  C   UNL A   1      45.503  28.626  34.656  1.00  0.00     0.131 A 
ATOM     63  C   UNL A   1      45.005  26.718  36.600  1.00  0.00     0.055 A 
ATOM     64  C   UNL A   1      46.567  27.921  35.220  1.00  0.00     0.041 A 
ATOM     65  F   UNL A   1      45.792  29.567  33.743  1.00  0.00    -0.206 F 
ATOM     66  C   UNL A   1      46.322  26.973  36.210  1.00  0.00     0.022 A 
BRANCH  63  67
ATOM     67  S   UNL A   1      44.667  25.597  37.985  1.00  0.00     0.124 S 
ATOM     68  O   UNL A   1      44.032  26.488  38.950  1.00  0.00    -0.237 OA
ATOM     69  O   UNL A   1      43.799  24.597  37.373  1.00  0.00    -0.237 OA
ATOM     70  O   UNL A   1      45.994  25.114  38.367  1.00  0.00    -0.744 OA
ENDBRANCH  63  67
ENDBRANCH  37  60
ENDBRANCH  11  12
ENDBRANCH   4   6
ENDBRANCH   1   2
BRANCH   1  71
ATOM     71  C   UNL A   1      31.620  32.438  26.885  1.00  0.00     0.023 C 
BRANCH  71  72
ATOM     72  C   UNL A   1      31.865  31.119  26.138  1.00  0.00     0.023 C 
BRANCH  72  73
ATOM     73  C   UNL A   1      32.658  30.068  26.921  1.00  0.00     0.116 C 
BRANCH  73  74
ATOM     74  N   UNL A   1      31.766  29.089  27.502  1.00  0.00    -0.354 N 
ATOM     75  C   UNL A   1      31.637  27.767  27.194  1.00  0.00     0.249 C 
ATOM     76  H   UNL A   1      31.173  29.420  28.215  1.00  0.00     0.163 HD
ATOM     77  O   UNL A   1      30.530  27.261  27.379  1.00  0.00    -0.272 OA
BRANCH  75  78
ATOM     78  C   UNL A   1      32.850  26.971  26.660  1.00  0.00     0.211 C 
ATOM     79  C   UNL A   1      32.518  25.493  26.437  1.00  0.00     0.085 C 
ATOM     80  O   UNL A   1      33.308  27.493  25.399  1.00  0.00    -0.357 OA
ATOM     81  C   UNL A   1      32.709  25.244  24.939  1.00  0.00     0.123 C 
ATOM     82  C   UNL A   1      32.750  26.680  24.349  1.00  0.00     0.186 C 
BRANCH  81  83
ATOM     83  C   UNL A   1      33.964  24.387  24.689  1.00  0.00    -0.013 A 
ATOM     84  C   UNL A   1      34.826  24.103  25.770  1.00  0.00     0.008 A 
ATOM     85  C   UNL A   1      34.297  23.842  23.437  1.00  0.00     0.008 A 
ATOM     86  C   UNL A   1      35.938  23.269  25.620  1.00  0.00     0.021 A 
ATOM     87  C   UNL A   1      35.402  22.994  23.287  1.00  0.00     0.021 A 
ATOM     88  C   UNL A   1      36.212  22.704  24.381  1.00  0.00     0.041 A 
ATOM     89  Cl  UNL A   1      37.555  21.645  24.197  1.00  0.00    -0.084 Cl
ENDBRANCH  81  83
BRANCH  81  90
ATOM     90  O   UNL A   1      31.612  24.471  24.437  1.00  0.00    -0.382 OA
ATOM     91  H   UNL A   1      31.927  23.591  24.178  1.00  0.00     0.212 HD
ENDBRANCH  81  90
BRANCH  82  92
ATOM     92  C   UNL A   1      31.483  27.331  23.807  1.00  0.00    -0.016 A 
ATOM     93  C   UNL A   1      30.212  26.738  23.870  1.00  0.00     0.008 A 
ATOM     94  C   UNL A   1      31.580  28.627  23.264  1.00  0.00     0.008 A 
ATOM     95  C   UNL A   1      29.076  27.420  23.419  1.00  0.00     0.021 A 
ATOM     96  C   UNL A   1      30.450  29.301  22.795  1.00  0.00     0.021 A 
ATOM     97  C   UNL A   1      29.200  28.697  22.881  1.00  0.00     0.041 A 
ATOM     98  Cl  UNL A   1      27.805  29.532  22.321  1.00  0.00    -0.084 Cl
ENDBRANCH  82  92
ENDBRANCH  75  78
ENDBRANCH  73  74
ENDBRANCH  72  73
ENDBRANCH  71  72
ENDBRANCH   1  71
TORSDOF 17
ENDMDL
