MODEL 1
REMARK VINA RESULT:     -10.9      0.000      0.000
REMARK SMILES COc1ccc([C@@H](C#N)CC(=O)NCCCCNC(=O)c2ccc(-c3c4nc(c(-c5cc(S(=O)(=O)[O-])ccc5F)c5ccc([nH]5)c(-c5cc(S(=O)(=O)[O-])ccc5F)c5nc(c(-c6cc(S(=O)(=O)[O-])ccc6F)c6ccc3[nH]6)C=C5)C=C4)cc2)cc1
REMARK SMILES IDX 15 1 14 2 13 3 11 4 12 5 10 7 7 8 6 9 3 10 4 11 85 12 5 13
REMARK SMILES IDX 84 14 2 15 1 16 8 17 9 18 16 19 17 20 18 21 19 22 20 24
REMARK SMILES IDX 21 25 22 26 83 27 23 28 82 29 24 30 25 31 26 32 76 33 27 34
REMARK SMILES IDX 81 35 75 36 77 37 28 38 80 39 74 40 73 41 29 43 61 44 41 45
REMARK SMILES IDX 60 46 42 47 45 48 59 49 78 50 43 51 44 52 58 54 79 55 46 56
REMARK SMILES IDX 30 57 31 58 39 59 32 60 38 61 40 62 37 63 33 64 34 65 35 66
REMARK SMILES IDX 36 67 62 68 63 69 71 70 64 71 70 72 72 73 69 74 65 75 66 76
REMARK SMILES IDX 67 77 68 78 47 79 48 80 56 81 49 82 55 83 57 84 54 85 50 86
REMARK SMILES IDX 51 87 52 88 53 89
REMARK H PARENT 13 6 18 23 77 42 45 53
REMARK Flexibility Score: inf
ROOT
ATOM      1  C   UNL A   1      33.579  29.575  27.077  1.00  0.00     0.023 C 
ENDROOT
BRANCH   1   2
ATOM      2  C   UNL A   1      33.185  28.704  25.891  1.00  0.00     0.116 C 
BRANCH   2   3
ATOM      3  N   UNL A   1      33.492  27.321  26.184  1.00  0.00    -0.356 N 
ATOM      4  C   UNL A   1      33.520  26.264  25.328  1.00  0.00     0.221 C 
ATOM      5  O   UNL A   1      33.514  25.124  25.795  1.00  0.00    -0.275 OA
ATOM      6  H   UNL A   1      33.707  27.119  27.124  1.00  0.00     0.163 HD
BRANCH   4   7
ATOM      7  C   UNL A   1      33.606  26.482  23.832  1.00  0.00     0.123 C 
BRANCH   7   8
ATOM      8  C   UNL A   1      32.379  25.960  23.058  1.00  0.00     0.132 C 
BRANCH   8   9
ATOM      9  C   UNL A   1      31.138  26.850  23.142  1.00  0.00    -0.030 A 
ATOM     10  C   UNL A   1      28.817  28.457  23.037  1.00  0.00     0.118 A 
ATOM     11  C   UNL A   1      28.768  27.186  23.613  1.00  0.00     0.047 A 
ATOM     12  C   UNL A   1      30.043  28.972  22.621  1.00  0.00     0.047 A 
ATOM     13  C   UNL A   1      29.917  26.387  23.667  1.00  0.00     0.009 A 
ATOM     14  C   UNL A   1      31.195  28.177  22.679  1.00  0.00     0.009 A 
BRANCH  10  15
ATOM     15  O   UNL A   1      27.620  29.103  22.900  1.00  0.00    -0.497 OA
ATOM     16  C   UNL A   1      27.717  30.463  22.468  1.00  0.00     0.278 C 
ENDBRANCH  10  15
ENDBRANCH   8   9
BRANCH   8  17
ATOM     17  C   UNL A   1      32.755  25.756  21.643  1.00  0.00     0.071 C 
ATOM     18  N   UNL A   1      33.024  25.610  20.520  1.00  0.00    -0.198 NA
ENDBRANCH   8  17
ENDBRANCH   7   8
ENDBRANCH   4   7
ENDBRANCH   2   3
ENDBRANCH   1   2
BRANCH   1  19
ATOM     19  C   UNL A   1      32.828  30.877  27.230  1.00  0.00     0.023 C 
BRANCH  19  20
ATOM     20  C   UNL A   1      33.740  32.081  27.380  1.00  0.00     0.116 C 
BRANCH  20  21
ATOM     21  N   UNL A   1      33.042  33.344  27.631  1.00  0.00    -0.352 N 
ATOM     22  C   UNL A   1      33.288  34.279  28.613  1.00  0.00     0.251 C 
ATOM     23  H   UNL A   1      32.302  33.552  27.017  1.00  0.00     0.163 HD
ATOM     24  O   UNL A   1      32.565  35.259  28.750  1.00  0.00    -0.269 OA
BRANCH  22  25
ATOM     25  C   UNL A   1      34.406  34.030  29.540  1.00  0.00     0.039 A 
ATOM     26  C   UNL A   1      34.186  33.273  30.692  1.00  0.00     0.014 A 
ATOM     27  C   UNL A   1      35.694  34.405  29.161  1.00  0.00     0.014 A 
ATOM     28  C   UNL A   1      35.285  32.801  31.411  1.00  0.00     0.010 A 
ATOM     29  C   UNL A   1      36.775  33.813  29.789  1.00  0.00     0.010 A 
ATOM     30  C   UNL A   1      36.586  33.016  30.930  1.00  0.00    -0.014 A 
BRANCH  30  31
ATOM     31  C   UNL A   1      37.787  32.471  31.610  1.00  0.00     0.031 A 
ATOM     32  C   UNL A   1      38.533  31.338  30.959  1.00  0.00     0.074 A 
ATOM     33  C   UNL A   1      38.146  32.916  32.831  1.00  0.00     0.049 A 
ATOM     34  N   UNL A   1      39.494  30.594  31.438  1.00  0.00    -0.248 NA
ATOM     35  C   UNL A   1      38.102  30.959  29.602  1.00  0.00     0.031 C 
ATOM     36  C   UNL A   1      37.482  33.989  33.575  1.00  0.00     0.029 A 
ATOM     37  N   UNL A   1      39.153  32.510  33.671  1.00  0.00    -0.354 N 
ATOM     38  C   UNL A   1      39.760  29.649  30.454  1.00  0.00     0.074 A 
ATOM     39  C   UNL A   1      38.803  29.859  29.392  1.00  0.00     0.031 C 
ATOM     40  C   UNL A   1      38.118  34.176  34.742  1.00  0.00     0.029 A 
ATOM     41  C   UNL A   1      39.191  33.194  34.866  1.00  0.00     0.049 A 
ATOM     42  H   UNL A   1      39.789  31.796  33.441  1.00  0.00     0.167 HD
ATOM     43  C   UNL A   1      40.736  28.709  30.426  1.00  0.00     0.034 A 
ATOM     44  C   UNL A   1      39.983  33.031  35.944  1.00  0.00     0.034 A 
ATOM     45  C   UNL A   1      41.692  28.532  31.485  1.00  0.00     0.049 A 
ATOM     46  C   UNL A   1      41.030  31.942  35.912  1.00  0.00     0.074 A 
ATOM     47  C   UNL A   1      42.758  27.653  31.541  1.00  0.00     0.029 A 
ATOM     48  N   UNL A   1      41.694  29.239  32.681  1.00  0.00    -0.354 N 
ATOM     49  N   UNL A   1      41.301  31.084  34.954  1.00  0.00    -0.248 NA
ATOM     50  C   UNL A   1      41.878  31.800  37.103  1.00  0.00     0.031 C 
ATOM     51  C   UNL A   1      43.347  27.764  32.804  1.00  0.00     0.029 A 
ATOM     52  C   UNL A   1      42.715  28.784  33.498  1.00  0.00     0.049 A 
ATOM     53  H   UNL A   1      41.063  29.959  32.912  1.00  0.00     0.167 HD
ATOM     54  C   UNL A   1      42.374  30.326  35.415  1.00  0.00     0.074 A 
ATOM     55  C   UNL A   1      42.707  30.836  36.729  1.00  0.00     0.031 C 
ATOM     56  C   UNL A   1      43.029  29.303  34.809  1.00  0.00     0.034 A 
BRANCH  43  57
ATOM     57  C   UNL A   1      40.791  27.797  29.224  1.00  0.00     0.023 A 
ATOM     58  C   UNL A   1      41.728  27.987  28.193  1.00  0.00     0.031 A 
ATOM     59  C   UNL A   1      39.876  26.739  29.093  1.00  0.00     0.131 A 
ATOM     60  C   UNL A   1      41.675  27.186  27.043  1.00  0.00     0.055 A 
ATOM     61  C   UNL A   1      39.891  25.884  27.989  1.00  0.00     0.041 A 
ATOM     62  F   UNL A   1      38.937  26.526  30.029  1.00  0.00    -0.206 F 
ATOM     63  C   UNL A   1      40.785  26.116  26.948  1.00  0.00     0.022 A 
BRANCH  60  64
ATOM     64  S   UNL A   1      42.674  27.671  25.609  1.00  0.00     0.124 S 
ATOM     65  O   UNL A   1      43.966  27.950  26.232  1.00  0.00    -0.237 OA
ATOM     66  O   UNL A   1      42.614  26.483  24.766  1.00  0.00    -0.237 OA
ATOM     67  O   UNL A   1      41.977  28.845  25.088  1.00  0.00    -0.744 OA
ENDBRANCH  60  64
ENDBRANCH  43  57
BRANCH  44  68
ATOM     68  C   UNL A   1      39.815  33.891  37.152  1.00  0.00     0.023 A 
ATOM     69  C   UNL A   1      39.144  33.417  38.290  1.00  0.00     0.031 A 
ATOM     70  C   UNL A   1      40.276  35.221  37.170  1.00  0.00     0.131 A 
ATOM     71  C   UNL A   1      38.905  34.277  39.374  1.00  0.00     0.055 A 
ATOM     72  C   UNL A   1      40.095  36.052  38.277  1.00  0.00     0.041 A 
ATOM     73  F   UNL A   1      40.922  35.732  36.109  1.00  0.00    -0.206 F 
ATOM     74  C   UNL A   1      39.391  35.586  39.382  1.00  0.00     0.022 A 
BRANCH  71  75
ATOM     75  S   UNL A   1      37.845  33.693  40.726  1.00  0.00     0.124 S 
ATOM     76  O   UNL A   1      38.748  32.800  41.442  1.00  0.00    -0.237 OA
ATOM     77  O   UNL A   1      37.504  34.940  41.402  1.00  0.00    -0.237 OA
ATOM     78  O   UNL A   1      36.739  33.039  40.030  1.00  0.00    -0.744 OA
ENDBRANCH  71  75
ENDBRANCH  44  68
BRANCH  56  79
ATOM     79  C   UNL A   1      44.204  28.701  35.537  1.00  0.00     0.023 A 
ATOM     80  C   UNL A   1      44.044  27.673  36.481  1.00  0.00     0.031 A 
ATOM     81  C   UNL A   1      45.509  29.149  35.261  1.00  0.00     0.131 A 
ATOM     82  C   UNL A   1      45.166  27.161  37.150  1.00  0.00     0.055 A 
ATOM     83  C   UNL A   1      46.626  28.586  35.876  1.00  0.00     0.041 A 
ATOM     84  F   UNL A   1      45.720  30.134  34.372  1.00  0.00    -0.206 F 
ATOM     85  C   UNL A   1      46.458  27.593  36.835  1.00  0.00     0.022 A 
BRANCH  82  86
ATOM     86  S   UNL A   1      44.907  25.985  38.506  1.00  0.00     0.124 S 
ATOM     87  O   UNL A   1      43.868  26.649  39.286  1.00  0.00    -0.237 OA
ATOM     88  O   UNL A   1      44.499  24.776  37.799  1.00  0.00    -0.237 OA
ATOM     89  O   UNL A   1      46.217  25.913  39.152  1.00  0.00    -0.744 OA
ENDBRANCH  82  86
ENDBRANCH  56  79
ENDBRANCH  30  31
ENDBRANCH  22  25
ENDBRANCH  20  21
ENDBRANCH  19  20
ENDBRANCH   1  19
TORSDOF 18
ENDMDL
MODEL 2
REMARK VINA RESULT:     -10.7      5.713      8.596
REMARK SMILES COc1ccc([C@@H](C#N)CC(=O)NCCCCNC(=O)c2ccc(-c3c4nc(c(-c5cc(S(=O)(=O)[O-])ccc5F)c5ccc([nH]5)c(-c5cc(S(=O)(=O)[O-])ccc5F)c5nc(c(-c6cc(S(=O)(=O)[O-])ccc6F)c6ccc3[nH]6)C=C5)C=C4)cc2)cc1
REMARK SMILES IDX 15 1 14 2 13 3 11 4 12 5 10 7 7 8 6 9 3 10 4 11 85 12 5 13
REMARK SMILES IDX 84 14 2 15 1 16 8 17 9 18 16 19 17 20 18 21 19 22 20 24
REMARK SMILES IDX 21 25 22 26 83 27 23 28 82 29 24 30 25 31 26 32 76 33 27 34
REMARK SMILES IDX 81 35 75 36 77 37 28 38 80 39 74 40 73 41 29 43 61 44 41 45
REMARK SMILES IDX 60 46 42 47 45 48 59 49 78 50 43 51 44 52 58 54 79 55 46 56
REMARK SMILES IDX 30 57 31 58 39 59 32 60 38 61 40 62 37 63 33 64 34 65 35 66
REMARK SMILES IDX 36 67 62 68 63 69 71 70 64 71 70 72 72 73 69 74 65 75 66 76
REMARK SMILES IDX 67 77 68 78 47 79 48 80 56 81 49 82 55 83 57 84 54 85 50 86
REMARK SMILES IDX 51 87 52 88 53 89
REMARK H PARENT 13 6 18 23 77 42 45 53
REMARK Flexibility Score: inf
ROOT
ATOM      1  C   UNL A   1      34.710  21.986  24.268  1.00  0.00     0.023 C 
ENDROOT
BRANCH   1   2
ATOM      2  C   UNL A   1      33.887  23.205  24.662  1.00  0.00     0.116 C 
BRANCH   2   3
ATOM      3  N   UNL A   1      34.164  24.292  23.749  1.00  0.00    -0.356 N 
ATOM      4  C   UNL A   1      33.288  24.981  22.968  1.00  0.00     0.221 C 
ATOM      5  O   UNL A   1      33.731  25.668  22.047  1.00  0.00    -0.275 OA
ATOM      6  H   UNL A   1      35.107  24.567  23.683  1.00  0.00     0.163 HD
BRANCH   4   7
ATOM      7  C   UNL A   1      31.801  24.945  23.254  1.00  0.00     0.123 C 
BRANCH   7   8
ATOM      8  C   UNL A   1      31.342  26.003  24.278  1.00  0.00     0.132 C 
BRANCH   8   9
ATOM      9  C   UNL A   1      30.227  26.928  23.791  1.00  0.00    -0.030 A 
ATOM     10  C   UNL A   1      28.124  28.701  23.145  1.00  0.00     0.118 A 
ATOM     11  C   UNL A   1      29.448  29.055  22.882  1.00  0.00     0.047 A 
ATOM     12  C   UNL A   1      27.839  27.422  23.619  1.00  0.00     0.047 A 
ATOM     13  C   UNL A   1      30.494  28.178  23.201  1.00  0.00     0.009 A 
ATOM     14  C   UNL A   1      28.882  26.541  23.933  1.00  0.00     0.009 A 
BRANCH  10  15
ATOM     15  O   UNL A   1      27.187  29.674  22.934  1.00  0.00    -0.497 OA
ATOM     16  C   UNL A   1      27.591  30.990  23.322  1.00  0.00     0.278 C 
ENDBRANCH  10  15
ENDBRANCH   8   9
BRANCH   8  17
ATOM     17  C   UNL A   1      30.920  25.317  25.518  1.00  0.00     0.071 C 
ATOM     18  N   UNL A   1      30.617  24.781  26.506  1.00  0.00    -0.198 NA
ENDBRANCH   8  17
ENDBRANCH   7   8
ENDBRANCH   4   7
ENDBRANCH   2   3
ENDBRANCH   1   2
BRANCH   1  19
ATOM     19  C   UNL A   1      35.632  21.431  25.329  1.00  0.00     0.023 C 
BRANCH  19  20
ATOM     20  C   UNL A   1      37.065  21.913  25.190  1.00  0.00     0.116 C 
BRANCH  20  21
ATOM     21  N   UNL A   1      38.078  20.882  25.417  1.00  0.00    -0.352 N 
ATOM     22  C   UNL A   1      39.285  20.994  26.074  1.00  0.00     0.251 C 
ATOM     23  H   UNL A   1      37.870  19.991  25.054  1.00  0.00     0.163 HD
ATOM     24  O   UNL A   1      40.072  20.056  26.118  1.00  0.00    -0.269 OA
BRANCH  22  25
ATOM     25  C   UNL A   1      39.632  22.299  26.663  1.00  0.00     0.039 A 
ATOM     26  C   UNL A   1      40.703  22.387  27.553  1.00  0.00     0.014 A 
ATOM     27  C   UNL A   1      38.996  23.445  26.187  1.00  0.00     0.014 A 
ATOM     28  C   UNL A   1      41.207  23.646  27.884  1.00  0.00     0.010 A 
ATOM     29  C   UNL A   1      39.590  24.676  26.399  1.00  0.00     0.010 A 
ATOM     30  C   UNL A   1      40.692  24.795  27.262  1.00  0.00    -0.014 A 
BRANCH  30  31
ATOM     31  C   UNL A   1      41.240  26.151  27.514  1.00  0.00     0.031 A 
ATOM     32  C   UNL A   1      42.617  26.480  27.004  1.00  0.00     0.074 A 
ATOM     33  C   UNL A   1      40.559  27.036  28.269  1.00  0.00     0.049 A 
ATOM     34  N   UNL A   1      43.364  27.524  27.247  1.00  0.00    -0.248 NA
ATOM     35  C   UNL A   1      43.258  25.472  26.143  1.00  0.00     0.031 C 
ATOM     36  C   UNL A   1      39.229  26.819  28.844  1.00  0.00     0.029 A 
ATOM     37  N   UNL A   1      40.898  28.296  28.696  1.00  0.00    -0.354 N 
ATOM     38  C   UNL A   1      44.566  27.283  26.593  1.00  0.00     0.074 A 
ATOM     39  C   UNL A   1      44.480  25.960  26.016  1.00  0.00     0.031 C 
ATOM     40  C   UNL A   1      38.855  27.918  29.519  1.00  0.00     0.029 A 
ATOM     41  C   UNL A   1      39.941  28.892  29.487  1.00  0.00     0.049 A 
ATOM     42  H   UNL A   1      41.748  28.733  28.460  1.00  0.00     0.167 HD
ATOM     43  C   UNL A   1      45.635  28.104  26.458  1.00  0.00     0.034 A 
ATOM     44  C   UNL A   1      39.950  30.077  30.130  1.00  0.00     0.034 A 
ATOM     45  C   UNL A   1      45.691  29.426  27.022  1.00  0.00     0.049 A 
ATOM     46  C   UNL A   1      41.174  30.954  30.010  1.00  0.00     0.074 A 
ATOM     47  C   UNL A   1      46.696  30.369  26.903  1.00  0.00     0.029 A 
ATOM     48  N   UNL A   1      44.705  29.992  27.821  1.00  0.00    -0.354 N 
ATOM     49  N   UNL A   1      42.287  30.733  29.348  1.00  0.00    -0.248 NA
ATOM     50  C   UNL A   1      41.143  32.240  30.720  1.00  0.00     0.031 C 
ATOM     51  C   UNL A   1      46.360  31.464  27.703  1.00  0.00     0.029 A 
ATOM     52  C   UNL A   1      45.099  31.252  28.238  1.00  0.00     0.049 A 
ATOM     53  H   UNL A   1      43.851  29.560  28.055  1.00  0.00     0.167 HD
ATOM     54  C   UNL A   1      43.073  31.868  29.534  1.00  0.00     0.074 A 
ATOM     55  C   UNL A   1      42.300  32.775  30.358  1.00  0.00     0.031 C 
ATOM     56  C   UNL A   1      44.316  32.140  29.065  1.00  0.00     0.034 A 
BRANCH  43  57
ATOM     57  C   UNL A   1      46.827  27.579  25.695  1.00  0.00     0.023 A 
ATOM     58  C   UNL A   1      47.103  27.992  24.379  1.00  0.00     0.031 A 
ATOM     59  C   UNL A   1      47.683  26.631  26.280  1.00  0.00     0.131 A 
ATOM     60  C   UNL A   1      48.155  27.398  23.666  1.00  0.00     0.055 A 
ATOM     61  C   UNL A   1      48.787  26.115  25.597  1.00  0.00     0.041 A 
ATOM     62  F   UNL A   1      47.453  26.175  27.521  1.00  0.00    -0.206 F 
ATOM     63  C   UNL A   1      49.018  26.487  24.276  1.00  0.00     0.022 A 
BRANCH  60  64
ATOM     64  S   UNL A   1      48.272  27.711  21.883  1.00  0.00     0.124 S 
ATOM     65  O   UNL A   1      48.446  26.359  21.358  1.00  0.00    -0.237 OA
ATOM     66  O   UNL A   1      46.995  28.352  21.592  1.00  0.00    -0.237 OA
ATOM     67  O   UNL A   1      49.447  28.573  21.765  1.00  0.00    -0.744 OA
ENDBRANCH  60  64
ENDBRANCH  43  57
BRANCH  44  68
ATOM     68  C   UNL A   1      38.786  30.502  30.962  1.00  0.00     0.023 A 
ATOM     69  C   UNL A   1      37.678  31.141  30.383  1.00  0.00     0.031 A 
ATOM     70  C   UNL A   1      38.784  30.326  32.358  1.00  0.00     0.131 A 
ATOM     71  C   UNL A   1      36.643  31.628  31.196  1.00  0.00     0.055 A 
ATOM     72  C   UNL A   1      37.720  30.751  33.157  1.00  0.00     0.041 A 
ATOM     73  F   UNL A   1      39.817  29.725  32.970  1.00  0.00    -0.206 F 
ATOM     74  C   UNL A   1      36.648  31.422  32.577  1.00  0.00     0.022 A 
BRANCH  71  75
ATOM     75  S   UNL A   1      35.344  32.640  30.434  1.00  0.00     0.124 S 
ATOM     76  O   UNL A   1      35.031  31.865  29.239  1.00  0.00    -0.237 OA
ATOM     77  O   UNL A   1      34.322  32.655  31.476  1.00  0.00    -0.237 OA
ATOM     78  O   UNL A   1      36.008  33.919  30.195  1.00  0.00    -0.744 OA
ENDBRANCH  71  75
ENDBRANCH  44  68
BRANCH  56  79
ATOM     79  C   UNL A   1      44.901  33.493  29.388  1.00  0.00     0.023 A 
ATOM     80  C   UNL A   1      44.609  34.631  28.617  1.00  0.00     0.031 A 
ATOM     81  C   UNL A   1      45.744  33.647  30.504  1.00  0.00     0.131 A 
ATOM     82  C   UNL A   1      45.195  35.862  28.944  1.00  0.00     0.055 A 
ATOM     83  C   UNL A   1      46.265  34.889  30.867  1.00  0.00     0.041 A 
ATOM     84  F   UNL A   1      46.061  32.593  31.273  1.00  0.00    -0.206 F 
ATOM     85  C   UNL A   1      46.001  36.004  30.078  1.00  0.00     0.022 A 
BRANCH  82  86
ATOM     86  S   UNL A   1      44.966  37.261  27.813  1.00  0.00     0.124 S 
ATOM     87  O   UNL A   1      43.814  36.827  27.029  1.00  0.00    -0.237 OA
ATOM     88  O   UNL A   1      44.731  38.371  28.730  1.00  0.00    -0.237 OA
ATOM     89  O   UNL A   1      46.229  37.320  27.080  1.00  0.00    -0.744 OA
ENDBRANCH  82  86
ENDBRANCH  56  79
ENDBRANCH  30  31
ENDBRANCH  22  25
ENDBRANCH  20  21
ENDBRANCH  19  20
ENDBRANCH   1  19
TORSDOF 18
ENDMDL
MODEL 3
REMARK VINA RESULT:     -10.7      5.893      8.965
REMARK SMILES COc1ccc([C@@H](C#N)CC(=O)NCCCCNC(=O)c2ccc(-c3c4nc(c(-c5cc(S(=O)(=O)[O-])ccc5F)c5ccc([nH]5)c(-c5cc(S(=O)(=O)[O-])ccc5F)c5nc(c(-c6cc(S(=O)(=O)[O-])ccc6F)c6ccc3[nH]6)C=C5)C=C4)cc2)cc1
REMARK SMILES IDX 15 1 14 2 13 3 11 4 12 5 10 7 7 8 6 9 3 10 4 11 85 12 5 13
REMARK SMILES IDX 84 14 2 15 1 16 8 17 9 18 16 19 17 20 18 21 19 22 20 24
REMARK SMILES IDX 21 25 22 26 83 27 23 28 82 29 24 30 25 31 26 32 76 33 27 34
REMARK SMILES IDX 81 35 75 36 77 37 28 38 80 39 74 40 73 41 29 43 61 44 41 45
REMARK SMILES IDX 60 46 42 47 45 48 59 49 78 50 43 51 44 52 58 54 79 55 46 56
REMARK SMILES IDX 30 57 31 58 39 59 32 60 38 61 40 62 37 63 33 64 34 65 35 66
REMARK SMILES IDX 36 67 62 68 63 69 71 70 64 71 70 72 72 73 69 74 65 75 66 76
REMARK SMILES IDX 67 77 68 78 47 79 48 80 56 81 49 82 55 83 57 84 54 85 50 86
REMARK SMILES IDX 51 87 52 88 53 89
REMARK H PARENT 13 6 18 23 77 42 45 53
REMARK Flexibility Score: inf
ROOT
ATOM      1  C   UNL A   1      35.526  21.163  25.566  1.00  0.00     0.023 C 
ENDROOT
BRANCH   1   2
ATOM      2  C   UNL A   1      34.386  21.535  24.627  1.00  0.00     0.116 C 
BRANCH   2   3
ATOM      3  N   UNL A   1      34.731  22.738  23.901  1.00  0.00    -0.356 N 
ATOM      4  C   UNL A   1      33.939  23.808  23.618  1.00  0.00     0.221 C 
ATOM      5  O   UNL A   1      34.306  24.603  22.752  1.00  0.00    -0.275 OA
ATOM      6  H   UNL A   1      35.657  22.789  23.569  1.00  0.00     0.163 HD
BRANCH   4   7
ATOM      7  C   UNL A   1      32.656  24.046  24.387  1.00  0.00     0.123 C 
BRANCH   7   8
ATOM      8  C   UNL A   1      32.881  24.478  25.850  1.00  0.00     0.132 C 
BRANCH   8   9
ATOM      9  C   UNL A   1      32.761  25.981  26.103  1.00  0.00    -0.030 A 
ATOM     10  C   UNL A   1      32.548  28.703  26.830  1.00  0.00     0.118 A 
ATOM     11  C   UNL A   1      33.739  28.209  26.294  1.00  0.00     0.047 A 
ATOM     12  C   UNL A   1      31.431  27.873  26.894  1.00  0.00     0.047 A 
ATOM     13  C   UNL A   1      33.848  26.859  25.932  1.00  0.00     0.009 A 
ATOM     14  C   UNL A   1      31.535  26.525  26.527  1.00  0.00     0.009 A 
BRANCH  10  15
ATOM     15  O   UNL A   1      32.583  29.991  27.285  1.00  0.00    -0.497 OA
ATOM     16  C   UNL A   1      31.771  30.910  26.549  1.00  0.00     0.278 C 
ENDBRANCH  10  15
ENDBRANCH   8   9
BRANCH   8  17
ATOM     17  C   UNL A   1      31.933  23.746  26.717  1.00  0.00     0.071 C 
ATOM     18  N   UNL A   1      31.208  23.146  27.402  1.00  0.00    -0.198 NA
ENDBRANCH   8  17
ENDBRANCH   7   8
ENDBRANCH   4   7
ENDBRANCH   2   3
ENDBRANCH   1   2
BRANCH   1  19
ATOM     19  C   UNL A   1      36.584  20.243  25.002  1.00  0.00     0.023 C 
BRANCH  19  20
ATOM     20  C   UNL A   1      37.988  20.813  25.100  1.00  0.00     0.116 C 
BRANCH  20  21
ATOM     21  N   UNL A   1      38.998  19.863  25.570  1.00  0.00    -0.352 N 
ATOM     22  C   UNL A   1      40.088  20.100  26.379  1.00  0.00     0.251 C 
ATOM     23  H   UNL A   1      38.882  18.933  25.270  1.00  0.00     0.163 HD
ATOM     24  O   UNL A   1      40.898  19.215  26.627  1.00  0.00    -0.269 OA
BRANCH  22  25
ATOM     25  C   UNL A   1      40.290  21.471  26.880  1.00  0.00     0.039 A 
ATOM     26  C   UNL A   1      41.254  21.707  27.862  1.00  0.00     0.014 A 
ATOM     27  C   UNL A   1      39.641  22.526  26.243  1.00  0.00     0.014 A 
ATOM     28  C   UNL A   1      41.642  23.021  28.128  1.00  0.00     0.010 A 
ATOM     29  C   UNL A   1      40.132  23.809  26.402  1.00  0.00     0.010 A 
ATOM     30  C   UNL A   1      41.128  24.076  27.357  1.00  0.00    -0.014 A 
BRANCH  30  31
ATOM     31  C   UNL A   1      41.562  25.483  27.541  1.00  0.00     0.031 A 
ATOM     32  C   UNL A   1      42.929  25.886  27.059  1.00  0.00     0.074 A 
ATOM     33  C   UNL A   1      40.786  26.358  28.213  1.00  0.00     0.049 A 
ATOM     34  N   UNL A   1      43.586  26.997  27.261  1.00  0.00    -0.248 NA
ATOM     35  C   UNL A   1      43.678  24.879  26.288  1.00  0.00     0.031 C 
ATOM     36  C   UNL A   1      39.455  26.074  28.753  1.00  0.00     0.029 A 
ATOM     37  N   UNL A   1      41.013  27.664  28.570  1.00  0.00    -0.354 N 
ATOM     38  C   UNL A   1      44.828  26.810  26.666  1.00  0.00     0.074 A 
ATOM     39  C   UNL A   1      44.864  25.451  26.173  1.00  0.00     0.031 C 
ATOM     40  C   UNL A   1      38.973  27.180  29.343  1.00  0.00     0.029 A 
ATOM     41  C   UNL A   1      39.983  28.232  29.286  1.00  0.00     0.049 A 
ATOM     42  H   UNL A   1      41.836  28.150  28.335  1.00  0.00     0.167 HD
ATOM     43  C   UNL A   1      45.837  27.701  26.517  1.00  0.00     0.034 A 
ATOM     44  C   UNL A   1      39.878  29.451  29.852  1.00  0.00     0.034 A 
ATOM     45  C   UNL A   1      45.771  29.056  26.996  1.00  0.00     0.049 A 
ATOM     46  C   UNL A   1      41.036  30.411  29.718  1.00  0.00     0.074 A 
ATOM     47  C   UNL A   1      46.707  30.064  26.852  1.00  0.00     0.029 A 
ATOM     48  N   UNL A   1      44.715  29.592  27.721  1.00  0.00    -0.354 N 
ATOM     49  N   UNL A   1      42.189  30.237  29.112  1.00  0.00    -0.248 NA
ATOM     50  C   UNL A   1      40.882  31.732  30.342  1.00  0.00     0.031 C 
ATOM     51  C   UNL A   1      46.258  31.178  27.567  1.00  0.00     0.029 A 
ATOM     52  C   UNL A   1      44.997  30.901  28.070  1.00  0.00     0.049 A 
ATOM     53  H   UNL A   1      43.887  29.111  27.953  1.00  0.00     0.167 HD
ATOM     54  C   UNL A   1      42.879  31.438  29.252  1.00  0.00     0.074 A 
ATOM     55  C   UNL A   1      42.008  32.331  29.988  1.00  0.00     0.031 C 
ATOM     56  C   UNL A   1      44.117  31.776  28.810  1.00  0.00     0.034 A 
BRANCH  43  57
ATOM     57  C   UNL A   1      47.094  27.224  25.831  1.00  0.00     0.023 A 
ATOM     58  C   UNL A   1      48.094  26.520  26.525  1.00  0.00     0.031 A 
ATOM     59  C   UNL A   1      47.310  27.501  24.470  1.00  0.00     0.131 A 
ATOM     60  C   UNL A   1      49.295  26.192  25.879  1.00  0.00     0.055 A 
ATOM     61  C   UNL A   1      48.467  27.086  23.809  1.00  0.00     0.041 A 
ATOM     62  F   UNL A   1      46.406  28.197  23.762  1.00  0.00    -0.206 F 
ATOM     63  C   UNL A   1      49.475  26.441  24.518  1.00  0.00     0.022 A 
BRANCH  60  64
ATOM     64  S   UNL A   1      50.677  25.586  26.886  1.00  0.00     0.124 S 
ATOM     65  O   UNL A   1      51.652  25.223  25.859  1.00  0.00    -0.237 OA
ATOM     66  O   UNL A   1      51.009  26.751  27.699  1.00  0.00    -0.237 OA
ATOM     67  O   UNL A   1      50.101  24.457  27.613  1.00  0.00    -0.744 OA
ENDBRANCH  60  64
ENDBRANCH  43  57
BRANCH  44  68
ATOM     68  C   UNL A   1      38.653  29.836  30.613  1.00  0.00     0.023 A 
ATOM     69  C   UNL A   1      37.664  30.643  30.030  1.00  0.00     0.031 A 
ATOM     70  C   UNL A   1      38.476  29.448  31.954  1.00  0.00     0.131 A 
ATOM     71  C   UNL A   1      36.572  31.081  30.798  1.00  0.00     0.055 A 
ATOM     72  C   UNL A   1      37.354  29.829  32.693  1.00  0.00     0.041 A 
ATOM     73  F   UNL A   1      39.390  28.678  32.567  1.00  0.00    -0.206 F 
ATOM     74  C   UNL A   1      36.401  30.665  32.119  1.00  0.00     0.022 A 
BRANCH  71  75
ATOM     75  S   UNL A   1      35.437  32.298  30.075  1.00  0.00     0.124 S 
ATOM     76  O   UNL A   1      35.007  31.616  28.861  1.00  0.00    -0.237 OA
ATOM     77  O   UNL A   1      34.434  32.436  31.125  1.00  0.00    -0.237 OA
ATOM     78  O   UNL A   1      36.286  33.470  29.868  1.00  0.00    -0.744 OA
ENDBRANCH  71  75
ENDBRANCH  44  68
BRANCH  56  79
ATOM     79  C   UNL A   1      44.585  33.187  29.066  1.00  0.00     0.023 A 
ATOM     80  C   UNL A   1      45.333  33.525  30.206  1.00  0.00     0.031 A 
ATOM     81  C   UNL A   1      44.297  34.204  28.137  1.00  0.00     0.131 A 
ATOM     82  C   UNL A   1      45.726  34.856  30.412  1.00  0.00     0.055 A 
ATOM     83  C   UNL A   1      44.752  35.510  28.311  1.00  0.00     0.041 A 
ATOM     84  F   UNL A   1      43.580  33.939  27.033  1.00  0.00    -0.206 F 
ATOM     85  C   UNL A   1      45.463  35.845  29.460  1.00  0.00     0.022 A 
BRANCH  82  86
ATOM     86  S   UNL A   1      46.508  35.297  31.988  1.00  0.00     0.124 S 
ATOM     87  O   UNL A   1      45.427  35.056  32.937  1.00  0.00    -0.237 OA
ATOM     88  O   UNL A   1      47.631  34.369  32.051  1.00  0.00    -0.237 OA
ATOM     89  O   UNL A   1      46.873  36.701  31.807  1.00  0.00    -0.744 OA
ENDBRANCH  82  86
ENDBRANCH  56  79
ENDBRANCH  30  31
ENDBRANCH  22  25
ENDBRANCH  20  21
ENDBRANCH  19  20
ENDBRANCH   1  19
TORSDOF 18
ENDMDL
