MODEL 1
REMARK VINA RESULT:     -12.0      0.000      0.000
REMARK SMILES CC1(C)CCSC[C@]1(Nc1ccccc1Br)C(=O)NCCCCNC(=O)c1ccc(-c2c3nc(c(-c4cc(S(=O)(=O)[O-])ccc4F)c4ccc([nH]4)c(-c4cc(S(=O)(=O)[O-])ccc4F)c4nc(c(-c5cc(S(=O)(=O)[O-])ccc5F)c5ccc2[nH]5)C=C4)C=C3)cc1
REMARK SMILES IDX 22 1 21 2 20 3 19 4 17 5 18 6 8 8 1 9 2 10 3 11 4 12 5 13
REMARK SMILES IDX 7 14 6 15 9 16 10 18 11 19 15 20 12 21 14 22 16 23 13 24
REMARK SMILES IDX 23 25 24 26 25 27 26 29 27 30 28 31 89 32 29 33 88 34 30 35
REMARK SMILES IDX 31 36 32 37 82 38 33 39 87 40 81 41 83 42 34 43 86 44 80 45
REMARK SMILES IDX 79 46 35 48 67 49 47 50 66 51 48 52 51 53 65 54 84 55 49 56
REMARK SMILES IDX 50 57 64 59 85 60 52 61 36 62 37 63 45 64 38 65 44 66 46 67
REMARK SMILES IDX 43 68 39 69 40 70 41 71 42 72 68 73 69 74 77 75 70 76 76 77
REMARK SMILES IDX 78 78 75 79 71 80 72 81 73 82 74 83 53 84 54 85 62 86 55 87
REMARK SMILES IDX 61 88 63 89 60 90 56 91 57 92 58 93 59 94
REMARK H PARENT 19 7 9 17 24 28 83 47 51 58
REMARK Flexibility Score: inf
ROOT
ATOM      1  C   UNL A   1      31.575  29.162  25.960  1.00  0.00     0.023 C 
ENDROOT
BRANCH   1   2
ATOM      2  C   UNL A   1      31.471  27.926  26.840  1.00  0.00     0.023 C 
BRANCH   2   3
ATOM      3  C   UNL A   1      32.364  26.764  26.406  1.00  0.00     0.116 C 
BRANCH   3   4
ATOM      4  N   UNL A   1      31.890  25.499  26.924  1.00  0.00    -0.354 N 
ATOM      5  C   UNL A   1      31.928  24.225  26.440  1.00  0.00     0.247 C 
ATOM      6  O   UNL A   1      31.493  23.383  27.237  1.00  0.00    -0.272 OA
ATOM      7  H   UNL A   1      31.451  25.573  27.802  1.00  0.00     0.163 HD
BRANCH   5   8
ATOM      8  C   UNL A   1      32.407  23.810  24.985  1.00  0.00     0.131 C 
ATOM      9  C   UNL A   1      33.341  21.856  23.467  1.00  0.00     0.014 C 
ATOM     10  C   UNL A   1      32.838  22.255  24.887  1.00  0.00    -0.002 C 
ATOM     11  C   UNL A   1      31.722  21.233  25.173  1.00  0.00     0.014 C 
ATOM     12  C   UNL A   1      33.954  21.951  25.929  1.00  0.00     0.020 C 
ATOM     13  C   UNL A   1      35.307  22.568  25.629  1.00  0.00     0.070 C 
ATOM     14  C   UNL A   1      33.688  24.653  24.627  1.00  0.00     0.108 C 
ATOM     15  S   UNL A   1      35.285  24.361  25.486  1.00  0.00    -0.159 SA
BRANCH   8  16
ATOM     16  N   UNL A   1      31.372  24.111  23.932  1.00  0.00    -0.369 N 
ATOM     17  H   UNL A   1      31.014  23.312  23.481  1.00  0.00     0.161 HD
BRANCH  16  18
ATOM     18  C   UNL A   1      30.830  25.310  23.482  1.00  0.00     0.049 A 
ATOM     19  C   UNL A   1      29.625  25.696  24.121  1.00  0.00     0.027 A 
ATOM     20  C   UNL A   1      31.353  26.238  22.560  1.00  0.00     0.041 A 
ATOM     21  C   UNL A   1      29.023  26.945  23.923  1.00  0.00     0.002 A 
ATOM     22  C   UNL A   1      30.742  27.492  22.357  1.00  0.00     0.018 A 
ATOM     23  Br  UNL A   1      32.780  25.909  21.357  1.00  0.00    -0.049 Br
ATOM     24  C   UNL A   1      29.594  27.853  23.049  1.00  0.00     0.001 A 
ENDBRANCH  16  18
ENDBRANCH   8  16
ENDBRANCH   5   8
ENDBRANCH   3   4
ENDBRANCH   2   3
ENDBRANCH   1   2
BRANCH   1  25
ATOM     25  C   UNL A   1      32.776  30.047  26.254  1.00  0.00     0.116 C 
BRANCH  25  26
ATOM     26  N   UNL A   1      32.413  31.410  26.628  1.00  0.00    -0.352 N 
ATOM     27  C   UNL A   1      33.152  32.302  27.372  1.00  0.00     0.251 C 
ATOM     28  H   UNL A   1      31.539  31.731  26.309  1.00  0.00     0.163 HD
ATOM     29  O   UNL A   1      32.689  33.390  27.701  1.00  0.00    -0.269 OA
BRANCH  27  30
ATOM     30  C   UNL A   1      34.501  31.886  27.796  1.00  0.00     0.039 A 
ATOM     31  C   UNL A   1      35.528  32.830  27.845  1.00  0.00     0.014 A 
ATOM     32  C   UNL A   1      34.686  30.595  28.297  1.00  0.00     0.014 A 
ATOM     33  C   UNL A   1      36.725  32.504  28.485  1.00  0.00     0.010 A 
ATOM     34  C   UNL A   1      35.841  30.306  29.009  1.00  0.00     0.010 A 
ATOM     35  C   UNL A   1      36.871  31.257  29.113  1.00  0.00    -0.014 A 
BRANCH  35  36
ATOM     36  C   UNL A   1      38.095  30.881  29.865  1.00  0.00     0.031 A 
ATOM     37  C   UNL A   1      39.054  29.908  29.235  1.00  0.00     0.074 A 
ATOM     38  C   UNL A   1      38.280  31.300  31.132  1.00  0.00     0.049 A 
ATOM     39  N   UNL A   1      40.035  29.239  29.777  1.00  0.00    -0.248 NA
ATOM     40  C   UNL A   1      38.828  29.610  27.812  1.00  0.00     0.031 C 
ATOM     41  C   UNL A   1      37.404  32.218  31.863  1.00  0.00     0.029 A 
ATOM     42  N   UNL A   1      39.259  30.984  32.042  1.00  0.00    -0.354 N 
ATOM     43  C   UNL A   1      40.509  28.397  28.774  1.00  0.00     0.074 A 
ATOM     44  C   UNL A   1      39.670  28.609  27.615  1.00  0.00     0.031 C 
ATOM     45  C   UNL A   1      37.892  32.399  33.102  1.00  0.00     0.029 A 
ATOM     46  C   UNL A   1      39.081  31.571  33.273  1.00  0.00     0.049 A 
ATOM     47  H   UNL A   1      40.017  30.391  31.833  1.00  0.00     0.167 HD
ATOM     48  C   UNL A   1      41.559  27.539  28.816  1.00  0.00     0.034 A 
ATOM     49  C   UNL A   1      39.786  31.436  34.415  1.00  0.00     0.034 A 
ATOM     50  C   UNL A   1      42.411  27.384  29.967  1.00  0.00     0.049 A 
ATOM     51  C   UNL A   1      40.974  30.506  34.430  1.00  0.00     0.074 A 
ATOM     52  C   UNL A   1      43.534  26.589  30.112  1.00  0.00     0.029 A 
ATOM     53  N   UNL A   1      42.240  28.053  31.173  1.00  0.00    -0.354 N 
ATOM     54  N   UNL A   1      41.419  29.723  33.474  1.00  0.00    -0.248 NA
ATOM     55  C   UNL A   1      41.759  30.448  35.671  1.00  0.00     0.031 C 
ATOM     56  C   UNL A   1      44.018  26.748  31.415  1.00  0.00     0.029 A 
ATOM     57  C   UNL A   1      43.233  27.687  32.065  1.00  0.00     0.049 A 
ATOM     58  H   UNL A   1      41.517  28.695  31.365  1.00  0.00     0.167 HD
ATOM     59  C   UNL A   1      42.557  29.108  33.988  1.00  0.00     0.074 A 
ATOM     60  C   UNL A   1      42.729  29.609  35.337  1.00  0.00     0.031 C 
ATOM     61  C   UNL A   1      43.391  28.217  33.397  1.00  0.00     0.034 A 
BRANCH  48  62
ATOM     62  C   UNL A   1      41.811  26.700  27.589  1.00  0.00     0.023 A 
ATOM     63  C   UNL A   1      41.388  25.361  27.512  1.00  0.00     0.031 A 
ATOM     64  C   UNL A   1      42.543  27.221  26.507  1.00  0.00     0.131 A 
ATOM     65  C   UNL A   1      41.785  24.563  26.430  1.00  0.00     0.055 A 
ATOM     66  C   UNL A   1      42.853  26.446  25.388  1.00  0.00     0.041 A 
ATOM     67  F   UNL A   1      42.991  28.486  26.531  1.00  0.00    -0.206 F 
ATOM     68  C   UNL A   1      42.492  25.102  25.354  1.00  0.00     0.022 A 
BRANCH  65  69
ATOM     69  S   UNL A   1      41.510  22.773  26.534  1.00  0.00     0.124 S 
ATOM     70  O   UNL A   1      42.173  22.449  27.796  1.00  0.00    -0.237 OA
ATOM     71  O   UNL A   1      40.055  22.675  26.536  1.00  0.00    -0.237 OA
ATOM     72  O   UNL A   1      42.170  22.255  25.339  1.00  0.00    -0.744 OA
ENDBRANCH  65  69
ENDBRANCH  48  62
BRANCH  49  73
ATOM     73  C   UNL A   1      39.392  32.185  35.642  1.00  0.00     0.023 A 
ATOM     74  C   UNL A   1      38.600  31.579  36.631  1.00  0.00     0.031 A 
ATOM     75  C   UNL A   1      39.769  33.526  35.828  1.00  0.00     0.131 A 
ATOM     76  C   UNL A   1      38.175  32.325  37.741  1.00  0.00     0.055 A 
ATOM     77  C   UNL A   1      39.379  34.251  36.955  1.00  0.00     0.041 A 
ATOM     78  F   UNL A   1      40.533  34.149  34.917  1.00  0.00    -0.206 F 
ATOM     79  C   UNL A   1      38.567  33.654  37.915  1.00  0.00     0.022 A 
BRANCH  76  80
ATOM     80  S   UNL A   1      37.036  31.550  38.922  1.00  0.00     0.124 S 
ATOM     81  O   UNL A   1      37.806  31.608  40.159  1.00  0.00    -0.237 OA
ATOM     82  O   UNL A   1      35.876  32.431  38.845  1.00  0.00    -0.237 OA
ATOM     83  O   UNL A   1      36.837  30.211  38.373  1.00  0.00    -0.744 OA
ENDBRANCH  76  80
ENDBRANCH  49  73
BRANCH  61  84
ATOM     84  C   UNL A   1      44.608  27.792  34.176  1.00  0.00     0.023 A 
ATOM     85  C   UNL A   1      44.596  26.671  35.021  1.00  0.00     0.031 A 
ATOM     86  C   UNL A   1      45.805  28.516  34.042  1.00  0.00     0.131 A 
ATOM     87  C   UNL A   1      45.757  26.323  35.728  1.00  0.00     0.055 A 
ATOM     88  C   UNL A   1      46.967  28.141  34.714  1.00  0.00     0.041 A 
ATOM     89  F   UNL A   1      45.865  29.595  33.243  1.00  0.00    -0.206 F 
ATOM     90  C   UNL A   1      46.945  27.043  35.569  1.00  0.00     0.022 A 
BRANCH  87  91
ATOM     91  S   UNL A   1      45.686  24.938  36.895  1.00  0.00     0.124 S 
ATOM     92  O   UNL A   1      46.557  25.401  37.969  1.00  0.00    -0.237 OA
ATOM     93  O   UNL A   1      44.263  24.868  37.214  1.00  0.00    -0.237 OA
ATOM     94  O   UNL A   1      46.201  23.810  36.121  1.00  0.00    -0.744 OA
ENDBRANCH  87  91
ENDBRANCH  61  84
ENDBRANCH  35  36
ENDBRANCH  27  30
ENDBRANCH  25  26
ENDBRANCH   1  25
TORSDOF 16
ENDMDL
MODEL 2
REMARK VINA RESULT:     -11.9      1.426      1.693
REMARK SMILES CC1(C)CCSC[C@]1(Nc1ccccc1Br)C(=O)NCCCCNC(=O)c1ccc(-c2c3nc(c(-c4cc(S(=O)(=O)[O-])ccc4F)c4ccc([nH]4)c(-c4cc(S(=O)(=O)[O-])ccc4F)c4nc(c(-c5cc(S(=O)(=O)[O-])ccc5F)c5ccc2[nH]5)C=C4)C=C3)cc1
REMARK SMILES IDX 22 1 21 2 20 3 19 4 17 5 18 6 8 8 1 9 2 10 3 11 4 12 5 13
REMARK SMILES IDX 7 14 6 15 9 16 10 18 11 19 15 20 12 21 14 22 16 23 13 24
REMARK SMILES IDX 23 25 24 26 25 27 26 29 27 30 28 31 89 32 29 33 88 34 30 35
REMARK SMILES IDX 31 36 32 37 82 38 33 39 87 40 81 41 83 42 34 43 86 44 80 45
REMARK SMILES IDX 79 46 35 48 67 49 47 50 66 51 48 52 51 53 65 54 84 55 49 56
REMARK SMILES IDX 50 57 64 59 85 60 52 61 36 62 37 63 45 64 38 65 44 66 46 67
REMARK SMILES IDX 43 68 39 69 40 70 41 71 42 72 68 73 69 74 77 75 70 76 76 77
REMARK SMILES IDX 78 78 75 79 71 80 72 81 73 82 74 83 53 84 54 85 62 86 55 87
REMARK SMILES IDX 61 88 63 89 60 90 56 91 57 92 58 93 59 94
REMARK H PARENT 19 7 9 17 24 28 83 47 51 58
REMARK Flexibility Score: inf
ROOT
ATOM      1  C   UNL A   1      31.476  29.102  26.364  1.00  0.00     0.023 C 
ENDROOT
BRANCH   1   2
ATOM      2  C   UNL A   1      31.931  27.936  27.228  1.00  0.00     0.023 C 
BRANCH   2   3
ATOM      3  C   UNL A   1      32.479  26.743  26.444  1.00  0.00     0.116 C 
BRANCH   3   4
ATOM      4  N   UNL A   1      31.977  25.487  26.955  1.00  0.00    -0.354 N 
ATOM      5  C   UNL A   1      31.980  24.216  26.462  1.00  0.00     0.247 C 
ATOM      6  O   UNL A   1      31.528  23.379  27.256  1.00  0.00    -0.272 OA
ATOM      7  H   UNL A   1      31.545  25.566  27.836  1.00  0.00     0.163 HD
BRANCH   5   8
ATOM      8  C   UNL A   1      32.441  23.800  25.001  1.00  0.00     0.131 C 
ATOM      9  C   UNL A   1      33.347  21.843  23.472  1.00  0.00     0.014 C 
ATOM     10  C   UNL A   1      32.862  22.243  24.898  1.00  0.00    -0.002 C 
ATOM     11  C   UNL A   1      31.745  21.226  25.195  1.00  0.00     0.014 C 
ATOM     12  C   UNL A   1      33.988  21.933  25.927  1.00  0.00     0.020 C 
ATOM     13  C   UNL A   1      35.341  22.542  25.612  1.00  0.00     0.070 C 
ATOM     14  C   UNL A   1      33.722  24.637  24.629  1.00  0.00     0.108 C 
ATOM     15  S   UNL A   1      35.327  24.336  25.470  1.00  0.00    -0.159 SA
BRANCH   8  16
ATOM     16  N   UNL A   1      31.396  24.107  23.960  1.00  0.00    -0.369 N 
ATOM     17  H   UNL A   1      31.010  23.309  23.531  1.00  0.00     0.161 HD
BRANCH  16  18
ATOM     18  C   UNL A   1      30.876  25.310  23.497  1.00  0.00     0.049 A 
ATOM     19  C   UNL A   1      29.735  25.776  24.198  1.00  0.00     0.027 A 
ATOM     20  C   UNL A   1      31.373  26.176  22.504  1.00  0.00     0.041 A 
ATOM     21  C   UNL A   1      29.174  27.042  23.987  1.00  0.00     0.002 A 
ATOM     22  C   UNL A   1      30.804  27.448  22.288  1.00  0.00     0.018 A 
ATOM     23  Br  UNL A   1      32.699  25.736  21.223  1.00  0.00    -0.049 Br
ATOM     24  C   UNL A   1      29.722  27.889  23.039  1.00  0.00     0.001 A 
ENDBRANCH  16  18
ENDBRANCH   8  16
ENDBRANCH   5   8
ENDBRANCH   3   4
ENDBRANCH   2   3
ENDBRANCH   1   2
BRANCH   1  25
ATOM     25  C   UNL A   1      32.536  30.167  26.131  1.00  0.00     0.116 C 
BRANCH  25  26
ATOM     26  N   UNL A   1      32.119  31.501  26.549  1.00  0.00    -0.352 N 
ATOM     27  C   UNL A   1      32.817  32.393  27.331  1.00  0.00     0.251 C 
ATOM     28  H   UNL A   1      31.236  31.799  26.233  1.00  0.00     0.163 HD
ATOM     29  O   UNL A   1      32.311  33.450  27.692  1.00  0.00    -0.269 OA
BRANCH  27  30
ATOM     30  C   UNL A   1      34.177  32.013  27.753  1.00  0.00     0.039 A 
ATOM     31  C   UNL A   1      35.169  32.992  27.838  1.00  0.00     0.014 A 
ATOM     32  C   UNL A   1      34.405  30.716  28.217  1.00  0.00     0.014 A 
ATOM     33  C   UNL A   1      36.373  32.690  28.477  1.00  0.00     0.010 A 
ATOM     34  C   UNL A   1      35.565  30.447  28.929  1.00  0.00     0.010 A 
ATOM     35  C   UNL A   1      36.559  31.431  29.070  1.00  0.00    -0.014 A 
BRANCH  35  36
ATOM     36  C   UNL A   1      37.791  31.077  29.820  1.00  0.00     0.031 A 
ATOM     37  C   UNL A   1      38.739  30.079  29.214  1.00  0.00     0.074 A 
ATOM     38  C   UNL A   1      37.992  31.540  31.069  1.00  0.00     0.049 A 
ATOM     39  N   UNL A   1      39.724  29.425  29.767  1.00  0.00    -0.248 NA
ATOM     40  C   UNL A   1      38.495  29.732  27.805  1.00  0.00     0.031 C 
ATOM     41  C   UNL A   1      37.128  32.487  31.778  1.00  0.00     0.029 A 
ATOM     42  N   UNL A   1      38.981  31.252  31.977  1.00  0.00    -0.354 N 
ATOM     43  C   UNL A   1      40.184  28.547  28.789  1.00  0.00     0.074 A 
ATOM     44  C   UNL A   1      39.331  28.721  27.633  1.00  0.00     0.031 C 
ATOM     45  C   UNL A   1      37.632  32.709  33.004  1.00  0.00     0.029 A 
ATOM     46  C   UNL A   1      38.820  31.883  33.190  1.00  0.00     0.049 A 
ATOM     47  H   UNL A   1      39.734  30.650  31.781  1.00  0.00     0.167 HD
ATOM     48  C   UNL A   1      41.230  27.687  28.849  1.00  0.00     0.034 A 
ATOM     49  C   UNL A   1      39.538  31.786  34.327  1.00  0.00     0.034 A 
ATOM     50  C   UNL A   1      42.096  27.570  29.995  1.00  0.00     0.049 A 
ATOM     51  C   UNL A   1      40.723  30.853  34.361  1.00  0.00     0.074 A 
ATOM     52  C   UNL A   1      43.218  26.775  30.154  1.00  0.00     0.029 A 
ATOM     53  N   UNL A   1      41.941  28.281  31.178  1.00  0.00    -0.354 N 
ATOM     54  N   UNL A   1      41.154  30.034  33.428  1.00  0.00    -0.248 NA
ATOM     55  C   UNL A   1      41.522  30.835  35.594  1.00  0.00     0.031 C 
ATOM     56  C   UNL A   1      43.718  26.979  31.445  1.00  0.00     0.029 A 
ATOM     57  C   UNL A   1      42.944  27.943  32.071  1.00  0.00     0.049 A 
ATOM     58  H   UNL A   1      41.223  28.932  31.355  1.00  0.00     0.167 HD
ATOM     59  C   UNL A   1      42.296  29.433  33.950  1.00  0.00     0.074 A 
ATOM     60  C   UNL A   1      42.486  29.981  35.278  1.00  0.00     0.031 C 
ATOM     61  C   UNL A   1      43.120  28.519  33.381  1.00  0.00     0.034 A 
BRANCH  48  62
ATOM     62  C   UNL A   1      41.465  26.803  27.649  1.00  0.00     0.023 A 
ATOM     63  C   UNL A   1      41.032  25.466  27.623  1.00  0.00     0.031 A 
ATOM     64  C   UNL A   1      42.189  27.282  26.543  1.00  0.00     0.131 A 
ATOM     65  C   UNL A   1      41.414  24.628  26.566  1.00  0.00     0.055 A 
ATOM     66  C   UNL A   1      42.484  26.467  25.448  1.00  0.00     0.041 A 
ATOM     67  F   UNL A   1      42.646  28.544  26.519  1.00  0.00    -0.206 F 
ATOM     68  C   UNL A   1      42.113  25.124  25.465  1.00  0.00     0.022 A 
BRANCH  65  69
ATOM     69  S   UNL A   1      41.128  22.845  26.735  1.00  0.00     0.124 S 
ATOM     70  O   UNL A   1      42.020  22.307  25.709  1.00  0.00    -0.237 OA
ATOM     71  O   UNL A   1      41.519  22.591  28.117  1.00  0.00    -0.237 OA
ATOM     72  O   UNL A   1      39.703  22.698  26.451  1.00  0.00    -0.744 OA
ENDBRANCH  65  69
ENDBRANCH  48  62
BRANCH  49  73
ATOM     73  C   UNL A   1      39.162  32.579  35.531  1.00  0.00     0.023 A 
ATOM     74  C   UNL A   1      39.650  33.883  35.716  1.00  0.00     0.031 A 
ATOM     75  C   UNL A   1      38.339  32.035  36.533  1.00  0.00     0.131 A 
ATOM     76  C   UNL A   1      39.348  34.584  36.893  1.00  0.00     0.055 A 
ATOM     77  C   UNL A   1      38.005  32.753  37.683  1.00  0.00     0.041 A 
ATOM     78  F   UNL A   1      37.838  30.796  36.401  1.00  0.00    -0.206 F 
ATOM     79  C   UNL A   1      38.521  34.032  37.874  1.00  0.00     0.022 A 
BRANCH  76  80
ATOM     80  S   UNL A   1      40.115  36.206  37.157  1.00  0.00     0.124 S 
ATOM     81  O   UNL A   1      39.915  36.844  35.861  1.00  0.00    -0.237 OA
ATOM     82  O   UNL A   1      39.325  36.737  38.263  1.00  0.00    -0.237 OA
ATOM     83  O   UNL A   1      41.500  35.878  37.484  1.00  0.00    -0.744 OA
ENDBRANCH  76  80
ENDBRANCH  49  73
BRANCH  61  84
ATOM     84  C   UNL A   1      44.344  28.118  34.160  1.00  0.00     0.023 A 
ATOM     85  C   UNL A   1      44.352  26.999  35.009  1.00  0.00     0.031 A 
ATOM     86  C   UNL A   1      45.529  28.861  34.022  1.00  0.00     0.131 A 
ATOM     87  C   UNL A   1      45.519  26.673  35.716  1.00  0.00     0.055 A 
ATOM     88  C   UNL A   1      46.698  28.508  34.694  1.00  0.00     0.041 A 
ATOM     89  F   UNL A   1      45.570  29.937  33.219  1.00  0.00    -0.206 F 
ATOM     90  C   UNL A   1      46.695  27.412  35.553  1.00  0.00     0.022 A 
BRANCH  87  91
ATOM     91  S   UNL A   1      45.473  25.291  36.888  1.00  0.00     0.124 S 
ATOM     92  O   UNL A   1      44.189  25.497  37.550  1.00  0.00    -0.237 OA
ATOM     93  O   UNL A   1      45.557  24.130  36.008  1.00  0.00    -0.237 OA
ATOM     94  O   UNL A   1      46.648  25.515  37.729  1.00  0.00    -0.744 OA
ENDBRANCH  87  91
ENDBRANCH  61  84
ENDBRANCH  35  36
ENDBRANCH  27  30
ENDBRANCH  25  26
ENDBRANCH   1  25
TORSDOF 16
ENDMDL
MODEL 3
REMARK VINA RESULT:     -11.9      5.047      7.747
REMARK SMILES CC1(C)CCSC[C@]1(Nc1ccccc1Br)C(=O)NCCCCNC(=O)c1ccc(-c2c3nc(c(-c4cc(S(=O)(=O)[O-])ccc4F)c4ccc([nH]4)c(-c4cc(S(=O)(=O)[O-])ccc4F)c4nc(c(-c5cc(S(=O)(=O)[O-])ccc5F)c5ccc2[nH]5)C=C4)C=C3)cc1
REMARK SMILES IDX 22 1 21 2 20 3 19 4 17 5 18 6 8 8 1 9 2 10 3 11 4 12 5 13
REMARK SMILES IDX 7 14 6 15 9 16 10 18 11 19 15 20 12 21 14 22 16 23 13 24
REMARK SMILES IDX 23 25 24 26 25 27 26 29 27 30 28 31 89 32 29 33 88 34 30 35
REMARK SMILES IDX 31 36 32 37 82 38 33 39 87 40 81 41 83 42 34 43 86 44 80 45
REMARK SMILES IDX 79 46 35 48 67 49 47 50 66 51 48 52 51 53 65 54 84 55 49 56
REMARK SMILES IDX 50 57 64 59 85 60 52 61 36 62 37 63 45 64 38 65 44 66 46 67
REMARK SMILES IDX 43 68 39 69 40 70 41 71 42 72 68 73 69 74 77 75 70 76 76 77
REMARK SMILES IDX 78 78 75 79 71 80 72 81 73 82 74 83 53 84 54 85 62 86 55 87
REMARK SMILES IDX 61 88 63 89 60 90 56 91 57 92 58 93 59 94
REMARK H PARENT 19 7 9 17 24 28 83 47 51 58
REMARK Flexibility Score: inf
ROOT
ATOM      1  C   UNL A   1      36.713  21.862  24.253  1.00  0.00     0.023 C 
ENDROOT
BRANCH   1   2
ATOM      2  C   UNL A   1      36.524  23.258  23.680  1.00  0.00     0.023 C 
BRANCH   2   3
ATOM      3  C   UNL A   1      35.357  24.038  24.288  1.00  0.00     0.116 C 
BRANCH   3   4
ATOM      4  N   UNL A   1      34.345  24.348  23.301  1.00  0.00    -0.354 N 
ATOM      5  C   UNL A   1      33.052  24.769  23.397  1.00  0.00     0.247 C 
ATOM      6  O   UNL A   1      32.534  25.020  22.300  1.00  0.00    -0.272 OA
ATOM      7  H   UNL A   1      34.652  24.230  22.373  1.00  0.00     0.163 HD
BRANCH   5   8
ATOM      8  C   UNL A   1      32.222  24.880  24.744  1.00  0.00     0.131 C 
ATOM      9  C   UNL A   1      30.178  26.036  25.962  1.00  0.00     0.014 C 
ATOM     10  C   UNL A   1      30.973  25.900  24.628  1.00  0.00    -0.002 C 
ATOM     11  C   UNL A   1      29.891  25.518  23.602  1.00  0.00     0.014 C 
ATOM     12  C   UNL A   1      31.481  27.305  24.190  1.00  0.00     0.020 C 
ATOM     13  C   UNL A   1      32.279  28.061  25.235  1.00  0.00     0.070 C 
ATOM     14  C   UNL A   1      33.169  25.456  25.864  1.00  0.00     0.108 C 
ATOM     15  S   UNL A   1      33.750  27.198  25.808  1.00  0.00    -0.159 SA
BRANCH   8  16
ATOM     16  N   UNL A   1      31.731  23.540  25.229  1.00  0.00    -0.369 N 
ATOM     17  H   UNL A   1      30.863  23.574  25.692  1.00  0.00     0.161 HD
BRANCH  16  18
ATOM     18  C   UNL A   1      32.279  22.266  25.140  1.00  0.00     0.049 A 
ATOM     19  C   UNL A   1      31.908  21.536  23.982  1.00  0.00     0.027 A 
ATOM     20  C   UNL A   1      33.221  21.636  25.977  1.00  0.00     0.041 A 
ATOM     21  C   UNL A   1      32.487  20.309  23.635  1.00  0.00     0.002 A 
ATOM     22  C   UNL A   1      33.798  20.398  25.631  1.00  0.00     0.018 A 
ATOM     23  Br  UNL A   1      33.710  22.217  27.714  1.00  0.00    -0.049 Br
ATOM     24  C   UNL A   1      33.449  19.745  24.456  1.00  0.00     0.001 A 
ENDBRANCH  16  18
ENDBRANCH   8  16
ENDBRANCH   5   8
ENDBRANCH   3   4
ENDBRANCH   2   3
ENDBRANCH   1   2
BRANCH   1  25
ATOM     25  C   UNL A   1      37.302  21.829  25.654  1.00  0.00     0.116 C 
BRANCH  25  26
ATOM     26  N   UNL A   1      38.433  20.917  25.786  1.00  0.00    -0.352 N 
ATOM     27  C   UNL A   1      39.687  21.198  26.280  1.00  0.00     0.251 C 
ATOM     28  H   UNL A   1      38.282  19.991  25.487  1.00  0.00     0.163 HD
ATOM     29  O   UNL A   1      40.584  20.362  26.246  1.00  0.00    -0.269 OA
BRANCH  27  30
ATOM     30  C   UNL A   1      39.923  22.552  26.812  1.00  0.00     0.039 A 
ATOM     31  C   UNL A   1      40.821  22.729  27.867  1.00  0.00     0.014 A 
ATOM     32  C   UNL A   1      39.374  23.648  26.143  1.00  0.00     0.014 A 
ATOM     33  C   UNL A   1      41.240  24.018  28.197  1.00  0.00     0.010 A 
ATOM     34  C   UNL A   1      39.860  24.919  26.416  1.00  0.00     0.010 A 
ATOM     35  C   UNL A   1      40.800  25.117  27.442  1.00  0.00    -0.014 A 
BRANCH  35  36
ATOM     36  C   UNL A   1      41.264  26.504  27.706  1.00  0.00     0.031 A 
ATOM     37  C   UNL A   1      42.667  26.877  27.313  1.00  0.00     0.074 A 
ATOM     38  C   UNL A   1      40.494  27.368  28.394  1.00  0.00     0.049 A 
ATOM     39  N   UNL A   1      43.380  27.914  27.660  1.00  0.00    -0.248 NA
ATOM     40  C   UNL A   1      43.378  25.910  26.462  1.00  0.00     0.031 C 
ATOM     41  C   UNL A   1      39.129  27.111  28.858  1.00  0.00     0.029 A 
ATOM     42  N   UNL A   1      40.764  28.635  28.849  1.00  0.00    -0.354 N 
ATOM     43  C   UNL A   1      44.643  27.699  27.115  1.00  0.00     0.074 A 
ATOM     44  C   UNL A   1      44.604  26.407  26.463  1.00  0.00     0.031 C 
ATOM     45  C   UNL A   1      38.678  28.190  29.519  1.00  0.00     0.029 A 
ATOM     46  C   UNL A   1      39.737  29.193  29.575  1.00  0.00     0.049 A 
ATOM     47  H   UNL A   1      41.613  29.101  28.673  1.00  0.00     0.167 HD
ATOM     48  C   UNL A   1      45.727  28.512  27.143  1.00  0.00     0.034 A 
ATOM     49  C   UNL A   1      39.669  30.370  30.230  1.00  0.00     0.034 A 
ATOM     50  C   UNL A   1      45.724  29.816  27.755  1.00  0.00     0.049 A 
ATOM     51  C   UNL A   1      40.874  31.279  30.217  1.00  0.00     0.074 A 
ATOM     52  C   UNL A   1      46.742  30.753  27.802  1.00  0.00     0.029 A 
ATOM     53  N   UNL A   1      44.638  30.375  28.418  1.00  0.00    -0.354 N 
ATOM     54  N   UNL A   1      42.059  31.069  29.691  1.00  0.00    -0.248 NA
ATOM     55  C   UNL A   1      40.730  32.583  30.878  1.00  0.00     0.031 C 
ATOM     56  C   UNL A   1      46.284  31.860  28.524  1.00  0.00     0.029 A 
ATOM     57  C   UNL A   1      44.963  31.640  28.879  1.00  0.00     0.049 A 
ATOM     58  H   UNL A   1      43.766  29.936  28.542  1.00  0.00     0.167 HD
ATOM     59  C   UNL A   1      42.788  32.231  29.925  1.00  0.00     0.074 A 
ATOM     60  C   UNL A   1      41.912  33.136  30.641  1.00  0.00     0.031 C 
ATOM     61  C   UNL A   1      44.063  32.528  29.573  1.00  0.00     0.034 A 
BRANCH  48  62
ATOM     62  C   UNL A   1      46.995  27.991  26.515  1.00  0.00     0.023 A 
ATOM     63  C   UNL A   1      47.271  28.175  25.149  1.00  0.00     0.031 A 
ATOM     64  C   UNL A   1      47.911  27.242  27.275  1.00  0.00     0.131 A 
ATOM     65  C   UNL A   1      48.373  27.535  24.565  1.00  0.00     0.055 A 
ATOM     66  C   UNL A   1      49.059  26.686  26.707  1.00  0.00     0.041 A 
ATOM     67  F   UNL A   1      47.692  27.015  28.580  1.00  0.00    -0.206 F 
ATOM     68  C   UNL A   1      49.285  26.814  25.338  1.00  0.00     0.022 A 
BRANCH  65  69
ATOM     69  S   UNL A   1      48.500  27.519  22.756  1.00  0.00     0.124 S 
ATOM     70  O   UNL A   1      47.294  28.251  22.372  1.00  0.00    -0.237 OA
ATOM     71  O   UNL A   1      49.765  28.204  22.520  1.00  0.00    -0.237 OA
ATOM     72  O   UNL A   1      48.488  26.096  22.424  1.00  0.00    -0.744 OA
ENDBRANCH  65  69
ENDBRANCH  48  62
BRANCH  49  73
ATOM     73  C   UNL A   1      38.431  30.761  30.961  1.00  0.00     0.023 A 
ATOM     74  C   UNL A   1      37.401  31.460  30.310  1.00  0.00     0.031 A 
ATOM     75  C   UNL A   1      38.271  30.475  32.328  1.00  0.00     0.131 A 
ATOM     76  C   UNL A   1      36.278  31.888  31.033  1.00  0.00     0.055 A 
ATOM     77  C   UNL A   1      37.132  30.864  33.034  1.00  0.00     0.041 A 
ATOM     78  F   UNL A   1      39.221  29.800  32.995  1.00  0.00    -0.206 F 
ATOM     79  C   UNL A   1      36.132  31.586  32.390  1.00  0.00     0.022 A 
BRANCH  76  80
ATOM     80  S   UNL A   1      35.041  32.911  30.190  1.00  0.00     0.124 S 
ATOM     81  O   UNL A   1      34.139  33.250  31.285  1.00  0.00    -0.237 OA
ATOM     82  O   UNL A   1      35.857  34.002  29.668  1.00  0.00    -0.237 OA
ATOM     83  O   UNL A   1      34.487  32.012  29.180  1.00  0.00    -0.744 OA
ENDBRANCH  76  80
ENDBRANCH  49  73
BRANCH  61  84
ATOM     84  C   UNL A   1      44.556  33.916  29.884  1.00  0.00     0.023 A 
ATOM     85  C   UNL A   1      44.318  35.001  29.025  1.00  0.00     0.031 A 
ATOM     86  C   UNL A   1      45.254  34.152  31.082  1.00  0.00     0.131 A 
ATOM     87  C   UNL A   1      44.804  36.273  29.362  1.00  0.00     0.055 A 
ATOM     88  C   UNL A   1      45.698  35.427  31.432  1.00  0.00     0.041 A 
ATOM     89  F   UNL A   1      45.503  33.146  31.936  1.00  0.00    -0.206 F 
ATOM     90  C   UNL A   1      45.480  36.495  30.566  1.00  0.00     0.022 A 
BRANCH  87  91
ATOM     91  S   UNL A   1      44.579  37.634  28.186  1.00  0.00     0.124 S 
ATOM     92  O   UNL A   1      45.895  38.263  28.194  1.00  0.00    -0.237 OA
ATOM     93  O   UNL A   1      44.216  36.932  26.959  1.00  0.00    -0.237 OA
ATOM     94  O   UNL A   1      43.508  38.430  28.783  1.00  0.00    -0.744 OA
ENDBRANCH  87  91
ENDBRANCH  61  84
ENDBRANCH  35  36
ENDBRANCH  27  30
ENDBRANCH  25  26
ENDBRANCH   1  25
TORSDOF 16
ENDMDL
