MODEL 1
REMARK VINA RESULT:     -12.8      0.000      0.000
REMARK SMILES C[C@@H](Oc1ccc(-c2ccccc2)cc1)C(=O)N1CCC[C@H](C(=O)NCCCCNC(=O)c2ccc(-c3c4nc(c(-c5cc(S(=O)(=O)[O-])ccc5F)c5ccc([nH]5)c(-c5cc(S(=O)(=O)[O-])ccc5F)c5nc(c(-c6cc(S(=O)(=O)[O-])ccc6F)c6ccc3[nH]6)C=C5)C=C4)cc2)C1
REMARK SMILES IDX 26 1 25 2 23 3 24 4 22 6 18 7 19 8 96 9 20 10 21 11 16 12
REMARK SMILES IDX 17 13 2 14 1 15 3 16 4 17 5 18 15 19 6 20 14 21 7 22 8 23
REMARK SMILES IDX 9 24 13 25 10 26 12 27 11 28 27 29 28 30 29 31 30 32 31 33
REMARK SMILES IDX 32 35 33 36 34 37 95 38 35 39 94 40 36 41 37 42 38 43 88 44
REMARK SMILES IDX 39 45 93 46 87 47 89 48 40 49 92 50 86 51 85 52 41 54 73 55
REMARK SMILES IDX 53 56 72 57 54 58 57 59 71 60 90 61 55 62 56 63 70 65 91 66
REMARK SMILES IDX 58 67 42 68 43 69 51 70 44 71 50 72 52 73 49 74 45 75 46 76
REMARK SMILES IDX 47 77 48 78 74 79 75 80 83 81 76 82 82 83 84 84 81 85 77 86
REMARK SMILES IDX 78 87 79 88 80 89 59 90 60 91 68 92 61 93 67 94 69 95 66 96
REMARK SMILES IDX 62 97 63 98 64 99 65 100
REMARK H PARENT 25 5 30 34 89 53 57 64
REMARK Flexibility Score: inf
ROOT
ATOM      1  C   UNL A   1      34.948  24.412  23.887  1.00  0.00     0.116 C 
ENDROOT
BRANCH   1   2
ATOM      2  N   UNL A   1      34.237  25.021  22.784  1.00  0.00    -0.356 N 
ATOM      3  C   UNL A   1      33.842  26.299  22.561  1.00  0.00     0.224 C 
ATOM      4  O   UNL A   1      33.413  26.546  21.426  1.00  0.00    -0.275 OA
ATOM      5  H   UNL A   1      33.996  24.393  22.066  1.00  0.00     0.163 HD
BRANCH   3   6
ATOM      6  C   UNL A   1      33.880  27.431  23.598  1.00  0.00     0.098 C 
ATOM      7  N   UNL A   1      32.151  27.175  25.375  1.00  0.00    -0.339 N 
ATOM      8  C   UNL A   1      31.581  28.494  25.102  1.00  0.00     0.119 C 
ATOM      9  C   UNL A   1      33.556  27.014  25.036  1.00  0.00     0.133 C 
ATOM     10  C   UNL A   1      31.812  28.977  23.676  1.00  0.00     0.022 C 
ATOM     11  C   UNL A   1      33.227  28.743  23.159  1.00  0.00     0.017 C 
BRANCH   7  12
ATOM     12  C   UNL A   1      31.343  26.209  25.973  1.00  0.00     0.263 C 
ATOM     13  O   UNL A   1      31.407  26.014  27.193  1.00  0.00    -0.271 OA
BRANCH  12  14
ATOM     14  C   UNL A   1      30.424  25.313  25.116  1.00  0.00     0.259 C 
ATOM     15  C   UNL A   1      29.128  25.953  24.628  1.00  0.00     0.064 C 
BRANCH  14  16
ATOM     16  O   UNL A   1      31.237  24.885  24.013  1.00  0.00    -0.481 OA
BRANCH  16  17
ATOM     17  C   UNL A   1      31.469  23.540  24.012  1.00  0.00     0.120 A 
ATOM     18  C   UNL A   1      31.644  22.834  25.199  1.00  0.00     0.047 A 
ATOM     19  C   UNL A   1      31.689  22.928  22.786  1.00  0.00     0.047 A 
ATOM     20  C   UNL A   1      32.074  21.501  25.155  1.00  0.00     0.012 A 
ATOM     21  C   UNL A   1      32.107  21.601  22.745  1.00  0.00     0.012 A 
ATOM     22  C   UNL A   1      32.345  20.874  23.925  1.00  0.00    -0.018 A 
BRANCH  22  23
ATOM     23  C   UNL A   1      32.940  19.529  23.844  1.00  0.00    -0.018 A 
ATOM     24  C   UNL A   1      34.001  19.128  24.666  1.00  0.00     0.009 A 
ATOM     25  C   UNL A   1      32.426  18.594  22.925  1.00  0.00     0.009 A 
ATOM     26  C   UNL A   1      34.514  17.828  24.587  1.00  0.00     0.001 A 
ATOM     27  C   UNL A   1      32.935  17.298  22.845  1.00  0.00     0.001 A 
ATOM     28  C   UNL A   1      33.978  16.914  23.681  1.00  0.00     0.000 A 
ENDBRANCH  22  23
ENDBRANCH  16  17
ENDBRANCH  14  16
ENDBRANCH  12  14
ENDBRANCH   7  12
ENDBRANCH   3   6
ENDBRANCH   1   2
BRANCH   1  29
ATOM     29  C   UNL A   1      35.753  23.179  23.489  1.00  0.00     0.023 C 
BRANCH  29  30
ATOM     30  C   UNL A   1      35.780  22.071  24.536  1.00  0.00     0.023 C 
BRANCH  30  31
ATOM     31  C   UNL A   1      36.773  22.269  25.679  1.00  0.00     0.116 C 
BRANCH  31  32
ATOM     32  N   UNL A   1      37.859  21.302  25.712  1.00  0.00    -0.352 N 
ATOM     33  C   UNL A   1      39.164  21.501  26.126  1.00  0.00     0.251 C 
ATOM     34  H   UNL A   1      37.639  20.394  25.404  1.00  0.00     0.163 HD
ATOM     35  O   UNL A   1      39.997  20.621  26.004  1.00  0.00    -0.269 OA
BRANCH  33  36
ATOM     36  C   UNL A   1      39.539  22.825  26.675  1.00  0.00     0.039 A 
ATOM     37  C   UNL A   1      40.512  22.896  27.672  1.00  0.00     0.014 A 
ATOM     38  C   UNL A   1      38.978  23.993  26.151  1.00  0.00     0.014 A 
ATOM     39  C   UNL A   1      40.984  24.144  28.084  1.00  0.00     0.010 A 
ATOM     40  C   UNL A   1      39.513  25.229  26.497  1.00  0.00     0.010 A 
ATOM     41  C   UNL A   1      40.522  25.320  27.468  1.00  0.00    -0.014 A 
BRANCH  41  42
ATOM     42  C   UNL A   1      41.076  26.650  27.833  1.00  0.00     0.031 A 
ATOM     43  C   UNL A   1      42.503  26.989  27.496  1.00  0.00     0.074 A 
ATOM     44  C   UNL A   1      40.317  27.525  28.522  1.00  0.00     0.049 A 
ATOM     45  N   UNL A   1      43.186  28.071  27.770  1.00  0.00    -0.248 NA
ATOM     46  C   UNL A   1      43.277  25.955  26.793  1.00  0.00     0.031 C 
ATOM     47  C   UNL A   1      38.941  27.285  28.968  1.00  0.00     0.029 A 
ATOM     48  N   UNL A   1      40.592  28.792  28.972  1.00  0.00    -0.354 N 
ATOM     49  C   UNL A   1      44.471  27.840  27.288  1.00  0.00     0.074 A 
ATOM     50  C   UNL A   1      44.488  26.488  26.777  1.00  0.00     0.031 C 
ATOM     51  C   UNL A   1      38.484  28.381  29.595  1.00  0.00     0.029 A 
ATOM     52  C   UNL A   1      39.538  29.389  29.627  1.00  0.00     0.049 A 
ATOM     53  H   UNL A   1      41.461  29.234  28.838  1.00  0.00     0.167 HD
ATOM     54  C   UNL A   1      45.529  28.689  27.247  1.00  0.00     0.034 A 
ATOM     55  C   UNL A   1      39.435  30.610  30.188  1.00  0.00     0.034 A 
ATOM     56  C   UNL A   1      45.486  30.043  27.742  1.00  0.00     0.049 A 
ATOM     57  C   UNL A   1      40.616  31.546  30.110  1.00  0.00     0.074 A 
ATOM     58  C   UNL A   1      46.476  31.010  27.699  1.00  0.00     0.029 A 
ATOM     59  N   UNL A   1      44.393  30.624  28.372  1.00  0.00    -0.354 N 
ATOM     60  N   UNL A   1      41.805  31.336  29.592  1.00  0.00    -0.248 NA
ATOM     61  C   UNL A   1      40.432  32.888  30.674  1.00  0.00     0.031 C 
ATOM     62  C   UNL A   1      46.001  32.154  28.353  1.00  0.00     0.029 A 
ATOM     63  C   UNL A   1      44.691  31.928  28.742  1.00  0.00     0.049 A 
ATOM     64  H   UNL A   1      43.531  30.176  28.534  1.00  0.00     0.167 HD
ATOM     65  C   UNL A   1      42.500  32.532  29.744  1.00  0.00     0.074 A 
ATOM     66  C   UNL A   1      41.588  33.462  30.380  1.00  0.00     0.031 C 
ATOM     67  C   UNL A   1      43.774  32.837  29.389  1.00  0.00     0.034 A 
BRANCH  54  68
ATOM     68  C   UNL A   1      46.816  28.159  26.660  1.00  0.00     0.023 A 
ATOM     69  C   UNL A   1      47.079  28.225  25.279  1.00  0.00     0.031 A 
ATOM     70  C   UNL A   1      47.775  27.538  27.480  1.00  0.00     0.131 A 
ATOM     71  C   UNL A   1      48.219  27.603  24.751  1.00  0.00     0.055 A 
ATOM     72  C   UNL A   1      48.953  26.999  26.958  1.00  0.00     0.041 A 
ATOM     73  F   UNL A   1      47.573  27.427  28.802  1.00  0.00    -0.206 F 
ATOM     74  C   UNL A   1      49.173  27.012  25.584  1.00  0.00     0.022 A 
BRANCH  71  75
ATOM     75  S   UNL A   1      48.360  27.439  22.950  1.00  0.00     0.124 S 
ATOM     76  O   UNL A   1      48.277  25.989  22.780  1.00  0.00    -0.237 OA
ATOM     77  O   UNL A   1      47.216  28.204  22.472  1.00  0.00    -0.237 OA
ATOM     78  O   UNL A   1      49.668  28.019  22.654  1.00  0.00    -0.744 OA
ENDBRANCH  71  75
ENDBRANCH  54  68
BRANCH  55  79
ATOM     79  C   UNL A   1      38.173  31.033  30.859  1.00  0.00     0.023 A 
ATOM     80  C   UNL A   1      37.179  31.733  30.156  1.00  0.00     0.031 A 
ATOM     81  C   UNL A   1      37.961  30.783  32.227  1.00  0.00     0.131 A 
ATOM     82  C   UNL A   1      36.041  32.202  30.831  1.00  0.00     0.055 A 
ATOM     83  C   UNL A   1      36.804  31.208  32.883  1.00  0.00     0.041 A 
ATOM     84  F   UNL A   1      38.875  30.110  32.944  1.00  0.00    -0.206 F 
ATOM     85  C   UNL A   1      35.841  31.934  32.187  1.00  0.00     0.022 A 
BRANCH  82  86
ATOM     86  S   UNL A   1      34.860  33.240  29.927  1.00  0.00     0.124 S 
ATOM     87  O   UNL A   1      34.024  33.750  31.006  1.00  0.00    -0.237 OA
ATOM     88  O   UNL A   1      35.740  34.210  29.283  1.00  0.00    -0.237 OA
ATOM     89  O   UNL A   1      34.205  32.299  29.020  1.00  0.00    -0.744 OA
ENDBRANCH  82  86
ENDBRANCH  55  79
BRANCH  67  90
ATOM     90  C   UNL A   1      44.233  34.251  29.650  1.00  0.00     0.023 A 
ATOM     91  C   UNL A   1      43.936  35.300  28.762  1.00  0.00     0.031 A 
ATOM     92  C   UNL A   1      45.008  34.545  30.786  1.00  0.00     0.131 A 
ATOM     93  C   UNL A   1      44.467  36.579  28.989  1.00  0.00     0.055 A 
ATOM     94  C   UNL A   1      45.479  35.834  31.040  1.00  0.00     0.041 A 
ATOM     95  F   UNL A   1      45.323  33.582  31.666  1.00  0.00    -0.206 F 
ATOM     96  C   UNL A   1      45.223  36.856  30.130  1.00  0.00     0.022 A 
BRANCH  93  97
ATOM     97  S   UNL A   1      44.249  37.850  27.712  1.00  0.00     0.124 S 
ATOM     98  O   UNL A   1      45.603  37.989  27.187  1.00  0.00    -0.237 OA
ATOM     99  O   UNL A   1      43.278  37.227  26.817  1.00  0.00    -0.237 OA
ATOM    100  O   UNL A   1      43.752  39.004  28.459  1.00  0.00    -0.744 OA
ENDBRANCH  93  97
ENDBRANCH  67  90
ENDBRANCH  41  42
ENDBRANCH  33  36
ENDBRANCH  31  32
ENDBRANCH  30  31
ENDBRANCH  29  30
ENDBRANCH   1  29
TORSDOF 19
ENDMDL
MODEL 2
REMARK VINA RESULT:     -12.5      2.071      2.605
REMARK SMILES C[C@@H](Oc1ccc(-c2ccccc2)cc1)C(=O)N1CCC[C@H](C(=O)NCCCCNC(=O)c2ccc(-c3c4nc(c(-c5cc(S(=O)(=O)[O-])ccc5F)c5ccc([nH]5)c(-c5cc(S(=O)(=O)[O-])ccc5F)c5nc(c(-c6cc(S(=O)(=O)[O-])ccc6F)c6ccc3[nH]6)C=C5)C=C4)cc2)C1
REMARK SMILES IDX 26 1 25 2 23 3 24 4 22 6 18 7 19 8 96 9 20 10 21 11 16 12
REMARK SMILES IDX 17 13 2 14 1 15 3 16 4 17 5 18 15 19 6 20 14 21 7 22 8 23
REMARK SMILES IDX 9 24 13 25 10 26 12 27 11 28 27 29 28 30 29 31 30 32 31 33
REMARK SMILES IDX 32 35 33 36 34 37 95 38 35 39 94 40 36 41 37 42 38 43 88 44
REMARK SMILES IDX 39 45 93 46 87 47 89 48 40 49 92 50 86 51 85 52 41 54 73 55
REMARK SMILES IDX 53 56 72 57 54 58 57 59 71 60 90 61 55 62 56 63 70 65 91 66
REMARK SMILES IDX 58 67 42 68 43 69 51 70 44 71 50 72 52 73 49 74 45 75 46 76
REMARK SMILES IDX 47 77 48 78 74 79 75 80 83 81 76 82 82 83 84 84 81 85 77 86
REMARK SMILES IDX 78 87 79 88 80 89 59 90 60 91 68 92 61 93 67 94 69 95 66 96
REMARK SMILES IDX 62 97 63 98 64 99 65 100
REMARK H PARENT 25 5 30 34 89 53 57 64
REMARK Flexibility Score: inf
ROOT
ATOM      1  C   UNL A   1      33.878  25.959  25.175  1.00  0.00     0.116 C 
ENDROOT
BRANCH   1   2
ATOM      2  N   UNL A   1      34.117  27.166  25.934  1.00  0.00    -0.356 N 
ATOM      3  C   UNL A   1      33.798  28.462  25.693  1.00  0.00     0.224 C 
ATOM      4  O   UNL A   1      33.976  29.250  26.631  1.00  0.00    -0.275 OA
ATOM      5  H   UNL A   1      34.599  27.020  26.780  1.00  0.00     0.163 HD
BRANCH   3   6
ATOM      6  C   UNL A   1      33.256  29.007  24.364  1.00  0.00     0.098 C 
ATOM      7  N   UNL A   1      31.324  27.694  23.494  1.00  0.00    -0.339 N 
ATOM      8  C   UNL A   1      31.991  27.433  22.220  1.00  0.00     0.119 C 
ATOM      9  C   UNL A   1      31.738  28.906  24.184  1.00  0.00     0.133 C 
ATOM     10  C   UNL A   1      33.512  27.465  22.307  1.00  0.00     0.022 C 
ATOM     11  C   UNL A   1      34.065  28.628  23.122  1.00  0.00     0.017 C 
BRANCH   7  12
ATOM     12  C   UNL A   1      30.327  26.817  23.920  1.00  0.00     0.263 C 
ATOM     13  O   UNL A   1      29.156  26.985  23.559  1.00  0.00    -0.271 OA
BRANCH  12  14
ATOM     14  C   UNL A   1      30.653  25.679  24.909  1.00  0.00     0.259 C 
ATOM     15  C   UNL A   1      30.189  25.886  26.347  1.00  0.00     0.064 C 
BRANCH  14  16
ATOM     16  O   UNL A   1      30.062  24.502  24.338  1.00  0.00    -0.481 OA
BRANCH  16  17
ATOM     17  C   UNL A   1      30.935  23.457  24.248  1.00  0.00     0.120 A 
ATOM     18  C   UNL A   1      31.584  23.156  23.054  1.00  0.00     0.047 A 
ATOM     19  C   UNL A   1      31.028  22.603  25.338  1.00  0.00     0.047 A 
ATOM     20  C   UNL A   1      32.316  21.965  22.945  1.00  0.00     0.012 A 
ATOM     21  C   UNL A   1      31.763  21.426  25.230  1.00  0.00     0.012 A 
ATOM     22  C   UNL A   1      32.388  21.065  24.024  1.00  0.00    -0.018 A 
BRANCH  22  23
ATOM     23  C   UNL A   1      33.018  19.739  23.898  1.00  0.00    -0.018 A 
ATOM     24  C   UNL A   1      34.179  19.391  24.600  1.00  0.00     0.009 A 
ATOM     25  C   UNL A   1      32.437  18.768  23.059  1.00  0.00     0.009 A 
ATOM     26  C   UNL A   1      34.726  18.109  24.484  1.00  0.00     0.001 A 
ATOM     27  C   UNL A   1      32.980  17.489  22.943  1.00  0.00     0.001 A 
ATOM     28  C   UNL A   1      34.124  17.158  23.660  1.00  0.00     0.000 A 
ENDBRANCH  22  23
ENDBRANCH  16  17
ENDBRANCH  14  16
ENDBRANCH  12  14
ENDBRANCH   7  12
ENDBRANCH   3   6
ENDBRANCH   1   2
BRANCH   1  29
ATOM     29  C   UNL A   1      34.022  24.681  25.996  1.00  0.00     0.023 C 
BRANCH  29  30
ATOM     30  C   UNL A   1      35.029  23.678  25.442  1.00  0.00     0.023 C 
BRANCH  30  31
ATOM     31  C   UNL A   1      36.490  23.954  25.789  1.00  0.00     0.116 C 
BRANCH  31  32
ATOM     32  N   UNL A   1      37.332  22.769  25.851  1.00  0.00    -0.352 N 
ATOM     33  C   UNL A   1      38.652  22.682  26.254  1.00  0.00     0.251 C 
ATOM     34  H   UNL A   1      36.911  21.925  25.571  1.00  0.00     0.163 HD
ATOM     35  O   UNL A   1      39.265  21.635  26.158  1.00  0.00    -0.269 OA
BRANCH  33  36
ATOM     36  C   UNL A   1      39.319  23.905  26.761  1.00  0.00     0.039 A 
ATOM     37  C   UNL A   1      39.948  24.759  25.855  1.00  0.00     0.014 A 
ATOM     38  C   UNL A   1      39.257  24.235  28.118  1.00  0.00     0.014 A 
ATOM     39  C   UNL A   1      40.442  25.988  26.299  1.00  0.00     0.010 A 
ATOM     40  C   UNL A   1      39.666  25.496  28.538  1.00  0.00     0.010 A 
ATOM     41  C   UNL A   1      40.264  26.387  27.635  1.00  0.00    -0.014 A 
BRANCH  41  42
ATOM     42  C   UNL A   1      40.705  27.727  28.104  1.00  0.00     0.031 A 
ATOM     43  C   UNL A   1      42.170  28.076  28.113  1.00  0.00     0.074 A 
ATOM     44  C   UNL A   1      39.798  28.601  28.582  1.00  0.00     0.049 A 
ATOM     45  N   UNL A   1      42.760  29.168  28.528  1.00  0.00    -0.248 NA
ATOM     46  C   UNL A   1      43.096  27.042  27.627  1.00  0.00     0.031 C 
ATOM     47  C   UNL A   1      38.358  28.353  28.691  1.00  0.00     0.029 A 
ATOM     48  N   UNL A   1      39.949  29.876  29.068  1.00  0.00    -0.354 N 
ATOM     49  C   UNL A   1      44.124  28.944  28.369  1.00  0.00     0.074 A 
ATOM     50  C   UNL A   1      44.272  27.586  27.893  1.00  0.00     0.031 C 
ATOM     51  C   UNL A   1      37.756  29.451  29.177  1.00  0.00     0.029 A 
ATOM     52  C   UNL A   1      38.766  30.469  29.446  1.00  0.00     0.049 A 
ATOM     53  H   UNL A   1      40.822  30.325  29.139  1.00  0.00     0.167 HD
ATOM     54  C   UNL A   1      45.156  29.802  28.570  1.00  0.00     0.034 A 
ATOM     55  C   UNL A   1      38.524  31.696  29.951  1.00  0.00     0.034 A 
ATOM     56  C   UNL A   1      44.987  31.162  29.023  1.00  0.00     0.049 A 
ATOM     57  C   UNL A   1      39.683  32.642  30.144  1.00  0.00     0.074 A 
ATOM     58  C   UNL A   1      45.951  32.138  29.205  1.00  0.00     0.029 A 
ATOM     59  N   UNL A   1      43.771  31.739  29.368  1.00  0.00    -0.354 N 
ATOM     60  N   UNL A   1      40.962  32.438  29.927  1.00  0.00    -0.248 NA
ATOM     61  C   UNL A   1      39.360  33.988  30.631  1.00  0.00     0.031 C 
ATOM     62  C   UNL A   1      45.327  33.284  29.713  1.00  0.00     0.029 A 
ATOM     63  C   UNL A   1      43.963  33.049  29.781  1.00  0.00     0.049 A 
ATOM     64  H   UNL A   1      42.898  31.284  29.325  1.00  0.00     0.167 HD
ATOM     65  C   UNL A   1      41.592  33.642  30.225  1.00  0.00     0.074 A 
ATOM     66  C   UNL A   1      40.549  34.570  30.614  1.00  0.00     0.031 C 
ATOM     67  C   UNL A   1      42.912  33.956  30.180  1.00  0.00     0.034 A 
BRANCH  54  68
ATOM     68  C   UNL A   1      46.550  29.279  28.313  1.00  0.00     0.023 A 
ATOM     69  C   UNL A   1      46.994  28.971  27.014  1.00  0.00     0.031 A 
ATOM     70  C   UNL A   1      47.432  29.040  29.381  1.00  0.00     0.131 A 
ATOM     71  C   UNL A   1      48.242  28.360  26.826  1.00  0.00     0.055 A 
ATOM     72  C   UNL A   1      48.710  28.514  29.177  1.00  0.00     0.041 A 
ATOM     73  F   UNL A   1      47.060  29.295  30.645  1.00  0.00    -0.206 F 
ATOM     74  C   UNL A   1      49.115  28.152  27.895  1.00  0.00     0.022 A 
BRANCH  71  75
ATOM     75  S   UNL A   1      48.641  27.697  25.184  1.00  0.00     0.124 S 
ATOM     76  O   UNL A   1      47.556  28.248  24.374  1.00  0.00    -0.237 OA
ATOM     77  O   UNL A   1      49.967  28.246  24.935  1.00  0.00    -0.237 OA
ATOM     78  O   UNL A   1      48.590  26.249  25.378  1.00  0.00    -0.744 OA
ENDBRANCH  71  75
ENDBRANCH  54  68
BRANCH  55  79
ATOM     79  C   UNL A   1      37.135  32.113  30.297  1.00  0.00     0.023 A 
ATOM     80  C   UNL A   1      36.239  32.541  29.303  1.00  0.00     0.031 A 
ATOM     81  C   UNL A   1      36.696  32.133  31.633  1.00  0.00     0.131 A 
ATOM     82  C   UNL A   1      34.969  33.018  29.663  1.00  0.00     0.055 A 
ATOM     83  C   UNL A   1      35.414  32.561  31.981  1.00  0.00     0.041 A 
ATOM     84  F   UNL A   1      37.509  31.726  32.621  1.00  0.00    -0.206 F 
ATOM     85  C   UNL A   1      34.546  33.019  30.993  1.00  0.00     0.022 A 
BRANCH  82  86
ATOM     86  S   UNL A   1      33.903  33.712  28.370  1.00  0.00     0.124 S 
ATOM     87  O   UNL A   1      34.858  34.476  27.575  1.00  0.00    -0.237 OA
ATOM     88  O   UNL A   1      33.364  32.509  27.743  1.00  0.00    -0.237 OA
ATOM     89  O   UNL A   1      32.934  34.509  29.119  1.00  0.00    -0.744 OA
ENDBRANCH  82  86
ENDBRANCH  55  79
BRANCH  67  90
ATOM     90  C   UNL A   1      43.286  35.377  30.525  1.00  0.00     0.023 A 
ATOM     91  C   UNL A   1      43.445  35.796  31.858  1.00  0.00     0.031 A 
ATOM     92  C   UNL A   1      43.453  36.332  29.508  1.00  0.00     0.131 A 
ATOM     93  C   UNL A   1      43.694  37.148  32.141  1.00  0.00     0.055 A 
ATOM     94  C   UNL A   1      43.763  37.663  29.792  1.00  0.00     0.041 A 
ATOM     95  F   UNL A   1      43.311  35.988  28.217  1.00  0.00    -0.206 F 
ATOM     96  C   UNL A   1      43.870  38.080  31.116  1.00  0.00     0.022 A 
BRANCH  93  97
ATOM     97  S   UNL A   1      43.672  37.692  33.872  1.00  0.00     0.124 S 
ATOM     98  O   UNL A   1      42.978  36.588  34.528  1.00  0.00    -0.237 OA
ATOM     99  O   UNL A   1      45.094  37.821  34.175  1.00  0.00    -0.237 OA
ATOM    100  O   UNL A   1      42.931  38.950  33.826  1.00  0.00    -0.744 OA
ENDBRANCH  93  97
ENDBRANCH  67  90
ENDBRANCH  41  42
ENDBRANCH  33  36
ENDBRANCH  31  32
ENDBRANCH  30  31
ENDBRANCH  29  30
ENDBRANCH   1  29
TORSDOF 19
ENDMDL
MODEL 3
REMARK VINA RESULT:     -11.9      2.234      2.800
REMARK SMILES C[C@@H](Oc1ccc(-c2ccccc2)cc1)C(=O)N1CCC[C@H](C(=O)NCCCCNC(=O)c2ccc(-c3c4nc(c(-c5cc(S(=O)(=O)[O-])ccc5F)c5ccc([nH]5)c(-c5cc(S(=O)(=O)[O-])ccc5F)c5nc(c(-c6cc(S(=O)(=O)[O-])ccc6F)c6ccc3[nH]6)C=C5)C=C4)cc2)C1
REMARK SMILES IDX 26 1 25 2 23 3 24 4 22 6 18 7 19 8 96 9 20 10 21 11 16 12
REMARK SMILES IDX 17 13 2 14 1 15 3 16 4 17 5 18 15 19 6 20 14 21 7 22 8 23
REMARK SMILES IDX 9 24 13 25 10 26 12 27 11 28 27 29 28 30 29 31 30 32 31 33
REMARK SMILES IDX 32 35 33 36 34 37 95 38 35 39 94 40 36 41 37 42 38 43 88 44
REMARK SMILES IDX 39 45 93 46 87 47 89 48 40 49 92 50 86 51 85 52 41 54 73 55
REMARK SMILES IDX 53 56 72 57 54 58 57 59 71 60 90 61 55 62 56 63 70 65 91 66
REMARK SMILES IDX 58 67 42 68 43 69 51 70 44 71 50 72 52 73 49 74 45 75 46 76
REMARK SMILES IDX 47 77 48 78 74 79 75 80 83 81 76 82 82 83 84 84 81 85 77 86
REMARK SMILES IDX 78 87 79 88 80 89 59 90 60 91 68 92 61 93 67 94 69 95 66 96
REMARK SMILES IDX 62 97 63 98 64 99 65 100
REMARK H PARENT 25 5 30 34 89 53 57 64
REMARK Flexibility Score: inf
ROOT
ATOM      1  C   UNL A   1      34.243  26.162  25.270  1.00  0.00     0.116 C 
ENDROOT
BRANCH   1   2
ATOM      2  N   UNL A   1      34.126  27.190  26.280  1.00  0.00    -0.356 N 
ATOM      3  C   UNL A   1      33.492  28.389  26.278  1.00  0.00     0.224 C 
ATOM      4  O   UNL A   1      33.417  28.967  27.371  1.00  0.00    -0.275 OA
ATOM      5  H   UNL A   1      34.590  26.981  27.122  1.00  0.00     0.163 HD
BRANCH   3   6
ATOM      6  C   UNL A   1      32.888  29.068  25.041  1.00  0.00     0.098 C 
ATOM      7  N   UNL A   1      31.386  27.561  23.743  1.00  0.00    -0.339 N 
ATOM      8  C   UNL A   1      32.152  27.749  22.512  1.00  0.00     0.119 C 
ATOM      9  C   UNL A   1      31.454  28.654  24.700  1.00  0.00     0.133 C 
ATOM     10  C   UNL A   1      33.611  28.120  22.749  1.00  0.00     0.022 C 
ATOM     11  C   UNL A   1      33.819  29.173  23.831  1.00  0.00     0.017 C 
BRANCH   7  12
ATOM     12  C   UNL A   1      30.625  26.401  23.886  1.00  0.00     0.263 C 
ATOM     13  O   UNL A   1      29.719  26.150  23.082  1.00  0.00    -0.271 OA
BRANCH  12  14
ATOM     14  C   UNL A   1      30.843  25.462  25.091  1.00  0.00     0.259 C 
ATOM     15  C   UNL A   1      30.354  25.977  26.440  1.00  0.00     0.064 C 
BRANCH  14  16
ATOM     16  O   UNL A   1      30.187  24.236  24.736  1.00  0.00    -0.481 OA
BRANCH  16  17
ATOM     17  C   UNL A   1      31.056  23.200  24.552  1.00  0.00     0.120 A 
ATOM     18  C   UNL A   1      31.578  22.906  23.295  1.00  0.00     0.047 A 
ATOM     19  C   UNL A   1      31.273  22.347  25.625  1.00  0.00     0.047 A 
ATOM     20  C   UNL A   1      32.307  21.724  23.107  1.00  0.00     0.012 A 
ATOM     21  C   UNL A   1      32.005  21.178  25.437  1.00  0.00     0.012 A 
ATOM     22  C   UNL A   1      32.502  20.824  24.170  1.00  0.00    -0.018 A 
BRANCH  22  23
ATOM     23  C   UNL A   1      33.129  19.506  23.976  1.00  0.00    -0.018 A 
ATOM     24  C   UNL A   1      34.344  19.156  24.580  1.00  0.00     0.009 A 
ATOM     25  C   UNL A   1      32.491  18.542  23.171  1.00  0.00     0.009 A 
ATOM     26  C   UNL A   1      34.889  17.880  24.403  1.00  0.00     0.001 A 
ATOM     27  C   UNL A   1      33.032  17.269  22.993  1.00  0.00     0.001 A 
ATOM     28  C   UNL A   1      34.231  16.937  23.614  1.00  0.00     0.000 A 
ENDBRANCH  22  23
ENDBRANCH  16  17
ENDBRANCH  14  16
ENDBRANCH  12  14
ENDBRANCH   7  12
ENDBRANCH   3   6
ENDBRANCH   1   2
BRANCH   1  29
ATOM     29  C   UNL A   1      34.104  24.746  25.819  1.00  0.00     0.023 C 
BRANCH  29  30
ATOM     30  C   UNL A   1      35.220  23.790  25.407  1.00  0.00     0.023 C 
BRANCH  30  31
ATOM     31  C   UNL A   1      36.558  23.999  26.112  1.00  0.00     0.116 C 
BRANCH  31  32
ATOM     32  N   UNL A   1      37.452  22.852  26.068  1.00  0.00    -0.352 N 
ATOM     33  C   UNL A   1      38.801  22.812  26.370  1.00  0.00     0.251 C 
ATOM     34  H   UNL A   1      37.047  21.999  25.790  1.00  0.00     0.163 HD
ATOM     35  O   UNL A   1      39.449  21.796  26.190  1.00  0.00    -0.269 OA
BRANCH  33  36
ATOM     36  C   UNL A   1      39.452  24.046  26.869  1.00  0.00     0.039 A 
ATOM     37  C   UNL A   1      40.039  24.921  25.955  1.00  0.00     0.014 A 
ATOM     38  C   UNL A   1      39.416  24.364  28.230  1.00  0.00     0.014 A 
ATOM     39  C   UNL A   1      40.515  26.158  26.397  1.00  0.00     0.010 A 
ATOM     40  C   UNL A   1      39.806  25.630  28.651  1.00  0.00     0.010 A 
ATOM     41  C   UNL A   1      40.361  26.542  27.740  1.00  0.00    -0.014 A 
BRANCH  41  42
ATOM     42  C   UNL A   1      40.783  27.888  28.209  1.00  0.00     0.031 A 
ATOM     43  C   UNL A   1      42.240  28.268  28.193  1.00  0.00     0.074 A 
ATOM     44  C   UNL A   1      39.866  28.741  28.709  1.00  0.00     0.049 A 
ATOM     45  N   UNL A   1      42.814  29.370  28.604  1.00  0.00    -0.248 NA
ATOM     46  C   UNL A   1      43.178  27.257  27.684  1.00  0.00     0.031 C 
ATOM     47  C   UNL A   1      38.434  28.462  28.843  1.00  0.00     0.029 A 
ATOM     48  N   UNL A   1      40.000  30.016  29.200  1.00  0.00    -0.354 N 
ATOM     49  C   UNL A   1      44.180  29.176  28.418  1.00  0.00     0.074 A 
ATOM     50  C   UNL A   1      44.347  27.824  27.931  1.00  0.00     0.031 C 
ATOM     51  C   UNL A   1      37.819  29.545  29.346  1.00  0.00     0.029 A 
ATOM     52  C   UNL A   1      38.812  30.582  29.603  1.00  0.00     0.049 A 
ATOM     53  H   UNL A   1      40.864  30.482  29.257  1.00  0.00     0.167 HD
ATOM     54  C   UNL A   1      45.197  30.054  28.605  1.00  0.00     0.034 A 
ATOM     55  C   UNL A   1      38.553  31.800  30.119  1.00  0.00     0.034 A 
ATOM     56  C   UNL A   1      45.008  31.407  29.070  1.00  0.00     0.049 A 
ATOM     57  C   UNL A   1      39.696  32.769  30.297  1.00  0.00     0.074 A 
ATOM     58  C   UNL A   1      45.955  32.402  29.240  1.00  0.00     0.029 A 
ATOM     59  N   UNL A   1      43.787  31.957  29.440  1.00  0.00    -0.354 N 
ATOM     60  N   UNL A   1      40.975  32.593  30.055  1.00  0.00    -0.248 NA
ATOM     61  C   UNL A   1      39.354  34.105  30.798  1.00  0.00     0.031 C 
ATOM     62  C   UNL A   1      45.316  33.532  29.765  1.00  0.00     0.029 A 
ATOM     63  C   UNL A   1      43.959  33.268  29.858  1.00  0.00     0.049 A 
ATOM     64  H   UNL A   1      42.923  31.484  29.411  1.00  0.00     0.167 HD
ATOM     65  C   UNL A   1      41.585  33.809  30.349  1.00  0.00     0.074 A 
ATOM     66  C   UNL A   1      40.530  34.712  30.762  1.00  0.00     0.031 C 
ATOM     67  C   UNL A   1      42.897  34.151  30.281  1.00  0.00     0.034 A 
BRANCH  54  68
ATOM     68  C   UNL A   1      46.596  29.562  28.319  1.00  0.00     0.023 A 
ATOM     69  C   UNL A   1      47.347  28.870  29.288  1.00  0.00     0.031 A 
ATOM     70  C   UNL A   1      47.209  29.826  27.081  1.00  0.00     0.131 A 
ATOM     71  C   UNL A   1      48.689  28.549  29.038  1.00  0.00     0.055 A 
ATOM     72  C   UNL A   1      48.517  29.423  26.807  1.00  0.00     0.041 A 
ATOM     73  F   UNL A   1      46.552  30.499  26.124  1.00  0.00    -0.206 F 
ATOM     74  C   UNL A   1      49.273  28.796  27.794  1.00  0.00     0.022 A 
BRANCH  71  75
ATOM     75  S   UNL A   1      49.704  27.944  30.415  1.00  0.00     0.124 S 
ATOM     76  O   UNL A   1      49.296  28.841  31.495  1.00  0.00    -0.237 OA
ATOM     77  O   UNL A   1      49.276  26.558  30.539  1.00  0.00    -0.237 OA
ATOM     78  O   UNL A   1      51.073  28.136  29.940  1.00  0.00    -0.744 OA
ENDBRANCH  71  75
ENDBRANCH  54  68
BRANCH  55  79
ATOM     79  C   UNL A   1      37.163  32.186  30.493  1.00  0.00     0.023 A 
ATOM     80  C   UNL A   1      36.276  32.710  29.539  1.00  0.00     0.031 A 
ATOM     81  C   UNL A   1      36.714  32.079  31.822  1.00  0.00     0.131 A 
ATOM     82  C   UNL A   1      35.003  33.154  29.933  1.00  0.00     0.055 A 
ATOM     83  C   UNL A   1      35.429  32.475  32.199  1.00  0.00     0.041 A 
ATOM     84  F   UNL A   1      37.518  31.577  32.772  1.00  0.00    -0.206 F 
ATOM     85  C   UNL A   1      34.570  33.029  31.254  1.00  0.00     0.022 A 
BRANCH  82  86
ATOM     86  S   UNL A   1      33.949  33.972  28.704  1.00  0.00     0.124 S 
ATOM     87  O   UNL A   1      34.871  34.936  28.116  1.00  0.00    -0.237 OA
ATOM     88  O   UNL A   1      33.557  32.855  27.850  1.00  0.00    -0.237 OA
ATOM     89  O   UNL A   1      32.873  34.546  29.509  1.00  0.00    -0.744 OA
ENDBRANCH  82  86
ENDBRANCH  55  79
BRANCH  67  90
ATOM     90  C   UNL A   1      43.248  35.578  30.628  1.00  0.00     0.023 A 
ATOM     91  C   UNL A   1      43.323  36.580  29.644  1.00  0.00     0.031 A 
ATOM     92  C   UNL A   1      43.544  35.931  31.956  1.00  0.00     0.131 A 
ATOM     93  C   UNL A   1      43.750  37.870  29.993  1.00  0.00     0.055 A 
ATOM     94  C   UNL A   1      43.907  37.232  32.307  1.00  0.00     0.041 A 
ATOM     95  F   UNL A   1      43.490  35.013  32.935  1.00  0.00    -0.206 F 
ATOM     96  C   UNL A   1      44.027  38.206  31.320  1.00  0.00     0.022 A 
BRANCH  93  97
ATOM     97  S   UNL A   1      44.048  39.074  28.668  1.00  0.00     0.124 S 
ATOM     98  O   UNL A   1      42.717  39.637  28.464  1.00  0.00    -0.237 OA
ATOM     99  O   UNL A   1      45.032  39.966  29.274  1.00  0.00    -0.237 OA
ATOM    100  O   UNL A   1      44.549  38.254  27.567  1.00  0.00    -0.744 OA
ENDBRANCH  93  97
ENDBRANCH  67  90
ENDBRANCH  41  42
ENDBRANCH  33  36
ENDBRANCH  31  32
ENDBRANCH  30  31
ENDBRANCH  29  30
ENDBRANCH   1  29
TORSDOF 19
ENDMDL
