MODEL 1
REMARK VINA RESULT:     -11.9      0.000      0.000
REMARK SMILES Cc1n[nH]c(C(=O)N[C@@H](CC(C)C)C(=O)NCCCCNC(=O)c2ccc(-c3c4nc(c(-c5cc(S(=O)(=O)[O-])ccc5F)c5ccc([nH]5)c(-c5cc(S(=O)(=O)[O-])ccc5F)c5nc(c(-c6cc(S(=O)(=O)[O-])ccc6F)c6ccc3[nH]6)C=C5)C=C4)cc2)n1
REMARK SMILES IDX 19 1 18 2 17 3 16 4 14 5 15 6 9 8 8 9 6 10 7 11 5 13 1 14
REMARK SMILES IDX 2 15 3 16 87 17 4 18 10 20 11 21 12 22 13 23 20 24 21 25
REMARK SMILES IDX 22 26 23 28 24 29 25 30 86 31 26 32 85 33 27 34 28 35 29 36
REMARK SMILES IDX 79 37 30 38 84 39 78 40 80 41 31 42 83 43 77 44 76 45 32 47
REMARK SMILES IDX 64 48 44 49 63 50 45 51 48 52 62 53 81 54 46 55 47 56 61 58
REMARK SMILES IDX 82 59 49 60 33 61 34 62 42 63 35 64 41 65 43 66 40 67 36 68
REMARK SMILES IDX 37 69 38 70 39 71 65 72 66 73 74 74 67 75 73 76 75 77 72 78
REMARK SMILES IDX 68 79 69 80 70 81 71 82 50 83 51 84 59 85 52 86 58 87 60 88
REMARK SMILES IDX 57 89 53 90 54 91 55 92 56 93
REMARK H PARENT 16 7 8 12 4 19 21 27 80 46 48 57
REMARK Flexibility Score: inf
ROOT
ATOM      1  C   UNL A   1      37.661  31.599  31.813  1.00  0.00     0.023 C 
ENDROOT
BRANCH   1   2
ATOM      2  C   UNL A   1      38.588  32.065  30.681  1.00  0.00     0.023 C 
BRANCH   2   3
ATOM      3  C   UNL A   1      38.127  33.295  29.900  1.00  0.00     0.116 C 
BRANCH   3   4
ATOM      4  N   UNL A   1      37.147  33.009  28.868  1.00  0.00    -0.354 N 
ATOM      5  C   UNL A   1      35.922  33.548  28.605  1.00  0.00     0.242 C 
ATOM      6  O   UNL A   1      35.419  33.279  27.507  1.00  0.00    -0.273 OA
ATOM      7  H   UNL A   1      37.416  32.296  28.245  1.00  0.00     0.163 HD
BRANCH   5   8
ATOM      8  C   UNL A   1      35.155  34.485  29.567  1.00  0.00     0.172 C 
BRANCH   8   9
ATOM      9  N   UNL A   1      34.383  35.490  28.840  1.00  0.00    -0.338 N 
ATOM     10  C   UNL A   1      33.660  36.596  29.220  1.00  0.00     0.289 C 
ATOM     11  O   UNL A   1      33.399  37.352  28.275  1.00  0.00    -0.266 OA
ATOM     12  H   UNL A   1      34.381  35.343  27.866  1.00  0.00     0.164 HD
BRANCH  10  13
ATOM     13  C   UNL A   1      33.175  36.855  30.569  1.00  0.00     0.214 A 
ATOM     14  C   UNL A   1      30.958  36.184  33.264  1.00  0.00     0.092 C 
ATOM     15  C   UNL A   1      32.009  36.660  32.346  1.00  0.00     0.148 A 
ATOM     16  N   UNL A   1      32.965  37.513  32.715  1.00  0.00    -0.159 NA
ATOM     17  N   UNL A   1      32.091  36.251  31.046  1.00  0.00    -0.207 NA
ATOM     18  N   UNL A   1      33.673  37.633  31.577  1.00  0.00    -0.255 N 
ATOM     19  H   UNL A   1      34.461  38.215  31.481  1.00  0.00     0.192 HD
ENDBRANCH  10  13
ENDBRANCH   8   9
BRANCH   8  20
ATOM     20  C   UNL A   1      34.385  33.886  30.762  1.00  0.00     0.038 C 
BRANCH  20  21
ATOM     21  C   UNL A   1      35.105  33.695  32.105  1.00  0.00    -0.015 C 
ATOM     22  C   UNL A   1      35.708  35.006  32.619  1.00  0.00     0.007 C 
ATOM     23  C   UNL A   1      34.135  33.171  33.173  1.00  0.00     0.007 C 
ENDBRANCH  20  21
ENDBRANCH   8  20
ENDBRANCH   5   8
ENDBRANCH   3   4
ENDBRANCH   2   3
ENDBRANCH   1   2
BRANCH   1  24
ATOM     24  C   UNL A   1      37.097  30.188  31.660  1.00  0.00     0.116 C 
BRANCH  24  25
ATOM     25  N   UNL A   1      36.165  30.062  30.549  1.00  0.00    -0.352 N 
ATOM     26  C   UNL A   1      36.460  29.762  29.230  1.00  0.00     0.251 C 
ATOM     27  H   UNL A   1      35.214  30.206  30.760  1.00  0.00     0.163 HD
ATOM     28  O   UNL A   1      35.656  30.023  28.350  1.00  0.00    -0.269 OA
BRANCH  26  29
ATOM     29  C   UNL A   1      37.763  29.141  28.903  1.00  0.00     0.039 A 
ATOM     30  C   UNL A   1      38.526  29.625  27.838  1.00  0.00     0.014 A 
ATOM     31  C   UNL A   1      38.223  28.068  29.669  1.00  0.00     0.014 A 
ATOM     32  C   UNL A   1      39.791  29.084  27.608  1.00  0.00     0.010 A 
ATOM     33  C   UNL A   1      39.504  27.577  29.483  1.00  0.00     0.010 A 
ATOM     34  C   UNL A   1      40.296  28.078  28.450  1.00  0.00    -0.014 A 
BRANCH  34  35
ATOM     35  C   UNL A   1      41.718  27.712  28.377  1.00  0.00     0.031 A 
ATOM     36  C   UNL A   1      41.976  26.430  27.663  1.00  0.00     0.074 A 
ATOM     37  C   UNL A   1      42.750  28.525  28.693  1.00  0.00     0.049 A 
ATOM     38  N   UNL A   1      42.447  25.330  28.149  1.00  0.00    -0.248 NA
ATOM     39  C   UNL A   1      41.517  26.310  26.268  1.00  0.00     0.031 C 
ATOM     40  C   UNL A   1      42.679  29.923  29.123  1.00  0.00     0.029 A 
ATOM     41  N   UNL A   1      44.098  28.307  28.590  1.00  0.00    -0.354 N 
ATOM     42  C   UNL A   1      42.579  24.458  27.071  1.00  0.00     0.074 A 
ATOM     43  C   UNL A   1      41.801  25.033  26.007  1.00  0.00     0.031 C 
ATOM     44  C   UNL A   1      43.903  30.489  29.031  1.00  0.00     0.029 A 
ATOM     45  C   UNL A   1      44.873  29.464  28.681  1.00  0.00     0.049 A 
ATOM     46  H   UNL A   1      44.486  27.412  28.463  1.00  0.00     0.167 HD
ATOM     47  C   UNL A   1      43.522  23.473  27.075  1.00  0.00     0.034 A 
ATOM     48  C   UNL A   1      46.211  29.594  28.470  1.00  0.00     0.034 A 
ATOM     49  C   UNL A   1      44.018  23.248  28.417  1.00  0.00     0.049 A 
ATOM     50  C   UNL A   1      46.817  28.256  28.640  1.00  0.00     0.074 A 
ATOM     51  C   UNL A   1      43.446  22.894  29.624  1.00  0.00     0.029 A 
ATOM     52  N   UNL A   1      45.262  23.750  28.730  1.00  0.00    -0.354 N 
ATOM     53  N   UNL A   1      46.864  27.633  29.782  1.00  0.00    -0.248 NA
ATOM     54  C   UNL A   1      47.005  27.413  27.471  1.00  0.00     0.031 C 
ATOM     55  C   UNL A   1      44.165  23.636  30.608  1.00  0.00     0.029 A 
ATOM     56  C   UNL A   1      45.188  24.338  29.966  1.00  0.00     0.049 A 
ATOM     57  H   UNL A   1      46.064  23.696  28.163  1.00  0.00     0.167 HD
ATOM     58  C   UNL A   1      46.624  26.307  29.473  1.00  0.00     0.074 A 
ATOM     59  C   UNL A   1      46.864  26.211  28.036  1.00  0.00     0.031 C 
ATOM     60  C   UNL A   1      45.975  25.493  30.359  1.00  0.00     0.034 A 
BRANCH  47  61
ATOM     61  C   UNL A   1      44.295  22.998  25.853  1.00  0.00     0.023 A 
ATOM     62  C   UNL A   1      44.313  21.609  25.613  1.00  0.00     0.031 A 
ATOM     63  C   UNL A   1      45.237  23.750  25.114  1.00  0.00     0.131 A 
ATOM     64  C   UNL A   1      45.313  21.018  24.820  1.00  0.00     0.055 A 
ATOM     65  C   UNL A   1      46.186  23.163  24.269  1.00  0.00     0.041 A 
ATOM     66  F   UNL A   1      45.358  25.076  25.221  1.00  0.00    -0.206 F 
ATOM     67  C   UNL A   1      46.257  21.788  24.149  1.00  0.00     0.022 A 
BRANCH  64  68
ATOM     68  S   UNL A   1      45.476  19.216  24.853  1.00  0.00     0.124 S 
ATOM     69  O   UNL A   1      46.784  19.060  25.482  1.00  0.00    -0.237 OA
ATOM     70  O   UNL A   1      44.322  18.825  25.655  1.00  0.00    -0.237 OA
ATOM     71  O   UNL A   1      45.410  18.844  23.442  1.00  0.00    -0.744 OA
ENDBRANCH  64  68
ENDBRANCH  47  61
BRANCH  48  72
ATOM     72  C   UNL A   1      46.962  30.755  27.920  1.00  0.00     0.023 A 
ATOM     73  C   UNL A   1      46.372  31.719  27.071  1.00  0.00     0.031 A 
ATOM     74  C   UNL A   1      48.232  31.072  28.450  1.00  0.00     0.131 A 
ATOM     75  C   UNL A   1      47.041  32.935  26.797  1.00  0.00     0.055 A 
ATOM     76  C   UNL A   1      48.890  32.273  28.175  1.00  0.00     0.041 A 
ATOM     77  F   UNL A   1      48.837  30.260  29.332  1.00  0.00    -0.206 F 
ATOM     78  C   UNL A   1      48.291  33.215  27.355  1.00  0.00     0.022 A 
BRANCH  75  79
ATOM     79  S   UNL A   1      46.243  34.231  25.793  1.00  0.00     0.124 S 
ATOM     80  O   UNL A   1      47.369  34.795  25.059  1.00  0.00    -0.237 OA
ATOM     81  O   UNL A   1      45.270  33.474  25.014  1.00  0.00    -0.237 OA
ATOM     82  O   UNL A   1      45.657  35.124  26.795  1.00  0.00    -0.744 OA
ENDBRANCH  75  79
ENDBRANCH  48  72
BRANCH  60  83
ATOM     83  C   UNL A   1      45.906  25.931  31.810  1.00  0.00     0.023 A 
ATOM     84  C   UNL A   1      44.775  26.504  32.438  1.00  0.00     0.031 A 
ATOM     85  C   UNL A   1      47.041  25.700  32.606  1.00  0.00     0.131 A 
ATOM     86  C   UNL A   1      44.825  26.852  33.803  1.00  0.00     0.055 A 
ATOM     87  C   UNL A   1      47.078  26.018  33.962  1.00  0.00     0.041 A 
ATOM     88  F   UNL A   1      48.142  25.136  32.079  1.00  0.00    -0.206 F 
ATOM     89  C   UNL A   1      45.972  26.608  34.563  1.00  0.00     0.022 A 
BRANCH  86  90
ATOM     90  S   UNL A   1      43.413  27.676  34.607  1.00  0.00     0.124 S 
ATOM     91  O   UNL A   1      43.292  28.939  33.889  1.00  0.00    -0.237 OA
ATOM     92  O   UNL A   1      42.330  26.719  34.398  1.00  0.00    -0.237 OA
ATOM     93  O   UNL A   1      43.847  27.806  35.999  1.00  0.00    -0.744 OA
ENDBRANCH  86  90
ENDBRANCH  60  83
ENDBRANCH  34  35
ENDBRANCH  26  29
ENDBRANCH  24  25
ENDBRANCH   1  24
TORSDOF 18
ENDMDL
MODEL 2
REMARK VINA RESULT:     -11.3      4.160      8.866
REMARK SMILES Cc1n[nH]c(C(=O)N[C@@H](CC(C)C)C(=O)NCCCCNC(=O)c2ccc(-c3c4nc(c(-c5cc(S(=O)(=O)[O-])ccc5F)c5ccc([nH]5)c(-c5cc(S(=O)(=O)[O-])ccc5F)c5nc(c(-c6cc(S(=O)(=O)[O-])ccc6F)c6ccc3[nH]6)C=C5)C=C4)cc2)n1
REMARK SMILES IDX 19 1 18 2 17 3 16 4 14 5 15 6 9 8 8 9 6 10 7 11 5 13 1 14
REMARK SMILES IDX 2 15 3 16 87 17 4 18 10 20 11 21 12 22 13 23 20 24 21 25
REMARK SMILES IDX 22 26 23 28 24 29 25 30 86 31 26 32 85 33 27 34 28 35 29 36
REMARK SMILES IDX 79 37 30 38 84 39 78 40 80 41 31 42 83 43 77 44 76 45 32 47
REMARK SMILES IDX 64 48 44 49 63 50 45 51 48 52 62 53 81 54 46 55 47 56 61 58
REMARK SMILES IDX 82 59 49 60 33 61 34 62 42 63 35 64 41 65 43 66 40 67 36 68
REMARK SMILES IDX 37 69 38 70 39 71 65 72 66 73 74 74 67 75 73 76 75 77 72 78
REMARK SMILES IDX 68 79 69 80 70 81 71 82 50 83 51 84 59 85 52 86 58 87 60 88
REMARK SMILES IDX 57 89 53 90 54 91 55 92 56 93
REMARK H PARENT 16 7 8 12 4 19 21 27 80 46 48 57
REMARK Flexibility Score: inf
ROOT
ATOM      1  C   UNL A   1      34.071  31.361  27.613  1.00  0.00     0.023 C 
ENDROOT
BRANCH   1   2
ATOM      2  C   UNL A   1      34.733  30.072  27.105  1.00  0.00     0.023 C 
BRANCH   2   3
ATOM      3  C   UNL A   1      33.799  29.042  26.473  1.00  0.00     0.116 C 
BRANCH   3   4
ATOM      4  N   UNL A   1      32.544  28.864  27.182  1.00  0.00    -0.354 N 
ATOM      5  C   UNL A   1      31.608  27.874  27.136  1.00  0.00     0.242 C 
ATOM      6  O   UNL A   1      30.761  27.865  28.037  1.00  0.00    -0.273 OA
ATOM      7  H   UNL A   1      32.330  29.592  27.810  1.00  0.00     0.163 HD
BRANCH   5   8
ATOM      8  C   UNL A   1      31.564  26.762  26.060  1.00  0.00     0.172 C 
BRANCH   8   9
ATOM      9  N   UNL A   1      31.260  25.459  26.645  1.00  0.00    -0.338 N 
ATOM     10  C   UNL A   1      31.920  24.252  26.682  1.00  0.00     0.289 C 
ATOM     11  O   UNL A   1      31.462  23.475  27.530  1.00  0.00    -0.266 OA
ATOM     12  H   UNL A   1      30.395  25.439  27.115  1.00  0.00     0.164 HD
BRANCH  10  13
ATOM     13  C   UNL A   1      33.005  23.865  25.790  1.00  0.00     0.214 A 
ATOM     14  C   UNL A   1      36.464  23.670  24.997  1.00  0.00     0.092 C 
ATOM     15  C   UNL A   1      34.992  23.590  25.064  1.00  0.00     0.148 A 
ATOM     16  N   UNL A   1      34.261  22.906  24.183  1.00  0.00    -0.159 NA
ATOM     17  N   UNL A   1      34.266  24.201  26.044  1.00  0.00    -0.207 NA
ATOM     18  N   UNL A   1      33.017  23.109  24.652  1.00  0.00    -0.255 N 
ATOM     19  H   UNL A   1      32.205  22.753  24.222  1.00  0.00     0.192 HD
ENDBRANCH  10  13
ENDBRANCH   8   9
BRANCH   8  20
ATOM     20  C   UNL A   1      30.817  27.014  24.734  1.00  0.00     0.038 C 
BRANCH  20  21
ATOM     21  C   UNL A   1      31.007  28.351  24.002  1.00  0.00    -0.015 C 
ATOM     22  C   UNL A   1      32.196  28.308  23.038  1.00  0.00     0.007 C 
ATOM     23  C   UNL A   1      29.754  28.710  23.192  1.00  0.00     0.007 C 
ENDBRANCH  20  21
ENDBRANCH   8  20
ENDBRANCH   5   8
ENDBRANCH   3   4
ENDBRANCH   2   3
ENDBRANCH   1   2
BRANCH   1  24
ATOM     24  C   UNL A   1      35.032  32.462  28.054  1.00  0.00     0.116 C 
BRANCH  24  25
ATOM     25  N   UNL A   1      34.921  32.787  29.468  1.00  0.00    -0.352 N 
ATOM     26  C   UNL A   1      35.581  32.186  30.526  1.00  0.00     0.251 C 
ATOM     27  H   UNL A   1      34.305  33.519  29.700  1.00  0.00     0.163 HD
ATOM     28  O   UNL A   1      35.152  32.308  31.663  1.00  0.00    -0.269 OA
BRANCH  26  29
ATOM     29  C   UNL A   1      36.797  31.385  30.260  1.00  0.00     0.039 A 
ATOM     30  C   UNL A   1      38.038  32.012  30.126  1.00  0.00     0.014 A 
ATOM     31  C   UNL A   1      36.693  29.998  30.144  1.00  0.00     0.014 A 
ATOM     32  C   UNL A   1      39.182  31.229  29.968  1.00  0.00     0.010 A 
ATOM     33  C   UNL A   1      37.833  29.218  30.054  1.00  0.00     0.010 A 
ATOM     34  C   UNL A   1      39.084  29.826  29.961  1.00  0.00    -0.014 A 
BRANCH  34  35
ATOM     35  C   UNL A   1      40.303  29.012  30.074  1.00  0.00     0.031 A 
ATOM     36  C   UNL A   1      40.702  28.713  31.478  1.00  0.00     0.074 A 
ATOM     37  C   UNL A   1      40.910  28.370  29.051  1.00  0.00     0.049 A 
ATOM     38  N   UNL A   1      41.760  29.110  32.106  1.00  0.00    -0.248 NA
ATOM     39  C   UNL A   1      39.736  28.009  32.338  1.00  0.00     0.031 C 
ATOM     40  C   UNL A   1      40.471  28.311  27.656  1.00  0.00     0.029 A 
ATOM     41  N   UNL A   1      41.995  27.535  29.064  1.00  0.00    -0.354 N 
ATOM     42  C   UNL A   1      41.717  28.499  33.357  1.00  0.00     0.074 A 
ATOM     43  C   UNL A   1      40.369  28.024  33.512  1.00  0.00     0.031 C 
ATOM     44  C   UNL A   1      41.137  27.326  27.012  1.00  0.00     0.029 A 
ATOM     45  C   UNL A   1      42.152  26.782  27.900  1.00  0.00     0.049 A 
ATOM     46  H   UNL A   1      42.611  27.472  29.829  1.00  0.00     0.167 HD
ATOM     47  C   UNL A   1      42.862  28.220  34.042  1.00  0.00     0.034 A 
ATOM     48  C   UNL A   1      43.031  25.770  27.669  1.00  0.00     0.034 A 
ATOM     49  C   UNL A   1      43.977  28.968  33.497  1.00  0.00     0.049 A 
ATOM     50  C   UNL A   1      44.143  25.924  28.631  1.00  0.00     0.074 A 
ATOM     51  C   UNL A   1      44.256  30.307  33.307  1.00  0.00     0.029 A 
ATOM     52  N   UNL A   1      44.877  28.286  32.708  1.00  0.00    -0.354 N 
ATOM     53  N   UNL A   1      44.984  26.918  28.600  1.00  0.00    -0.248 NA
ATOM     54  C   UNL A   1      44.088  25.204  29.893  1.00  0.00     0.031 C 
ATOM     55  C   UNL A   1      44.967  30.367  32.072  1.00  0.00     0.029 A 
ATOM     56  C   UNL A   1      45.159  29.061  31.613  1.00  0.00     0.049 A 
ATOM     57  H   UNL A   1      45.251  27.396  32.897  1.00  0.00     0.167 HD
ATOM     58  C   UNL A   1      45.208  27.234  29.928  1.00  0.00     0.074 A 
ATOM     59  C   UNL A   1      44.753  26.063  30.671  1.00  0.00     0.031 C 
ATOM     60  C   UNL A   1      45.469  28.523  30.301  1.00  0.00     0.034 A 
BRANCH  47  61
ATOM     61  C   UNL A   1      43.080  26.994  34.916  1.00  0.00     0.023 A 
ATOM     62  C   UNL A   1      43.843  25.946  34.362  1.00  0.00     0.031 A 
ATOM     63  C   UNL A   1      42.360  26.661  36.087  1.00  0.00     0.131 A 
ATOM     64  C   UNL A   1      43.748  24.633  34.857  1.00  0.00     0.055 A 
ATOM     65  C   UNL A   1      42.325  25.367  36.618  1.00  0.00     0.041 A 
ATOM     66  F   UNL A   1      41.586  27.532  36.740  1.00  0.00    -0.206 F 
ATOM     67  C   UNL A   1      42.987  24.334  35.981  1.00  0.00     0.022 A 
BRANCH  64  68
ATOM     68  S   UNL A   1      44.474  23.296  33.876  1.00  0.00     0.124 S 
ATOM     69  O   UNL A   1      45.822  23.807  33.649  1.00  0.00    -0.237 OA
ATOM     70  O   UNL A   1      44.357  22.161  34.784  1.00  0.00    -0.237 OA
ATOM     71  O   UNL A   1      43.617  23.240  32.694  1.00  0.00    -0.744 OA
ENDBRANCH  64  68
ENDBRANCH  47  61
BRANCH  48  72
ATOM     72  C   UNL A   1      42.864  24.562  26.817  1.00  0.00     0.023 A 
ATOM     73  C   UNL A   1      43.752  24.233  25.768  1.00  0.00     0.031 A 
ATOM     74  C   UNL A   1      41.948  23.560  27.209  1.00  0.00     0.131 A 
ATOM     75  C   UNL A   1      43.709  22.951  25.172  1.00  0.00     0.055 A 
ATOM     76  C   UNL A   1      41.908  22.297  26.615  1.00  0.00     0.041 A 
ATOM     77  F   UNL A   1      41.121  23.746  28.250  1.00  0.00    -0.206 F 
ATOM     78  C   UNL A   1      42.797  21.983  25.600  1.00  0.00     0.022 A 
BRANCH  75  79
ATOM     79  S   UNL A   1      44.921  22.477  23.894  1.00  0.00     0.124 S 
ATOM     80  O   UNL A   1      44.095  22.392  22.696  1.00  0.00    -0.237 OA
ATOM     81  O   UNL A   1      45.881  23.573  23.947  1.00  0.00    -0.237 OA
ATOM     82  O   UNL A   1      45.437  21.194  24.374  1.00  0.00    -0.744 OA
ENDBRANCH  75  79
ENDBRANCH  48  72
BRANCH  60  83
ATOM     83  C   UNL A   1      45.919  29.498  29.229  1.00  0.00     0.023 A 
ATOM     84  C   UNL A   1      45.063  30.318  28.457  1.00  0.00     0.031 A 
ATOM     85  C   UNL A   1      47.304  29.633  29.024  1.00  0.00     0.131 A 
ATOM     86  C   UNL A   1      45.603  31.203  27.503  1.00  0.00     0.055 A 
ATOM     87  C   UNL A   1      47.836  30.529  28.099  1.00  0.00     0.041 A 
ATOM     88  F   UNL A   1      48.175  28.901  29.740  1.00  0.00    -0.206 F 
ATOM     89  C   UNL A   1      46.986  31.310  27.326  1.00  0.00     0.022 A 
BRANCH  86  90
ATOM     90  S   UNL A   1      44.515  32.200  26.435  1.00  0.00     0.124 S 
ATOM     91  O   UNL A   1      45.398  32.662  25.371  1.00  0.00    -0.237 OA
ATOM     92  O   UNL A   1      43.494  31.234  26.040  1.00  0.00    -0.237 OA
ATOM     93  O   UNL A   1      44.037  33.255  27.331  1.00  0.00    -0.744 OA
ENDBRANCH  86  90
ENDBRANCH  60  83
ENDBRANCH  34  35
ENDBRANCH  26  29
ENDBRANCH  24  25
ENDBRANCH   1  24
TORSDOF 18
ENDMDL
MODEL 3
REMARK VINA RESULT:     -11.1      4.896      9.552
REMARK SMILES Cc1n[nH]c(C(=O)N[C@@H](CC(C)C)C(=O)NCCCCNC(=O)c2ccc(-c3c4nc(c(-c5cc(S(=O)(=O)[O-])ccc5F)c5ccc([nH]5)c(-c5cc(S(=O)(=O)[O-])ccc5F)c5nc(c(-c6cc(S(=O)(=O)[O-])ccc6F)c6ccc3[nH]6)C=C5)C=C4)cc2)n1
REMARK SMILES IDX 19 1 18 2 17 3 16 4 14 5 15 6 9 8 8 9 6 10 7 11 5 13 1 14
REMARK SMILES IDX 2 15 3 16 87 17 4 18 10 20 11 21 12 22 13 23 20 24 21 25
REMARK SMILES IDX 22 26 23 28 24 29 25 30 86 31 26 32 85 33 27 34 28 35 29 36
REMARK SMILES IDX 79 37 30 38 84 39 78 40 80 41 31 42 83 43 77 44 76 45 32 47
REMARK SMILES IDX 64 48 44 49 63 50 45 51 48 52 62 53 81 54 46 55 47 56 61 58
REMARK SMILES IDX 82 59 49 60 33 61 34 62 42 63 35 64 41 65 43 66 40 67 36 68
REMARK SMILES IDX 37 69 38 70 39 71 65 72 66 73 74 74 67 75 73 76 75 77 72 78
REMARK SMILES IDX 68 79 69 80 70 81 71 82 50 83 51 84 59 85 52 86 58 87 60 88
REMARK SMILES IDX 57 89 53 90 54 91 55 92 56 93
REMARK H PARENT 16 7 8 12 4 19 21 27 80 46 48 57
REMARK Flexibility Score: inf
ROOT
ATOM      1  C   UNL A   1      32.739  30.326  26.625  1.00  0.00     0.023 C 
ENDROOT
BRANCH   1   2
ATOM      2  C   UNL A   1      31.998  28.986  26.728  1.00  0.00     0.023 C 
BRANCH   2   3
ATOM      3  C   UNL A   1      32.155  28.037  25.541  1.00  0.00     0.116 C 
BRANCH   3   4
ATOM      4  N   UNL A   1      30.917  27.758  24.836  1.00  0.00    -0.354 N 
ATOM      5  C   UNL A   1      30.284  26.586  24.542  1.00  0.00     0.242 C 
ATOM      6  O   UNL A   1      29.114  26.668  24.149  1.00  0.00    -0.273 OA
ATOM      7  H   UNL A   1      30.449  28.561  24.512  1.00  0.00     0.163 HD
BRANCH   5   8
ATOM      8  C   UNL A   1      30.922  25.185  24.699  1.00  0.00     0.172 C 
BRANCH   8   9
ATOM      9  N   UNL A   1      30.223  24.384  25.700  1.00  0.00    -0.338 N 
ATOM     10  C   UNL A   1      30.618  23.410  26.587  1.00  0.00     0.289 C 
ATOM     11  O   UNL A   1      29.777  23.188  27.469  1.00  0.00    -0.266 OA
ATOM     12  H   UNL A   1      29.261  24.586  25.752  1.00  0.00     0.164 HD
BRANCH  10  13
ATOM     13  C   UNL A   1      31.856  22.648  26.497  1.00  0.00     0.214 A 
ATOM     14  C   UNL A   1      33.928  20.251  24.887  1.00  0.00     0.092 C 
ATOM     15  C   UNL A   1      33.313  21.285  25.741  1.00  0.00     0.148 A 
ATOM     16  N   UNL A   1      33.974  21.907  26.718  1.00  0.00    -0.159 NA
ATOM     17  N   UNL A   1      32.020  21.694  25.587  1.00  0.00    -0.207 NA
ATOM     18  N   UNL A   1      33.032  22.745  27.188  1.00  0.00    -0.255 N 
ATOM     19  H   UNL A   1      33.174  23.359  27.945  1.00  0.00     0.192 HD
ENDBRANCH  10  13
ENDBRANCH   8   9
BRANCH   8  20
ATOM     20  C   UNL A   1      31.303  24.376  23.442  1.00  0.00     0.038 C 
BRANCH  20  21
ATOM     21  C   UNL A   1      32.770  24.331  22.988  1.00  0.00    -0.015 C 
ATOM     22  C   UNL A   1      33.122  22.991  22.335  1.00  0.00     0.007 C 
ATOM     23  C   UNL A   1      33.058  25.443  21.971  1.00  0.00     0.007 C 
ENDBRANCH  20  21
ENDBRANCH   8  20
ENDBRANCH   5   8
ENDBRANCH   3   4
ENDBRANCH   2   3
ENDBRANCH   1   2
BRANCH   1  24
ATOM     24  C   UNL A   1      34.089  30.385  27.335  1.00  0.00     0.116 C 
BRANCH  24  25
ATOM     25  N   UNL A   1      34.170  31.451  28.324  1.00  0.00    -0.352 N 
ATOM     26  C   UNL A   1      35.118  31.608  29.320  1.00  0.00     0.251 C 
ATOM     27  H   UNL A   1      33.468  32.140  28.279  1.00  0.00     0.163 HD
ATOM     28  O   UNL A   1      34.884  32.327  30.279  1.00  0.00    -0.269 OA
BRANCH  26  29
ATOM     29  C   UNL A   1      36.404  30.883  29.216  1.00  0.00     0.039 A 
ATOM     30  C   UNL A   1      37.612  31.583  29.256  1.00  0.00     0.014 A 
ATOM     31  C   UNL A   1      36.400  29.494  29.078  1.00  0.00     0.014 A 
ATOM     32  C   UNL A   1      38.812  30.871  29.250  1.00  0.00     0.010 A 
ATOM     33  C   UNL A   1      37.586  28.784  29.139  1.00  0.00     0.010 A 
ATOM     34  C   UNL A   1      38.800  29.465  29.221  1.00  0.00    -0.014 A 
BRANCH  34  35
ATOM     35  C   UNL A   1      40.038  28.722  29.493  1.00  0.00     0.031 A 
ATOM     36  C   UNL A   1      40.359  28.592  30.942  1.00  0.00     0.074 A 
ATOM     37  C   UNL A   1      40.732  28.002  28.583  1.00  0.00     0.049 A 
ATOM     38  N   UNL A   1      41.359  29.099  31.584  1.00  0.00    -0.248 NA
ATOM     39  C   UNL A   1      39.368  27.940  31.815  1.00  0.00     0.031 C 
ATOM     40  C   UNL A   1      40.385  27.776  27.179  1.00  0.00     0.029 A 
ATOM     41  N   UNL A   1      41.845  27.222  28.751  1.00  0.00    -0.354 N 
ATOM     42  C   UNL A   1      41.261  28.623  32.889  1.00  0.00     0.074 A 
ATOM     43  C   UNL A   1      39.924  28.108  33.016  1.00  0.00     0.031 C 
ATOM     44  C   UNL A   1      41.126  26.759  26.687  1.00  0.00     0.029 A 
ATOM     45  C   UNL A   1      42.103  26.357  27.686  1.00  0.00     0.049 A 
ATOM     46  H   UNL A   1      42.413  27.267  29.553  1.00  0.00     0.167 HD
ATOM     47  C   UNL A   1      42.370  28.469  33.667  1.00  0.00     0.034 A 
ATOM     48  C   UNL A   1      43.033  25.366  27.619  1.00  0.00     0.034 A 
ATOM     49  C   UNL A   1      43.489  29.202  33.111  1.00  0.00     0.049 A 
ATOM     50  C   UNL A   1      44.075  25.670  28.622  1.00  0.00     0.074 A 
ATOM     51  C   UNL A   1      43.728  30.525  32.793  1.00  0.00     0.029 A 
ATOM     52  N   UNL A   1      44.461  28.481  32.454  1.00  0.00    -0.354 N 
ATOM     53  N   UNL A   1      44.878  26.690  28.533  1.00  0.00    -0.248 NA
ATOM     54  C   UNL A   1      43.968  25.086  29.950  1.00  0.00     0.031 C 
ATOM     55  C   UNL A   1      44.514  30.484  31.602  1.00  0.00     0.029 A 
ATOM     56  C   UNL A   1      44.782  29.147  31.300  1.00  0.00     0.049 A 
ATOM     57  H   UNL A   1      44.856  27.634  32.761  1.00  0.00     0.167 HD
ATOM     58  C   UNL A   1      45.006  27.156  29.829  1.00  0.00     0.074 A 
ATOM     59  C   UNL A   1      44.549  26.052  30.667  1.00  0.00     0.031 C 
ATOM     60  C   UNL A   1      45.195  28.487  30.075  1.00  0.00     0.034 A 
BRANCH  47  61
ATOM     61  C   UNL A   1      42.578  27.353  34.681  1.00  0.00     0.023 A 
ATOM     62  C   UNL A   1      43.416  26.289  34.290  1.00  0.00     0.031 A 
ATOM     63  C   UNL A   1      41.796  27.113  35.834  1.00  0.00     0.131 A 
ATOM     64  C   UNL A   1      43.341  25.033  34.918  1.00  0.00     0.055 A 
ATOM     65  C   UNL A   1      41.778  25.882  36.499  1.00  0.00     0.041 A 
ATOM     66  F   UNL A   1      40.947  28.011  36.340  1.00  0.00    -0.206 F 
ATOM     67  C   UNL A   1      42.520  24.819  36.019  1.00  0.00     0.022 A 
BRANCH  64  68
ATOM     68  S   UNL A   1      44.181  23.634  34.134  1.00  0.00     0.124 S 
ATOM     69  O   UNL A   1      45.438  24.251  33.722  1.00  0.00    -0.237 OA
ATOM     70  O   UNL A   1      44.259  22.678  35.232  1.00  0.00    -0.237 OA
ATOM     71  O   UNL A   1      43.278  23.264  33.047  1.00  0.00    -0.744 OA
ENDBRANCH  64  68
ENDBRANCH  47  61
BRANCH  48  72
ATOM     72  C   UNL A   1      42.964  24.068  26.895  1.00  0.00     0.023 A 
ATOM     73  C   UNL A   1      43.959  23.643  25.985  1.00  0.00     0.031 A 
ATOM     74  C   UNL A   1      42.022  23.097  27.302  1.00  0.00     0.131 A 
ATOM     75  C   UNL A   1      43.989  22.302  25.534  1.00  0.00     0.055 A 
ATOM     76  C   UNL A   1      42.054  21.775  26.852  1.00  0.00     0.041 A 
ATOM     77  F   UNL A   1      41.091  23.380  28.226  1.00  0.00    -0.206 F 
ATOM     78  C   UNL A   1      43.046  21.369  25.974  1.00  0.00     0.022 A 
BRANCH  75  79
ATOM     79  S   UNL A   1      45.331  21.716  24.447  1.00  0.00     0.124 S 
ATOM     80  O   UNL A   1      46.380  21.378  25.402  1.00  0.00    -0.237 OA
ATOM     81  O   UNL A   1      44.705  20.601  23.746  1.00  0.00    -0.237 OA
ATOM     82  O   UNL A   1      45.620  22.878  23.606  1.00  0.00    -0.744 OA
ENDBRANCH  75  79
ENDBRANCH  48  72
BRANCH  60  83
ATOM     83  C   UNL A   1      45.675  29.361  28.932  1.00  0.00     0.023 A 
ATOM     84  C   UNL A   1      47.029  29.621  28.614  1.00  0.00     0.031 A 
ATOM     85  C   UNL A   1      44.695  29.915  28.089  1.00  0.00     0.131 A 
ATOM     86  C   UNL A   1      47.352  30.435  27.510  1.00  0.00     0.055 A 
ATOM     87  C   UNL A   1      45.018  30.696  26.982  1.00  0.00     0.041 A 
ATOM     88  F   UNL A   1      43.390  29.689  28.320  1.00  0.00    -0.206 F 
ATOM     89  C   UNL A   1      46.350  30.970  26.695  1.00  0.00     0.022 A 
BRANCH  86  90
ATOM     90  S   UNL A   1      49.085  30.857  27.139  1.00  0.00     0.124 S 
ATOM     91  O   UNL A   1      49.714  30.933  28.453  1.00  0.00    -0.237 OA
ATOM     92  O   UNL A   1      49.506  29.743  26.295  1.00  0.00    -0.237 OA
ATOM     93  O   UNL A   1      48.977  32.140  26.441  1.00  0.00    -0.744 OA
ENDBRANCH  86  90
ENDBRANCH  60  83
ENDBRANCH  34  35
ENDBRANCH  26  29
ENDBRANCH  24  25
ENDBRANCH   1  24
TORSDOF 18
ENDMDL
