MODEL 1
REMARK VINA RESULT:     -11.5      0.000      0.000
REMARK SMILES O=C(C[C@H]1C[N@@H+]([C@@H]2CC(=O)NC2=O)CCO1)NCCCCNC(=O)c1ccc(-c2c3nc(c(-c4cc(S(=O)(=O)[O-])ccc4F)c4ccc([nH]4)c(-c4cc(S(=O)(=O)[O-])ccc4F)c4nc(c(-c5cc(S(=O)(=O)[O-])ccc5F)c5ccc2[nH]5)C=C4)C=C3)cc1
REMARK SMILES IDX 20 1 19 2 18 3 17 4 1 5 2 6 3 8 4 9 5 10 16 11 6 12 15 13
REMARK SMILES IDX 14 14 7 16 8 17 12 18 9 19 11 20 13 21 10 22 21 24 22 25
REMARK SMILES IDX 23 26 24 28 25 29 26 30 87 31 27 32 86 33 28 34 29 35 30 36
REMARK SMILES IDX 80 37 31 38 85 39 79 40 81 41 32 42 84 43 78 44 77 45 33 47
REMARK SMILES IDX 65 48 45 49 64 50 46 51 49 52 63 53 82 54 47 55 48 56 62 58
REMARK SMILES IDX 83 59 50 60 34 61 35 62 43 63 36 64 42 65 44 66 41 67 37 68
REMARK SMILES IDX 38 69 39 70 40 71 66 72 67 73 75 74 68 75 74 76 76 77 73 78
REMARK SMILES IDX 69 79 70 80 71 81 72 82 51 83 52 84 60 85 53 86 59 87 61 88
REMARK SMILES IDX 58 89 54 90 55 91 56 92 57 93
REMARK H PARENT 17 7 6 15 11 23 22 27 81 46 49 57
REMARK Flexibility Score: inf
ROOT
ATOM      1  C   UNL A   1      31.959  29.099  27.004  1.00  0.00     0.023 C 
ENDROOT
BRANCH   1   2
ATOM      2  C   UNL A   1      32.199  27.586  27.017  1.00  0.00     0.023 C 
BRANCH   2   3
ATOM      3  C   UNL A   1      31.203  26.767  26.194  1.00  0.00     0.116 C 
BRANCH   3   4
ATOM      4  N   UNL A   1      31.817  25.555  25.696  1.00  0.00    -0.356 N 
ATOM      5  O   UNL A   1      30.947  24.155  27.299  1.00  0.00    -0.275 OA
ATOM      6  C   UNL A   1      31.731  24.365  26.380  1.00  0.00     0.222 C 
ATOM      7  H   UNL A   1      32.310  25.583  24.844  1.00  0.00     0.163 HD
BRANCH   6   8
ATOM      8  C   UNL A   1      32.817  23.392  26.001  1.00  0.00     0.138 C 
BRANCH   8   9
ATOM      9  C   UNL A   1      32.717  22.803  24.600  1.00  0.00     0.182 C 
ATOM     10  C   UNL A   1      34.119  22.498  24.011  1.00  0.00     0.295 C 
ATOM     11  O   UNL A   1      31.897  21.623  24.550  1.00  0.00    -0.366 OA
ATOM     12  N   UNL A   1      34.800  21.323  24.566  1.00  0.00    -0.320 N 
ATOM     13  C   UNL A   1      32.494  20.475  25.162  1.00  0.00     0.222 C 
ATOM     14  C   UNL A   1      33.904  20.168  24.626  1.00  0.00     0.291 C 
ATOM     15  H   UNL A   1      35.514  21.158  23.856  1.00  0.00     0.348 HD
BRANCH  12  16
ATOM     16  C   UNL A   1      35.827  21.435  25.610  1.00  0.00     0.284 C 
ATOM     17  C   UNL A   1      36.157  22.808  26.197  1.00  0.00     0.176 C 
ATOM     18  C   UNL A   1      37.192  20.928  25.154  1.00  0.00     0.285 C 
ATOM     19  C   UNL A   1      37.534  23.105  25.679  1.00  0.00     0.233 C 
ATOM     20  N   UNL A   1      38.065  21.969  25.165  1.00  0.00    -0.291 N 
ATOM     21  O   UNL A   1      37.473  19.796  24.795  1.00  0.00    -0.268 OA
ATOM     22  O   UNL A   1      38.094  24.184  25.732  1.00  0.00    -0.274 OA
ATOM     23  H   UNL A   1      38.990  21.905  24.833  1.00  0.00     0.173 HD
ENDBRANCH  12  16
ENDBRANCH   8   9
ENDBRANCH   6   8
ENDBRANCH   3   4
ENDBRANCH   2   3
ENDBRANCH   1   2
BRANCH   1  24
ATOM     24  C   UNL A   1      33.102  29.930  26.434  1.00  0.00     0.116 C 
BRANCH  24  25
ATOM     25  N   UNL A   1      33.033  31.323  26.840  1.00  0.00    -0.352 N 
ATOM     26  C   UNL A   1      33.888  32.031  27.650  1.00  0.00     0.251 C 
ATOM     27  H   UNL A   1      32.268  31.831  26.483  1.00  0.00     0.163 HD
ATOM     28  O   UNL A   1      33.585  33.163  28.012  1.00  0.00    -0.269 OA
BRANCH  26  29
ATOM     29  C   UNL A   1      35.145  31.405  28.111  1.00  0.00     0.039 A 
ATOM     30  C   UNL A   1      36.304  32.183  28.162  1.00  0.00     0.014 A 
ATOM     31  C   UNL A   1      35.179  30.067  28.514  1.00  0.00     0.014 A 
ATOM     32  C   UNL A   1      37.480  31.637  28.680  1.00  0.00     0.010 A 
ATOM     33  C   UNL A   1      36.330  29.551  29.106  1.00  0.00     0.010 A 
ATOM     34  C   UNL A   1      37.494  30.330  29.195  1.00  0.00    -0.014 A 
BRANCH  34  35
ATOM     35  C   UNL A   1      38.716  29.768  29.829  1.00  0.00     0.031 A 
ATOM     36  C   UNL A   1      39.145  30.240  31.192  1.00  0.00     0.074 A 
ATOM     37  C   UNL A   1      39.466  28.872  29.157  1.00  0.00     0.049 A 
ATOM     38  N   UNL A   1      40.207  29.915  31.884  1.00  0.00    -0.248 NA
ATOM     39  C   UNL A   1      38.279  31.229  31.852  1.00  0.00     0.031 C 
ATOM     40  C   UNL A   1      39.171  28.361  27.816  1.00  0.00     0.029 A 
ATOM     41  N   UNL A   1      40.630  28.232  29.503  1.00  0.00    -0.354 N 
ATOM     42  C   UNL A   1      40.144  30.666  33.053  1.00  0.00     0.074 A 
ATOM     43  C   UNL A   1      38.972  31.510  32.945  1.00  0.00     0.031 C 
ATOM     44  C   UNL A   1      40.107  27.463  27.470  1.00  0.00     0.029 A 
ATOM     45  C   UNL A   1      41.102  27.374  28.535  1.00  0.00     0.049 A 
ATOM     46  H   UNL A   1      41.086  28.375  30.365  1.00  0.00     0.167 HD
ATOM     47  C   UNL A   1      40.973  30.639  34.125  1.00  0.00     0.034 A 
ATOM     48  C   UNL A   1      42.212  26.611  28.504  1.00  0.00     0.034 A 
ATOM     49  C   UNL A   1      42.133  29.785  34.220  1.00  0.00     0.049 A 
ATOM     50  C   UNL A   1      43.143  26.632  29.691  1.00  0.00     0.074 A 
ATOM     51  C   UNL A   1      43.007  29.637  35.283  1.00  0.00     0.029 A 
ATOM     52  N   UNL A   1      42.590  28.946  33.212  1.00  0.00    -0.354 N 
ATOM     53  N   UNL A   1      43.041  27.309  30.811  1.00  0.00    -0.248 NA
ATOM     54  C   UNL A   1      44.337  25.779  29.611  1.00  0.00     0.031 C 
ATOM     55  C   UNL A   1      44.037  28.777  34.887  1.00  0.00     0.029 A 
ATOM     56  C   UNL A   1      43.757  28.311  33.613  1.00  0.00     0.049 A 
ATOM     57  H   UNL A   1      42.151  28.819  32.340  1.00  0.00     0.167 HD
ATOM     58  C   UNL A   1      44.136  26.933  31.584  1.00  0.00     0.074 A 
ATOM     59  C   UNL A   1      44.877  25.961  30.808  1.00  0.00     0.031 C 
ATOM     60  C   UNL A   1      44.494  27.349  32.826  1.00  0.00     0.034 A 
BRANCH  47  61
ATOM     61  C   UNL A   1      40.673  31.585  35.266  1.00  0.00     0.023 A 
ATOM     62  C   UNL A   1      39.615  31.353  36.162  1.00  0.00     0.031 A 
ATOM     63  C   UNL A   1      41.445  32.746  35.449  1.00  0.00     0.131 A 
ATOM     64  C   UNL A   1      39.310  32.305  37.149  1.00  0.00     0.055 A 
ATOM     65  C   UNL A   1      41.192  33.643  36.488  1.00  0.00     0.041 A 
ATOM     66  F   UNL A   1      42.455  33.035  34.614  1.00  0.00    -0.206 F 
ATOM     67  C   UNL A   1      40.109  33.434  37.335  1.00  0.00     0.022 A 
BRANCH  64  68
ATOM     68  S   UNL A   1      37.764  32.120  38.079  1.00  0.00     0.124 S 
ATOM     69  O   UNL A   1      37.424  30.725  37.811  1.00  0.00    -0.237 OA
ATOM     70  O   UNL A   1      38.178  32.426  39.443  1.00  0.00    -0.237 OA
ATOM     71  O   UNL A   1      36.874  33.101  37.460  1.00  0.00    -0.744 OA
ENDBRANCH  64  68
ENDBRANCH  47  61
BRANCH  48  72
ATOM     72  C   UNL A   1      42.522  25.769  27.311  1.00  0.00     0.023 A 
ATOM     73  C   UNL A   1      42.136  24.420  27.257  1.00  0.00     0.031 A 
ATOM     74  C   UNL A   1      43.256  26.285  26.227  1.00  0.00     0.131 A 
ATOM     75  C   UNL A   1      42.529  23.621  26.172  1.00  0.00     0.055 A 
ATOM     76  C   UNL A   1      43.591  25.502  25.121  1.00  0.00     0.041 A 
ATOM     77  F   UNL A   1      43.651  27.569  26.224  1.00  0.00    -0.206 F 
ATOM     78  C   UNL A   1      43.240  24.157  25.097  1.00  0.00     0.022 A 
BRANCH  75  79
ATOM     79  S   UNL A   1      42.186  21.841  26.237  1.00  0.00     0.124 S 
ATOM     80  O   UNL A   1      40.762  21.802  25.923  1.00  0.00    -0.237 OA
ATOM     81  O   UNL A   1      43.084  21.322  25.212  1.00  0.00    -0.237 OA
ATOM     82  O   UNL A   1      42.533  21.478  27.610  1.00  0.00    -0.744 OA
ENDBRANCH  75  79
ENDBRANCH  48  72
BRANCH  60  83
ATOM     83  C   UNL A   1      45.718  26.711  33.441  1.00  0.00     0.023 A 
ATOM     84  C   UNL A   1      45.647  25.508  34.164  1.00  0.00     0.031 A 
ATOM     85  C   UNL A   1      46.977  27.326  33.308  1.00  0.00     0.131 A 
ATOM     86  C   UNL A   1      46.799  24.989  34.776  1.00  0.00     0.055 A 
ATOM     87  C   UNL A   1      48.130  26.768  33.858  1.00  0.00     0.041 A 
ATOM     88  F   UNL A   1      47.105  28.479  32.632  1.00  0.00    -0.206 F 
ATOM     89  C   UNL A   1      48.044  25.602  34.610  1.00  0.00     0.022 A 
BRANCH  86  90
ATOM     90  S   UNL A   1      46.631  23.562  35.882  1.00  0.00     0.124 S 
ATOM     91  O   UNL A   1      46.712  22.443  34.949  1.00  0.00    -0.237 OA
ATOM     92  O   UNL A   1      47.769  23.727  36.781  1.00  0.00    -0.237 OA
ATOM     93  O   UNL A   1      45.321  23.760  36.501  1.00  0.00    -0.744 OA
ENDBRANCH  86  90
ENDBRANCH  60  83
ENDBRANCH  34  35
ENDBRANCH  26  29
ENDBRANCH  24  25
ENDBRANCH   1  24
TORSDOF 16
ENDMDL
MODEL 2
REMARK VINA RESULT:     -11.4      3.086      8.699
REMARK SMILES O=C(C[C@H]1C[N@@H+]([C@@H]2CC(=O)NC2=O)CCO1)NCCCCNC(=O)c1ccc(-c2c3nc(c(-c4cc(S(=O)(=O)[O-])ccc4F)c4ccc([nH]4)c(-c4cc(S(=O)(=O)[O-])ccc4F)c4nc(c(-c5cc(S(=O)(=O)[O-])ccc5F)c5ccc2[nH]5)C=C4)C=C3)cc1
REMARK SMILES IDX 20 1 19 2 18 3 17 4 1 5 2 6 3 8 4 9 5 10 16 11 6 12 15 13
REMARK SMILES IDX 14 14 7 16 8 17 12 18 9 19 11 20 13 21 10 22 21 24 22 25
REMARK SMILES IDX 23 26 24 28 25 29 26 30 87 31 27 32 86 33 28 34 29 35 30 36
REMARK SMILES IDX 80 37 31 38 85 39 79 40 81 41 32 42 84 43 78 44 77 45 33 47
REMARK SMILES IDX 65 48 45 49 64 50 46 51 49 52 63 53 82 54 47 55 48 56 62 58
REMARK SMILES IDX 83 59 50 60 34 61 35 62 43 63 36 64 42 65 44 66 41 67 37 68
REMARK SMILES IDX 38 69 39 70 40 71 66 72 67 73 75 74 68 75 74 76 76 77 73 78
REMARK SMILES IDX 69 79 70 80 71 81 72 82 51 83 52 84 60 85 53 86 59 87 61 88
REMARK SMILES IDX 58 89 54 90 55 91 56 92 57 93
REMARK H PARENT 17 7 6 15 11 23 22 27 81 46 49 57
REMARK Flexibility Score: inf
ROOT
ATOM      1  C   UNL A   1      31.747  31.831  26.827  1.00  0.00     0.023 C 
ENDROOT
BRANCH   1   2
ATOM      2  C   UNL A   1      31.909  30.312  26.703  1.00  0.00     0.023 C 
BRANCH   2   3
ATOM      3  C   UNL A   1      32.702  29.845  25.482  1.00  0.00     0.116 C 
BRANCH   3   4
ATOM      4  N   UNL A   1      32.532  28.424  25.268  1.00  0.00    -0.356 N 
ATOM      5  O   UNL A   1      34.387  27.767  26.457  1.00  0.00    -0.275 OA
ATOM      6  C   UNL A   1      33.477  27.512  25.677  1.00  0.00     0.222 C 
ATOM      7  H   UNL A   1      31.719  28.102  24.817  1.00  0.00     0.163 HD
BRANCH   6   8
ATOM      8  C   UNL A   1      33.385  26.202  24.937  1.00  0.00     0.138 C 
BRANCH   8   9
ATOM      9  C   UNL A   1      34.258  25.077  25.477  1.00  0.00     0.182 C 
ATOM     10  C   UNL A   1      33.416  24.016  26.232  1.00  0.00     0.295 C 
ATOM     11  O   UNL A   1      35.042  24.442  24.452  1.00  0.00    -0.366 OA
ATOM     12  N   UNL A   1      32.611  23.125  25.389  1.00  0.00    -0.320 N 
ATOM     13  C   UNL A   1      34.275  23.632  23.554  1.00  0.00     0.222 C 
ATOM     14  C   UNL A   1      33.397  22.593  24.275  1.00  0.00     0.291 C 
ATOM     15  H   UNL A   1      32.403  22.370  26.044  1.00  0.00     0.348 HD
BRANCH  12  16
ATOM     16  C   UNL A   1      31.179  23.351  25.155  1.00  0.00     0.284 C 
ATOM     17  C   UNL A   1      30.739  24.379  24.112  1.00  0.00     0.176 C 
ATOM     18  C   UNL A   1      30.440  23.809  26.409  1.00  0.00     0.285 C 
ATOM     19  C   UNL A   1      30.150  25.495  24.924  1.00  0.00     0.233 C 
ATOM     20  N   UNL A   1      29.958  25.061  26.194  1.00  0.00    -0.291 N 
ATOM     21  O   UNL A   1      30.321  23.195  27.457  1.00  0.00    -0.268 OA
ATOM     22  O   UNL A   1      29.868  26.603  24.508  1.00  0.00    -0.274 OA
ATOM     23  H   UNL A   1      29.513  25.598  26.889  1.00  0.00     0.173 HD
ENDBRANCH  12  16
ENDBRANCH   8   9
ENDBRANCH   6   8
ENDBRANCH   3   4
ENDBRANCH   2   3
ENDBRANCH   1   2
BRANCH   1  24
ATOM     24  C   UNL A   1      32.946  32.564  27.415  1.00  0.00     0.116 C 
BRANCH  24  25
ATOM     25  N   UNL A   1      32.652  33.951  27.728  1.00  0.00    -0.352 N 
ATOM     26  C   UNL A   1      33.218  34.761  28.682  1.00  0.00     0.251 C 
ATOM     27  H   UNL A   1      31.951  34.370  27.177  1.00  0.00     0.163 HD
ATOM     28  O   UNL A   1      32.733  35.865  28.909  1.00  0.00    -0.269 OA
BRANCH  26  29
ATOM     29  C   UNL A   1      34.382  34.278  29.456  1.00  0.00     0.039 A 
ATOM     30  C   UNL A   1      34.158  33.622  30.668  1.00  0.00     0.014 A 
ATOM     31  C   UNL A   1      35.685  34.448  28.980  1.00  0.00     0.014 A 
ATOM     32  C   UNL A   1      35.236  33.078  31.369  1.00  0.00     0.010 A 
ATOM     33  C   UNL A   1      36.748  33.834  29.638  1.00  0.00     0.010 A 
ATOM     34  C   UNL A   1      36.537  33.143  30.840  1.00  0.00    -0.014 A 
BRANCH  34  35
ATOM     35  C   UNL A   1      37.680  32.492  31.533  1.00  0.00     0.031 A 
ATOM     36  C   UNL A   1      38.420  31.362  30.870  1.00  0.00     0.074 A 
ATOM     37  C   UNL A   1      38.017  32.882  32.778  1.00  0.00     0.049 A 
ATOM     38  N   UNL A   1      39.402  30.630  31.333  1.00  0.00    -0.248 NA
ATOM     39  C   UNL A   1      37.981  30.988  29.517  1.00  0.00     0.031 C 
ATOM     40  C   UNL A   1      37.354  33.944  33.539  1.00  0.00     0.029 A 
ATOM     41  N   UNL A   1      38.999  32.434  33.628  1.00  0.00    -0.354 N 
ATOM     42  C   UNL A   1      39.689  29.704  30.337  1.00  0.00     0.074 A 
ATOM     43  C   UNL A   1      38.734  29.926  29.271  1.00  0.00     0.031 C 
ATOM     44  C   UNL A   1      37.968  34.088  34.723  1.00  0.00     0.029 A 
ATOM     45  C   UNL A   1      39.032  33.094  34.835  1.00  0.00     0.049 A 
ATOM     46  H   UNL A   1      39.621  31.707  33.394  1.00  0.00     0.167 HD
ATOM     47  C   UNL A   1      40.671  28.769  30.304  1.00  0.00     0.034 A 
ATOM     48  C   UNL A   1      39.819  32.913  35.914  1.00  0.00     0.034 A 
ATOM     49  C   UNL A   1      41.621  28.567  31.372  1.00  0.00     0.049 A 
ATOM     50  C   UNL A   1      40.875  31.836  35.871  1.00  0.00     0.074 A 
ATOM     51  C   UNL A   1      42.689  27.689  31.418  1.00  0.00     0.029 A 
ATOM     52  N   UNL A   1      41.610  29.239  32.587  1.00  0.00    -0.354 N 
ATOM     53  N   UNL A   1      41.168  31.003  34.899  1.00  0.00    -0.248 NA
ATOM     54  C   UNL A   1      41.713  31.681  37.068  1.00  0.00     0.031 C 
ATOM     55  C   UNL A   1      43.269  27.768  32.688  1.00  0.00     0.029 A 
ATOM     56  C   UNL A   1      42.626  28.764  33.404  1.00  0.00     0.049 A 
ATOM     57  H   UNL A   1      40.973  29.950  32.834  1.00  0.00     0.167 HD
ATOM     58  C   UNL A   1      42.248  30.251  35.355  1.00  0.00     0.074 A 
ATOM     59  C   UNL A   1      42.562  30.741  36.681  1.00  0.00     0.031 C 
ATOM     60  C   UNL A   1      42.924  29.253  34.731  1.00  0.00     0.034 A 
BRANCH  47  61
ATOM     61  C   UNL A   1      40.745  27.874  29.088  1.00  0.00     0.023 A 
ATOM     62  C   UNL A   1      41.657  28.114  28.045  1.00  0.00     0.031 A 
ATOM     63  C   UNL A   1      39.877  26.775  28.960  1.00  0.00     0.131 A 
ATOM     64  C   UNL A   1      41.627  27.316  26.890  1.00  0.00     0.055 A 
ATOM     65  C   UNL A   1      39.914  25.931  27.848  1.00  0.00     0.041 A 
ATOM     66  F   UNL A   1      38.969  26.507  29.911  1.00  0.00    -0.206 F 
ATOM     67  C   UNL A   1      40.782  26.209  26.797  1.00  0.00     0.022 A 
BRANCH  64  68
ATOM     68  S   UNL A   1      42.601  27.841  25.452  1.00  0.00     0.124 S 
ATOM     69  O   UNL A   1      42.605  26.626  24.640  1.00  0.00    -0.237 OA
ATOM     70  O   UNL A   1      41.819  28.955  24.931  1.00  0.00    -0.237 OA
ATOM     71  O   UNL A   1      43.895  28.200  26.029  1.00  0.00    -0.744 OA
ENDBRANCH  64  68
ENDBRANCH  47  61
BRANCH  48  72
ATOM     72  C   UNL A   1      39.642  33.753  37.135  1.00  0.00     0.023 A 
ATOM     73  C   UNL A   1      40.472  34.860  37.377  1.00  0.00     0.031 A 
ATOM     74  C   UNL A   1      38.674  33.434  38.104  1.00  0.00     0.131 A 
ATOM     75  C   UNL A   1      40.356  35.573  38.581  1.00  0.00     0.055 A 
ATOM     76  C   UNL A   1      38.522  34.183  39.271  1.00  0.00     0.041 A 
ATOM     77  F   UNL A   1      37.853  32.386  37.924  1.00  0.00    -0.206 F 
ATOM     78  C   UNL A   1      39.376  35.251  39.522  1.00  0.00     0.022 A 
BRANCH  75  79
ATOM     79  S   UNL A   1      41.576  36.864  38.945  1.00  0.00     0.124 S 
ATOM     80  O   UNL A   1      42.276  36.979  37.671  1.00  0.00    -0.237 OA
ATOM     81  O   UNL A   1      40.725  37.989  39.315  1.00  0.00    -0.237 OA
ATOM     82  O   UNL A   1      42.359  36.292  40.039  1.00  0.00    -0.744 OA
ENDBRANCH  75  79
ENDBRANCH  48  72
BRANCH  60  83
ATOM     83  C   UNL A   1      44.106  28.658  35.461  1.00  0.00     0.023 A 
ATOM     84  C   UNL A   1      43.956  27.627  36.404  1.00  0.00     0.031 A 
ATOM     85  C   UNL A   1      45.404  29.141  35.213  1.00  0.00     0.131 A 
ATOM     86  C   UNL A   1      45.076  27.153  37.107  1.00  0.00     0.055 A 
ATOM     87  C   UNL A   1      46.521  28.617  35.863  1.00  0.00     0.041 A 
ATOM     88  F   UNL A   1      45.608  30.128  34.326  1.00  0.00    -0.206 F 
ATOM     89  C   UNL A   1      46.359  27.628  36.828  1.00  0.00     0.022 A 
BRANCH  86  90
ATOM     90  S   UNL A   1      44.818  25.984  38.470  1.00  0.00     0.124 S 
ATOM     91  O   UNL A   1      43.614  26.515  39.102  1.00  0.00    -0.237 OA
ATOM     92  O   UNL A   1      44.662  24.714  37.766  1.00  0.00    -0.237 OA
ATOM     93  O   UNL A   1      46.040  26.106  39.262  1.00  0.00    -0.744 OA
ENDBRANCH  86  90
ENDBRANCH  60  83
ENDBRANCH  34  35
ENDBRANCH  26  29
ENDBRANCH  24  25
ENDBRANCH   1  24
TORSDOF 16
ENDMDL
MODEL 3
REMARK VINA RESULT:     -11.4      4.961     10.431
REMARK SMILES O=C(C[C@H]1C[N@@H+]([C@@H]2CC(=O)NC2=O)CCO1)NCCCCNC(=O)c1ccc(-c2c3nc(c(-c4cc(S(=O)(=O)[O-])ccc4F)c4ccc([nH]4)c(-c4cc(S(=O)(=O)[O-])ccc4F)c4nc(c(-c5cc(S(=O)(=O)[O-])ccc5F)c5ccc2[nH]5)C=C4)C=C3)cc1
REMARK SMILES IDX 20 1 19 2 18 3 17 4 1 5 2 6 3 8 4 9 5 10 16 11 6 12 15 13
REMARK SMILES IDX 14 14 7 16 8 17 12 18 9 19 11 20 13 21 10 22 21 24 22 25
REMARK SMILES IDX 23 26 24 28 25 29 26 30 87 31 27 32 86 33 28 34 29 35 30 36
REMARK SMILES IDX 80 37 31 38 85 39 79 40 81 41 32 42 84 43 78 44 77 45 33 47
REMARK SMILES IDX 65 48 45 49 64 50 46 51 49 52 63 53 82 54 47 55 48 56 62 58
REMARK SMILES IDX 83 59 50 60 34 61 35 62 43 63 36 64 42 65 44 66 41 67 37 68
REMARK SMILES IDX 38 69 39 70 40 71 66 72 67 73 75 74 68 75 74 76 76 77 73 78
REMARK SMILES IDX 69 79 70 80 71 81 72 82 51 83 52 84 60 85 53 86 59 87 61 88
REMARK SMILES IDX 58 89 54 90 55 91 56 92 57 93
REMARK H PARENT 17 7 6 15 11 23 22 27 81 46 49 57
REMARK Flexibility Score: inf
ROOT
ATOM      1  C   UNL A   1      35.779  21.683  25.497  1.00  0.00     0.023 C 
ENDROOT
BRANCH   1   2
ATOM      2  C   UNL A   1      34.948  20.528  24.929  1.00  0.00     0.023 C 
BRANCH   2   3
ATOM      3  C   UNL A   1      33.507  20.887  24.566  1.00  0.00     0.116 C 
BRANCH   3   4
ATOM      4  N   UNL A   1      33.348  22.318  24.429  1.00  0.00    -0.356 N 
ATOM      5  O   UNL A   1      31.237  22.425  25.334  1.00  0.00    -0.275 OA
ATOM      6  C   UNL A   1      32.158  22.946  24.716  1.00  0.00     0.222 C 
ATOM      7  H   UNL A   1      34.113  22.858  24.123  1.00  0.00     0.163 HD
BRANCH   6   8
ATOM      8  C   UNL A   1      32.028  24.289  24.045  1.00  0.00     0.138 C 
BRANCH   8   9
ATOM      9  C   UNL A   1      33.338  24.965  23.662  1.00  0.00     0.182 C 
ATOM     10  C   UNL A   1      33.093  26.362  23.034  1.00  0.00     0.295 C 
ATOM     11  O   UNL A   1      34.249  25.077  24.768  1.00  0.00    -0.366 OA
ATOM     12  N   UNL A   1      32.703  27.421  23.972  1.00  0.00    -0.320 N 
ATOM     13  C   UNL A   1      33.854  26.042  25.750  1.00  0.00     0.222 C 
ATOM     14  C   UNL A   1      33.567  27.431  25.153  1.00  0.00     0.291 C 
ATOM     15  H   UNL A   1      32.888  28.255  23.414  1.00  0.00     0.348 HD
BRANCH  12  16
ATOM     16  C   UNL A   1      31.303  27.825  24.156  1.00  0.00     0.284 C 
ATOM     17  C   UNL A   1      30.317  27.678  22.997  1.00  0.00     0.176 C 
ATOM     18  C   UNL A   1      31.156  29.296  24.536  1.00  0.00     0.285 C 
ATOM     19  C   UNL A   1      30.023  29.090  22.585  1.00  0.00     0.233 C 
ATOM     20  N   UNL A   1      30.477  29.932  23.546  1.00  0.00    -0.291 N 
ATOM     21  O   UNL A   1      31.599  29.845  25.532  1.00  0.00    -0.268 OA
ATOM     22  O   UNL A   1      29.449  29.427  21.566  1.00  0.00    -0.274 OA
ATOM     23  H   UNL A   1      30.330  30.905  23.528  1.00  0.00     0.173 HD
ENDBRANCH  12  16
ENDBRANCH   8   9
ENDBRANCH   6   8
ENDBRANCH   3   4
ENDBRANCH   2   3
ENDBRANCH   1   2
BRANCH   1  24
ATOM     24  C   UNL A   1      37.194  21.797  24.943  1.00  0.00     0.116 C 
BRANCH  24  25
ATOM     25  N   UNL A   1      38.075  20.760  25.449  1.00  0.00    -0.352 N 
ATOM     26  C   UNL A   1      39.262  20.890  26.129  1.00  0.00     0.251 C 
ATOM     27  H   UNL A   1      37.779  19.835  25.284  1.00  0.00     0.163 HD
ATOM     28  O   UNL A   1      39.952  19.898  26.342  1.00  0.00    -0.269 OA
BRANCH  26  29
ATOM     29  C   UNL A   1      39.716  22.229  26.560  1.00  0.00     0.039 A 
ATOM     30  C   UNL A   1      40.777  22.321  27.463  1.00  0.00     0.014 A 
ATOM     31  C   UNL A   1      39.116  23.389  26.061  1.00  0.00     0.014 A 
ATOM     32  C   UNL A   1      41.280  23.576  27.813  1.00  0.00     0.010 A 
ATOM     33  C   UNL A   1      39.672  24.634  26.346  1.00  0.00     0.010 A 
ATOM     34  C   UNL A   1      40.759  24.742  27.226  1.00  0.00    -0.014 A 
BRANCH  34  35
ATOM     35  C   UNL A   1      41.344  26.077  27.523  1.00  0.00     0.031 A 
ATOM     36  C   UNL A   1      42.706  26.439  26.996  1.00  0.00     0.074 A 
ATOM     37  C   UNL A   1      40.671  26.941  28.309  1.00  0.00     0.049 A 
ATOM     38  N   UNL A   1      43.408  27.526  27.193  1.00  0.00    -0.248 NA
ATOM     39  C   UNL A   1      43.379  25.435  26.159  1.00  0.00     0.031 C 
ATOM     40  C   UNL A   1      39.356  26.693  28.906  1.00  0.00     0.029 A 
ATOM     41  N   UNL A   1      40.995  28.202  28.744  1.00  0.00    -0.354 N 
ATOM     42  C   UNL A   1      44.607  27.332  26.517  1.00  0.00     0.074 A 
ATOM     43  C   UNL A   1      44.562  25.997  25.958  1.00  0.00     0.031 C 
ATOM     44  C   UNL A   1      38.974  27.777  29.598  1.00  0.00     0.029 A 
ATOM     45  C   UNL A   1      40.035  28.778  29.545  1.00  0.00     0.049 A 
ATOM     46  H   UNL A   1      41.839  28.653  28.506  1.00  0.00     0.167 HD
ATOM     47  C   UNL A   1      45.641  28.195  26.358  1.00  0.00     0.034 A 
ATOM     48  C   UNL A   1      40.015  29.969  30.174  1.00  0.00     0.034 A 
ATOM     49  C   UNL A   1      45.667  29.526  26.916  1.00  0.00     0.049 A 
ATOM     50  C   UNL A   1      41.198  30.894  30.019  1.00  0.00     0.074 A 
ATOM     51  C   UNL A   1      46.638  30.502  26.768  1.00  0.00     0.029 A 
ATOM     52  N   UNL A   1      44.687  30.066  27.738  1.00  0.00    -0.354 N 
ATOM     53  N   UNL A   1      42.302  30.716  29.331  1.00  0.00    -0.248 NA
ATOM     54  C   UNL A   1      41.127  32.183  30.719  1.00  0.00     0.031 C 
ATOM     55  C   UNL A   1      46.287  31.595  27.568  1.00  0.00     0.029 A 
ATOM     56  C   UNL A   1      45.050  31.343  28.139  1.00  0.00     0.049 A 
ATOM     57  H   UNL A   1      43.854  29.609  27.999  1.00  0.00     0.167 HD
ATOM     58  C   UNL A   1      43.039  31.888  29.486  1.00  0.00     0.074 A 
ATOM     59  C   UNL A   1      42.246  32.768  30.320  1.00  0.00     0.031 C 
ATOM     60  C   UNL A   1      44.256  32.210  28.980  1.00  0.00     0.034 A 
BRANCH  47  61
ATOM     61  C   UNL A   1      46.843  27.712  25.578  1.00  0.00     0.023 A 
ATOM     62  C   UNL A   1      47.054  28.082  24.238  1.00  0.00     0.031 A 
ATOM     63  C   UNL A   1      47.781  26.852  26.177  1.00  0.00     0.131 A 
ATOM     64  C   UNL A   1      48.130  27.534  23.520  1.00  0.00     0.055 A 
ATOM     65  C   UNL A   1      48.898  26.383  25.483  1.00  0.00     0.041 A 
ATOM     66  F   UNL A   1      47.623  26.445  27.446  1.00  0.00    -0.206 F 
ATOM     67  C   UNL A   1      49.069  26.710  24.143  1.00  0.00     0.022 A 
BRANCH  64  68
ATOM     68  S   UNL A   1      48.193  27.792  21.726  1.00  0.00     0.124 S 
ATOM     69  O   UNL A   1      49.249  28.794  21.610  1.00  0.00    -0.237 OA
ATOM     70  O   UNL A   1      48.516  26.462  21.227  1.00  0.00    -0.237 OA
ATOM     71  O   UNL A   1      46.850  28.273  21.403  1.00  0.00    -0.744 OA
ENDBRANCH  64  68
ENDBRANCH  47  61
BRANCH  48  72
ATOM     72  C   UNL A   1      38.850  30.363  31.020  1.00  0.00     0.023 A 
ATOM     73  C   UNL A   1      37.749  31.037  30.467  1.00  0.00     0.031 A 
ATOM     74  C   UNL A   1      38.841  30.118  32.405  1.00  0.00     0.131 A 
ATOM     75  C   UNL A   1      36.714  31.489  31.299  1.00  0.00     0.055 A 
ATOM     76  C   UNL A   1      37.779  30.516  33.219  1.00  0.00     0.041 A 
ATOM     77  F   UNL A   1      39.867  29.477  32.989  1.00  0.00    -0.206 F 
ATOM     78  C   UNL A   1      36.714  31.220  32.669  1.00  0.00     0.022 A 
BRANCH  75  79
ATOM     79  S   UNL A   1      35.414  32.529  30.578  1.00  0.00     0.124 S 
ATOM     80  O   UNL A   1      35.243  31.922  29.264  1.00  0.00    -0.237 OA
ATOM     81  O   UNL A   1      34.317  32.340  31.521  1.00  0.00    -0.237 OA
ATOM     82  O   UNL A   1      36.009  33.865  30.578  1.00  0.00    -0.744 OA
ENDBRANCH  75  79
ENDBRANCH  48  72
BRANCH  60  83
ATOM     83  C   UNL A   1      44.782  33.596  29.274  1.00  0.00     0.023 A 
ATOM     84  C   UNL A   1      44.537  34.683  28.417  1.00  0.00     0.031 A 
ATOM     85  C   UNL A   1      45.549  33.829  30.430  1.00  0.00     0.131 A 
ATOM     86  C   UNL A   1      45.103  35.936  28.697  1.00  0.00     0.055 A 
ATOM     87  C   UNL A   1      46.050  35.093  30.740  1.00  0.00     0.041 A 
ATOM     88  F   UNL A   1      45.820  32.827  31.284  1.00  0.00    -0.206 F 
ATOM     89  C   UNL A   1      45.841  36.152  29.863  1.00  0.00     0.022 A 
BRANCH  86  90
ATOM     90  S   UNL A   1      44.953  37.255  27.461  1.00  0.00     0.124 S 
ATOM     91  O   UNL A   1      45.219  38.449  28.257  1.00  0.00    -0.237 OA
ATOM     92  O   UNL A   1      45.983  36.893  26.491  1.00  0.00    -0.237 OA
ATOM     93  O   UNL A   1      43.578  37.122  26.982  1.00  0.00    -0.744 OA
ENDBRANCH  86  90
ENDBRANCH  60  83
ENDBRANCH  34  35
ENDBRANCH  26  29
ENDBRANCH  24  25
ENDBRANCH   1  24
TORSDOF 16
ENDMDL
