MODEL 1
REMARK VINA RESULT:     -12.0      0.000      0.000
REMARK SMILES COc1cc(/C=N/c2cccc(F)c2)ccc1OCc1cccc(C(=O)NCCCCNC(=O)c2ccc(-c3c4nc(c(-c5cc(S(=O)(=O)[O-])ccc5F)c5ccc([nH]5)c(-c5cc(S(=O)(=O)[O-])ccc5F)c5nc(c(-c6cc(S(=O)(=O)[O-])ccc6F)c6ccc3[nH]6)C=C5)C=C4)cc2)c1
REMARK SMILES IDX 28 1 27 2 25 3 26 4 24 6 20 7 21 8 98 9 22 10 23 11 19 12
REMARK SMILES IDX 18 13 17 14 3 15 4 16 5 17 16 18 15 19 2 20 1 21 6 22 7 23
REMARK SMILES IDX 8 24 9 25 14 26 10 27 12 28 11 29 13 30 29 31 30 32 31 33
REMARK SMILES IDX 32 34 33 35 34 37 35 38 36 39 97 40 37 41 96 42 38 43 39 44
REMARK SMILES IDX 40 45 90 46 41 47 95 48 89 49 91 50 42 51 94 52 88 53 87 54
REMARK SMILES IDX 43 56 75 57 55 58 74 59 56 60 59 61 73 62 92 63 57 64 58 65
REMARK SMILES IDX 72 67 93 68 60 69 44 70 45 71 53 72 46 73 52 74 54 75 51 76
REMARK SMILES IDX 47 77 48 78 49 79 50 80 76 81 77 82 85 83 78 84 84 85 86 86
REMARK SMILES IDX 83 87 79 88 80 89 81 90 82 91 61 92 62 93 70 94 63 95 69 96
REMARK SMILES IDX 71 97 68 98 64 99 65 100 66 101 67 102
REMARK H PARENT 27 5 32 36 91 55 59 66
REMARK Flexibility Score: inf
ROOT
ATOM      1  C   UNL A   1      36.466  23.134  25.230  1.00  0.00     0.116 C 
ENDROOT
BRANCH   1   2
ATOM      2  N   UNL A   1      35.621  22.513  26.234  1.00  0.00    -0.352 N 
ATOM      3  C   UNL A   1      34.307  22.118  26.225  1.00  0.00     0.251 C 
ATOM      4  O   UNL A   1      33.890  21.523  27.220  1.00  0.00    -0.269 OA
ATOM      5  H   UNL A   1      36.081  22.341  27.088  1.00  0.00     0.163 HD
BRANCH   3   6
ATOM      6  C   UNL A   1      33.370  22.330  25.080  1.00  0.00     0.040 A 
ATOM      7  C   UNL A   1      31.878  23.664  23.668  1.00  0.00    -0.010 A 
ATOM      8  C   UNL A   1      31.621  22.537  22.879  1.00  0.00     0.007 A 
ATOM      9  C   UNL A   1      32.722  23.533  24.791  1.00  0.00     0.021 A 
ATOM     10  C   UNL A   1      32.195  21.310  23.204  1.00  0.00     0.001 A 
ATOM     11  C   UNL A   1      33.070  21.212  24.288  1.00  0.00     0.014 A 
BRANCH   7  12
ATOM     12  C   UNL A   1      31.212  24.985  23.352  1.00  0.00     0.265 C 
BRANCH  12  13
ATOM     13  O   UNL A   1      30.551  25.659  24.427  1.00  0.00    -0.485 OA
BRANCH  13  14
ATOM     14  C   UNL A   1      31.056  26.802  24.977  1.00  0.00     0.161 A 
ATOM     15  C   UNL A   1      31.370  28.010  24.351  1.00  0.00     0.161 A 
ATOM     16  C   UNL A   1      31.752  29.122  25.122  1.00  0.00     0.060 A 
ATOM     17  C   UNL A   1      31.925  29.005  26.505  1.00  0.00    -0.003 A 
ATOM     18  C   UNL A   1      31.294  26.684  26.357  1.00  0.00     0.051 A 
ATOM     19  C   UNL A   1      31.731  27.771  27.121  1.00  0.00     0.014 A 
BRANCH  15  20
ATOM     20  O   UNL A   1      31.268  28.237  23.008  1.00  0.00    -0.493 OA
ATOM     21  C   UNL A   1      29.936  28.454  22.547  1.00  0.00     0.278 C 
ENDBRANCH  15  20
BRANCH  17  22
ATOM     22  C   UNL A   1      32.341  30.169  27.324  1.00  0.00     0.120 C 
ATOM     23  N   UNL A   1      33.200  31.027  26.879  1.00  0.00    -0.256 NA
BRANCH  23  24
ATOM     24  C   UNL A   1      33.623  32.071  27.721  1.00  0.00     0.066 A 
ATOM     25  C   UNL A   1      34.565  31.802  28.722  1.00  0.00     0.028 A 
ATOM     26  C   UNL A   1      33.021  33.331  27.686  1.00  0.00     0.067 A 
ATOM     27  C   UNL A   1      34.893  32.768  29.680  1.00  0.00     0.005 A 
ATOM     28  C   UNL A   1      33.355  34.289  28.639  1.00  0.00     0.125 A 
ATOM     29  C   UNL A   1      34.279  34.017  29.642  1.00  0.00     0.039 A 
ATOM     30  F   UNL A   1      32.759  35.489  28.601  1.00  0.00    -0.207 F 
ENDBRANCH  23  24
ENDBRANCH  17  22
ENDBRANCH  13  14
ENDBRANCH  12  13
ENDBRANCH   7  12
ENDBRANCH   3   6
ENDBRANCH   1   2
BRANCH   1  31
ATOM     31  C   UNL A   1      37.133  22.075  24.346  1.00  0.00     0.023 C 
BRANCH  31  32
ATOM     32  C   UNL A   1      37.700  20.884  25.125  1.00  0.00     0.023 C 
BRANCH  32  33
ATOM     33  C   UNL A   1      39.022  21.162  25.840  1.00  0.00     0.116 C 
BRANCH  33  34
ATOM     34  N   UNL A   1      39.885  19.993  25.936  1.00  0.00    -0.352 N 
ATOM     35  C   UNL A   1      41.241  19.932  26.184  1.00  0.00     0.251 C 
ATOM     36  H   UNL A   1      39.438  19.124  25.808  1.00  0.00     0.163 HD
ATOM     37  O   UNL A   1      41.823  18.862  26.122  1.00  0.00    -0.269 OA
BRANCH  35  38
ATOM     38  C   UNL A   1      41.985  21.183  26.476  1.00  0.00     0.039 A 
ATOM     39  C   UNL A   1      42.296  22.044  25.420  1.00  0.00     0.014 A 
ATOM     40  C   UNL A   1      42.340  21.523  27.783  1.00  0.00     0.014 A 
ATOM     41  C   UNL A   1      42.881  23.286  25.688  1.00  0.00     0.010 A 
ATOM     42  C   UNL A   1      42.852  22.790  28.055  1.00  0.00     0.010 A 
ATOM     43  C   UNL A   1      43.119  23.691  27.013  1.00  0.00    -0.014 A 
BRANCH  43  44
ATOM     44  C   UNL A   1      43.631  25.054  27.329  1.00  0.00     0.031 A 
ATOM     45  C   UNL A   1      42.704  26.097  27.897  1.00  0.00     0.074 A 
ATOM     46  C   UNL A   1      44.907  25.376  27.032  1.00  0.00     0.049 A 
ATOM     47  N   UNL A   1      42.934  27.360  28.146  1.00  0.00    -0.248 NA
ATOM     48  C   UNL A   1      41.330  25.666  28.198  1.00  0.00     0.031 C 
ATOM     49  C   UNL A   1      45.892  24.468  26.437  1.00  0.00     0.029 A 
ATOM     50  N   UNL A   1      45.596  26.555  27.176  1.00  0.00    -0.354 N 
ATOM     51  C   UNL A   1      41.731  27.880  28.614  1.00  0.00     0.074 A 
ATOM     52  C   UNL A   1      40.763  26.806  28.562  1.00  0.00     0.031 C 
ATOM     53  C   UNL A   1      47.058  25.117  26.290  1.00  0.00     0.029 A 
ATOM     54  C   UNL A   1      46.898  26.499  26.730  1.00  0.00     0.049 A 
ATOM     55  H   UNL A   1      45.195  27.368  27.563  1.00  0.00     0.167 HD
ATOM     56  C   UNL A   1      41.465  29.132  29.063  1.00  0.00     0.034 A 
ATOM     57  C   UNL A   1      47.849  27.453  26.668  1.00  0.00     0.034 A 
ATOM     58  C   UNL A   1      42.446  30.188  29.132  1.00  0.00     0.049 A 
ATOM     59  C   UNL A   1      47.521  28.841  27.163  1.00  0.00     0.074 A 
ATOM     60  C   UNL A   1      42.296  31.470  29.631  1.00  0.00     0.029 A 
ATOM     61  N   UNL A   1      43.757  30.087  28.685  1.00  0.00    -0.354 N 
ATOM     62  N   UNL A   1      46.393  29.299  27.655  1.00  0.00    -0.248 NA
ATOM     63  C   UNL A   1      48.599  29.837  27.107  1.00  0.00     0.031 C 
ATOM     64  C   UNL A   1      43.492  32.165  29.424  1.00  0.00     0.029 A 
ATOM     65  C   UNL A   1      44.416  31.293  28.869  1.00  0.00     0.049 A 
ATOM     66  H   UNL A   1      44.160  29.279  28.294  1.00  0.00     0.167 HD
ATOM     67  C   UNL A   1      46.641  30.625  28.000  1.00  0.00     0.074 A 
ATOM     68  C   UNL A   1      48.027  30.887  27.675  1.00  0.00     0.031 C 
ATOM     69  C   UNL A   1      45.800  31.543  28.542  1.00  0.00     0.034 A 
BRANCH  56  70
ATOM     70  C   UNL A   1      40.051  29.433  29.499  1.00  0.00     0.023 A 
ATOM     71  C   UNL A   1      39.701  29.538  30.856  1.00  0.00     0.031 A 
ATOM     72  C   UNL A   1      39.037  29.617  28.542  1.00  0.00     0.131 A 
ATOM     73  C   UNL A   1      38.364  29.756  31.221  1.00  0.00     0.055 A 
ATOM     74  C   UNL A   1      37.722  29.911  28.909  1.00  0.00     0.041 A 
ATOM     75  F   UNL A   1      39.306  29.509  27.232  1.00  0.00    -0.206 F 
ATOM     76  C   UNL A   1      37.377  29.970  30.256  1.00  0.00     0.022 A 
BRANCH  73  77
ATOM     77  S   UNL A   1      37.911  29.636  32.972  1.00  0.00     0.124 S 
ATOM     78  O   UNL A   1      37.504  28.237  33.076  1.00  0.00    -0.237 OA
ATOM     79  O   UNL A   1      39.155  29.991  33.646  1.00  0.00    -0.237 OA
ATOM     80  O   UNL A   1      36.827  30.606  33.113  1.00  0.00    -0.744 OA
ENDBRANCH  73  77
ENDBRANCH  56  70
BRANCH  57  81
ATOM     81  C   UNL A   1      49.198  27.151  26.106  1.00  0.00     0.023 A 
ATOM     82  C   UNL A   1      49.540  27.540  24.800  1.00  0.00     0.031 A 
ATOM     83  C   UNL A   1      50.141  26.406  26.837  1.00  0.00     0.131 A 
ATOM     84  C   UNL A   1      50.762  27.131  24.243  1.00  0.00     0.055 A 
ATOM     85  C   UNL A   1      51.381  26.054  26.300  1.00  0.00     0.041 A 
ATOM     86  F   UNL A   1      49.869  26.010  28.090  1.00  0.00    -0.206 F 
ATOM     87  C   UNL A   1      51.691  26.402  24.989  1.00  0.00     0.022 A 
BRANCH  84  88
ATOM     88  S   UNL A   1      51.072  27.469  22.488  1.00  0.00     0.124 S 
ATOM     89  O   UNL A   1      50.946  28.920  22.438  1.00  0.00    -0.237 OA
ATOM     90  O   UNL A   1      52.418  26.933  22.311  1.00  0.00    -0.237 OA
ATOM     91  O   UNL A   1      50.014  26.725  21.806  1.00  0.00    -0.744 OA
ENDBRANCH  84  88
ENDBRANCH  57  81
BRANCH  69  92
ATOM     92  C   UNL A   1      46.378  32.898  28.869  1.00  0.00     0.023 A 
ATOM     93  C   UNL A   1      46.401  33.943  27.929  1.00  0.00     0.031 A 
ATOM     94  C   UNL A   1      46.926  33.141  30.142  1.00  0.00     0.131 A 
ATOM     95  C   UNL A   1      47.009  35.165  28.258  1.00  0.00     0.055 A 
ATOM     96  C   UNL A   1      47.472  34.378  30.483  1.00  0.00     0.041 A 
ATOM     97  F   UNL A   1      46.933  32.177  31.077  1.00  0.00    -0.206 F 
ATOM     98  C   UNL A   1      47.528  35.394  29.534  1.00  0.00     0.022 A 
BRANCH  95  99
ATOM     99  S   UNL A   1      47.194  36.422  26.964  1.00  0.00     0.124 S 
ATOM    100  O   UNL A   1      47.214  35.609  25.752  1.00  0.00    -0.237 OA
ATOM    101  O   UNL A   1      46.006  37.247  27.158  1.00  0.00    -0.237 OA
ATOM    102  O   UNL A   1      48.460  37.073  27.296  1.00  0.00    -0.744 OA
ENDBRANCH  95  99
ENDBRANCH  69  92
ENDBRANCH  43  44
ENDBRANCH  35  38
ENDBRANCH  33  34
ENDBRANCH  32  33
ENDBRANCH  31  32
ENDBRANCH   1  31
TORSDOF 20
ENDMDL
MODEL 2
REMARK VINA RESULT:     -11.6      4.831      8.064
REMARK SMILES COc1cc(/C=N/c2cccc(F)c2)ccc1OCc1cccc(C(=O)NCCCCNC(=O)c2ccc(-c3c4nc(c(-c5cc(S(=O)(=O)[O-])ccc5F)c5ccc([nH]5)c(-c5cc(S(=O)(=O)[O-])ccc5F)c5nc(c(-c6cc(S(=O)(=O)[O-])ccc6F)c6ccc3[nH]6)C=C5)C=C4)cc2)c1
REMARK SMILES IDX 28 1 27 2 25 3 26 4 24 6 20 7 21 8 98 9 22 10 23 11 19 12
REMARK SMILES IDX 18 13 17 14 3 15 4 16 5 17 16 18 15 19 2 20 1 21 6 22 7 23
REMARK SMILES IDX 8 24 9 25 14 26 10 27 12 28 11 29 13 30 29 31 30 32 31 33
REMARK SMILES IDX 32 34 33 35 34 37 35 38 36 39 97 40 37 41 96 42 38 43 39 44
REMARK SMILES IDX 40 45 90 46 41 47 95 48 89 49 91 50 42 51 94 52 88 53 87 54
REMARK SMILES IDX 43 56 75 57 55 58 74 59 56 60 59 61 73 62 92 63 57 64 58 65
REMARK SMILES IDX 72 67 93 68 60 69 44 70 45 71 53 72 46 73 52 74 54 75 51 76
REMARK SMILES IDX 47 77 48 78 49 79 50 80 76 81 77 82 85 83 78 84 84 85 86 86
REMARK SMILES IDX 83 87 79 88 80 89 81 90 82 91 61 92 62 93 70 94 63 95 69 96
REMARK SMILES IDX 71 97 68 98 64 99 65 100 66 101 67 102
REMARK H PARENT 27 5 32 36 91 55 59 66
REMARK Flexibility Score: inf
ROOT
ATOM      1  C   UNL A   1      34.344  25.354  24.928  1.00  0.00     0.116 C 
ENDROOT
BRANCH   1   2
ATOM      2  N   UNL A   1      35.678  25.125  25.454  1.00  0.00    -0.352 N 
ATOM      3  C   UNL A   1      36.400  23.980  25.685  1.00  0.00     0.251 C 
ATOM      4  O   UNL A   1      37.566  24.114  26.057  1.00  0.00    -0.269 OA
ATOM      5  H   UNL A   1      36.159  25.950  25.689  1.00  0.00     0.163 HD
BRANCH   3   6
ATOM      6  C   UNL A   1      35.875  22.596  25.479  1.00  0.00     0.040 A 
ATOM      7  C   UNL A   1      34.170  20.842  25.604  1.00  0.00    -0.010 A 
ATOM      8  C   UNL A   1      35.062  19.936  25.021  1.00  0.00     0.007 A 
ATOM      9  C   UNL A   1      34.606  22.158  25.866  1.00  0.00     0.021 A 
ATOM     10  C   UNL A   1      36.360  20.336  24.706  1.00  0.00     0.001 A 
ATOM     11  C   UNL A   1      36.757  21.657  24.923  1.00  0.00     0.014 A 
BRANCH   7  12
ATOM     12  C   UNL A   1      32.779  20.396  25.999  1.00  0.00     0.265 C 
BRANCH  12  13
ATOM     13  O   UNL A   1      31.707  20.736  25.116  1.00  0.00    -0.485 OA
BRANCH  13  14
ATOM     14  C   UNL A   1      31.426  22.032  24.792  1.00  0.00     0.161 A 
ATOM     15  C   UNL A   1      31.694  22.716  23.604  1.00  0.00     0.161 A 
ATOM     16  C   UNL A   1      31.197  24.017  23.415  1.00  0.00     0.060 A 
ATOM     17  C   UNL A   1      30.524  24.680  24.447  1.00  0.00    -0.003 A 
ATOM     18  C   UNL A   1      30.804  22.732  25.839  1.00  0.00     0.051 A 
ATOM     19  C   UNL A   1      30.358  24.049  25.677  1.00  0.00     0.014 A 
BRANCH  15  20
ATOM     20  O   UNL A   1      32.365  22.185  22.540  1.00  0.00    -0.493 OA
ATOM     21  C   UNL A   1      33.529  22.913  22.155  1.00  0.00     0.278 C 
ENDBRANCH  15  20
BRANCH  17  22
ATOM     22  C   UNL A   1      30.008  26.058  24.262  1.00  0.00     0.120 C 
ATOM     23  N   UNL A   1      30.705  26.955  23.642  1.00  0.00    -0.256 NA
BRANCH  23  24
ATOM     24  C   UNL A   1      30.209  28.267  23.559  1.00  0.00     0.066 A 
ATOM     25  C   UNL A   1      30.893  29.300  24.213  1.00  0.00     0.028 A 
ATOM     26  C   UNL A   1      28.975  28.549  22.969  1.00  0.00     0.067 A 
ATOM     27  C   UNL A   1      30.351  30.588  24.290  1.00  0.00     0.005 A 
ATOM     28  C   UNL A   1      28.443  29.834  23.045  1.00  0.00     0.125 A 
ATOM     29  C   UNL A   1      29.115  30.854  23.707  1.00  0.00     0.039 A 
ATOM     30  F   UNL A   1      27.251  30.084  22.486  1.00  0.00    -0.207 F 
ENDBRANCH  23  24
ENDBRANCH  17  22
ENDBRANCH  13  14
ENDBRANCH  12  13
ENDBRANCH   7  12
ENDBRANCH   3   6
ENDBRANCH   1   2
BRANCH   1  31
ATOM     31  C   UNL A   1      33.486  26.129  25.935  1.00  0.00     0.023 C 
BRANCH  31  32
ATOM     32  C   UNL A   1      33.664  27.649  25.862  1.00  0.00     0.023 C 
BRANCH  32  33
ATOM     33  C   UNL A   1      33.665  28.356  27.216  1.00  0.00     0.116 C 
BRANCH  33  34
ATOM     34  N   UNL A   1      33.514  29.800  27.116  1.00  0.00    -0.352 N 
ATOM     35  C   UNL A   1      34.350  30.796  27.579  1.00  0.00     0.251 C 
ATOM     36  H   UNL A   1      32.703  30.110  26.651  1.00  0.00     0.163 HD
ATOM     37  O   UNL A   1      34.007  31.964  27.500  1.00  0.00    -0.269 OA
BRANCH  35  38
ATOM     38  C   UNL A   1      35.639  30.427  28.217  1.00  0.00     0.039 A 
ATOM     39  C   UNL A   1      35.620  29.834  29.483  1.00  0.00     0.014 A 
ATOM     40  C   UNL A   1      36.854  30.627  27.557  1.00  0.00     0.014 A 
ATOM     41  C   UNL A   1      36.810  29.362  30.045  1.00  0.00     0.010 A 
ATOM     42  C   UNL A   1      38.025  30.088  28.084  1.00  0.00     0.010 A 
ATOM     43  C   UNL A   1      38.017  29.440  29.329  1.00  0.00    -0.014 A 
BRANCH  43  44
ATOM     44  C   UNL A   1      39.274  28.839  29.856  1.00  0.00     0.031 A 
ATOM     45  C   UNL A   1      39.961  29.447  31.051  1.00  0.00     0.074 A 
ATOM     46  C   UNL A   1      39.837  27.794  29.214  1.00  0.00     0.049 A 
ATOM     47  N   UNL A   1      41.107  29.131  31.596  1.00  0.00    -0.248 NA
ATOM     48  C   UNL A   1      39.280  30.580  31.698  1.00  0.00     0.031 C 
ATOM     49  C   UNL A   1      39.293  27.143  28.020  1.00  0.00     0.029 A 
ATOM     50  N   UNL A   1      40.996  27.102  29.464  1.00  0.00    -0.354 N 
ATOM     51  C   UNL A   1      41.295  30.035  32.636  1.00  0.00     0.074 A 
ATOM     52  C   UNL A   1      40.169  30.944  32.609  1.00  0.00     0.031 C 
ATOM     53  C   UNL A   1      40.104  26.136  27.657  1.00  0.00     0.029 A 
ATOM     54  C   UNL A   1      41.252  26.097  28.558  1.00  0.00     0.049 A 
ATOM     55  H   UNL A   1      41.592  27.306  30.222  1.00  0.00     0.167 HD
ATOM     56  C   UNL A   1      42.303  30.089  33.542  1.00  0.00     0.034 A 
ATOM     57  C   UNL A   1      42.297  25.250  28.453  1.00  0.00     0.034 A 
ATOM     58  C   UNL A   1      43.408  29.162  33.572  1.00  0.00     0.049 A 
ATOM     59  C   UNL A   1      43.412  25.342  29.467  1.00  0.00     0.074 A 
ATOM     60  C   UNL A   1      44.446  29.090  34.486  1.00  0.00     0.029 A 
ATOM     61  N   UNL A   1      43.624  28.149  32.647  1.00  0.00    -0.354 N 
ATOM     62  N   UNL A   1      43.544  26.169  30.479  1.00  0.00    -0.248 NA
ATOM     63  C   UNL A   1      44.512  24.377  29.333  1.00  0.00     0.031 C 
ATOM     64  C   UNL A   1      45.322  28.080  34.076  1.00  0.00     0.029 A 
ATOM     65  C   UNL A   1      44.792  27.468  32.952  1.00  0.00     0.049 A 
ATOM     66  H   UNL A   1      43.034  27.945  31.886  1.00  0.00     0.167 HD
ATOM     67  C   UNL A   1      44.722  25.795  31.121  1.00  0.00     0.074 A 
ATOM     68  C   UNL A   1      45.252  24.663  30.392  1.00  0.00     0.031 C 
ATOM     69  C   UNL A   1      45.311  26.338  32.217  1.00  0.00     0.034 A 
BRANCH  56  70
ATOM     70  C   UNL A   1      42.266  31.200  34.564  1.00  0.00     0.023 A 
ATOM     71  C   UNL A   1      42.862  32.450  34.322  1.00  0.00     0.031 A 
ATOM     72  C   UNL A   1      41.625  31.006  35.801  1.00  0.00     0.131 A 
ATOM     73  C   UNL A   1      42.861  33.433  35.322  1.00  0.00     0.055 A 
ATOM     74  C   UNL A   1      41.559  32.017  36.762  1.00  0.00     0.041 A 
ATOM     75  F   UNL A   1      41.055  29.829  36.098  1.00  0.00    -0.206 F 
ATOM     76  C   UNL A   1      42.190  33.235  36.531  1.00  0.00     0.022 A 
BRANCH  73  77
ATOM     77  S   UNL A   1      43.851  34.931  35.067  1.00  0.00     0.124 S 
ATOM     78  O   UNL A   1      43.083  35.620  34.034  1.00  0.00    -0.237 OA
ATOM     79  O   UNL A   1      43.841  35.546  36.390  1.00  0.00    -0.237 OA
ATOM     80  O   UNL A   1      45.147  34.414  34.631  1.00  0.00    -0.744 OA
ENDBRANCH  73  77
ENDBRANCH  56  70
BRANCH  57  81
ATOM     81  C   UNL A   1      42.363  24.250  27.347  1.00  0.00     0.023 A 
ATOM     82  C   UNL A   1      41.665  23.035  27.429  1.00  0.00     0.031 A 
ATOM     83  C   UNL A   1      43.183  24.462  26.224  1.00  0.00     0.131 A 
ATOM     84  C   UNL A   1      41.846  22.053  26.443  1.00  0.00     0.055 A 
ATOM     85  C   UNL A   1      43.312  23.507  25.213  1.00  0.00     0.041 A 
ATOM     86  F   UNL A   1      43.872  25.607  26.091  1.00  0.00    -0.206 F 
ATOM     87  C   UNL A   1      42.654  22.286  25.328  1.00  0.00     0.022 A 
BRANCH  84  88
ATOM     88  S   UNL A   1      41.098  20.420  26.696  1.00  0.00     0.124 S 
ATOM     89  O   UNL A   1      39.854  20.543  25.945  1.00  0.00    -0.237 OA
ATOM     90  O   UNL A   1      42.108  19.534  26.126  1.00  0.00    -0.237 OA
ATOM     91  O   UNL A   1      40.946  20.335  28.147  1.00  0.00    -0.744 OA
ENDBRANCH  84  88
ENDBRANCH  57  81
BRANCH  69  92
ATOM     92  C   UNL A   1      46.566  25.672  32.725  1.00  0.00     0.023 A 
ATOM     93  C   UNL A   1      47.814  25.869  32.110  1.00  0.00     0.031 A 
ATOM     94  C   UNL A   1      46.506  24.813  33.840  1.00  0.00     0.131 A 
ATOM     95  C   UNL A   1      48.942  25.176  32.579  1.00  0.00     0.055 A 
ATOM     96  C   UNL A   1      47.642  24.176  34.338  1.00  0.00     0.041 A 
ATOM     97  F   UNL A   1      45.339  24.586  34.464  1.00  0.00    -0.206 F 
ATOM     98  C   UNL A   1      48.866  24.345  33.699  1.00  0.00     0.022 A 
BRANCH  95  99
ATOM     99  S   UNL A   1      50.492  25.304  31.647  1.00  0.00     0.124 S 
ATOM    100  O   UNL A   1      51.248  26.263  32.446  1.00  0.00    -0.237 OA
ATOM    101  O   UNL A   1      50.983  23.930  31.666  1.00  0.00    -0.237 OA
ATOM    102  O   UNL A   1      50.065  25.789  30.335  1.00  0.00    -0.744 OA
ENDBRANCH  95  99
ENDBRANCH  69  92
ENDBRANCH  43  44
ENDBRANCH  35  38
ENDBRANCH  33  34
ENDBRANCH  32  33
ENDBRANCH  31  32
ENDBRANCH   1  31
TORSDOF 20
ENDMDL
MODEL 3
REMARK VINA RESULT:     -11.3      0.923      7.440
REMARK SMILES COc1cc(/C=N/c2cccc(F)c2)ccc1OCc1cccc(C(=O)NCCCCNC(=O)c2ccc(-c3c4nc(c(-c5cc(S(=O)(=O)[O-])ccc5F)c5ccc([nH]5)c(-c5cc(S(=O)(=O)[O-])ccc5F)c5nc(c(-c6cc(S(=O)(=O)[O-])ccc6F)c6ccc3[nH]6)C=C5)C=C4)cc2)c1
REMARK SMILES IDX 28 1 27 2 25 3 26 4 24 6 20 7 21 8 98 9 22 10 23 11 19 12
REMARK SMILES IDX 18 13 17 14 3 15 4 16 5 17 16 18 15 19 2 20 1 21 6 22 7 23
REMARK SMILES IDX 8 24 9 25 14 26 10 27 12 28 11 29 13 30 29 31 30 32 31 33
REMARK SMILES IDX 32 34 33 35 34 37 35 38 36 39 97 40 37 41 96 42 38 43 39 44
REMARK SMILES IDX 40 45 90 46 41 47 95 48 89 49 91 50 42 51 94 52 88 53 87 54
REMARK SMILES IDX 43 56 75 57 55 58 74 59 56 60 59 61 73 62 92 63 57 64 58 65
REMARK SMILES IDX 72 67 93 68 60 69 44 70 45 71 53 72 46 73 52 74 54 75 51 76
REMARK SMILES IDX 47 77 48 78 49 79 50 80 76 81 77 82 85 83 78 84 84 85 86 86
REMARK SMILES IDX 83 87 79 88 80 89 81 90 82 91 61 92 62 93 70 94 63 95 69 96
REMARK SMILES IDX 71 97 68 98 64 99 65 100 66 101 67 102
REMARK H PARENT 27 5 32 36 91 55 59 66
REMARK Flexibility Score: inf
ROOT
ATOM      1  C   UNL A   1      36.717  22.692  25.400  1.00  0.00     0.116 C 
ENDROOT
BRANCH   1   2
ATOM      2  N   UNL A   1      36.098  21.379  25.382  1.00  0.00    -0.352 N 
ATOM      3  C   UNL A   1      34.845  20.950  25.021  1.00  0.00     0.251 C 
ATOM      4  O   UNL A   1      34.642  19.734  25.026  1.00  0.00    -0.269 OA
ATOM      5  H   UNL A   1      36.691  20.656  25.686  1.00  0.00     0.163 HD
BRANCH   3   6
ATOM      6  C   UNL A   1      33.735  21.853  24.590  1.00  0.00     0.040 A 
ATOM      7  C   UNL A   1      32.246  23.784  24.822  1.00  0.00    -0.010 A 
ATOM      8  C   UNL A   1      31.612  23.437  23.624  1.00  0.00     0.007 A 
ATOM      9  C   UNL A   1      33.277  22.956  25.314  1.00  0.00     0.021 A 
ATOM     10  C   UNL A   1      32.002  22.291  22.933  1.00  0.00     0.001 A 
ATOM     11  C   UNL A   1      33.061  21.514  23.407  1.00  0.00     0.014 A 
BRANCH   7  12
ATOM     12  C   UNL A   1      31.788  24.995  25.605  1.00  0.00     0.265 C 
BRANCH  12  13
ATOM     13  O   UNL A   1      31.443  26.165  24.858  1.00  0.00    -0.485 OA
BRANCH  13  14
ATOM     14  C   UNL A   1      31.842  27.411  25.249  1.00  0.00     0.161 A 
ATOM     15  C   UNL A   1      31.652  28.635  24.603  1.00  0.00     0.161 A 
ATOM     16  C   UNL A   1      32.021  29.831  25.243  1.00  0.00     0.060 A 
ATOM     17  C   UNL A   1      32.676  29.806  26.479  1.00  0.00    -0.003 A 
ATOM     18  C   UNL A   1      32.556  27.399  26.459  1.00  0.00     0.051 A 
ATOM     19  C   UNL A   1      32.977  28.583  27.074  1.00  0.00     0.014 A 
BRANCH  15  20
ATOM     20  O   UNL A   1      31.052  28.783  23.386  1.00  0.00    -0.493 OA
ATOM     21  C   UNL A   1      29.656  29.070  23.448  1.00  0.00     0.278 C 
ENDBRANCH  15  20
BRANCH  17  22
ATOM     22  C   UNL A   1      33.080  31.062  27.155  1.00  0.00     0.120 C 
ATOM     23  N   UNL A   1      34.055  31.079  28.006  1.00  0.00    -0.256 NA
BRANCH  23  24
ATOM     24  C   UNL A   1      34.351  32.277  28.681  1.00  0.00     0.066 A 
ATOM     25  C   UNL A   1      34.768  32.224  30.017  1.00  0.00     0.028 A 
ATOM     26  C   UNL A   1      34.100  33.524  28.104  1.00  0.00     0.067 A 
ATOM     27  C   UNL A   1      34.919  33.393  30.771  1.00  0.00     0.005 A 
ATOM     28  C   UNL A   1      34.257  34.684  28.858  1.00  0.00     0.125 A 
ATOM     29  C   UNL A   1      34.655  34.631  30.189  1.00  0.00     0.039 A 
ATOM     30  F   UNL A   1      33.999  35.872  28.296  1.00  0.00    -0.207 F 
ENDBRANCH  23  24
ENDBRANCH  17  22
ENDBRANCH  13  14
ENDBRANCH  12  13
ENDBRANCH   7  12
ENDBRANCH   3   6
ENDBRANCH   1   2
BRANCH   1  31
ATOM     31  C   UNL A   1      38.182  22.599  25.841  1.00  0.00     0.023 C 
BRANCH  31  32
ATOM     32  C   UNL A   1      38.843  21.255  25.518  1.00  0.00     0.023 C 
BRANCH  32  33
ATOM     33  C   UNL A   1      39.806  20.745  26.590  1.00  0.00     0.116 C 
BRANCH  33  34
ATOM     34  N   UNL A   1      40.807  19.821  26.076  1.00  0.00    -0.352 N 
ATOM     35  C   UNL A   1      42.135  20.055  25.780  1.00  0.00     0.251 C 
ATOM     36  H   UNL A   1      40.494  18.901  25.918  1.00  0.00     0.163 HD
ATOM     37  O   UNL A   1      42.803  19.182  25.251  1.00  0.00    -0.269 OA
BRANCH  35  38
ATOM     38  C   UNL A   1      42.721  21.389  26.066  1.00  0.00     0.039 A 
ATOM     39  C   UNL A   1      42.821  22.318  25.026  1.00  0.00     0.014 A 
ATOM     40  C   UNL A   1      43.132  21.736  27.354  1.00  0.00     0.014 A 
ATOM     41  C   UNL A   1      43.249  23.621  25.299  1.00  0.00     0.010 A 
ATOM     42  C   UNL A   1      43.485  23.053  27.638  1.00  0.00     0.010 A 
ATOM     43  C   UNL A   1      43.538  24.015  26.617  1.00  0.00    -0.014 A 
BRANCH  43  44
ATOM     44  C   UNL A   1      43.881  25.426  26.950  1.00  0.00     0.031 A 
ATOM     45  C   UNL A   1      45.292  25.922  26.776  1.00  0.00     0.074 A 
ATOM     46  C   UNL A   1      42.941  26.236  27.480  1.00  0.00     0.049 A 
ATOM     47  N   UNL A   1      45.807  27.080  27.099  1.00  0.00    -0.248 NA
ATOM     48  C   UNL A   1      46.256  24.980  26.187  1.00  0.00     0.031 C 
ATOM     49  C   UNL A   1      41.549  25.860  27.739  1.00  0.00     0.029 A 
ATOM     50  N   UNL A   1      43.013  27.538  27.909  1.00  0.00    -0.354 N 
ATOM     51  C   UNL A   1      47.157  27.000  26.772  1.00  0.00     0.074 A 
ATOM     52  C   UNL A   1      47.388  25.661  26.275  1.00  0.00     0.031 C 
ATOM     53  C   UNL A   1      40.896  26.913  28.259  1.00  0.00     0.029 A 
ATOM     54  C   UNL A   1      41.829  28.024  28.419  1.00  0.00     0.049 A 
ATOM     55  H   UNL A   1      43.836  28.077  27.856  1.00  0.00     0.167 HD
ATOM     56  C   UNL A   1      48.110  27.961  26.859  1.00  0.00     0.034 A 
ATOM     57  C   UNL A   1      41.531  29.220  28.968  1.00  0.00     0.034 A 
ATOM     58  C   UNL A   1      47.861  29.300  27.335  1.00  0.00     0.049 A 
ATOM     59  C   UNL A   1      42.615  30.266  29.065  1.00  0.00     0.074 A 
ATOM     60  C   UNL A   1      48.742  30.367  27.403  1.00  0.00     0.029 A 
ATOM     61  N   UNL A   1      46.646  29.757  27.829  1.00  0.00    -0.354 N 
ATOM     62  N   UNL A   1      43.874  30.190  28.697  1.00  0.00    -0.248 NA
ATOM     63  C   UNL A   1      42.235  31.564  29.638  1.00  0.00     0.031 C 
ATOM     64  C   UNL A   1      48.080  31.445  27.998  1.00  0.00     0.029 A 
ATOM     65  C   UNL A   1      46.764  31.079  28.230  1.00  0.00     0.049 A 
ATOM     66  H   UNL A   1      45.823  29.221  27.887  1.00  0.00     0.167 HD
ATOM     67  C   UNL A   1      44.422  31.443  28.961  1.00  0.00     0.074 A 
ATOM     68  C   UNL A   1      43.355  32.257  29.503  1.00  0.00     0.031 C 
ATOM     69  C   UNL A   1      45.692  31.882  28.769  1.00  0.00     0.034 A 
BRANCH  56  70
ATOM     70  C   UNL A   1      49.515  27.592  26.448  1.00  0.00     0.023 A 
ATOM     71  C   UNL A   1      49.984  27.800  25.140  1.00  0.00     0.031 A 
ATOM     72  C   UNL A   1      50.402  27.022  27.381  1.00  0.00     0.131 A 
ATOM     73  C   UNL A   1      51.275  27.385  24.782  1.00  0.00     0.055 A 
ATOM     74  C   UNL A   1      51.712  26.682  27.039  1.00  0.00     0.041 A 
ATOM     75  F   UNL A   1      50.006  26.781  28.640  1.00  0.00    -0.206 F 
ATOM     76  C   UNL A   1      52.152  26.852  25.730  1.00  0.00     0.022 A 
BRANCH  73  77
ATOM     77  S   UNL A   1      51.751  27.441  23.034  1.00  0.00     0.124 S 
ATOM     78  O   UNL A   1      50.503  27.062  22.377  1.00  0.00    -0.237 OA
ATOM     79  O   UNL A   1      52.169  28.828  22.863  1.00  0.00    -0.237 OA
ATOM     80  O   UNL A   1      52.823  26.451  22.939  1.00  0.00    -0.744 OA
ENDBRANCH  73  77
ENDBRANCH  56  70
BRANCH  57  81
ATOM     81  C   UNL A   1      40.161  29.503  29.486  1.00  0.00     0.023 A 
ATOM     82  C   UNL A   1      39.896  29.505  30.865  1.00  0.00     0.031 A 
ATOM     83  C   UNL A   1      39.079  29.702  28.610  1.00  0.00     0.131 A 
ATOM     84  C   UNL A   1      38.578  29.640  31.327  1.00  0.00     0.055 A 
ATOM     85  C   UNL A   1      37.777  29.897  29.077  1.00  0.00     0.041 A 
ATOM     86  F   UNL A   1      39.273  29.712  27.282  1.00  0.00    -0.206 F 
ATOM     87  C   UNL A   1      37.518  29.850  30.443  1.00  0.00     0.022 A 
BRANCH  84  88
ATOM     88  S   UNL A   1      38.252  29.422  33.098  1.00  0.00     0.124 S 
ATOM     89  O   UNL A   1      37.681  30.715  33.457  1.00  0.00    -0.237 OA
ATOM     90  O   UNL A   1      37.330  28.290  33.098  1.00  0.00    -0.237 OA
ATOM     91  O   UNL A   1      39.574  29.145  33.657  1.00  0.00    -0.744 OA
ENDBRANCH  84  88
ENDBRANCH  57  81
BRANCH  69  92
ATOM     92  C   UNL A   1      45.976  33.328  29.095  1.00  0.00     0.023 A 
ATOM     93  C   UNL A   1      45.603  34.372  28.231  1.00  0.00     0.031 A 
ATOM     94  C   UNL A   1      46.644  33.663  30.288  1.00  0.00     0.131 A 
ATOM     95  C   UNL A   1      45.949  35.696  28.546  1.00  0.00     0.055 A 
ATOM     96  C   UNL A   1      46.928  34.986  30.625  1.00  0.00     0.041 A 
ATOM     97  F   UNL A   1      47.026  32.704  31.148  1.00  0.00    -0.206 F 
ATOM     98  C   UNL A   1      46.592  36.011  29.746  1.00  0.00     0.022 A 
BRANCH  95  99
ATOM     99  S   UNL A   1      45.624  36.995  27.323  1.00  0.00     0.124 S 
ATOM    100  O   UNL A   1      46.839  36.960  26.514  1.00  0.00    -0.237 OA
ATOM    101  O   UNL A   1      44.410  36.515  26.671  1.00  0.00    -0.237 OA
ATOM    102  O   UNL A   1      45.455  38.198  28.136  1.00  0.00    -0.744 OA
ENDBRANCH  95  99
ENDBRANCH  69  92
ENDBRANCH  43  44
ENDBRANCH  35  38
ENDBRANCH  33  34
ENDBRANCH  32  33
ENDBRANCH  31  32
ENDBRANCH   1  31
TORSDOF 20
ENDMDL
