MODEL 1
REMARK VINA RESULT:     -13.1      0.000      0.000
REMARK SMILES Cc1cc(Br)cc2c1O[C@H](C(F)(F)F)C(C(=O)NCCCCNC(=O)c1ccc(-c3c4nc(c(-c5cc(S(=O)(=O)[O-])ccc5F)c5ccc([nH]5)c(-c5cc(S(=O)(=O)[O-])ccc5F)c5nc(c(-c6cc(S(=O)(=O)[O-])ccc6F)c6ccc3[nH]6)C=C5)C=C4)cc1)=C2
REMARK SMILES IDX 21 1 20 2 19 3 18 4 16 5 17 6 15 8 1 9 2 10 3 11 8 12 4 13
REMARK SMILES IDX 7 14 9 15 5 16 6 17 89 18 10 19 11 20 12 21 13 22 14 23
REMARK SMILES IDX 22 24 23 25 24 26 25 28 26 29 27 30 88 31 28 32 87 33 29 34
REMARK SMILES IDX 30 35 31 36 81 37 32 38 86 39 80 40 82 41 33 42 85 43 79 44
REMARK SMILES IDX 78 45 34 47 66 48 46 49 65 50 47 51 50 52 64 53 83 54 48 55
REMARK SMILES IDX 49 56 63 58 84 59 51 60 35 61 36 62 44 63 37 64 43 65 45 66
REMARK SMILES IDX 42 67 38 68 39 69 40 70 41 71 67 72 68 73 76 74 69 75 75 76
REMARK SMILES IDX 77 77 74 78 70 79 71 80 72 81 73 82 52 83 53 84 61 85 54 86
REMARK SMILES IDX 60 87 62 88 59 89 55 90 56 91 57 92 58 93
REMARK H PARENT 18 7 23 27 82 46 50 57
REMARK Flexibility Score: inf
ROOT
ATOM      1  C   UNL A   1      34.864  22.027  24.966  1.00  0.00     0.023 C 
ENDROOT
BRANCH   1   2
ATOM      2  C   UNL A   1      33.774  21.170  25.618  1.00  0.00     0.023 C 
BRANCH   2   3
ATOM      3  C   UNL A   1      32.371  21.416  25.070  1.00  0.00     0.116 C 
BRANCH   3   4
ATOM      4  N   UNL A   1      31.510  22.055  26.050  1.00  0.00    -0.352 N 
ATOM      5  C   UNL A   1      31.146  23.317  26.372  1.00  0.00     0.251 C 
ATOM      6  O   UNL A   1      30.357  23.414  27.319  1.00  0.00    -0.270 OA
ATOM      7  H   UNL A   1      31.074  21.393  26.634  1.00  0.00     0.163 HD
BRANCH   5   8
ATOM      8  C   UNL A   1      31.619  24.558  25.687  1.00  0.00     0.067 C 
ATOM      9  C   UNL A   1      33.837  28.087  22.682  1.00  0.00     0.048 C 
ATOM     10  C   UNL A   1      33.134  28.110  24.009  1.00  0.00    -0.007 A 
ATOM     11  C   UNL A   1      32.906  29.323  24.670  1.00  0.00     0.023 A 
ATOM     12  C   UNL A   1      32.670  26.923  24.596  1.00  0.00     0.130 A 
ATOM     13  C   UNL A   1      32.246  29.339  25.899  1.00  0.00     0.019 A 
ATOM     14  C   UNL A   1      32.015  26.938  25.832  1.00  0.00     0.019 A 
ATOM     15  O   UNL A   1      32.927  25.752  23.936  1.00  0.00    -0.475 OA
ATOM     16  Br  UNL A   1      31.955  30.987  26.781  1.00  0.00    -0.051 Br
ATOM     17  C   UNL A   1      31.803  28.154  26.486  1.00  0.00     0.027 A 
ATOM     18  C   UNL A   1      31.597  25.679  26.434  1.00  0.00     0.025 C 
ATOM     19  C   UNL A   1      32.059  24.628  24.253  1.00  0.00     0.314 C 
BRANCH  19  20
ATOM     20  C   UNL A   1      30.877  24.605  23.267  1.00  0.00     0.429 C 
ATOM     21  F   UNL A   1      30.434  23.334  23.088  1.00  0.00    -0.167 F 
ATOM     22  F   UNL A   1      29.818  25.323  23.705  1.00  0.00    -0.167 F 
ATOM     23  F   UNL A   1      31.205  25.091  22.048  1.00  0.00    -0.167 F 
ENDBRANCH  19  20
ENDBRANCH   5   8
ENDBRANCH   3   4
ENDBRANCH   2   3
ENDBRANCH   1   2
BRANCH   1  24
ATOM     24  C   UNL A   1      36.154  22.183  25.773  1.00  0.00     0.116 C 
BRANCH  24  25
ATOM     25  N   UNL A   1      37.134  21.135  25.525  1.00  0.00    -0.352 N 
ATOM     26  C   UNL A   1      38.488  21.177  25.757  1.00  0.00     0.251 C 
ATOM     27  H   UNL A   1      36.785  20.297  25.145  1.00  0.00     0.163 HD
ATOM     28  O   UNL A   1      39.205  20.238  25.426  1.00  0.00    -0.269 OA
BRANCH  26  29
ATOM     29  C   UNL A   1      39.065  22.393  26.363  1.00  0.00     0.039 A 
ATOM     30  C   UNL A   1      40.191  22.268  27.180  1.00  0.00     0.014 A 
ATOM     31  C   UNL A   1      38.545  23.652  26.051  1.00  0.00     0.014 A 
ATOM     32  C   UNL A   1      40.851  23.417  27.616  1.00  0.00     0.010 A 
ATOM     33  C   UNL A   1      39.233  24.794  26.445  1.00  0.00     0.010 A 
ATOM     34  C   UNL A   1      40.404  24.686  27.213  1.00  0.00    -0.014 A 
BRANCH  34  35
ATOM     35  C   UNL A   1      41.162  25.914  27.554  1.00  0.00     0.031 A 
ATOM     36  C   UNL A   1      40.523  26.981  28.393  1.00  0.00     0.074 A 
ATOM     37  C   UNL A   1      42.399  26.093  27.050  1.00  0.00     0.049 A 
ATOM     38  N   UNL A   1      40.969  28.172  28.694  1.00  0.00    -0.248 NA
ATOM     39  C   UNL A   1      39.194  26.674  28.947  1.00  0.00     0.031 C 
ATOM     40  C   UNL A   1      43.116  25.132  26.207  1.00  0.00     0.029 A 
ATOM     41  N   UNL A   1      43.270  27.146  27.167  1.00  0.00    -0.354 N 
ATOM     42  C   UNL A   1      39.975  28.764  29.464  1.00  0.00     0.074 A 
ATOM     43  C   UNL A   1      38.885  27.815  29.547  1.00  0.00     0.031 C 
ATOM     44  C   UNL A   1      44.327  25.630  25.908  1.00  0.00     0.029 A 
ATOM     45  C   UNL A   1      44.456  26.959  26.497  1.00  0.00     0.049 A 
ATOM     46  H   UNL A   1      43.065  27.959  27.684  1.00  0.00     0.167 HD
ATOM     47  C   UNL A   1      39.980  29.981  30.061  1.00  0.00     0.034 A 
ATOM     48  C   UNL A   1      45.523  27.771  26.364  1.00  0.00     0.034 A 
ATOM     49  C   UNL A   1      41.076  30.913  29.980  1.00  0.00     0.049 A 
ATOM     50  C   UNL A   1      45.497  29.125  27.018  1.00  0.00     0.074 A 
ATOM     51  C   UNL A   1      41.184  32.170  30.553  1.00  0.00     0.029 A 
ATOM     52  N   UNL A   1      42.258  30.689  29.288  1.00  0.00    -0.354 N 
ATOM     53  N   UNL A   1      44.537  29.683  27.719  1.00  0.00    -0.248 NA
ATOM     54  C   UNL A   1      46.696  29.959  26.865  1.00  0.00     0.031 C 
ATOM     55  C   UNL A   1      42.414  32.719  30.175  1.00  0.00     0.029 A 
ATOM     56  C   UNL A   1      43.098  31.785  29.414  1.00  0.00     0.049 A 
ATOM     57  H   UNL A   1      42.470  29.871  28.783  1.00  0.00     0.167 HD
ATOM     58  C   UNL A   1      45.027  30.924  28.110  1.00  0.00     0.074 A 
ATOM     59  C   UNL A   1      46.366  31.034  27.568  1.00  0.00     0.031 C 
ATOM     60  C   UNL A   1      44.425  31.881  28.858  1.00  0.00     0.034 A 
BRANCH  47  61
ATOM     61  C   UNL A   1      38.749  30.374  30.832  1.00  0.00     0.023 A 
ATOM     62  C   UNL A   1      37.683  31.050  30.213  1.00  0.00     0.031 A 
ATOM     63  C   UNL A   1      38.642  30.082  32.203  1.00  0.00     0.131 A 
ATOM     64  C   UNL A   1      36.581  31.461  30.976  1.00  0.00     0.055 A 
ATOM     65  C   UNL A   1      37.513  30.436  32.942  1.00  0.00     0.041 A 
ATOM     66  F   UNL A   1      39.640  29.457  32.847  1.00  0.00    -0.206 F 
ATOM     67  C   UNL A   1      36.477  31.139  32.332  1.00  0.00     0.022 A 
BRANCH  64  68
ATOM     68  S   UNL A   1      35.325  32.507  30.193  1.00  0.00     0.124 S 
ATOM     69  O   UNL A   1      34.899  31.668  29.075  1.00  0.00    -0.237 OA
ATOM     70  O   UNL A   1      34.349  32.689  31.262  1.00  0.00    -0.237 OA
ATOM     71  O   UNL A   1      36.065  33.709  29.817  1.00  0.00    -0.744 OA
ENDBRANCH  64  68
ENDBRANCH  47  61
BRANCH  48  72
ATOM     72  C   UNL A   1      46.704  27.326  25.577  1.00  0.00     0.023 A 
ATOM     73  C   UNL A   1      46.894  27.769  24.260  1.00  0.00     0.031 A 
ATOM     74  C   UNL A   1      47.655  26.453  26.131  1.00  0.00     0.131 A 
ATOM     75  C   UNL A   1      48.004  27.320  23.527  1.00  0.00     0.055 A 
ATOM     76  C   UNL A   1      48.775  26.035  25.409  1.00  0.00     0.041 A 
ATOM     77  F   UNL A   1      47.521  26.015  27.393  1.00  0.00    -0.206 F 
ATOM     78  C   UNL A   1      48.950  26.463  24.097  1.00  0.00     0.022 A 
BRANCH  75  79
ATOM     79  S   UNL A   1      48.187  27.856  21.805  1.00  0.00     0.124 S 
ATOM     80  O   UNL A   1      48.404  26.587  21.121  1.00  0.00    -0.237 OA
ATOM     81  O   UNL A   1      46.907  28.512  21.553  1.00  0.00    -0.237 OA
ATOM     82  O   UNL A   1      49.341  28.750  21.848  1.00  0.00    -0.744 OA
ENDBRANCH  75  79
ENDBRANCH  48  72
BRANCH  60  83
ATOM     83  C   UNL A   1      45.229  33.115  29.169  1.00  0.00     0.023 A 
ATOM     84  C   UNL A   1      45.176  34.254  28.350  1.00  0.00     0.031 A 
ATOM     85  C   UNL A   1      46.037  33.152  30.318  1.00  0.00     0.131 A 
ATOM     86  C   UNL A   1      45.948  35.379  28.675  1.00  0.00     0.055 A 
ATOM     87  C   UNL A   1      46.770  34.289  30.659  1.00  0.00     0.041 A 
ATOM     88  F   UNL A   1      46.118  32.087  31.131  1.00  0.00    -0.206 F 
ATOM     89  C   UNL A   1      46.733  35.408  29.833  1.00  0.00     0.022 A 
BRANCH  86  90
ATOM     90  S   UNL A   1      45.942  36.799  27.548  1.00  0.00     0.124 S 
ATOM     91  O   UNL A   1      44.552  36.826  27.104  1.00  0.00    -0.237 OA
ATOM     92  O   UNL A   1      46.354  37.895  28.418  1.00  0.00    -0.237 OA
ATOM     93  O   UNL A   1      46.913  36.426  26.521  1.00  0.00    -0.744 OA
ENDBRANCH  86  90
ENDBRANCH  60  83
ENDBRANCH  34  35
ENDBRANCH  26  29
ENDBRANCH  24  25
ENDBRANCH   1  24
TORSDOF 15
ENDMDL
MODEL 2
REMARK VINA RESULT:     -12.9      5.251     10.194
REMARK SMILES Cc1cc(Br)cc2c1O[C@H](C(F)(F)F)C(C(=O)NCCCCNC(=O)c1ccc(-c3c4nc(c(-c5cc(S(=O)(=O)[O-])ccc5F)c5ccc([nH]5)c(-c5cc(S(=O)(=O)[O-])ccc5F)c5nc(c(-c6cc(S(=O)(=O)[O-])ccc6F)c6ccc3[nH]6)C=C5)C=C4)cc1)=C2
REMARK SMILES IDX 21 1 20 2 19 3 18 4 16 5 17 6 15 8 1 9 2 10 3 11 8 12 4 13
REMARK SMILES IDX 7 14 9 15 5 16 6 17 89 18 10 19 11 20 12 21 13 22 14 23
REMARK SMILES IDX 22 24 23 25 24 26 25 28 26 29 27 30 88 31 28 32 87 33 29 34
REMARK SMILES IDX 30 35 31 36 81 37 32 38 86 39 80 40 82 41 33 42 85 43 79 44
REMARK SMILES IDX 78 45 34 47 66 48 46 49 65 50 47 51 50 52 64 53 83 54 48 55
REMARK SMILES IDX 49 56 63 58 84 59 51 60 35 61 36 62 44 63 37 64 43 65 45 66
REMARK SMILES IDX 42 67 38 68 39 69 40 70 41 71 67 72 68 73 76 74 69 75 75 76
REMARK SMILES IDX 77 77 74 78 70 79 71 80 72 81 73 82 52 83 53 84 61 85 54 86
REMARK SMILES IDX 60 87 62 88 59 89 55 90 56 91 57 92 58 93
REMARK H PARENT 18 7 23 27 82 46 50 57
REMARK Flexibility Score: inf
ROOT
ATOM      1  C   UNL A   1      31.887  29.144  24.881  1.00  0.00     0.023 C 
ENDROOT
BRANCH   1   2
ATOM      2  C   UNL A   1      32.532  28.352  23.740  1.00  0.00     0.023 C 
BRANCH   2   3
ATOM      3  C   UNL A   1      31.535  27.716  22.776  1.00  0.00     0.116 C 
BRANCH   3   4
ATOM      4  N   UNL A   1      32.193  26.888  21.780  1.00  0.00    -0.352 N 
ATOM      5  C   UNL A   1      32.868  25.716  21.758  1.00  0.00     0.251 C 
ATOM      6  O   UNL A   1      33.278  25.365  20.646  1.00  0.00    -0.270 OA
ATOM      7  H   UNL A   1      32.130  27.286  20.881  1.00  0.00     0.163 HD
BRANCH   5   8
ATOM      8  C   UNL A   1      33.142  24.851  22.944  1.00  0.00     0.067 C 
ATOM      9  C   UNL A   1      33.346  22.579  27.548  1.00  0.00     0.048 C 
ATOM     10  C   UNL A   1      34.199  22.556  26.312  1.00  0.00    -0.007 A 
ATOM     11  C   UNL A   1      35.315  21.714  26.236  1.00  0.00     0.023 A 
ATOM     12  C   UNL A   1      33.879  23.355  25.205  1.00  0.00     0.130 A 
ATOM     13  C   UNL A   1      36.099  21.692  25.082  1.00  0.00     0.019 A 
ATOM     14  C   UNL A   1      34.670  23.339  24.051  1.00  0.00     0.019 A 
ATOM     15  O   UNL A   1      32.795  24.184  25.319  1.00  0.00    -0.475 OA
ATOM     16  Br  UNL A   1      37.608  20.554  25.001  1.00  0.00    -0.051 Br
ATOM     17  C   UNL A   1      35.786  22.502  23.992  1.00  0.00     0.027 A 
ATOM     18  C   UNL A   1      34.335  24.225  22.943  1.00  0.00     0.025 C 
ATOM     19  C   UNL A   1      32.180  24.617  24.073  1.00  0.00     0.314 C 
BRANCH  19  20
ATOM     20  C   UNL A   1      31.050  23.641  23.698  1.00  0.00     0.429 C 
ATOM     21  F   UNL A   1      31.498  22.715  22.813  1.00  0.00    -0.167 F 
ATOM     22  F   UNL A   1      30.575  22.958  24.765  1.00  0.00    -0.167 F 
ATOM     23  F   UNL A   1      29.993  24.263  23.127  1.00  0.00    -0.167 F 
ENDBRANCH  19  20
ENDBRANCH   5   8
ENDBRANCH   3   4
ENDBRANCH   2   3
ENDBRANCH   1   2
BRANCH   1  24
ATOM     24  C   UNL A   1      32.857  29.754  25.894  1.00  0.00     0.116 C 
BRANCH  24  25
ATOM     25  N   UNL A   1      32.455  31.066  26.380  1.00  0.00    -0.352 N 
ATOM     26  C   UNL A   1      33.138  31.891  27.243  1.00  0.00     0.251 C 
ATOM     27  H   UNL A   1      31.589  31.402  26.053  1.00  0.00     0.163 HD
ATOM     28  O   UNL A   1      32.636  32.942  27.625  1.00  0.00    -0.269 OA
BRANCH  26  29
ATOM     29  C   UNL A   1      34.460  31.459  27.736  1.00  0.00     0.039 A 
ATOM     30  C   UNL A   1      35.434  32.428  27.987  1.00  0.00     0.014 A 
ATOM     31  C   UNL A   1      34.698  30.114  28.031  1.00  0.00     0.014 A 
ATOM     32  C   UNL A   1      36.622  32.058  28.617  1.00  0.00     0.010 A 
ATOM     33  C   UNL A   1      35.861  29.756  28.704  1.00  0.00     0.010 A 
ATOM     34  C   UNL A   1      36.824  30.728  29.022  1.00  0.00    -0.014 A 
BRANCH  34  35
ATOM     35  C   UNL A   1      38.018  30.335  29.808  1.00  0.00     0.031 A 
ATOM     36  C   UNL A   1      39.017  29.378  29.225  1.00  0.00     0.074 A 
ATOM     37  C   UNL A   1      38.162  30.788  31.068  1.00  0.00     0.049 A 
ATOM     38  N   UNL A   1      40.052  28.819  29.794  1.00  0.00    -0.248 NA
ATOM     39  C   UNL A   1      38.809  28.982  27.824  1.00  0.00     0.031 C 
ATOM     40  C   UNL A   1      37.246  31.708  31.747  1.00  0.00     0.029 A 
ATOM     41  N   UNL A   1      39.130  30.533  32.006  1.00  0.00    -0.354 N 
ATOM     42  C   UNL A   1      40.616  27.996  28.827  1.00  0.00     0.074 A 
ATOM     43  C   UNL A   1      39.781  28.098  27.648  1.00  0.00     0.031 C 
ATOM     44  C   UNL A   1      37.712  31.960  32.981  1.00  0.00     0.029 A 
ATOM     45  C   UNL A   1      38.931  31.188  33.198  1.00  0.00     0.049 A 
ATOM     46  H   UNL A   1      39.896  29.937  31.841  1.00  0.00     0.167 HD
ATOM     47  C   UNL A   1      41.737  27.238  28.910  1.00  0.00     0.034 A 
ATOM     48  C   UNL A   1      39.645  31.162  34.341  1.00  0.00     0.034 A 
ATOM     49  C   UNL A   1      42.566  27.152  30.085  1.00  0.00     0.049 A 
ATOM     50  C   UNL A   1      40.873  30.298  34.416  1.00  0.00     0.074 A 
ATOM     51  C   UNL A   1      43.726  26.419  30.271  1.00  0.00     0.029 A 
ATOM     52  N   UNL A   1      42.329  27.828  31.274  1.00  0.00    -0.354 N 
ATOM     53  N   UNL A   1      41.377  29.503  33.501  1.00  0.00    -0.248 NA
ATOM     54  C   UNL A   1      41.630  30.328  35.674  1.00  0.00     0.031 C 
ATOM     55  C   UNL A   1      44.167  26.622  31.583  1.00  0.00     0.029 A 
ATOM     56  C   UNL A   1      43.315  27.524  32.198  1.00  0.00     0.049 A 
ATOM     57  H   UNL A   1      41.571  28.436  31.436  1.00  0.00     0.167 HD
ATOM     58  C   UNL A   1      42.524  28.955  34.067  1.00  0.00     0.074 A 
ATOM     59  C   UNL A   1      42.637  29.511  35.401  1.00  0.00     0.031 C 
ATOM     60  C   UNL A   1      43.407  28.079  33.527  1.00  0.00     0.034 A 
BRANCH  47  61
ATOM     61  C   UNL A   1      42.110  26.427  27.698  1.00  0.00     0.023 A 
ATOM     62  C   UNL A   1      41.761  25.070  27.591  1.00  0.00     0.031 A 
ATOM     63  C   UNL A   1      42.833  27.012  26.643  1.00  0.00     0.131 A 
ATOM     64  C   UNL A   1      42.183  24.327  26.479  1.00  0.00     0.055 A 
ATOM     65  C   UNL A   1      43.193  26.282  25.509  1.00  0.00     0.041 A 
ATOM     66  F   UNL A   1      43.209  28.298  26.705  1.00  0.00    -0.206 F 
ATOM     67  C   UNL A   1      42.877  24.929  25.427  1.00  0.00     0.022 A 
BRANCH  64  68
ATOM     68  S   UNL A   1      41.895  22.537  26.471  1.00  0.00     0.124 S 
ATOM     69  O   UNL A   1      40.435  22.475  26.492  1.00  0.00    -0.237 OA
ATOM     70  O   UNL A   1      42.533  22.117  25.228  1.00  0.00    -0.237 OA
ATOM     71  O   UNL A   1      42.551  22.079  27.693  1.00  0.00    -0.744 OA
ENDBRANCH  64  68
ENDBRANCH  47  61
BRANCH  48  72
ATOM     72  C   UNL A   1      39.213  31.979  35.506  1.00  0.00     0.023 A 
ATOM     73  C   UNL A   1      38.466  31.405  36.546  1.00  0.00     0.031 A 
ATOM     74  C   UNL A   1      39.543  33.342  35.597  1.00  0.00     0.131 A 
ATOM     75  C   UNL A   1      38.051  32.198  37.626  1.00  0.00     0.055 A 
ATOM     76  C   UNL A   1      39.155  34.120  36.689  1.00  0.00     0.041 A 
ATOM     77  F   UNL A   1      40.269  33.930  34.632  1.00  0.00    -0.206 F 
ATOM     78  C   UNL A   1      38.399  33.550  37.709  1.00  0.00     0.022 A 
BRANCH  75  79
ATOM     79  S   UNL A   1      37.028  31.444  38.919  1.00  0.00     0.124 S 
ATOM     80  O   UNL A   1      35.835  32.280  38.879  1.00  0.00    -0.237 OA
ATOM     81  O   UNL A   1      36.873  30.079  38.428  1.00  0.00    -0.237 OA
ATOM     82  O   UNL A   1      37.847  31.579  40.121  1.00  0.00    -0.744 OA
ENDBRANCH  75  79
ENDBRANCH  48  72
BRANCH  60  83
ATOM     83  C   UNL A   1      44.597  27.701  34.366  1.00  0.00     0.023 A 
ATOM     84  C   UNL A   1      44.586  26.561  35.187  1.00  0.00     0.031 A 
ATOM     85  C   UNL A   1      45.765  28.482  34.317  1.00  0.00     0.131 A 
ATOM     86  C   UNL A   1      45.717  26.251  35.957  1.00  0.00     0.055 A 
ATOM     87  C   UNL A   1      46.900  28.145  35.054  1.00  0.00     0.041 A 
ATOM     88  F   UNL A   1      45.820  29.578  33.546  1.00  0.00    -0.206 F 
ATOM     89  C   UNL A   1      46.879  27.027  35.884  1.00  0.00     0.022 A 
BRANCH  86  90
ATOM     90  S   UNL A   1      45.643  24.835  37.086  1.00  0.00     0.124 S 
ATOM     91  O   UNL A   1      46.983  24.272  36.953  1.00  0.00    -0.237 OA
ATOM     92  O   UNL A   1      45.344  25.467  38.366  1.00  0.00    -0.237 OA
ATOM     93  O   UNL A   1      44.567  24.013  36.536  1.00  0.00    -0.744 OA
ENDBRANCH  86  90
ENDBRANCH  60  83
ENDBRANCH  34  35
ENDBRANCH  26  29
ENDBRANCH  24  25
ENDBRANCH   1  24
TORSDOF 15
ENDMDL
MODEL 3
REMARK VINA RESULT:     -12.9      1.398      1.766
REMARK SMILES Cc1cc(Br)cc2c1O[C@H](C(F)(F)F)C(C(=O)NCCCCNC(=O)c1ccc(-c3c4nc(c(-c5cc(S(=O)(=O)[O-])ccc5F)c5ccc([nH]5)c(-c5cc(S(=O)(=O)[O-])ccc5F)c5nc(c(-c6cc(S(=O)(=O)[O-])ccc6F)c6ccc3[nH]6)C=C5)C=C4)cc1)=C2
REMARK SMILES IDX 21 1 20 2 19 3 18 4 16 5 17 6 15 8 1 9 2 10 3 11 8 12 4 13
REMARK SMILES IDX 7 14 9 15 5 16 6 17 89 18 10 19 11 20 12 21 13 22 14 23
REMARK SMILES IDX 22 24 23 25 24 26 25 28 26 29 27 30 88 31 28 32 87 33 29 34
REMARK SMILES IDX 30 35 31 36 81 37 32 38 86 39 80 40 82 41 33 42 85 43 79 44
REMARK SMILES IDX 78 45 34 47 66 48 46 49 65 50 47 51 50 52 64 53 83 54 48 55
REMARK SMILES IDX 49 56 63 58 84 59 51 60 35 61 36 62 44 63 37 64 43 65 45 66
REMARK SMILES IDX 42 67 38 68 39 69 40 70 41 71 67 72 68 73 76 74 69 75 75 76
REMARK SMILES IDX 77 77 74 78 70 79 71 80 72 81 73 82 52 83 53 84 61 85 54 86
REMARK SMILES IDX 60 87 62 88 59 89 55 90 56 91 57 92 58 93
REMARK H PARENT 18 7 23 27 82 46 50 57
REMARK Flexibility Score: inf
ROOT
ATOM      1  C   UNL A   1      35.707  22.516  24.028  1.00  0.00     0.023 C 
ENDROOT
BRANCH   1   2
ATOM      2  C   UNL A   1      34.269  21.998  23.914  1.00  0.00     0.023 C 
BRANCH   2   3
ATOM      3  C   UNL A   1      33.217  23.094  23.771  1.00  0.00     0.116 C 
BRANCH   3   4
ATOM      4  N   UNL A   1      32.172  22.978  24.772  1.00  0.00    -0.352 N 
ATOM      5  C   UNL A   1      31.398  23.820  25.495  1.00  0.00     0.251 C 
ATOM      6  O   UNL A   1      30.603  23.273  26.269  1.00  0.00    -0.270 OA
ATOM      7  H   UNL A   1      31.972  22.036  24.979  1.00  0.00     0.163 HD
BRANCH   5   8
ATOM      8  C   UNL A   1      31.439  25.312  25.426  1.00  0.00     0.067 C 
ATOM      9  C   UNL A   1      31.971  30.353  26.262  1.00  0.00     0.048 C 
ATOM     10  C   UNL A   1      31.238  29.513  25.256  1.00  0.00    -0.007 A 
ATOM     11  C   UNL A   1      30.540  30.117  24.202  1.00  0.00     0.023 A 
ATOM     12  C   UNL A   1      31.261  28.114  25.336  1.00  0.00     0.130 A 
ATOM     13  C   UNL A   1      29.868  29.331  23.266  1.00  0.00     0.019 A 
ATOM     14  C   UNL A   1      30.580  27.326  24.401  1.00  0.00     0.019 A 
ATOM     15  O   UNL A   1      31.933  27.555  26.389  1.00  0.00    -0.475 OA
ATOM     16  Br  UNL A   1      28.923  30.165  21.854  1.00  0.00    -0.051 Br
ATOM     17  C   UNL A   1      29.879  27.941  23.361  1.00  0.00     0.027 A 
ATOM     18  C   UNL A   1      30.583  25.876  24.551  1.00  0.00     0.025 C 
ATOM     19  C   UNL A   1      32.375  26.179  26.216  1.00  0.00     0.314 C 
BRANCH  19  20
ATOM     20  C   UNL A   1      33.809  26.173  25.653  1.00  0.00     0.429 C 
ATOM     21  F   UNL A   1      34.512  27.228  26.136  1.00  0.00    -0.167 F 
ATOM     22  F   UNL A   1      34.499  25.061  25.997  1.00  0.00    -0.167 F 
ATOM     23  F   UNL A   1      33.839  26.254  24.304  1.00  0.00    -0.167 F 
ENDBRANCH  19  20
ENDBRANCH   5   8
ENDBRANCH   3   4
ENDBRANCH   2   3
ENDBRANCH   1   2
BRANCH   1  24
ATOM     24  C   UNL A   1      36.397  22.263  25.370  1.00  0.00     0.116 C 
BRANCH  24  25
ATOM     25  N   UNL A   1      37.327  21.143  25.352  1.00  0.00    -0.352 N 
ATOM     26  C   UNL A   1      38.630  21.124  25.792  1.00  0.00     0.251 C 
ATOM     27  H   UNL A   1      36.982  20.299  24.980  1.00  0.00     0.163 HD
ATOM     28  O   UNL A   1      39.321  20.121  25.643  1.00  0.00    -0.269 OA
BRANCH  26  29
ATOM     29  C   UNL A   1      39.191  22.347  26.397  1.00  0.00     0.039 A 
ATOM     30  C   UNL A   1      40.316  22.237  27.217  1.00  0.00     0.014 A 
ATOM     31  C   UNL A   1      38.657  23.599  26.081  1.00  0.00     0.014 A 
ATOM     32  C   UNL A   1      40.961  23.395  27.652  1.00  0.00     0.010 A 
ATOM     33  C   UNL A   1      39.331  24.750  26.474  1.00  0.00     0.010 A 
ATOM     34  C   UNL A   1      40.501  24.658  27.245  1.00  0.00    -0.014 A 
BRANCH  34  35
ATOM     35  C   UNL A   1      41.244  25.895  27.586  1.00  0.00     0.031 A 
ATOM     36  C   UNL A   1      40.588  26.958  28.418  1.00  0.00     0.074 A 
ATOM     37  C   UNL A   1      42.481  26.085  27.087  1.00  0.00     0.049 A 
ATOM     38  N   UNL A   1      41.020  28.155  28.716  1.00  0.00    -0.248 NA
ATOM     39  C   UNL A   1      39.260  26.639  28.965  1.00  0.00     0.031 C 
ATOM     40  C   UNL A   1      43.213  25.129  26.252  1.00  0.00     0.029 A 
ATOM     41  N   UNL A   1      43.340  27.148  27.205  1.00  0.00    -0.354 N 
ATOM     42  C   UNL A   1      40.015  28.739  29.479  1.00  0.00     0.074 A 
ATOM     43  C   UNL A   1      38.935  27.778  29.559  1.00  0.00     0.031 C 
ATOM     44  C   UNL A   1      44.420  25.640  25.957  1.00  0.00     0.029 A 
ATOM     45  C   UNL A   1      44.532  26.972  26.542  1.00  0.00     0.049 A 
ATOM     46  H   UNL A   1      43.124  27.961  27.718  1.00  0.00     0.167 HD
ATOM     47  C   UNL A   1      40.004  29.958  30.071  1.00  0.00     0.034 A 
ATOM     48  C   UNL A   1      45.590  27.795  26.411  1.00  0.00     0.034 A 
ATOM     49  C   UNL A   1      41.090  30.902  29.993  1.00  0.00     0.049 A 
ATOM     50  C   UNL A   1      45.546  29.151  27.061  1.00  0.00     0.074 A 
ATOM     51  C   UNL A   1      41.182  32.161  30.562  1.00  0.00     0.029 A 
ATOM     52  N   UNL A   1      42.279  30.688  29.308  1.00  0.00    -0.354 N 
ATOM     53  N   UNL A   1      44.577  29.700  27.755  1.00  0.00    -0.248 NA
ATOM     54  C   UNL A   1      46.737  29.997  26.911  1.00  0.00     0.031 C 
ATOM     55  C   UNL A   1      42.408  32.722  30.188  1.00  0.00     0.029 A 
ATOM     56  C   UNL A   1      43.105  31.793  29.435  1.00  0.00     0.049 A 
ATOM     57  H   UNL A   1      42.502  29.870  28.807  1.00  0.00     0.167 HD
ATOM     58  C   UNL A   1      45.051  30.948  28.144  1.00  0.00     0.074 A 
ATOM     59  C   UNL A   1      46.392  31.071  27.608  1.00  0.00     0.031 C 
ATOM     60  C   UNL A   1      44.435  31.902  28.885  1.00  0.00     0.034 A 
BRANCH  47  61
ATOM     61  C   UNL A   1      38.765  30.340  30.835  1.00  0.00     0.023 A 
ATOM     62  C   UNL A   1      37.703  31.019  30.212  1.00  0.00     0.031 A 
ATOM     63  C   UNL A   1      38.646  30.035  32.202  1.00  0.00     0.131 A 
ATOM     64  C   UNL A   1      36.592  31.420  30.968  1.00  0.00     0.055 A 
ATOM     65  C   UNL A   1      37.508  30.379  32.933  1.00  0.00     0.041 A 
ATOM     66  F   UNL A   1      39.640  29.406  32.849  1.00  0.00    -0.206 F 
ATOM     67  C   UNL A   1      36.477  31.085  32.320  1.00  0.00     0.022 A 
BRANCH  64  68
ATOM     68  S   UNL A   1      35.341  32.470  30.184  1.00  0.00     0.124 S 
ATOM     69  O   UNL A   1      34.353  32.599  31.253  1.00  0.00    -0.237 OA
ATOM     70  O   UNL A   1      36.093  33.678  29.862  1.00  0.00    -0.237 OA
ATOM     71  O   UNL A   1      34.906  31.683  29.032  1.00  0.00    -0.744 OA
ENDBRANCH  64  68
ENDBRANCH  47  61
BRANCH  48  72
ATOM     72  C   UNL A   1      46.780  27.359  25.633  1.00  0.00     0.023 A 
ATOM     73  C   UNL A   1      46.943  27.752  24.296  1.00  0.00     0.031 A 
ATOM     74  C   UNL A   1      47.768  26.548  26.214  1.00  0.00     0.131 A 
ATOM     75  C   UNL A   1      48.062  27.313  23.572  1.00  0.00     0.055 A 
ATOM     76  C   UNL A   1      48.896  26.139  25.500  1.00  0.00     0.041 A 
ATOM     77  F   UNL A   1      47.661  26.159  27.495  1.00  0.00    -0.206 F 
ATOM     78  C   UNL A   1      49.044  26.517  24.169  1.00  0.00     0.022 A 
BRANCH  75  79
ATOM     79  S   UNL A   1      48.210  27.780  21.826  1.00  0.00     0.124 S 
ATOM     80  O   UNL A   1      49.396  28.627  21.846  1.00  0.00    -0.237 OA
ATOM     81  O   UNL A   1      48.358  26.482  21.175  1.00  0.00    -0.237 OA
ATOM     82  O   UNL A   1      46.952  28.470  21.552  1.00  0.00    -0.744 OA
ENDBRANCH  75  79
ENDBRANCH  48  72
BRANCH  60  83
ATOM     83  C   UNL A   1      45.223  33.145  29.196  1.00  0.00     0.023 A 
ATOM     84  C   UNL A   1      45.195  34.265  28.349  1.00  0.00     0.031 A 
ATOM     85  C   UNL A   1      45.991  33.212  30.371  1.00  0.00     0.131 A 
ATOM     86  C   UNL A   1      45.952  35.400  28.676  1.00  0.00     0.055 A 
ATOM     87  C   UNL A   1      46.708  34.358  30.711  1.00  0.00     0.041 A 
ATOM     88  F   UNL A   1      46.046  32.166  31.210  1.00  0.00    -0.206 F 
ATOM     89  C   UNL A   1      46.696  35.459  29.859  1.00  0.00     0.022 A 
BRANCH  86  90
ATOM     90  S   UNL A   1      45.981  36.794  27.517  1.00  0.00     0.124 S 
ATOM     91  O   UNL A   1      44.583  37.212  27.511  1.00  0.00    -0.237 OA
ATOM     92  O   UNL A   1      46.917  37.715  28.153  1.00  0.00    -0.237 OA
ATOM     93  O   UNL A   1      46.455  36.195  26.271  1.00  0.00    -0.744 OA
ENDBRANCH  86  90
ENDBRANCH  60  83
ENDBRANCH  34  35
ENDBRANCH  26  29
ENDBRANCH  24  25
ENDBRANCH   1  24
TORSDOF 15
ENDMDL
