MODEL 1
REMARK VINA RESULT:     -12.3      0.000      0.000
REMARK SMILES O=C(NCCCCNC(=O)c1ccc([C@H]2CCC[N@@H+](CCN3CCCC3=O)C2)cc1)c1ccc(-c2c3nc(c(-c4cc(S(=O)(=O)[O-])ccc4F)c4ccc([nH]4)c(-c4cc(S(=O)(=O)[O-])ccc4F)c4nc(c(-c5cc(S(=O)(=O)[O-])ccc5F)c5ccc2[nH]5)C=C4)C=C3)cc1
REMARK SMILES IDX 6 1 5 2 4 3 3 4 1 5 2 6 31 8 32 9 93 10 33 11 92 12 34 13
REMARK SMILES IDX 35 14 36 15 86 16 37 17 91 18 85 19 87 20 38 21 90 22 84 23
REMARK SMILES IDX 83 24 39 26 71 27 51 28 70 29 52 30 55 31 69 32 88 33 53 34
REMARK SMILES IDX 54 35 68 37 89 38 56 39 40 40 41 41 49 42 42 43 48 44 50 45
REMARK SMILES IDX 47 46 43 47 44 48 45 49 46 50 72 51 73 52 81 53 74 54 80 55
REMARK SMILES IDX 82 56 79 57 75 58 76 59 77 60 78 61 57 62 58 63 66 64 59 65
REMARK SMILES IDX 65 66 67 67 64 68 60 69 61 70 62 71 63 72 7 73 8 74 9 75
REMARK SMILES IDX 10 77 11 78 12 79 30 80 13 81 29 82 14 83 15 84 16 85 28 86
REMARK SMILES IDX 17 87 19 88 18 89 20 91 21 92 22 93 23 94 26 95 24 96 25 97
REMARK SMILES IDX 27 98
REMARK H PARENT 3 7 87 25 55 36 8 76 19 90
REMARK Flexibility Score: inf
ROOT
ATOM      1  C   UNL A   1      31.300  29.173  24.843  1.00  0.00     0.023 C 
ENDROOT
BRANCH   1   2
ATOM      2  C   UNL A   1      32.685  29.623  25.301  1.00  0.00     0.023 C 
BRANCH   2   3
ATOM      3  C   UNL A   1      32.809  29.971  26.780  1.00  0.00     0.116 C 
BRANCH   3   4
ATOM      4  N   UNL A   1      32.780  31.404  27.050  1.00  0.00    -0.352 N 
ATOM      5  O   UNL A   1      33.457  33.382  27.897  1.00  0.00    -0.269 OA
ATOM      6  C   UNL A   1      33.717  32.203  27.674  1.00  0.00     0.251 C 
ATOM      7  H   UNL A   1      31.971  31.872  26.742  1.00  0.00     0.163 HD
BRANCH   6   8
ATOM      8  C   UNL A   1      35.015  31.631  28.104  1.00  0.00     0.039 A 
ATOM      9  C   UNL A   1      35.098  30.314  28.552  1.00  0.00     0.014 A 
ATOM     10  C   UNL A   1      36.160  32.436  28.095  1.00  0.00     0.014 A 
ATOM     11  C   UNL A   1      36.255  29.875  29.186  1.00  0.00     0.010 A 
ATOM     12  C   UNL A   1      37.360  31.947  28.629  1.00  0.00     0.010 A 
ATOM     13  C   UNL A   1      37.404  30.682  29.233  1.00  0.00    -0.014 A 
BRANCH  13  14
ATOM     14  C   UNL A   1      38.628  30.161  29.908  1.00  0.00     0.031 A 
ATOM     15  C   UNL A   1      38.992  30.591  31.307  1.00  0.00     0.074 A 
ATOM     16  C   UNL A   1      39.383  29.242  29.271  1.00  0.00     0.049 A 
ATOM     17  N   UNL A   1      39.991  30.195  32.059  1.00  0.00    -0.248 NA
ATOM     18  C   UNL A   1      38.135  31.602  31.941  1.00  0.00     0.031 C 
ATOM     19  C   UNL A   1      39.132  28.745  27.916  1.00  0.00     0.029 A 
ATOM     20  N   UNL A   1      40.488  28.540  29.680  1.00  0.00    -0.354 N 
ATOM     21  C   UNL A   1      39.894  30.921  33.243  1.00  0.00     0.074 A 
ATOM     22  C   UNL A   1      38.762  31.809  33.091  1.00  0.00     0.031 C 
ATOM     23  C   UNL A   1      40.012  27.774  27.634  1.00  0.00     0.029 A 
ATOM     24  C   UNL A   1      40.942  27.636  28.747  1.00  0.00     0.049 A 
ATOM     25  H   UNL A   1      40.916  28.671  30.556  1.00  0.00     0.167 HD
ATOM     26  C   UNL A   1      40.672  30.846  34.354  1.00  0.00     0.034 A 
ATOM     27  C   UNL A   1      41.999  26.802  28.771  1.00  0.00     0.034 A 
ATOM     28  C   UNL A   1      41.797  29.948  34.490  1.00  0.00     0.049 A 
ATOM     29  C   UNL A   1      42.874  26.774  29.995  1.00  0.00     0.074 A 
ATOM     30  C   UNL A   1      42.628  29.767  35.584  1.00  0.00     0.029 A 
ATOM     31  N   UNL A   1      42.263  29.091  33.500  1.00  0.00    -0.354 N 
ATOM     32  N   UNL A   1      42.753  27.452  31.114  1.00  0.00    -0.248 NA
ATOM     33  C   UNL A   1      44.024  25.865  29.961  1.00  0.00     0.031 C 
ATOM     34  C   UNL A   1      43.641  28.873  35.227  1.00  0.00     0.029 A 
ATOM     35  C   UNL A   1      43.389  28.412  33.945  1.00  0.00     0.049 A 
ATOM     36  H   UNL A   1      41.853  28.981  32.611  1.00  0.00     0.167 HD
ATOM     37  C   UNL A   1      43.793  27.020  31.931  1.00  0.00     0.074 A 
ATOM     38  C   UNL A   1      44.516  26.012  31.182  1.00  0.00     0.031 C 
ATOM     39  C   UNL A   1      44.116  27.416  33.189  1.00  0.00     0.034 A 
BRANCH  26  40
ATOM     40  C   UNL A   1      40.367  31.798  35.490  1.00  0.00     0.023 A 
ATOM     41  C   UNL A   1      39.291  31.593  36.371  1.00  0.00     0.031 A 
ATOM     42  C   UNL A   1      41.164  32.942  35.688  1.00  0.00     0.131 A 
ATOM     43  C   UNL A   1      38.994  32.552  37.354  1.00  0.00     0.055 A 
ATOM     44  C   UNL A   1      40.916  33.846  36.723  1.00  0.00     0.041 A 
ATOM     45  F   UNL A   1      42.194  33.208  34.869  1.00  0.00    -0.206 F 
ATOM     46  C   UNL A   1      39.816  33.662  37.554  1.00  0.00     0.022 A 
BRANCH  43  47
ATOM     47  S   UNL A   1      37.430  32.407  38.262  1.00  0.00     0.124 S 
ATOM     48  O   UNL A   1      36.498  33.078  37.356  1.00  0.00    -0.237 OA
ATOM     49  O   UNL A   1      37.269  30.964  38.388  1.00  0.00    -0.237 OA
ATOM     50  O   UNL A   1      37.691  33.119  39.511  1.00  0.00    -0.744 OA
ENDBRANCH  43  47
ENDBRANCH  26  40
BRANCH  27  51
ATOM     51  C   UNL A   1      42.305  25.940  27.592  1.00  0.00     0.023 A 
ATOM     52  C   UNL A   1      41.823  24.624  27.511  1.00  0.00     0.031 A 
ATOM     53  C   UNL A   1      43.126  26.406  26.548  1.00  0.00     0.131 A 
ATOM     54  C   UNL A   1      42.207  23.805  26.438  1.00  0.00     0.055 A 
ATOM     55  C   UNL A   1      43.449  25.609  25.450  1.00  0.00     0.041 A 
ATOM     56  F   UNL A   1      43.615  27.657  26.575  1.00  0.00    -0.206 F 
ATOM     57  C   UNL A   1      43.002  24.294  25.398  1.00  0.00     0.022 A 
BRANCH  54  58
ATOM     58  S   UNL A   1      41.735  22.055  26.472  1.00  0.00     0.124 S 
ATOM     59  O   UNL A   1      42.159  21.661  27.811  1.00  0.00    -0.237 OA
ATOM     60  O   UNL A   1      40.295  22.125  26.250  1.00  0.00    -0.237 OA
ATOM     61  O   UNL A   1      42.506  21.473  25.376  1.00  0.00    -0.744 OA
ENDBRANCH  54  58
ENDBRANCH  27  51
BRANCH  39  62
ATOM     62  C   UNL A   1      45.273  26.706  33.855  1.00  0.00     0.023 A 
ATOM     63  C   UNL A   1      45.086  25.584  34.681  1.00  0.00     0.031 A 
ATOM     64  C   UNL A   1      46.584  27.187  33.687  1.00  0.00     0.131 A 
ATOM     65  C   UNL A   1      46.177  25.029  35.367  1.00  0.00     0.055 A 
ATOM     66  C   UNL A   1      47.676  26.584  34.311  1.00  0.00     0.041 A 
ATOM     67  F   UNL A   1      46.826  28.260  32.917  1.00  0.00    -0.206 F 
ATOM     68  C   UNL A   1      47.474  25.510  35.172  1.00  0.00     0.022 A 
BRANCH  65  69
ATOM     69  S   UNL A   1      45.862  23.756  36.621  1.00  0.00     0.124 S 
ATOM     70  O   UNL A   1      44.868  22.918  35.958  1.00  0.00    -0.237 OA
ATOM     71  O   UNL A   1      47.182  23.160  36.799  1.00  0.00    -0.237 OA
ATOM     72  O   UNL A   1      45.365  24.517  37.766  1.00  0.00    -0.744 OA
ENDBRANCH  65  69
ENDBRANCH  39  62
ENDBRANCH  13  14
ENDBRANCH   6   8
ENDBRANCH   3   4
ENDBRANCH   2   3
ENDBRANCH   1   2
BRANCH   1  73
ATOM     73  C   UNL A   1      31.227  28.632  23.414  1.00  0.00     0.116 C 
BRANCH  73  74
ATOM     74  N   UNL A   1      32.399  28.952  22.613  1.00  0.00    -0.352 N 
ATOM     75  C   UNL A   1      33.461  28.146  22.269  1.00  0.00     0.251 C 
ATOM     76  H   UNL A   1      32.440  29.875  22.269  1.00  0.00     0.163 HD
ATOM     77  O   UNL A   1      34.403  28.566  21.609  1.00  0.00    -0.269 OA
BRANCH  75  78
ATOM     78  C   UNL A   1      33.457  26.748  22.726  1.00  0.00     0.039 A 
ATOM     79  C   UNL A   1      32.989  25.752  21.875  1.00  0.00     0.014 A 
ATOM     80  C   UNL A   1      33.981  26.424  23.974  1.00  0.00     0.014 A 
ATOM     81  C   UNL A   1      33.216  24.412  22.200  1.00  0.00     0.005 A 
ATOM     82  C   UNL A   1      34.178  25.082  24.302  1.00  0.00     0.005 A 
ATOM     83  C   UNL A   1      33.930  24.063  23.363  1.00  0.00    -0.039 A 
BRANCH  83  84
ATOM     84  C   UNL A   1      34.536  22.646  23.494  1.00  0.00     0.074 C 
ATOM     85  C   UNL A   1      35.922  22.759  24.171  1.00  0.00     0.020 C 
ATOM     86  C   UNL A   1      33.622  21.656  24.279  1.00  0.00     0.270 C 
ATOM     87  C   UNL A   1      36.468  21.411  24.607  1.00  0.00     0.062 C 
ATOM     88  N   UNL A   1      34.203  20.529  25.013  1.00  0.00    -0.333 N 
ATOM     89  C   UNL A   1      35.513  20.775  25.603  1.00  0.00     0.262 C 
ATOM     90  H   UNL A   1      34.385  19.816  24.305  1.00  0.00     0.348 HD
BRANCH  88  91
ATOM     91  C   UNL A   1      33.235  19.989  26.007  1.00  0.00     0.284 C 
BRANCH  91  92
ATOM     92  C   UNL A   1      32.528  18.617  25.773  1.00  0.00     0.180 C 
BRANCH  92  93
ATOM     93  N   UNL A   1      33.186  17.642  24.903  1.00  0.00    -0.337 N 
ATOM     94  C   UNL A   1      34.030  16.568  25.375  1.00  0.00     0.120 C 
ATOM     95  C   UNL A   1      33.175  17.728  23.516  1.00  0.00     0.222 C 
ATOM     96  C   UNL A   1      34.861  16.189  24.165  1.00  0.00     0.031 C 
ATOM     97  C   UNL A   1      33.995  16.582  22.977  1.00  0.00     0.102 C 
ATOM     98  O   UNL A   1      32.586  18.551  22.842  1.00  0.00    -0.275 OA
ENDBRANCH  92  93
ENDBRANCH  91  92
ENDBRANCH  88  91
ENDBRANCH  83  84
ENDBRANCH  75  78
ENDBRANCH  73  74
ENDBRANCH   1  73
TORSDOF 18
ENDMDL
MODEL 2
REMARK VINA RESULT:     -12.1      1.671      7.814
REMARK SMILES O=C(NCCCCNC(=O)c1ccc([C@H]2CCC[N@@H+](CCN3CCCC3=O)C2)cc1)c1ccc(-c2c3nc(c(-c4cc(S(=O)(=O)[O-])ccc4F)c4ccc([nH]4)c(-c4cc(S(=O)(=O)[O-])ccc4F)c4nc(c(-c5cc(S(=O)(=O)[O-])ccc5F)c5ccc2[nH]5)C=C4)C=C3)cc1
REMARK SMILES IDX 6 1 5 2 4 3 3 4 1 5 2 6 31 8 32 9 93 10 33 11 92 12 34 13
REMARK SMILES IDX 35 14 36 15 86 16 37 17 91 18 85 19 87 20 38 21 90 22 84 23
REMARK SMILES IDX 83 24 39 26 71 27 51 28 70 29 52 30 55 31 69 32 88 33 53 34
REMARK SMILES IDX 54 35 68 37 89 38 56 39 40 40 41 41 49 42 42 43 48 44 50 45
REMARK SMILES IDX 47 46 43 47 44 48 45 49 46 50 72 51 73 52 81 53 74 54 80 55
REMARK SMILES IDX 82 56 79 57 75 58 76 59 77 60 78 61 57 62 58 63 66 64 59 65
REMARK SMILES IDX 65 66 67 67 64 68 60 69 61 70 62 71 63 72 7 73 8 74 9 75
REMARK SMILES IDX 10 77 11 78 12 79 30 80 13 81 29 82 14 83 15 84 16 85 28 86
REMARK SMILES IDX 17 87 19 88 18 89 20 91 21 92 22 93 23 94 26 95 24 96 25 97
REMARK SMILES IDX 27 98
REMARK H PARENT 3 7 87 25 55 36 8 76 19 90
REMARK Flexibility Score: inf
ROOT
ATOM      1  C   UNL A   1      31.656  27.400  25.731  1.00  0.00     0.023 C 
ENDROOT
BRANCH   1   2
ATOM      2  C   UNL A   1      31.409  28.892  25.944  1.00  0.00     0.023 C 
BRANCH   2   3
ATOM      3  C   UNL A   1      32.655  29.771  25.956  1.00  0.00     0.116 C 
BRANCH   3   4
ATOM      4  N   UNL A   1      32.398  31.146  26.373  1.00  0.00    -0.352 N 
ATOM      5  O   UNL A   1      32.696  33.072  27.508  1.00  0.00    -0.269 OA
ATOM      6  C   UNL A   1      33.139  31.970  27.195  1.00  0.00     0.251 C 
ATOM      7  H   UNL A   1      31.574  31.545  26.015  1.00  0.00     0.163 HD
BRANCH   6   8
ATOM      8  C   UNL A   1      34.446  31.513  27.727  1.00  0.00     0.039 A 
ATOM      9  C   UNL A   1      34.647  30.177  28.065  1.00  0.00     0.014 A 
ATOM     10  C   UNL A   1      35.472  32.443  27.925  1.00  0.00     0.014 A 
ATOM     11  C   UNL A   1      35.775  29.814  28.792  1.00  0.00     0.010 A 
ATOM     12  C   UNL A   1      36.660  32.047  28.554  1.00  0.00     0.010 A 
ATOM     13  C   UNL A   1      36.800  30.741  29.047  1.00  0.00    -0.014 A 
BRANCH  13  14
ATOM     14  C   UNL A   1      38.000  30.301  29.815  1.00  0.00     0.031 A 
ATOM     15  C   UNL A   1      39.059  29.433  29.183  1.00  0.00     0.074 A 
ATOM     16  C   UNL A   1      38.163  30.744  31.079  1.00  0.00     0.049 A 
ATOM     17  N   UNL A   1      40.189  29.005  29.693  1.00  0.00    -0.248 NA
ATOM     18  C   UNL A   1      38.816  28.975  27.808  1.00  0.00     0.031 C 
ATOM     19  C   UNL A   1      37.209  31.591  31.800  1.00  0.00     0.029 A 
ATOM     20  N   UNL A   1      39.192  30.577  31.970  1.00  0.00    -0.354 N 
ATOM     21  C   UNL A   1      40.780  28.214  28.711  1.00  0.00     0.074 A 
ATOM     22  C   UNL A   1      39.863  28.191  27.592  1.00  0.00     0.031 C 
ATOM     23  C   UNL A   1      37.728  31.923  32.991  1.00  0.00     0.029 A 
ATOM     24  C   UNL A   1      39.009  31.247  33.157  1.00  0.00     0.049 A 
ATOM     25  H   UNL A   1      39.987  30.028  31.778  1.00  0.00     0.167 HD
ATOM     26  C   UNL A   1      41.979  27.576  28.740  1.00  0.00     0.034 A 
ATOM     27  C   UNL A   1      39.770  31.301  34.266  1.00  0.00     0.034 A 
ATOM     28  C   UNL A   1      42.885  27.614  29.866  1.00  0.00     0.049 A 
ATOM     29  C   UNL A   1      41.071  30.543  34.289  1.00  0.00     0.074 A 
ATOM     30  C   UNL A   1      44.137  27.034  29.984  1.00  0.00     0.029 A 
ATOM     31  N   UNL A   1      42.635  28.254  31.074  1.00  0.00    -0.354 N 
ATOM     32  N   UNL A   1      41.623  29.819  33.343  1.00  0.00    -0.248 NA
ATOM     33  C   UNL A   1      41.852  30.615  35.528  1.00  0.00     0.031 C 
ATOM     34  C   UNL A   1      44.603  27.247  31.285  1.00  0.00     0.029 A 
ATOM     35  C   UNL A   1      43.690  28.048  31.952  1.00  0.00     0.049 A 
ATOM     36  H   UNL A   1      41.827  28.778  31.277  1.00  0.00     0.167 HD
ATOM     37  C   UNL A   1      42.838  29.382  33.863  1.00  0.00     0.074 A 
ATOM     38  C   UNL A   1      42.941  29.939  35.197  1.00  0.00     0.031 C 
ATOM     39  C   UNL A   1      43.784  28.596  33.287  1.00  0.00     0.034 A 
BRANCH  26  40
ATOM     40  C   UNL A   1      42.356  26.736  27.538  1.00  0.00     0.023 A 
ATOM     41  C   UNL A   1      42.371  25.331  27.582  1.00  0.00     0.031 A 
ATOM     42  C   UNL A   1      42.719  27.356  26.328  1.00  0.00     0.131 A 
ATOM     43  C   UNL A   1      42.814  24.598  26.469  1.00  0.00     0.055 A 
ATOM     44  C   UNL A   1      43.075  26.619  25.197  1.00  0.00     0.041 A 
ATOM     45  F   UNL A   1      42.746  28.694  26.226  1.00  0.00    -0.206 F 
ATOM     46  C   UNL A   1      43.139  25.231  25.267  1.00  0.00     0.022 A 
BRANCH  43  47
ATOM     47  S   UNL A   1      43.111  22.819  26.664  1.00  0.00     0.124 S 
ATOM     48  O   UNL A   1      42.382  22.530  27.898  1.00  0.00    -0.237 OA
ATOM     49  O   UNL A   1      42.539  22.267  25.442  1.00  0.00    -0.237 OA
ATOM     50  O   UNL A   1      44.565  22.724  26.773  1.00  0.00    -0.744 OA
ENDBRANCH  43  47
ENDBRANCH  26  40
BRANCH  27  51
ATOM     51  C   UNL A   1      39.316  32.078  35.456  1.00  0.00     0.023 A 
ATOM     52  C   UNL A   1      38.642  31.453  36.517  1.00  0.00     0.031 A 
ATOM     53  C   UNL A   1      39.511  33.470  35.528  1.00  0.00     0.131 A 
ATOM     54  C   UNL A   1      38.142  32.224  37.577  1.00  0.00     0.055 A 
ATOM     55  C   UNL A   1      39.071  34.223  36.617  1.00  0.00     0.041 A 
ATOM     56  F   UNL A   1      40.149  34.119  34.541  1.00  0.00    -0.206 F 
ATOM     57  C   UNL A   1      38.367  33.602  37.643  1.00  0.00     0.022 A 
BRANCH  54  58
ATOM     58  S   UNL A   1      37.102  31.415  38.821  1.00  0.00     0.124 S 
ATOM     59  O   UNL A   1      35.914  32.261  38.808  1.00  0.00    -0.237 OA
ATOM     60  O   UNL A   1      36.944  30.078  38.260  1.00  0.00    -0.237 OA
ATOM     61  O   UNL A   1      37.908  31.488  40.038  1.00  0.00    -0.744 OA
ENDBRANCH  54  58
ENDBRANCH  27  51
BRANCH  39  62
ATOM     62  C   UNL A   1      45.044  28.346  34.084  1.00  0.00     0.023 A 
ATOM     63  C   UNL A   1      45.179  27.242  34.944  1.00  0.00     0.031 A 
ATOM     64  C   UNL A   1      46.117  29.253  34.008  1.00  0.00     0.131 A 
ATOM     65  C   UNL A   1      46.322  27.115  35.748  1.00  0.00     0.055 A 
ATOM     66  C   UNL A   1      47.284  29.080  34.752  1.00  0.00     0.041 A 
ATOM     67  F   UNL A   1      46.046  30.331  33.210  1.00  0.00    -0.206 F 
ATOM     68  C   UNL A   1      47.384  28.016  35.643  1.00  0.00     0.022 A 
BRANCH  65  69
ATOM     69  S   UNL A   1      46.347  25.831  37.029  1.00  0.00     0.124 S 
ATOM     70  O   UNL A   1      46.628  26.609  38.232  1.00  0.00    -0.237 OA
ATOM     71  O   UNL A   1      45.004  25.268  36.934  1.00  0.00    -0.237 OA
ATOM     72  O   UNL A   1      47.425  24.940  36.602  1.00  0.00    -0.744 OA
ENDBRANCH  65  69
ENDBRANCH  39  62
ENDBRANCH  13  14
ENDBRANCH   6   8
ENDBRANCH   3   4
ENDBRANCH   2   3
ENDBRANCH   1   2
BRANCH   1  73
ATOM     73  C   UNL A   1      32.638  27.053  24.613  1.00  0.00     0.116 C 
BRANCH  73  74
ATOM     74  N   UNL A   1      32.092  27.252  23.278  1.00  0.00    -0.352 N 
ATOM     75  C   UNL A   1      31.746  26.311  22.335  1.00  0.00     0.251 C 
ATOM     76  H   UNL A   1      31.950  28.190  23.013  1.00  0.00     0.163 HD
ATOM     77  O   UNL A   1      31.325  26.631  21.230  1.00  0.00    -0.269 OA
BRANCH  75  78
ATOM     78  C   UNL A   1      31.906  24.888  22.670  1.00  0.00     0.039 A 
ATOM     79  C   UNL A   1      33.097  24.241  22.352  1.00  0.00     0.014 A 
ATOM     80  C   UNL A   1      30.898  24.218  23.357  1.00  0.00     0.014 A 
ATOM     81  C   UNL A   1      33.350  22.976  22.888  1.00  0.00     0.005 A 
ATOM     82  C   UNL A   1      31.151  22.943  23.865  1.00  0.00     0.005 A 
ATOM     83  C   UNL A   1      32.429  22.362  23.759  1.00  0.00    -0.039 A 
BRANCH  83  84
ATOM     84  C   UNL A   1      32.889  21.194  24.662  1.00  0.00     0.074 C 
ATOM     85  C   UNL A   1      32.451  19.861  24.011  1.00  0.00     0.020 C 
ATOM     86  C   UNL A   1      34.423  21.194  24.935  1.00  0.00     0.270 C 
ATOM     87  C   UNL A   1      33.102  18.655  24.662  1.00  0.00     0.062 C 
ATOM     88  N   UNL A   1      35.128  19.942  25.221  1.00  0.00    -0.333 N 
ATOM     89  C   UNL A   1      34.612  18.762  24.536  1.00  0.00     0.262 C 
ATOM     90  H   UNL A   1      34.943  19.751  26.206  1.00  0.00     0.348 HD
BRANCH  88  91
ATOM     91  C   UNL A   1      36.596  20.104  25.026  1.00  0.00     0.284 C 
BRANCH  91  92
ATOM     92  C   UNL A   1      37.189  21.447  24.495  1.00  0.00     0.180 C 
BRANCH  92  93
ATOM     93  N   UNL A   1      37.791  22.364  25.462  1.00  0.00    -0.337 N 
ATOM     94  C   UNL A   1      37.309  23.701  25.727  1.00  0.00     0.120 C 
ATOM     95  C   UNL A   1      38.975  22.091  26.137  1.00  0.00     0.222 C 
ATOM     96  C   UNL A   1      38.495  24.405  26.357  1.00  0.00     0.031 C 
ATOM     97  C   UNL A   1      39.298  23.285  27.001  1.00  0.00     0.102 C 
ATOM     98  O   UNL A   1      39.626  21.066  26.079  1.00  0.00    -0.275 OA
ENDBRANCH  92  93
ENDBRANCH  91  92
ENDBRANCH  88  91
ENDBRANCH  83  84
ENDBRANCH  75  78
ENDBRANCH  73  74
ENDBRANCH   1  73
TORSDOF 18
ENDMDL
MODEL 3
REMARK VINA RESULT:     -12.1      1.871      2.100
REMARK SMILES O=C(NCCCCNC(=O)c1ccc([C@H]2CCC[N@@H+](CCN3CCCC3=O)C2)cc1)c1ccc(-c2c3nc(c(-c4cc(S(=O)(=O)[O-])ccc4F)c4ccc([nH]4)c(-c4cc(S(=O)(=O)[O-])ccc4F)c4nc(c(-c5cc(S(=O)(=O)[O-])ccc5F)c5ccc2[nH]5)C=C4)C=C3)cc1
REMARK SMILES IDX 6 1 5 2 4 3 3 4 1 5 2 6 31 8 32 9 93 10 33 11 92 12 34 13
REMARK SMILES IDX 35 14 36 15 86 16 37 17 91 18 85 19 87 20 38 21 90 22 84 23
REMARK SMILES IDX 83 24 39 26 71 27 51 28 70 29 52 30 55 31 69 32 88 33 53 34
REMARK SMILES IDX 54 35 68 37 89 38 56 39 40 40 41 41 49 42 42 43 48 44 50 45
REMARK SMILES IDX 47 46 43 47 44 48 45 49 46 50 72 51 73 52 81 53 74 54 80 55
REMARK SMILES IDX 82 56 79 57 75 58 76 59 77 60 78 61 57 62 58 63 66 64 59 65
REMARK SMILES IDX 65 66 67 67 64 68 60 69 61 70 62 71 63 72 7 73 8 74 9 75
REMARK SMILES IDX 10 77 11 78 12 79 30 80 13 81 29 82 14 83 15 84 16 85 28 86
REMARK SMILES IDX 17 87 19 88 18 89 20 91 21 92 22 93 23 94 26 95 24 96 25 97
REMARK SMILES IDX 27 98
REMARK H PARENT 3 7 87 25 55 36 8 76 19 90
REMARK Flexibility Score: inf
ROOT
ATOM      1  C   UNL A   1      30.993  29.367  24.577  1.00  0.00     0.023 C 
ENDROOT
BRANCH   1   2
ATOM      2  C   UNL A   1      32.319  29.697  25.256  1.00  0.00     0.023 C 
BRANCH   2   3
ATOM      3  C   UNL A   1      32.223  30.126  26.716  1.00  0.00     0.116 C 
BRANCH   3   4
ATOM      4  N   UNL A   1      32.157  31.572  26.900  1.00  0.00    -0.352 N 
ATOM      5  O   UNL A   1      32.788  33.615  27.616  1.00  0.00    -0.269 OA
ATOM      6  C   UNL A   1      33.078  32.432  27.461  1.00  0.00     0.251 C 
ATOM      7  H   UNL A   1      31.331  31.998  26.576  1.00  0.00     0.163 HD
BRANCH   6   8
ATOM      8  C   UNL A   1      34.398  31.924  27.906  1.00  0.00     0.039 A 
ATOM      9  C   UNL A   1      34.560  30.587  28.263  1.00  0.00     0.014 A 
ATOM     10  C   UNL A   1      35.479  32.806  28.003  1.00  0.00     0.014 A 
ATOM     11  C   UNL A   1      35.721  30.185  28.914  1.00  0.00     0.010 A 
ATOM     12  C   UNL A   1      36.691  32.365  28.554  1.00  0.00     0.010 A 
ATOM     13  C   UNL A   1      36.805  31.065  29.068  1.00  0.00    -0.014 A 
BRANCH  13  14
ATOM     14  C   UNL A   1      38.037  30.584  29.758  1.00  0.00     0.031 A 
ATOM     15  C   UNL A   1      38.349  30.991  31.175  1.00  0.00     0.074 A 
ATOM     16  C   UNL A   1      38.849  29.721  29.114  1.00  0.00     0.049 A 
ATOM     17  N   UNL A   1      39.349  30.622  31.940  1.00  0.00    -0.248 NA
ATOM     18  C   UNL A   1      37.431  31.943  31.816  1.00  0.00     0.031 C 
ATOM     19  C   UNL A   1      38.652  29.250  27.740  1.00  0.00     0.029 A 
ATOM     20  N   UNL A   1      39.977  29.061  29.529  1.00  0.00    -0.354 N 
ATOM     21  C   UNL A   1      39.191  31.310  33.140  1.00  0.00     0.074 A 
ATOM     22  C   UNL A   1      38.021  32.147  32.986  1.00  0.00     0.031 C 
ATOM     23  C   UNL A   1      39.584  28.330  27.452  1.00  0.00     0.029 A 
ATOM     24  C   UNL A   1      40.495  28.205  28.583  1.00  0.00     0.049 A 
ATOM     25  H   UNL A   1      40.379  29.187  30.419  1.00  0.00     0.167 HD
ATOM     26  C   UNL A   1      39.948  31.240  34.266  1.00  0.00     0.034 A 
ATOM     27  C   UNL A   1      41.589  27.421  28.609  1.00  0.00     0.034 A 
ATOM     28  C   UNL A   1      41.111  30.394  34.405  1.00  0.00     0.049 A 
ATOM     29  C   UNL A   1      42.437  27.401  29.853  1.00  0.00     0.074 A 
ATOM     30  C   UNL A   1      41.925  30.221  35.513  1.00  0.00     0.029 A 
ATOM     31  N   UNL A   1      41.639  29.587  33.403  1.00  0.00    -0.354 N 
ATOM     32  N   UNL A   1      42.259  28.041  30.986  1.00  0.00    -0.248 NA
ATOM     33  C   UNL A   1      43.630  26.548  29.822  1.00  0.00     0.031 C 
ATOM     34  C   UNL A   1      42.988  29.386  35.155  1.00  0.00     0.029 A 
ATOM     35  C   UNL A   1      42.786  28.950  33.856  1.00  0.00     0.049 A 
ATOM     36  H   UNL A   1      41.254  29.483  32.503  1.00  0.00     0.167 HD
ATOM     37  C   UNL A   1      43.300  27.635  31.815  1.00  0.00     0.074 A 
ATOM     38  C   UNL A   1      44.088  26.685  31.057  1.00  0.00     0.031 C 
ATOM     39  C   UNL A   1      43.576  28.011  33.091  1.00  0.00     0.034 A 
BRANCH  26  40
ATOM     40  C   UNL A   1      39.572  32.145  35.421  1.00  0.00     0.023 A 
ATOM     41  C   UNL A   1      40.062  33.457  35.534  1.00  0.00     0.031 A 
ATOM     42  C   UNL A   1      38.715  31.678  36.436  1.00  0.00     0.131 A 
ATOM     43  C   UNL A   1      39.757  34.227  36.669  1.00  0.00     0.055 A 
ATOM     44  C   UNL A   1      38.345  32.479  37.518  1.00  0.00     0.041 A 
ATOM     45  F   UNL A   1      38.230  30.427  36.399  1.00  0.00    -0.206 F 
ATOM     46  C   UNL A   1      38.879  33.757  37.648  1.00  0.00     0.022 A 
BRANCH  43  47
ATOM     47  S   UNL A   1      40.648  35.786  36.925  1.00  0.00     0.124 S 
ATOM     48  O   UNL A   1      39.736  36.753  36.314  1.00  0.00    -0.237 OA
ATOM     49  O   UNL A   1      40.764  35.849  38.377  1.00  0.00    -0.237 OA
ATOM     50  O   UNL A   1      41.904  35.586  36.204  1.00  0.00    -0.744 OA
ENDBRANCH  43  47
ENDBRANCH  26  40
BRANCH  27  51
ATOM     51  C   UNL A   1      41.963  26.608  27.415  1.00  0.00     0.023 A 
ATOM     52  C   UNL A   1      41.681  25.234  27.356  1.00  0.00     0.031 A 
ATOM     53  C   UNL A   1      42.650  27.186  26.332  1.00  0.00     0.131 A 
ATOM     54  C   UNL A   1      42.129  24.475  26.265  1.00  0.00     0.055 A 
ATOM     55  C   UNL A   1      43.035  26.440  25.218  1.00  0.00     0.041 A 
ATOM     56  F   UNL A   1      42.946  28.496  26.336  1.00  0.00    -0.206 F 
ATOM     57  C   UNL A   1      42.789  25.072  25.187  1.00  0.00     0.022 A 
BRANCH  54  58
ATOM     58  S   UNL A   1      41.928  22.675  26.320  1.00  0.00     0.124 S 
ATOM     59  O   UNL A   1      42.536  22.349  27.606  1.00  0.00    -0.237 OA
ATOM     60  O   UNL A   1      40.479  22.529  26.240  1.00  0.00    -0.237 OA
ATOM     61  O   UNL A   1      42.666  22.214  25.146  1.00  0.00    -0.744 OA
ENDBRANCH  54  58
ENDBRANCH  27  51
BRANCH  39  62
ATOM     62  C   UNL A   1      44.751  27.338  33.764  1.00  0.00     0.023 A 
ATOM     63  C   UNL A   1      46.057  27.850  33.675  1.00  0.00     0.031 A 
ATOM     64  C   UNL A   1      44.562  26.141  34.478  1.00  0.00     0.131 A 
ATOM     65  C   UNL A   1      47.131  27.129  34.220  1.00  0.00     0.055 A 
ATOM     66  C   UNL A   1      45.623  25.469  35.086  1.00  0.00     0.041 A 
ATOM     67  F   UNL A   1      43.339  25.599  34.594  1.00  0.00    -0.206 F 
ATOM     68  C   UNL A   1      46.920  25.952  34.942  1.00  0.00     0.022 A 
BRANCH  65  69
ATOM     69  S   UNL A   1      48.822  27.680  33.860  1.00  0.00     0.124 S 
ATOM     70  O   UNL A   1      49.082  28.600  34.964  1.00  0.00    -0.237 OA
ATOM     71  O   UNL A   1      49.570  26.428  33.885  1.00  0.00    -0.237 OA
ATOM     72  O   UNL A   1      48.706  28.308  32.546  1.00  0.00    -0.744 OA
ENDBRANCH  65  69
ENDBRANCH  39  62
ENDBRANCH  13  14
ENDBRANCH   6   8
ENDBRANCH   3   4
ENDBRANCH   2   3
ENDBRANCH   1   2
BRANCH   1  73
ATOM     73  C   UNL A   1      31.109  28.696  23.208  1.00  0.00     0.116 C 
BRANCH  73  74
ATOM     74  N   UNL A   1      32.329  29.043  22.493  1.00  0.00    -0.352 N 
ATOM     75  C   UNL A   1      33.427  28.259  22.222  1.00  0.00     0.251 C 
ATOM     76  H   UNL A   1      32.375  29.968  22.157  1.00  0.00     0.163 HD
ATOM     77  O   UNL A   1      34.405  28.701  21.633  1.00  0.00    -0.269 OA
BRANCH  75  78
ATOM     78  C   UNL A   1      33.419  26.859  22.672  1.00  0.00     0.039 A 
ATOM     79  C   UNL A   1      32.943  25.869  21.818  1.00  0.00     0.014 A 
ATOM     80  C   UNL A   1      33.947  26.526  23.917  1.00  0.00     0.014 A 
ATOM     81  C   UNL A   1      33.166  24.527  22.136  1.00  0.00     0.005 A 
ATOM     82  C   UNL A   1      34.139  25.181  24.237  1.00  0.00     0.005 A 
ATOM     83  C   UNL A   1      33.883  24.169  23.294  1.00  0.00    -0.039 A 
BRANCH  83  84
ATOM     84  C   UNL A   1      34.482  22.748  23.416  1.00  0.00     0.074 C 
ATOM     85  C   UNL A   1      35.880  22.853  24.069  1.00  0.00     0.020 C 
ATOM     86  C   UNL A   1      33.576  21.764  24.215  1.00  0.00     0.270 C 
ATOM     87  C   UNL A   1      36.425  21.503  24.497  1.00  0.00     0.062 C 
ATOM     88  N   UNL A   1      34.162  20.633  24.939  1.00  0.00    -0.333 N 
ATOM     89  C   UNL A   1      35.483  20.872  25.509  1.00  0.00     0.262 C 
ATOM     90  H   UNL A   1      34.329  19.919  24.229  1.00  0.00     0.348 HD
BRANCH  88  91
ATOM     91  C   UNL A   1      33.207  20.099  25.950  1.00  0.00     0.284 C 
BRANCH  91  92
ATOM     92  C   UNL A   1      32.418  18.778  25.685  1.00  0.00     0.180 C 
BRANCH  92  93
ATOM     93  N   UNL A   1      33.095  17.705  24.959  1.00  0.00    -0.337 N 
ATOM     94  C   UNL A   1      33.832  16.632  25.590  1.00  0.00     0.120 C 
ATOM     95  C   UNL A   1      33.212  17.676  23.574  1.00  0.00     0.222 C 
ATOM     96  C   UNL A   1      34.744  16.115  24.495  1.00  0.00     0.031 C 
ATOM     97  C   UNL A   1      34.011  16.451  23.204  1.00  0.00     0.102 C 
ATOM     98  O   UNL A   1      32.732  18.469  22.786  1.00  0.00    -0.275 OA
ENDBRANCH  92  93
ENDBRANCH  91  92
ENDBRANCH  88  91
ENDBRANCH  83  84
ENDBRANCH  75  78
ENDBRANCH  73  74
ENDBRANCH   1  73
TORSDOF 18
ENDMDL
