MODEL 1
REMARK VINA RESULT:     -10.8      0.000      0.000
REMARK SMILES C[C@@H](CCCO)Nc1ccc(Cl)cc1C(=O)NCCCCNC(=O)c1ccc(-c2c3nc(c(-c4cc(S(=O)(=O)[O-])ccc4F)c4ccc([nH]4)c(-c4cc(S(=O)(=O)[O-])ccc4F)c4nc(c(-c5cc(S(=O)(=O)[O-])ccc5F)c5ccc2[nH]5)C=C4)C=C3)cc1
REMARK SMILES IDX 18 1 17 2 15 3 16 4 14 6 8 7 9 8 10 9 13 10 11 11 12 12 7 13
REMARK SMILES IDX 2 15 1 16 3 17 4 18 5 19 6 20 19 22 20 23 21 24 22 25 23 26
REMARK SMILES IDX 24 28 25 29 26 30 87 31 27 32 86 33 28 34 29 35 30 36 80 37
REMARK SMILES IDX 31 38 85 39 79 40 81 41 32 42 84 43 78 44 77 45 33 47 65 48
REMARK SMILES IDX 45 49 64 50 46 51 49 52 63 53 82 54 47 55 48 56 62 58 83 59
REMARK SMILES IDX 50 60 34 61 35 62 43 63 36 64 42 65 44 66 41 67 37 68 38 69
REMARK SMILES IDX 39 70 40 71 66 72 67 73 75 74 68 75 74 76 76 77 73 78 69 79
REMARK SMILES IDX 70 80 71 81 72 82 51 83 52 84 60 85 53 86 59 87 61 88 58 89
REMARK SMILES IDX 54 90 55 91 56 92 57 93
REMARK H PARENT 17 5 7 14 6 21 22 27 81 46 49 57
REMARK Flexibility Score: inf
ROOT
ATOM      1  C   UNL A   1      33.589  26.995  24.216  1.00  0.00     0.116 C 
ENDROOT
BRANCH   1   2
ATOM      2  N   UNL A   1      33.216  26.068  25.254  1.00  0.00    -0.352 N 
ATOM      3  C   UNL A   1      33.576  24.792  25.586  1.00  0.00     0.253 C 
ATOM      4  O   UNL A   1      32.868  24.288  26.469  1.00  0.00    -0.269 OA
ATOM      5  H   UNL A   1      32.543  26.441  25.868  1.00  0.00     0.163 HD
BRANCH   3   6
ATOM      6  C   UNL A   1      34.744  23.975  25.095  1.00  0.00     0.064 A 
ATOM      7  C   UNL A   1      34.797  22.799  24.298  1.00  0.00     0.047 A 
ATOM      8  C   UNL A   1      36.043  22.131  24.201  1.00  0.00     0.028 A 
ATOM      9  C   UNL A   1      37.198  22.576  24.842  1.00  0.00     0.022 A 
ATOM     10  C   UNL A   1      35.947  24.422  25.710  1.00  0.00     0.036 A 
ATOM     11  C   UNL A   1      37.146  23.729  25.596  1.00  0.00     0.041 A 
ATOM     12  Cl  UNL A   1      38.552  24.286  26.414  1.00  0.00    -0.084 Cl
BRANCH   7  13
ATOM     13  N   UNL A   1      33.715  22.218  23.658  1.00  0.00    -0.382 N 
ATOM     14  H   UNL A   1      33.717  22.243  22.675  1.00  0.00     0.160 HD
BRANCH  13  15
ATOM     15  C   UNL A   1      32.570  21.571  24.299  1.00  0.00     0.076 C 
ATOM     16  C   UNL A   1      31.295  22.373  24.036  1.00  0.00     0.031 C 
BRANCH  15  17
ATOM     17  C   UNL A   1      32.439  20.090  23.893  1.00  0.00     0.027 C 
BRANCH  17  18
ATOM     18  C   UNL A   1      33.492  19.083  24.387  1.00  0.00     0.030 C 
BRANCH  18  19
ATOM     19  C   UNL A   1      33.002  17.946  25.279  1.00  0.00     0.156 C 
BRANCH  19  20
ATOM     20  O   UNL A   1      32.572  18.417  26.545  1.00  0.00    -0.396 OA
ATOM     21  H   UNL A   1      32.882  17.813  27.238  1.00  0.00     0.210 HD
ENDBRANCH  19  20
ENDBRANCH  18  19
ENDBRANCH  17  18
ENDBRANCH  15  17
ENDBRANCH  13  15
ENDBRANCH   7  13
ENDBRANCH   3   6
ENDBRANCH   1   2
BRANCH   1  22
ATOM     22  C   UNL A   1      34.049  28.305  24.862  1.00  0.00     0.023 C 
BRANCH  22  23
ATOM     23  C   UNL A   1      32.947  29.288  25.227  1.00  0.00     0.023 C 
BRANCH  23  24
ATOM     24  C   UNL A   1      32.865  29.534  26.727  1.00  0.00     0.116 C 
BRANCH  24  25
ATOM     25  N   UNL A   1      32.617  30.932  27.074  1.00  0.00    -0.352 N 
ATOM     26  C   UNL A   1      33.512  31.858  27.576  1.00  0.00     0.251 C 
ATOM     27  H   UNL A   1      31.697  31.255  26.932  1.00  0.00     0.163 HD
ATOM     28  O   UNL A   1      33.157  32.980  27.862  1.00  0.00    -0.269 OA
BRANCH  26  29
ATOM     29  C   UNL A   1      34.892  31.388  27.823  1.00  0.00     0.039 A 
ATOM     30  C   UNL A   1      35.931  32.321  27.769  1.00  0.00     0.014 A 
ATOM     31  C   UNL A   1      35.109  30.093  28.292  1.00  0.00     0.014 A 
ATOM     32  C   UNL A   1      37.177  31.982  28.300  1.00  0.00     0.010 A 
ATOM     33  C   UNL A   1      36.323  29.789  28.892  1.00  0.00     0.010 A 
ATOM     34  C   UNL A   1      37.358  30.739  28.926  1.00  0.00    -0.014 A 
BRANCH  34  35
ATOM     35  C   UNL A   1      38.610  30.390  29.643  1.00  0.00     0.031 A 
ATOM     36  C   UNL A   1      39.535  29.376  29.036  1.00  0.00     0.074 A 
ATOM     37  C   UNL A   1      38.845  30.880  30.876  1.00  0.00     0.049 A 
ATOM     38  N   UNL A   1      40.531  28.729  29.581  1.00  0.00    -0.248 NA
ATOM     39  C   UNL A   1      39.265  29.010  27.637  1.00  0.00     0.031 C 
ATOM     40  C   UNL A   1      38.009  31.856  31.580  1.00  0.00     0.029 A 
ATOM     41  N   UNL A   1      39.850  30.606  31.770  1.00  0.00    -0.354 N 
ATOM     42  C   UNL A   1      40.986  27.852  28.603  1.00  0.00     0.074 A 
ATOM     43  C   UNL A   1      40.121  28.017  27.453  1.00  0.00     0.031 C 
ATOM     44  C   UNL A   1      38.543  32.107  32.786  1.00  0.00     0.029 A 
ATOM     45  C   UNL A   1      39.723  31.270  32.970  1.00  0.00     0.049 A 
ATOM     46  H   UNL A   1      40.593  29.991  31.572  1.00  0.00     0.167 HD
ATOM     47  C   UNL A   1      42.039  26.999  28.654  1.00  0.00     0.034 A 
ATOM     48  C   UNL A   1      40.460  31.190  34.095  1.00  0.00     0.034 A 
ATOM     49  C   UNL A   1      42.904  26.870  29.799  1.00  0.00     0.049 A 
ATOM     50  C   UNL A   1      41.628  30.234  34.131  1.00  0.00     0.074 A 
ATOM     51  C   UNL A   1      44.001  26.044  29.968  1.00  0.00     0.029 A 
ATOM     52  N   UNL A   1      42.774  27.603  30.972  1.00  0.00    -0.354 N 
ATOM     53  N   UNL A   1      42.035  29.397  33.205  1.00  0.00    -0.248 NA
ATOM     54  C   UNL A   1      42.434  30.212  35.360  1.00  0.00     0.031 C 
ATOM     55  C   UNL A   1      44.517  26.255  31.252  1.00  0.00     0.029 A 
ATOM     56  C   UNL A   1      43.772  27.251  31.864  1.00  0.00     0.049 A 
ATOM     57  H   UNL A   1      42.075  28.274  31.143  1.00  0.00     0.167 HD
ATOM     58  C   UNL A   1      43.170  28.782  33.725  1.00  0.00     0.074 A 
ATOM     59  C   UNL A   1      43.380  29.340  35.045  1.00  0.00     0.031 C 
ATOM     60  C   UNL A   1      43.971  27.844  33.163  1.00  0.00     0.034 A 
BRANCH  47  61
ATOM     61  C   UNL A   1      42.283  26.138  27.441  1.00  0.00     0.023 A 
ATOM     62  C   UNL A   1      41.908  24.784  27.420  1.00  0.00     0.031 A 
ATOM     63  C   UNL A   1      42.952  26.655  26.319  1.00  0.00     0.131 A 
ATOM     64  C   UNL A   1      42.284  23.971  26.342  1.00  0.00     0.055 A 
ATOM     65  C   UNL A   1      43.245  25.861  25.208  1.00  0.00     0.041 A 
ATOM     66  F   UNL A   1      43.354  27.936  26.291  1.00  0.00    -0.206 F 
ATOM     67  C   UNL A   1      42.927  24.506  25.223  1.00  0.00     0.022 A 
BRANCH  64  68
ATOM     68  S   UNL A   1      42.056  22.180  26.494  1.00  0.00     0.124 S 
ATOM     69  O   UNL A   1      40.598  22.070  26.497  1.00  0.00    -0.237 OA
ATOM     70  O   UNL A   1      42.731  21.671  25.306  1.00  0.00    -0.237 OA
ATOM     71  O   UNL A   1      42.701  21.859  27.766  1.00  0.00    -0.744 OA
ENDBRANCH  64  68
ENDBRANCH  47  61
BRANCH  48  72
ATOM     72  C   UNL A   1      40.123  32.015  35.291  1.00  0.00     0.023 A 
ATOM     73  C   UNL A   1      39.196  31.555  36.240  1.00  0.00     0.031 A 
ATOM     74  C   UNL A   1      40.673  33.295  35.473  1.00  0.00     0.131 A 
ATOM     75  C   UNL A   1      38.804  32.389  37.298  1.00  0.00     0.055 A 
ATOM     76  C   UNL A   1      40.318  34.102  36.558  1.00  0.00     0.041 A 
ATOM     77  F   UNL A   1      41.569  33.780  34.600  1.00  0.00    -0.206 F 
ATOM     78  C   UNL A   1      39.367  33.656  37.469  1.00  0.00     0.022 A 
BRANCH  75  79
ATOM     79  S   UNL A   1      37.471  31.830  38.394  1.00  0.00     0.124 S 
ATOM     80  O   UNL A   1      37.203  30.492  37.877  1.00  0.00    -0.237 OA
ATOM     81  O   UNL A   1      38.111  31.897  39.703  1.00  0.00    -0.237 OA
ATOM     82  O   UNL A   1      36.411  32.811  38.168  1.00  0.00    -0.744 OA
ENDBRANCH  75  79
ENDBRANCH  48  72
BRANCH  60  83
ATOM     83  C   UNL A   1      45.192  27.431  33.941  1.00  0.00     0.023 A 
ATOM     84  C   UNL A   1      45.172  26.346  34.830  1.00  0.00     0.031 A 
ATOM     85  C   UNL A   1      46.396  28.136  33.768  1.00  0.00     0.131 A 
ATOM     86  C   UNL A   1      46.334  26.014  35.544  1.00  0.00     0.055 A 
ATOM     87  C   UNL A   1      47.558  27.777  34.450  1.00  0.00     0.041 A 
ATOM     88  F   UNL A   1      46.460  29.180  32.926  1.00  0.00    -0.206 F 
ATOM     89  C   UNL A   1      47.528  26.715  35.349  1.00  0.00     0.022 A 
BRANCH  86  90
ATOM     90  S   UNL A   1      46.257  24.672  36.762  1.00  0.00     0.124 S 
ATOM     91  O   UNL A   1      45.267  23.780  36.167  1.00  0.00    -0.237 OA
ATOM     92  O   UNL A   1      47.632  24.180  36.775  1.00  0.00    -0.237 OA
ATOM     93  O   UNL A   1      45.830  25.345  37.987  1.00  0.00    -0.744 OA
ENDBRANCH  86  90
ENDBRANCH  60  83
ENDBRANCH  34  35
ENDBRANCH  26  29
ENDBRANCH  24  25
ENDBRANCH  23  24
ENDBRANCH  22  23
ENDBRANCH   1  22
TORSDOF 20
ENDMDL
MODEL 2
REMARK VINA RESULT:     -10.5      2.704      3.564
REMARK SMILES C[C@@H](CCCO)Nc1ccc(Cl)cc1C(=O)NCCCCNC(=O)c1ccc(-c2c3nc(c(-c4cc(S(=O)(=O)[O-])ccc4F)c4ccc([nH]4)c(-c4cc(S(=O)(=O)[O-])ccc4F)c4nc(c(-c5cc(S(=O)(=O)[O-])ccc5F)c5ccc2[nH]5)C=C4)C=C3)cc1
REMARK SMILES IDX 18 1 17 2 15 3 16 4 14 6 8 7 9 8 10 9 13 10 11 11 12 12 7 13
REMARK SMILES IDX 2 15 1 16 3 17 4 18 5 19 6 20 19 22 20 23 21 24 22 25 23 26
REMARK SMILES IDX 24 28 25 29 26 30 87 31 27 32 86 33 28 34 29 35 30 36 80 37
REMARK SMILES IDX 31 38 85 39 79 40 81 41 32 42 84 43 78 44 77 45 33 47 65 48
REMARK SMILES IDX 45 49 64 50 46 51 49 52 63 53 82 54 47 55 48 56 62 58 83 59
REMARK SMILES IDX 50 60 34 61 35 62 43 63 36 64 42 65 44 66 41 67 37 68 38 69
REMARK SMILES IDX 39 70 40 71 66 72 67 73 75 74 68 75 74 76 76 77 73 78 69 79
REMARK SMILES IDX 70 80 71 81 72 82 51 83 52 84 60 85 53 86 59 87 61 88 58 89
REMARK SMILES IDX 54 90 55 91 56 92 57 93
REMARK H PARENT 17 5 7 14 6 21 22 27 81 46 49 57
REMARK Flexibility Score: inf
ROOT
ATOM      1  C   UNL A   1      33.816  27.941  25.758  1.00  0.00     0.116 C 
ENDROOT
BRANCH   1   2
ATOM      2  N   UNL A   1      33.251  26.705  26.237  1.00  0.00    -0.352 N 
ATOM      3  C   UNL A   1      33.373  25.388  25.892  1.00  0.00     0.253 C 
ATOM      4  O   UNL A   1      32.556  24.647  26.458  1.00  0.00    -0.269 OA
ATOM      5  H   UNL A   1      32.632  26.841  26.991  1.00  0.00     0.163 HD
BRANCH   3   6
ATOM      6  C   UNL A   1      34.397  24.728  25.005  1.00  0.00     0.064 A 
ATOM      7  C   UNL A   1      34.284  24.151  23.710  1.00  0.00     0.047 A 
ATOM      8  C   UNL A   1      35.385  23.395  23.234  1.00  0.00     0.028 A 
ATOM      9  C   UNL A   1      36.553  23.201  23.971  1.00  0.00     0.022 A 
ATOM     10  C   UNL A   1      35.613  24.540  25.719  1.00  0.00     0.036 A 
ATOM     11  C   UNL A   1      36.664  23.782  25.217  1.00  0.00     0.041 A 
ATOM     12  Cl  UNL A   1      38.085  23.541  26.154  1.00  0.00    -0.084 Cl
BRANCH   7  13
ATOM     13  N   UNL A   1      33.163  24.215  22.901  1.00  0.00    -0.382 N 
ATOM     14  H   UNL A   1      33.115  24.968  22.270  1.00  0.00     0.160 HD
BRANCH  13  15
ATOM     15  C   UNL A   1      32.043  23.275  22.892  1.00  0.00     0.076 C 
ATOM     16  C   UNL A   1      32.469  21.939  23.501  1.00  0.00     0.031 C 
BRANCH  15  17
ATOM     17  C   UNL A   1      30.787  23.863  23.565  1.00  0.00     0.027 C 
BRANCH  17  18
ATOM     18  C   UNL A   1      30.517  25.374  23.455  1.00  0.00     0.030 C 
BRANCH  18  19
ATOM     19  C   UNL A   1      29.634  26.003  24.528  1.00  0.00     0.156 C 
BRANCH  19  20
ATOM     20  O   UNL A   1      30.400  26.682  25.510  1.00  0.00    -0.396 OA
ATOM     21  H   UNL A   1      29.861  27.378  25.917  1.00  0.00     0.210 HD
ENDBRANCH  19  20
ENDBRANCH  18  19
ENDBRANCH  17  18
ENDBRANCH  15  17
ENDBRANCH  13  15
ENDBRANCH   7  13
ENDBRANCH   3   6
ENDBRANCH   1   2
BRANCH   1  22
ATOM     22  C   UNL A   1      34.102  28.853  26.954  1.00  0.00     0.023 C 
BRANCH  22  23
ATOM     23  C   UNL A   1      33.256  30.115  27.044  1.00  0.00     0.023 C 
BRANCH  23  24
ATOM     24  C   UNL A   1      34.070  31.328  27.473  1.00  0.00     0.116 C 
BRANCH  24  25
ATOM     25  N   UNL A   1      33.285  32.559  27.538  1.00  0.00    -0.352 N 
ATOM     26  C   UNL A   1      33.480  33.651  28.363  1.00  0.00     0.251 C 
ATOM     27  H   UNL A   1      32.524  32.619  26.916  1.00  0.00     0.163 HD
ATOM     28  O   UNL A   1      32.721  34.595  28.341  1.00  0.00    -0.269 OA
BRANCH  26  29
ATOM     29  C   UNL A   1      34.601  33.573  29.324  1.00  0.00     0.039 A 
ATOM     30  C   UNL A   1      34.412  32.859  30.509  1.00  0.00     0.014 A 
ATOM     31  C   UNL A   1      35.864  34.033  28.952  1.00  0.00     0.014 A 
ATOM     32  C   UNL A   1      35.524  32.503  31.273  1.00  0.00     0.010 A 
ATOM     33  C   UNL A   1      36.972  33.608  29.670  1.00  0.00     0.010 A 
ATOM     34  C   UNL A   1      36.815  32.817  30.821  1.00  0.00    -0.014 A 
BRANCH  34  35
ATOM     35  C   UNL A   1      38.035  32.329  31.511  1.00  0.00     0.031 A 
ATOM     36  C   UNL A   1      38.837  31.229  30.877  1.00  0.00     0.074 A 
ATOM     37  C   UNL A   1      38.343  32.777  32.744  1.00  0.00     0.049 A 
ATOM     38  N   UNL A   1      39.768  30.474  31.396  1.00  0.00    -0.248 NA
ATOM     39  C   UNL A   1      38.505  30.910  29.480  1.00  0.00     0.031 C 
ATOM     40  C   UNL A   1      37.627  33.827  33.473  1.00  0.00     0.029 A 
ATOM     41  N   UNL A   1      39.329  32.387  33.617  1.00  0.00    -0.354 N 
ATOM     42  C   UNL A   1      40.110  29.565  30.401  1.00  0.00     0.074 A 
ATOM     43  C   UNL A   1      39.248  29.835  29.270  1.00  0.00     0.031 C 
ATOM     44  C   UNL A   1      38.206  34.005  34.672  1.00  0.00     0.029 A 
ATOM     45  C   UNL A   1      39.294  33.046  34.825  1.00  0.00     0.049 A 
ATOM     46  H   UNL A   1      39.999  31.699  33.399  1.00  0.00     0.167 HD
ATOM     47  C   UNL A   1      41.067  28.605  30.424  1.00  0.00     0.034 A 
ATOM     48  C   UNL A   1      40.038  32.875  35.936  1.00  0.00     0.034 A 
ATOM     49  C   UNL A   1      41.933  28.372  31.552  1.00  0.00     0.049 A 
ATOM     50  C   UNL A   1      41.098  31.801  35.940  1.00  0.00     0.074 A 
ATOM     51  C   UNL A   1      42.940  27.432  31.692  1.00  0.00     0.029 A 
ATOM     52  N   UNL A   1      41.903  29.101  32.734  1.00  0.00    -0.354 N 
ATOM     53  N   UNL A   1      41.398  30.936  34.999  1.00  0.00    -0.248 NA
ATOM     54  C   UNL A   1      41.918  31.679  37.153  1.00  0.00     0.031 C 
ATOM     55  C   UNL A   1      43.498  27.573  32.968  1.00  0.00     0.029 A 
ATOM     56  C   UNL A   1      42.874  28.634  33.604  1.00  0.00     0.049 A 
ATOM     57  H   UNL A   1      41.283  29.840  32.925  1.00  0.00     0.167 HD
ATOM     58  C   UNL A   1      42.470  30.198  35.491  1.00  0.00     0.074 A 
ATOM     59  C   UNL A   1      42.762  30.715  36.812  1.00  0.00     0.031 C 
ATOM     60  C   UNL A   1      43.157  29.187  34.905  1.00  0.00     0.034 A 
BRANCH  47  61
ATOM     61  C   UNL A   1      41.197  27.738  29.199  1.00  0.00     0.023 A 
ATOM     62  C   UNL A   1      42.213  27.958  28.253  1.00  0.00     0.031 A 
ATOM     63  C   UNL A   1      40.263  26.721  28.939  1.00  0.00     0.131 A 
ATOM     64  C   UNL A   1      42.217  27.237  27.051  1.00  0.00     0.055 A 
ATOM     65  C   UNL A   1      40.325  25.945  27.779  1.00  0.00     0.041 A 
ATOM     66  F   UNL A   1      39.258  26.480  29.795  1.00  0.00    -0.206 F 
ATOM     67  C   UNL A   1      41.296  26.214  26.818  1.00  0.00     0.022 A 
BRANCH  64  68
ATOM     68  S   UNL A   1      43.348  27.764  25.736  1.00  0.00     0.124 S 
ATOM     69  O   UNL A   1      42.437  27.882  24.599  1.00  0.00    -0.237 OA
ATOM     70  O   UNL A   1      43.883  29.015  26.258  1.00  0.00    -0.237 OA
ATOM     71  O   UNL A   1      44.306  26.663  25.647  1.00  0.00    -0.744 OA
ENDBRANCH  64  68
ENDBRANCH  47  61
BRANCH  48  72
ATOM     72  C   UNL A   1      39.811  33.717  37.145  1.00  0.00     0.023 A 
ATOM     73  C   UNL A   1      40.628  34.829  37.407  1.00  0.00     0.031 A 
ATOM     74  C   UNL A   1      38.818  33.392  38.085  1.00  0.00     0.131 A 
ATOM     75  C   UNL A   1      40.475  35.543  38.605  1.00  0.00     0.055 A 
ATOM     76  C   UNL A   1      38.635  34.139  39.252  1.00  0.00     0.041 A 
ATOM     77  F   UNL A   1      38.005  32.345  37.880  1.00  0.00    -0.206 F 
ATOM     78  C   UNL A   1      39.477  35.212  39.524  1.00  0.00     0.022 A 
BRANCH  75  79
ATOM     79  S   UNL A   1      41.668  36.854  38.990  1.00  0.00     0.124 S 
ATOM     80  O   UNL A   1      42.314  37.057  37.698  1.00  0.00    -0.237 OA
ATOM     81  O   UNL A   1      40.795  37.930  39.448  1.00  0.00    -0.237 OA
ATOM     82  O   UNL A   1      42.511  36.255  40.022  1.00  0.00    -0.744 OA
ENDBRANCH  75  79
ENDBRANCH  48  72
BRANCH  60  83
ATOM     83  C   UNL A   1      44.341  28.639  35.655  1.00  0.00     0.023 A 
ATOM     84  C   UNL A   1      44.210  27.596  36.586  1.00  0.00     0.031 A 
ATOM     85  C   UNL A   1      45.621  29.168  35.415  1.00  0.00     0.131 A 
ATOM     86  C   UNL A   1      45.344  27.133  37.272  1.00  0.00     0.055 A 
ATOM     87  C   UNL A   1      46.749  28.676  36.071  1.00  0.00     0.041 A 
ATOM     88  F   UNL A   1      45.792  30.164  34.533  1.00  0.00    -0.206 F 
ATOM     89  C   UNL A   1      46.612  27.658  37.009  1.00  0.00     0.022 A 
BRANCH  86  90
ATOM     90  S   UNL A   1      45.135  25.855  38.541  1.00  0.00     0.124 S 
ATOM     91  O   UNL A   1      44.514  24.773  37.782  1.00  0.00    -0.237 OA
ATOM     92  O   UNL A   1      46.507  25.619  38.979  1.00  0.00    -0.237 OA
ATOM     93  O   UNL A   1      44.271  26.493  39.531  1.00  0.00    -0.744 OA
ENDBRANCH  86  90
ENDBRANCH  60  83
ENDBRANCH  34  35
ENDBRANCH  26  29
ENDBRANCH  24  25
ENDBRANCH  23  24
ENDBRANCH  22  23
ENDBRANCH   1  22
TORSDOF 20
ENDMDL
MODEL 3
REMARK VINA RESULT:     -10.5      2.308      2.685
REMARK SMILES C[C@@H](CCCO)Nc1ccc(Cl)cc1C(=O)NCCCCNC(=O)c1ccc(-c2c3nc(c(-c4cc(S(=O)(=O)[O-])ccc4F)c4ccc([nH]4)c(-c4cc(S(=O)(=O)[O-])ccc4F)c4nc(c(-c5cc(S(=O)(=O)[O-])ccc5F)c5ccc2[nH]5)C=C4)C=C3)cc1
REMARK SMILES IDX 18 1 17 2 15 3 16 4 14 6 8 7 9 8 10 9 13 10 11 11 12 12 7 13
REMARK SMILES IDX 2 15 1 16 3 17 4 18 5 19 6 20 19 22 20 23 21 24 22 25 23 26
REMARK SMILES IDX 24 28 25 29 26 30 87 31 27 32 86 33 28 34 29 35 30 36 80 37
REMARK SMILES IDX 31 38 85 39 79 40 81 41 32 42 84 43 78 44 77 45 33 47 65 48
REMARK SMILES IDX 45 49 64 50 46 51 49 52 63 53 82 54 47 55 48 56 62 58 83 59
REMARK SMILES IDX 50 60 34 61 35 62 43 63 36 64 42 65 44 66 41 67 37 68 38 69
REMARK SMILES IDX 39 70 40 71 66 72 67 73 75 74 68 75 74 76 76 77 73 78 69 79
REMARK SMILES IDX 70 80 71 81 72 82 51 83 52 84 60 85 53 86 59 87 61 88 58 89
REMARK SMILES IDX 54 90 55 91 56 92 57 93
REMARK H PARENT 17 5 7 14 6 21 22 27 81 46 49 57
REMARK Flexibility Score: inf
ROOT
ATOM      1  C   UNL A   1      32.007  26.855  26.592  1.00  0.00     0.116 C 
ENDROOT
BRANCH   1   2
ATOM      2  N   UNL A   1      31.513  25.501  26.619  1.00  0.00    -0.352 N 
ATOM      3  C   UNL A   1      31.689  24.392  25.841  1.00  0.00     0.253 C 
ATOM      4  O   UNL A   1      30.922  23.459  26.121  1.00  0.00    -0.269 OA
ATOM      5  H   UNL A   1      30.905  25.337  27.376  1.00  0.00     0.163 HD
BRANCH   3   6
ATOM      6  C   UNL A   1      32.723  24.132  24.775  1.00  0.00     0.064 A 
ATOM      7  C   UNL A   1      34.057  23.645  24.861  1.00  0.00     0.047 A 
ATOM      8  C   UNL A   1      34.860  23.733  23.697  1.00  0.00     0.028 A 
ATOM      9  C   UNL A   1      34.402  24.266  22.493  1.00  0.00     0.022 A 
ATOM     10  C   UNL A   1      32.275  24.640  23.524  1.00  0.00     0.036 A 
ATOM     11  C   UNL A   1      33.101  24.716  22.410  1.00  0.00     0.041 A 
ATOM     12  Cl  UNL A   1      32.519  25.396  20.942  1.00  0.00    -0.084 Cl
BRANCH   7  13
ATOM     13  N   UNL A   1      34.654  23.149  26.007  1.00  0.00    -0.382 N 
ATOM     14  H   UNL A   1      35.194  23.780  26.534  1.00  0.00     0.160 HD
BRANCH  13  15
ATOM     15  C   UNL A   1      34.563  21.778  26.511  1.00  0.00     0.076 C 
ATOM     16  C   UNL A   1      33.543  21.700  27.647  1.00  0.00     0.031 C 
BRANCH  15  17
ATOM     17  C   UNL A   1      34.281  20.765  25.384  1.00  0.00     0.027 C 
BRANCH  17  18
ATOM     18  C   UNL A   1      32.844  20.255  25.179  1.00  0.00     0.030 C 
BRANCH  18  19
ATOM     19  C   UNL A   1      32.621  18.748  25.268  1.00  0.00     0.156 C 
BRANCH  19  20
ATOM     20  O   UNL A   1      32.781  18.269  26.593  1.00  0.00    -0.396 OA
ATOM     21  H   UNL A   1      33.361  17.492  26.588  1.00  0.00     0.210 HD
ENDBRANCH  19  20
ENDBRANCH  18  19
ENDBRANCH  17  18
ENDBRANCH  15  17
ENDBRANCH  13  15
ENDBRANCH   7  13
ENDBRANCH   3   6
ENDBRANCH   1   2
BRANCH   1  22
ATOM     22  C   UNL A   1      31.210  27.654  25.557  1.00  0.00     0.023 C 
BRANCH  22  23
ATOM     23  C   UNL A   1      31.799  28.999  25.159  1.00  0.00     0.023 C 
BRANCH  23  24
ATOM     24  C   UNL A   1      32.722  29.566  26.228  1.00  0.00     0.116 C 
BRANCH  24  25
ATOM     25  N   UNL A   1      32.337  30.902  26.680  1.00  0.00    -0.352 N 
ATOM     26  C   UNL A   1      33.114  31.838  27.336  1.00  0.00     0.251 C 
ATOM     27  H   UNL A   1      31.408  31.169  26.494  1.00  0.00     0.163 HD
ATOM     28  O   UNL A   1      32.649  32.898  27.693  1.00  0.00    -0.269 OA
BRANCH  26  29
ATOM     29  C   UNL A   1      34.506  31.449  27.651  1.00  0.00     0.039 A 
ATOM     30  C   UNL A   1      35.480  32.449  27.699  1.00  0.00     0.014 A 
ATOM     31  C   UNL A   1      34.781  30.152  28.082  1.00  0.00     0.014 A 
ATOM     32  C   UNL A   1      36.712  32.170  28.294  1.00  0.00     0.010 A 
ATOM     33  C   UNL A   1      35.974  29.903  28.745  1.00  0.00     0.010 A 
ATOM     34  C   UNL A   1      36.939  30.916  28.881  1.00  0.00    -0.014 A 
BRANCH  34  35
ATOM     35  C   UNL A   1      38.166  30.619  29.662  1.00  0.00     0.031 A 
ATOM     36  C   UNL A   1      39.177  29.668  29.091  1.00  0.00     0.074 A 
ATOM     37  C   UNL A   1      38.305  31.095  30.916  1.00  0.00     0.049 A 
ATOM     38  N   UNL A   1      40.174  29.064  29.679  1.00  0.00    -0.248 NA
ATOM     39  C   UNL A   1      39.006  29.318  27.672  1.00  0.00     0.031 C 
ATOM     40  C   UNL A   1      37.379  32.009  31.588  1.00  0.00     0.029 A 
ATOM     41  N   UNL A   1      39.272  30.855  31.860  1.00  0.00    -0.354 N 
ATOM     42  C   UNL A   1      40.730  28.233  28.713  1.00  0.00     0.074 A 
ATOM     43  C   UNL A   1      39.923  28.376  27.519  1.00  0.00     0.031 C 
ATOM     44  C   UNL A   1      37.831  32.263  32.827  1.00  0.00     0.029 A 
ATOM     45  C   UNL A   1      39.042  31.486  33.062  1.00  0.00     0.049 A 
ATOM     46  H   UNL A   1      40.057  30.285  31.694  1.00  0.00     0.167 HD
ATOM     47  C   UNL A   1      41.823  27.436  28.808  1.00  0.00     0.034 A 
ATOM     48  C   UNL A   1      39.719  31.422  34.226  1.00  0.00     0.034 A 
ATOM     49  C   UNL A   1      42.629  27.329  29.998  1.00  0.00     0.049 A 
ATOM     50  C   UNL A   1      40.933  30.529  34.310  1.00  0.00     0.074 A 
ATOM     51  C   UNL A   1      43.759  26.559  30.214  1.00  0.00     0.029 A 
ATOM     52  N   UNL A   1      42.395  28.030  31.175  1.00  0.00    -0.354 N 
ATOM     53  N   UNL A   1      41.436  29.735  33.395  1.00  0.00    -0.248 NA
ATOM     54  C   UNL A   1      41.669  30.524  35.583  1.00  0.00     0.031 C 
ATOM     55  C   UNL A   1      44.189  26.771  31.529  1.00  0.00     0.029 A 
ATOM     56  C   UNL A   1      43.359  27.712  32.116  1.00  0.00     0.049 A 
ATOM     57  H   UNL A   1      41.652  28.659  31.319  1.00  0.00     0.167 HD
ATOM     58  C   UNL A   1      42.572  29.170  33.967  1.00  0.00     0.074 A 
ATOM     59  C   UNL A   1      42.678  29.710  35.306  1.00  0.00     0.031 C 
ATOM     60  C   UNL A   1      43.453  28.287  33.435  1.00  0.00     0.034 A 
BRANCH  47  61
ATOM     61  C   UNL A   1      42.181  26.615  27.596  1.00  0.00     0.023 A 
ATOM     62  C   UNL A   1      41.745  25.286  27.460  1.00  0.00     0.031 A 
ATOM     63  C   UNL A   1      43.016  27.142  26.596  1.00  0.00     0.131 A 
ATOM     64  C   UNL A   1      42.218  24.500  26.401  1.00  0.00     0.055 A 
ATOM     65  C   UNL A   1      43.412  26.380  25.494  1.00  0.00     0.041 A 
ATOM     66  F   UNL A   1      43.481  28.398  26.683  1.00  0.00    -0.206 F 
ATOM     67  C   UNL A   1      43.028  25.045  25.402  1.00  0.00     0.022 A 
BRANCH  64  68
ATOM     68  S   UNL A   1      41.884  22.719  26.434  1.00  0.00     0.124 S 
ATOM     69  O   UNL A   1      42.428  22.296  25.145  1.00  0.00    -0.237 OA
ATOM     70  O   UNL A   1      42.621  22.279  27.613  1.00  0.00    -0.237 OA
ATOM     71  O   UNL A   1      40.428  22.646  26.543  1.00  0.00    -0.744 OA
ENDBRANCH  64  68
ENDBRANCH  47  61
BRANCH  48  72
ATOM     72  C   UNL A   1      39.271  32.202  35.415  1.00  0.00     0.023 A 
ATOM     73  C   UNL A   1      39.683  33.533  35.594  1.00  0.00     0.031 A 
ATOM     74  C   UNL A   1      38.477  31.617  36.416  1.00  0.00     0.131 A 
ATOM     75  C   UNL A   1      39.347  34.218  36.772  1.00  0.00     0.055 A 
ATOM     76  C   UNL A   1      38.101  32.320  37.564  1.00  0.00     0.041 A 
ATOM     77  F   UNL A   1      38.050  30.351  36.291  1.00  0.00    -0.206 F 
ATOM     78  C   UNL A   1      38.550  33.624  37.753  1.00  0.00     0.022 A 
BRANCH  75  79
ATOM     79  S   UNL A   1      40.052  35.866  37.048  1.00  0.00     0.124 S 
ATOM     80  O   UNL A   1      39.674  36.559  35.821  1.00  0.00    -0.237 OA
ATOM     81  O   UNL A   1      39.364  36.288  38.263  1.00  0.00    -0.237 OA
ATOM     82  O   UNL A   1      41.482  35.603  37.202  1.00  0.00    -0.744 OA
ENDBRANCH  75  79
ENDBRANCH  48  72
BRANCH  60  83
ATOM     83  C   UNL A   1      44.649  27.924  34.273  1.00  0.00     0.023 A 
ATOM     84  C   UNL A   1      45.869  28.608  34.158  1.00  0.00     0.031 A 
ATOM     85  C   UNL A   1      44.549  26.883  35.211  1.00  0.00     0.131 A 
ATOM     86  C   UNL A   1      46.960  28.218  34.951  1.00  0.00     0.055 A 
ATOM     87  C   UNL A   1      45.624  26.526  36.025  1.00  0.00     0.041 A 
ATOM     88  F   UNL A   1      43.400  26.203  35.355  1.00  0.00    -0.206 F 
ATOM     89  C   UNL A   1      46.839  27.191  35.892  1.00  0.00     0.022 A 
BRANCH  86  90
ATOM     90  S   UNL A   1      48.553  29.049  34.714  1.00  0.00     0.124 S 
ATOM     91  O   UNL A   1      49.337  28.017  34.041  1.00  0.00    -0.237 OA
ATOM     92  O   UNL A   1      48.188  30.204  33.899  1.00  0.00    -0.237 OA
ATOM     93  O   UNL A   1      48.982  29.364  36.075  1.00  0.00    -0.744 OA
ENDBRANCH  86  90
ENDBRANCH  60  83
ENDBRANCH  34  35
ENDBRANCH  26  29
ENDBRANCH  24  25
ENDBRANCH  23  24
ENDBRANCH  22  23
ENDBRANCH   1  22
TORSDOF 20
ENDMDL
