MODEL 1
REMARK VINA RESULT:     -11.3      0.000      0.000
REMARK SMILES Cc1ncc(C(=O)NCCCCNC(=O)c2ccc(-c3c4nc(c(-c5cc(S(=O)(=O)[O-])ccc5F)c5ccc([nH]5)c(-c5cc(S(=O)(=O)[O-])ccc5F)c5nc(c(-c6cc(S(=O)(=O)[O-])ccc6F)c6ccc3[nH]6)C=C5)C=C4)cc2)cc1C#N
REMARK SMILES IDX 11 1 10 2 9 3 8 4 6 5 7 6 5 8 1 9 2 10 3 11 80 12 4 13 79 14
REMARK SMILES IDX 81 15 82 16 12 17 13 18 14 19 15 21 16 22 17 23 78 24 18 25
REMARK SMILES IDX 77 26 19 27 20 28 21 29 71 30 22 31 76 32 70 33 72 34 23 35
REMARK SMILES IDX 75 36 69 37 68 38 24 40 56 41 36 42 55 43 37 44 40 45 54 46
REMARK SMILES IDX 73 47 38 48 39 49 53 51 74 52 41 53 25 54 26 55 34 56 27 57
REMARK SMILES IDX 33 58 35 59 32 60 28 61 29 62 30 63 31 64 57 65 58 66 66 67
REMARK SMILES IDX 59 68 65 69 67 70 64 71 60 72 61 73 62 74 63 75 42 76 43 77
REMARK SMILES IDX 51 78 44 79 50 80 52 81 49 82 45 83 46 84 47 85 48 86
REMARK H PARENT 8 7 13 20 72 39 40 50
REMARK Flexibility Score: inf
ROOT
ATOM      1  C   UNL A   1      31.638  32.008  26.820  1.00  0.00     0.023 C 
ENDROOT
BRANCH   1   2
ATOM      2  C   UNL A   1      31.715  30.480  26.810  1.00  0.00     0.023 C 
BRANCH   2   3
ATOM      3  C   UNL A   1      32.211  29.911  25.480  1.00  0.00     0.116 C 
BRANCH   3   4
ATOM      4  N   UNL A   1      31.500  28.692  25.157  1.00  0.00    -0.352 N 
ATOM      5  C   UNL A   1      30.460  28.416  24.311  1.00  0.00     0.252 C 
ATOM      6  O   UNL A   1      30.082  27.246  24.237  1.00  0.00    -0.269 OA
ATOM      7  H   UNL A   1      31.831  27.903  25.643  1.00  0.00     0.163 HD
BRANCH   5   8
ATOM      8  C   UNL A   1      29.798  29.425  23.447  1.00  0.00     0.059 A 
ATOM      9  C   UNL A   1      27.965  31.947  20.516  1.00  0.00     0.068 C 
ATOM     10  C   UNL A   1      28.638  31.111  21.566  1.00  0.00     0.055 A 
ATOM     11  N   UNL A   1      28.772  29.795  21.270  1.00  0.00    -0.259 NA
ATOM     12  C   UNL A   1      29.030  31.632  22.797  1.00  0.00     0.074 A 
ATOM     13  C   UNL A   1      29.355  28.994  22.201  1.00  0.00     0.125 A 
ATOM     14  C   UNL A   1      29.571  30.765  23.756  1.00  0.00     0.036 A 
BRANCH  12  15
ATOM     15  C   UNL A   1      28.943  33.031  23.092  1.00  0.00     0.101 C 
ATOM     16  N   UNL A   1      28.905  34.169  23.308  1.00  0.00    -0.192 NA
ENDBRANCH  12  15
ENDBRANCH   5   8
ENDBRANCH   3   4
ENDBRANCH   2   3
ENDBRANCH   1   2
BRANCH   1  17
ATOM     17  C   UNL A   1      32.950  32.699  27.167  1.00  0.00     0.116 C 
BRANCH  17  18
ATOM     18  N   UNL A   1      32.759  34.035  27.721  1.00  0.00    -0.352 N 
ATOM     19  C   UNL A   1      33.448  34.607  28.763  1.00  0.00     0.251 C 
ATOM     20  H   UNL A   1      32.059  34.586  27.302  1.00  0.00     0.163 HD
ATOM     21  O   UNL A   1      33.128  35.696  29.219  1.00  0.00    -0.269 OA
BRANCH  19  22
ATOM     22  C   UNL A   1      34.569  33.840  29.329  1.00  0.00     0.039 A 
ATOM     23  C   UNL A   1      35.874  34.211  29.006  1.00  0.00     0.014 A 
ATOM     24  C   UNL A   1      34.308  32.858  30.292  1.00  0.00     0.014 A 
ATOM     25  C   UNL A   1      36.932  33.620  29.691  1.00  0.00     0.010 A 
ATOM     26  C   UNL A   1      35.361  32.329  31.022  1.00  0.00     0.010 A 
ATOM     27  C   UNL A   1      36.681  32.694  30.717  1.00  0.00    -0.014 A 
BRANCH  27  28
ATOM     28  C   UNL A   1      37.796  32.050  31.445  1.00  0.00     0.031 A 
ATOM     29  C   UNL A   1      38.548  30.931  30.790  1.00  0.00     0.074 A 
ATOM     30  C   UNL A   1      38.108  32.445  32.694  1.00  0.00     0.049 A 
ATOM     31  N   UNL A   1      39.553  30.238  31.255  1.00  0.00    -0.248 NA
ATOM     32  C   UNL A   1      38.105  30.523  29.446  1.00  0.00     0.031 C 
ATOM     33  C   UNL A   1      37.418  33.496  33.442  1.00  0.00     0.029 A 
ATOM     34  N   UNL A   1      39.082  32.004  33.556  1.00  0.00    -0.354 N 
ATOM     35  C   UNL A   1      39.860  29.317  30.263  1.00  0.00     0.074 A 
ATOM     36  C   UNL A   1      38.898  29.492  29.201  1.00  0.00     0.031 C 
ATOM     37  C   UNL A   1      38.002  33.631  34.644  1.00  0.00     0.029 A 
ATOM     38  C   UNL A   1      39.086  32.657  34.765  1.00  0.00     0.049 A 
ATOM     39  H   UNL A   1      39.718  31.288  33.328  1.00  0.00     0.167 HD
ATOM     40  C   UNL A   1      40.876  28.427  30.231  1.00  0.00     0.034 A 
ATOM     41  C   UNL A   1      39.871  32.489  35.851  1.00  0.00     0.034 A 
ATOM     42  C   UNL A   1      41.838  28.275  31.287  1.00  0.00     0.049 A 
ATOM     43  C   UNL A   1      40.987  31.478  35.801  1.00  0.00     0.074 A 
ATOM     44  C   UNL A   1      42.939  27.439  31.319  1.00  0.00     0.029 A 
ATOM     45  N   UNL A   1      41.818  28.959  32.492  1.00  0.00    -0.354 N 
ATOM     46  N   UNL A   1      41.327  30.681  34.817  1.00  0.00    -0.248 NA
ATOM     47  C   UNL A   1      41.834  31.350  36.995  1.00  0.00     0.031 C 
ATOM     48  C   UNL A   1      43.540  27.561  32.570  1.00  0.00     0.029 A 
ATOM     49  C   UNL A   1      42.869  28.539  33.289  1.00  0.00     0.049 A 
ATOM     50  H   UNL A   1      41.156  29.643  32.744  1.00  0.00     0.167 HD
ATOM     51  C   UNL A   1      42.448  29.982  35.258  1.00  0.00     0.074 A 
ATOM     52  C   UNL A   1      42.733  30.458  36.595  1.00  0.00     0.031 C 
ATOM     53  C   UNL A   1      43.169  29.036  34.610  1.00  0.00     0.034 A 
BRANCH  40  54
ATOM     54  C   UNL A   1      41.031  27.556  29.015  1.00  0.00     0.023 A 
ATOM     55  C   UNL A   1      42.023  27.857  28.066  1.00  0.00     0.031 A 
ATOM     56  C   UNL A   1      40.117  26.528  28.727  1.00  0.00     0.131 A 
ATOM     57  C   UNL A   1      42.045  27.172  26.847  1.00  0.00     0.055 A 
ATOM     58  C   UNL A   1      40.171  25.817  27.529  1.00  0.00     0.041 A 
ATOM     59  F   UNL A   1      39.159  26.198  29.610  1.00  0.00    -0.206 F 
ATOM     60  C   UNL A   1      41.127  26.151  26.574  1.00  0.00     0.022 A 
BRANCH  57  61
ATOM     61  S   UNL A   1      43.227  27.621  25.550  1.00  0.00     0.124 S 
ATOM     62  O   UNL A   1      42.356  28.219  24.541  1.00  0.00    -0.237 OA
ATOM     63  O   UNL A   1      44.105  28.555  26.249  1.00  0.00    -0.237 OA
ATOM     64  O   UNL A   1      43.831  26.349  25.169  1.00  0.00    -0.744 OA
ENDBRANCH  57  61
ENDBRANCH  40  54
BRANCH  41  65
ATOM     65  C   UNL A   1      39.648  33.355  37.041  1.00  0.00     0.023 A 
ATOM     66  C   UNL A   1      40.407  34.524  37.230  1.00  0.00     0.031 A 
ATOM     67  C   UNL A   1      38.759  32.970  38.059  1.00  0.00     0.131 A 
ATOM     68  C   UNL A   1      40.316  35.225  38.438  1.00  0.00     0.055 A 
ATOM     69  C   UNL A   1      38.624  33.709  39.235  1.00  0.00     0.041 A 
ATOM     70  F   UNL A   1      38.018  31.860  37.923  1.00  0.00    -0.206 F 
ATOM     71  C   UNL A   1      39.418  34.833  39.436  1.00  0.00     0.022 A 
BRANCH  68  72
ATOM     72  S   UNL A   1      41.435  36.608  38.790  1.00  0.00     0.124 S 
ATOM     73  O   UNL A   1      42.190  36.109  39.935  1.00  0.00    -0.237 OA
ATOM     74  O   UNL A   1      42.180  36.708  37.538  1.00  0.00    -0.237 OA
ATOM     75  O   UNL A   1      40.532  37.719  39.069  1.00  0.00    -0.744 OA
ENDBRANCH  68  72
ENDBRANCH  41  65
BRANCH  53  76
ATOM     76  C   UNL A   1      44.376  28.438  35.289  1.00  0.00     0.023 A 
ATOM     77  C   UNL A   1      44.193  27.470  36.296  1.00  0.00     0.031 A 
ATOM     78  C   UNL A   1      45.666  28.952  35.084  1.00  0.00     0.131 A 
ATOM     79  C   UNL A   1      45.272  27.091  37.102  1.00  0.00     0.055 A 
ATOM     80  C   UNL A   1      46.749  28.533  35.857  1.00  0.00     0.041 A 
ATOM     81  F   UNL A   1      45.888  29.880  34.141  1.00  0.00    -0.206 F 
ATOM     82  C   UNL A   1      46.551  27.613  36.884  1.00  0.00     0.022 A 
BRANCH  79  83
ATOM     83  S   UNL A   1      45.037  25.974  38.512  1.00  0.00     0.124 S 
ATOM     84  O   UNL A   1      43.846  26.534  39.147  1.00  0.00    -0.237 OA
ATOM     85  O   UNL A   1      44.846  24.685  37.853  1.00  0.00    -0.237 OA
ATOM     86  O   UNL A   1      46.270  26.113  39.280  1.00  0.00    -0.744 OA
ENDBRANCH  79  83
ENDBRANCH  53  76
ENDBRANCH  27  28
ENDBRANCH  19  22
ENDBRANCH  17  18
ENDBRANCH   1  17
TORSDOF 15
ENDMDL
MODEL 2
REMARK VINA RESULT:     -11.1      6.799     12.030
REMARK SMILES Cc1ncc(C(=O)NCCCCNC(=O)c2ccc(-c3c4nc(c(-c5cc(S(=O)(=O)[O-])ccc5F)c5ccc([nH]5)c(-c5cc(S(=O)(=O)[O-])ccc5F)c5nc(c(-c6cc(S(=O)(=O)[O-])ccc6F)c6ccc3[nH]6)C=C5)C=C4)cc2)cc1C#N
REMARK SMILES IDX 11 1 10 2 9 3 8 4 6 5 7 6 5 8 1 9 2 10 3 11 80 12 4 13 79 14
REMARK SMILES IDX 81 15 82 16 12 17 13 18 14 19 15 21 16 22 17 23 78 24 18 25
REMARK SMILES IDX 77 26 19 27 20 28 21 29 71 30 22 31 76 32 70 33 72 34 23 35
REMARK SMILES IDX 75 36 69 37 68 38 24 40 56 41 36 42 55 43 37 44 40 45 54 46
REMARK SMILES IDX 73 47 38 48 39 49 53 51 74 52 41 53 25 54 26 55 34 56 27 57
REMARK SMILES IDX 33 58 35 59 32 60 28 61 29 62 30 63 31 64 57 65 58 66 66 67
REMARK SMILES IDX 59 68 65 69 67 70 64 71 60 72 61 73 62 74 63 75 42 76 43 77
REMARK SMILES IDX 51 78 44 79 50 80 52 81 49 82 45 83 46 84 47 85 48 86
REMARK H PARENT 8 7 13 20 72 39 40 50
REMARK Flexibility Score: inf
ROOT
ATOM      1  C   UNL A   1      38.323  20.384  25.220  1.00  0.00     0.023 C 
ENDROOT
BRANCH   1   2
ATOM      2  C   UNL A   1      37.481  21.645  25.014  1.00  0.00     0.023 C 
BRANCH   2   3
ATOM      3  C   UNL A   1      36.106  21.564  25.680  1.00  0.00     0.116 C 
BRANCH   3   4
ATOM      4  N   UNL A   1      35.403  20.377  25.244  1.00  0.00    -0.352 N 
ATOM      5  C   UNL A   1      34.122  20.156  24.816  1.00  0.00     0.252 C 
ATOM      6  O   UNL A   1      33.823  19.009  24.484  1.00  0.00    -0.269 OA
ATOM      7  H   UNL A   1      35.958  19.564  25.259  1.00  0.00     0.163 HD
BRANCH   5   8
ATOM      8  C   UNL A   1      33.095  21.219  24.680  1.00  0.00     0.059 A 
ATOM      9  C   UNL A   1      30.449  24.471  23.825  1.00  0.00     0.068 C 
ATOM     10  C   UNL A   1      31.373  23.344  24.184  1.00  0.00     0.055 A 
ATOM     11  N   UNL A   1      32.236  22.961  23.212  1.00  0.00    -0.259 NA
ATOM     12  C   UNL A   1      31.301  22.681  25.407  1.00  0.00     0.074 A 
ATOM     13  C   UNL A   1      33.077  21.928  23.483  1.00  0.00     0.125 A 
ATOM     14  C   UNL A   1      32.141  21.581  25.629  1.00  0.00     0.036 A 
BRANCH  12  15
ATOM     15  C   UNL A   1      30.432  23.118  26.458  1.00  0.00     0.101 C 
ATOM     16  N   UNL A   1      29.700  23.478  27.281  1.00  0.00    -0.192 NA
ENDBRANCH  12  15
ENDBRANCH   5   8
ENDBRANCH   3   4
ENDBRANCH   2   3
ENDBRANCH   1   2
BRANCH   1  17
ATOM     17  C   UNL A   1      39.564  20.593  26.077  1.00  0.00     0.116 C 
BRANCH  17  18
ATOM     18  N   UNL A   1      40.454  19.438  26.079  1.00  0.00    -0.352 N 
ATOM     19  C   UNL A   1      41.827  19.449  26.153  1.00  0.00     0.251 C 
ATOM     20  H   UNL A   1      40.025  18.554  26.020  1.00  0.00     0.163 HD
ATOM     21  O   UNL A   1      42.481  18.421  26.033  1.00  0.00    -0.269 OA
BRANCH  19  22
ATOM     22  C   UNL A   1      42.480  20.753  26.350  1.00  0.00     0.039 A 
ATOM     23  C   UNL A   1      42.740  21.553  25.238  1.00  0.00     0.014 A 
ATOM     24  C   UNL A   1      42.686  21.223  27.651  1.00  0.00     0.014 A 
ATOM     25  C   UNL A   1      43.173  22.862  25.436  1.00  0.00     0.010 A 
ATOM     26  C   UNL A   1      43.044  22.549  27.843  1.00  0.00     0.010 A 
ATOM     27  C   UNL A   1      43.305  23.373  26.738  1.00  0.00    -0.014 A 
BRANCH  27  28
ATOM     28  C   UNL A   1      43.773  24.759  26.963  1.00  0.00     0.031 A 
ATOM     29  C   UNL A   1      42.805  25.784  27.472  1.00  0.00     0.074 A 
ATOM     30  C   UNL A   1      45.045  25.099  26.681  1.00  0.00     0.049 A 
ATOM     31  N   UNL A   1      43.013  27.046  27.735  1.00  0.00    -0.248 NA
ATOM     32  C   UNL A   1      41.419  25.341  27.699  1.00  0.00     0.031 C 
ATOM     33  C   UNL A   1      46.060  24.193  26.145  1.00  0.00     0.029 A 
ATOM     34  N   UNL A   1      45.698  26.301  26.802  1.00  0.00    -0.354 N 
ATOM     35  C   UNL A   1      41.788  27.545  28.157  1.00  0.00     0.074 A 
ATOM     36  C   UNL A   1      40.829  26.472  28.054  1.00  0.00     0.031 C 
ATOM     37  C   UNL A   1      47.213  24.866  26.000  1.00  0.00     0.029 A 
ATOM     38  C   UNL A   1      47.012  26.258  26.402  1.00  0.00     0.049 A 
ATOM     39  H   UNL A   1      45.265  27.116  27.144  1.00  0.00     0.167 HD
ATOM     40  C   UNL A   1      41.501  28.781  28.621  1.00  0.00     0.034 A 
ATOM     41  C   UNL A   1      47.950  27.228  26.361  1.00  0.00     0.034 A 
ATOM     42  C   UNL A   1      42.471  29.836  28.735  1.00  0.00     0.049 A 
ATOM     43  C   UNL A   1      47.603  28.605  26.864  1.00  0.00     0.074 A 
ATOM     44  C   UNL A   1      42.286  31.106  29.249  1.00  0.00     0.029 A 
ATOM     45  N   UNL A   1      43.794  29.754  28.330  1.00  0.00    -0.354 N 
ATOM     46  N   UNL A   1      46.465  29.037  27.354  1.00  0.00    -0.248 NA
ATOM     47  C   UNL A   1      48.664  29.623  26.828  1.00  0.00     0.031 C 
ATOM     48  C   UNL A   1      43.473  31.817  29.086  1.00  0.00     0.029 A 
ATOM     49  C   UNL A   1      44.428  30.964  28.553  1.00  0.00     0.049 A 
ATOM     50  H   UNL A   1      44.219  28.955  27.944  1.00  0.00     0.167 HD
ATOM     51  C   UNL A   1      46.682  30.364  27.715  1.00  0.00     0.074 A 
ATOM     52  C   UNL A   1      48.062  30.661  27.396  1.00  0.00     0.031 C 
ATOM     53  C   UNL A   1      45.812  31.249  28.261  1.00  0.00     0.034 A 
BRANCH  40  54
ATOM     54  C   UNL A   1      40.095  29.075  29.064  1.00  0.00     0.023 A 
ATOM     55  C   UNL A   1      39.766  28.995  30.428  1.00  0.00     0.031 A 
ATOM     56  C   UNL A   1      39.062  29.288  28.136  1.00  0.00     0.131 A 
ATOM     57  C   UNL A   1      38.427  29.075  30.823  1.00  0.00     0.055 A 
ATOM     58  C   UNL A   1      37.733  29.413  28.539  1.00  0.00     0.041 A 
ATOM     59  F   UNL A   1      39.331  29.383  26.823  1.00  0.00    -0.206 F 
ATOM     60  C   UNL A   1      37.408  29.287  29.887  1.00  0.00     0.022 A 
BRANCH  57  61
ATOM     61  S   UNL A   1      37.954  28.847  32.556  1.00  0.00     0.124 S 
ATOM     62  O   UNL A   1      38.959  29.649  33.251  1.00  0.00    -0.237 OA
ATOM     63  O   UNL A   1      36.600  29.391  32.576  1.00  0.00    -0.237 OA
ATOM     64  O   UNL A   1      38.061  27.407  32.764  1.00  0.00    -0.744 OA
ENDBRANCH  57  61
ENDBRANCH  40  54
BRANCH  41  65
ATOM     65  C   UNL A   1      49.316  26.889  25.876  1.00  0.00     0.023 A 
ATOM     66  C   UNL A   1      50.360  26.647  26.787  1.00  0.00     0.031 A 
ATOM     67  C   UNL A   1      49.624  26.915  24.506  1.00  0.00     0.131 A 
ATOM     68  C   UNL A   1      51.673  26.512  26.320  1.00  0.00     0.055 A 
ATOM     69  C   UNL A   1      50.924  26.716  24.041  1.00  0.00     0.041 A 
ATOM     70  F   UNL A   1      48.661  27.147  23.601  1.00  0.00    -0.206 F 
ATOM     71  C   UNL A   1      51.960  26.530  24.952  1.00  0.00     0.022 A 
BRANCH  68  72
ATOM     72  S   UNL A   1      53.060  26.411  27.483  1.00  0.00     0.124 S 
ATOM     73  O   UNL A   1      53.628  27.753  27.401  1.00  0.00    -0.237 OA
ATOM     74  O   UNL A   1      52.374  26.091  28.732  1.00  0.00    -0.237 OA
ATOM     75  O   UNL A   1      53.891  25.344  26.937  1.00  0.00    -0.744 OA
ENDBRANCH  68  72
ENDBRANCH  41  65
BRANCH  53  76
ATOM     76  C   UNL A   1      46.293  32.639  28.598  1.00  0.00     0.023 A 
ATOM     77  C   UNL A   1      46.412  33.597  27.573  1.00  0.00     0.031 A 
ATOM     78  C   UNL A   1      46.805  32.952  29.867  1.00  0.00     0.131 A 
ATOM     79  C   UNL A   1      47.084  34.799  27.818  1.00  0.00     0.055 A 
ATOM     80  C   UNL A   1      47.430  34.174  30.120  1.00  0.00     0.041 A 
ATOM     81  F   UNL A   1      46.721  32.069  30.874  1.00  0.00    -0.206 F 
ATOM     82  C   UNL A   1      47.588  35.096  29.087  1.00  0.00     0.022 A 
BRANCH  79  83
ATOM     83  S   UNL A   1      47.399  35.981  26.478  1.00  0.00     0.124 S 
ATOM     84  O   UNL A   1      47.751  35.096  25.370  1.00  0.00    -0.237 OA
ATOM     85  O   UNL A   1      46.110  36.655  26.354  1.00  0.00    -0.237 OA
ATOM     86  O   UNL A   1      48.494  36.803  26.984  1.00  0.00    -0.744 OA
ENDBRANCH  79  83
ENDBRANCH  53  76
ENDBRANCH  27  28
ENDBRANCH  19  22
ENDBRANCH  17  18
ENDBRANCH   1  17
TORSDOF 15
ENDMDL
MODEL 3
REMARK VINA RESULT:     -11.1      1.868      2.775
REMARK SMILES Cc1ncc(C(=O)NCCCCNC(=O)c2ccc(-c3c4nc(c(-c5cc(S(=O)(=O)[O-])ccc5F)c5ccc([nH]5)c(-c5cc(S(=O)(=O)[O-])ccc5F)c5nc(c(-c6cc(S(=O)(=O)[O-])ccc6F)c6ccc3[nH]6)C=C5)C=C4)cc2)cc1C#N
REMARK SMILES IDX 11 1 10 2 9 3 8 4 6 5 7 6 5 8 1 9 2 10 3 11 80 12 4 13 79 14
REMARK SMILES IDX 81 15 82 16 12 17 13 18 14 19 15 21 16 22 17 23 78 24 18 25
REMARK SMILES IDX 77 26 19 27 20 28 21 29 71 30 22 31 76 32 70 33 72 34 23 35
REMARK SMILES IDX 75 36 69 37 68 38 24 40 56 41 36 42 55 43 37 44 40 45 54 46
REMARK SMILES IDX 73 47 38 48 39 49 53 51 74 52 41 53 25 54 26 55 34 56 27 57
REMARK SMILES IDX 33 58 35 59 32 60 28 61 29 62 30 63 31 64 57 65 58 66 66 67
REMARK SMILES IDX 59 68 65 69 67 70 64 71 60 72 61 73 62 74 63 75 42 76 43 77
REMARK SMILES IDX 51 78 44 79 50 80 52 81 49 82 45 83 46 84 47 85 48 86
REMARK H PARENT 8 7 13 20 72 39 40 50
REMARK Flexibility Score: inf
ROOT
ATOM      1  C   UNL A   1      31.646  32.054  26.908  1.00  0.00     0.023 C 
ENDROOT
BRANCH   1   2
ATOM      2  C   UNL A   1      31.751  30.530  26.828  1.00  0.00     0.023 C 
BRANCH   2   3
ATOM      3  C   UNL A   1      32.000  30.018  25.409  1.00  0.00     0.116 C 
BRANCH   3   4
ATOM      4  N   UNL A   1      30.839  30.255  24.577  1.00  0.00    -0.352 N 
ATOM      5  C   UNL A   1      30.146  29.468  23.697  1.00  0.00     0.252 C 
ATOM      6  O   UNL A   1      29.163  29.962  23.145  1.00  0.00    -0.269 OA
ATOM      7  H   UNL A   1      30.475  31.166  24.660  1.00  0.00     0.163 HD
BRANCH   5   8
ATOM      8  C   UNL A   1      30.477  28.050  23.409  1.00  0.00     0.059 A 
ATOM      9  C   UNL A   1      31.233  23.848  23.126  1.00  0.00     0.068 C 
ATOM     10  C   UNL A   1      31.021  25.332  23.199  1.00  0.00     0.055 A 
ATOM     11  N   UNL A   1      30.187  25.759  24.179  1.00  0.00    -0.259 NA
ATOM     12  C   UNL A   1      31.582  26.212  22.276  1.00  0.00     0.074 A 
ATOM     13  C   UNL A   1      29.948  27.094  24.270  1.00  0.00     0.125 A 
ATOM     14  C   UNL A   1      31.263  27.575  22.362  1.00  0.00     0.036 A 
BRANCH  12  15
ATOM     15  C   UNL A   1      32.509  25.775  21.275  1.00  0.00     0.101 C 
ATOM     16  N   UNL A   1      33.256  25.384  20.481  1.00  0.00    -0.192 NA
ENDBRANCH  12  15
ENDBRANCH   5   8
ENDBRANCH   3   4
ENDBRANCH   2   3
ENDBRANCH   1   2
BRANCH   1  17
ATOM     17  C   UNL A   1      32.954  32.755  27.247  1.00  0.00     0.116 C 
BRANCH  17  18
ATOM     18  N   UNL A   1      32.757  34.099  27.778  1.00  0.00    -0.352 N 
ATOM     19  C   UNL A   1      33.444  34.692  28.810  1.00  0.00     0.251 C 
ATOM     20  H   UNL A   1      32.054  34.640  27.350  1.00  0.00     0.163 HD
ATOM     21  O   UNL A   1      33.119  35.788  29.248  1.00  0.00    -0.269 OA
BRANCH  19  22
ATOM     22  C   UNL A   1      34.569  33.940  29.389  1.00  0.00     0.039 A 
ATOM     23  C   UNL A   1      35.872  34.348  29.104  1.00  0.00     0.014 A 
ATOM     24  C   UNL A   1      34.309  32.934  30.325  1.00  0.00     0.014 A 
ATOM     25  C   UNL A   1      36.928  33.769  29.803  1.00  0.00     0.010 A 
ATOM     26  C   UNL A   1      35.356  32.415  31.070  1.00  0.00     0.010 A 
ATOM     27  C   UNL A   1      36.674  32.816  30.804  1.00  0.00    -0.014 A 
BRANCH  27  28
ATOM     28  C   UNL A   1      37.787  32.185  31.547  1.00  0.00     0.031 A 
ATOM     29  C   UNL A   1      38.539  31.053  30.914  1.00  0.00     0.074 A 
ATOM     30  C   UNL A   1      38.095  32.601  32.790  1.00  0.00     0.049 A 
ATOM     31  N   UNL A   1      39.542  30.368  31.393  1.00  0.00    -0.248 NA
ATOM     32  C   UNL A   1      38.099  30.623  29.576  1.00  0.00     0.031 C 
ATOM     33  C   UNL A   1      37.404  33.665  33.518  1.00  0.00     0.029 A 
ATOM     34  N   UNL A   1      39.066  32.174  33.662  1.00  0.00    -0.354 N 
ATOM     35  C   UNL A   1      39.851  29.429  30.419  1.00  0.00     0.074 A 
ATOM     36  C   UNL A   1      38.893  29.587  29.351  1.00  0.00     0.031 C 
ATOM     37  C   UNL A   1      37.985  33.821  34.718  1.00  0.00     0.029 A 
ATOM     38  C   UNL A   1      39.068  32.848  34.860  1.00  0.00     0.049 A 
ATOM     39  H   UNL A   1      39.702  31.453  33.449  1.00  0.00     0.167 HD
ATOM     40  C   UNL A   1      40.866  28.538  30.405  1.00  0.00     0.034 A 
ATOM     41  C   UNL A   1      39.849  32.698  35.950  1.00  0.00     0.034 A 
ATOM     42  C   UNL A   1      41.825  28.403  31.467  1.00  0.00     0.049 A 
ATOM     43  C   UNL A   1      40.964  31.685  35.921  1.00  0.00     0.074 A 
ATOM     44  C   UNL A   1      42.925  27.567  31.516  1.00  0.00     0.029 A 
ATOM     45  N   UNL A   1      41.802  29.109  32.659  1.00  0.00    -0.354 N 
ATOM     46  N   UNL A   1      41.307  30.871  34.952  1.00  0.00    -0.248 NA
ATOM     47  C   UNL A   1      41.808  31.578  37.120  1.00  0.00     0.031 C 
ATOM     48  C   UNL A   1      43.523  27.710  32.766  1.00  0.00     0.029 A 
ATOM     49  C   UNL A   1      42.851  28.701  33.466  1.00  0.00     0.049 A 
ATOM     50  H   UNL A   1      41.140  29.797  32.898  1.00  0.00     0.167 HD
ATOM     51  C   UNL A   1      42.425  30.179  35.409  1.00  0.00     0.074 A 
ATOM     52  C   UNL A   1      42.707  30.678  36.738  1.00  0.00     0.031 C 
ATOM     53  C   UNL A   1      43.147  29.221  34.779  1.00  0.00     0.034 A 
BRANCH  40  54
ATOM     54  C   UNL A   1      41.024  27.646  29.205  1.00  0.00     0.023 A 
ATOM     55  C   UNL A   1      41.989  27.955  28.231  1.00  0.00     0.031 A 
ATOM     56  C   UNL A   1      40.135  26.586  28.956  1.00  0.00     0.131 A 
ATOM     57  C   UNL A   1      42.008  27.245  27.026  1.00  0.00     0.055 A 
ATOM     58  C   UNL A   1      40.187  25.851  27.772  1.00  0.00     0.041 A 
ATOM     59  F   UNL A   1      39.204  26.247  29.864  1.00  0.00    -0.206 F 
ATOM     60  C   UNL A   1      41.116  26.192  26.793  1.00  0.00     0.022 A 
BRANCH  57  61
ATOM     61  S   UNL A   1      43.152  27.700  25.698  1.00  0.00     0.124 S 
ATOM     62  O   UNL A   1      43.948  28.748  26.331  1.00  0.00    -0.237 OA
ATOM     63  O   UNL A   1      43.853  26.443  25.456  1.00  0.00    -0.237 OA
ATOM     64  O   UNL A   1      42.278  28.154  24.621  1.00  0.00    -0.744 OA
ENDBRANCH  57  61
ENDBRANCH  40  54
BRANCH  41  65
ATOM     65  C   UNL A   1      39.624  33.585  37.125  1.00  0.00     0.023 A 
ATOM     66  C   UNL A   1      38.956  33.107  38.266  1.00  0.00     0.031 A 
ATOM     67  C   UNL A   1      39.968  34.946  37.080  1.00  0.00     0.131 A 
ATOM     68  C   UNL A   1      38.590  33.998  39.282  1.00  0.00     0.055 A 
ATOM     69  C   UNL A   1      39.659  35.818  38.124  1.00  0.00     0.041 A 
ATOM     70  F   UNL A   1      40.603  35.447  36.009  1.00  0.00    -0.206 F 
ATOM     71  C   UNL A   1      38.949  35.348  39.226  1.00  0.00     0.022 A 
BRANCH  68  72
ATOM     72  S   UNL A   1      37.545  33.449  40.659  1.00  0.00     0.124 S 
ATOM     73  O   UNL A   1      38.504  32.761  41.517  1.00  0.00    -0.237 OA
ATOM     74  O   UNL A   1      37.040  34.721  41.169  1.00  0.00    -0.237 OA
ATOM     75  O   UNL A   1      36.551  32.595  40.018  1.00  0.00    -0.744 OA
ENDBRANCH  68  72
ENDBRANCH  41  65
BRANCH  53  76
ATOM     76  C   UNL A   1      44.352  28.634  35.473  1.00  0.00     0.023 A 
ATOM     77  C   UNL A   1      44.175  27.584  36.395  1.00  0.00     0.031 A 
ATOM     78  C   UNL A   1      45.620  29.225  35.370  1.00  0.00     0.131 A 
ATOM     79  C   UNL A   1      45.234  27.199  37.224  1.00  0.00     0.055 A 
ATOM     80  C   UNL A   1      46.688  28.803  36.164  1.00  0.00     0.041 A 
ATOM     81  F   UNL A   1      45.836  30.233  34.511  1.00  0.00    -0.206 F 
ATOM     82  C   UNL A   1      46.492  27.799  37.109  1.00  0.00     0.022 A 
BRANCH  79  83
ATOM     83  S   UNL A   1      44.994  25.968  38.533  1.00  0.00     0.124 S 
ATOM     84  O   UNL A   1      46.367  25.707  38.961  1.00  0.00    -0.237 OA
ATOM     85  O   UNL A   1      44.170  26.697  39.493  1.00  0.00    -0.237 OA
ATOM     86  O   UNL A   1      44.337  24.855  37.855  1.00  0.00    -0.744 OA
ENDBRANCH  79  83
ENDBRANCH  53  76
ENDBRANCH  27  28
ENDBRANCH  19  22
ENDBRANCH  17  18
ENDBRANCH   1  17
TORSDOF 15
ENDMDL
