MODEL 1
REMARK VINA RESULT:     -12.6      0.000      0.000
REMARK SMILES Cc1ccc(F)c(C(=O)N[C@@H]2C=C[C@@H](C(=O)NCCCCNC(=O)c3ccc(-c4c5nc(c(-c6cc(S(=O)(=O)[O-])ccc6F)c6ccc([nH]6)c(-c6cc(S(=O)(=O)[O-])ccc6F)c6nc(c(-c7cc(S(=O)(=O)[O-])ccc7F)c7ccc4[nH]7)C=C6)C=C5)cc3)C2)c1
REMARK SMILES IDX 20 1 19 2 18 3 17 4 15 5 16 6 14 8 11 9 12 10 88 11 13 12
REMARK SMILES IDX 10 13 8 14 9 15 7 17 1 18 2 19 3 20 89 21 4 22 5 23 6 24
REMARK SMILES IDX 21 25 22 26 23 27 24 29 25 30 26 31 87 32 27 33 86 34 28 35
REMARK SMILES IDX 29 36 30 37 80 38 31 39 85 40 79 41 81 42 32 43 84 44 78 45
REMARK SMILES IDX 77 46 33 48 65 49 45 50 64 51 46 52 49 53 63 54 82 55 47 56
REMARK SMILES IDX 48 57 62 59 83 60 50 61 34 62 35 63 43 64 36 65 42 66 44 67
REMARK SMILES IDX 41 68 37 69 38 70 39 71 40 72 66 73 67 74 75 75 68 76 74 77
REMARK SMILES IDX 76 78 73 79 69 80 70 81 71 82 72 83 51 84 52 85 60 86 53 87
REMARK SMILES IDX 59 88 61 89 58 90 54 91 55 92 56 93 57 94
REMARK H PARENT 17 7 10 16 22 28 81 47 49 58
REMARK Flexibility Score: inf
ROOT
ATOM      1  C   UNL A   1      31.765  31.898  26.872  1.00  0.00     0.023 C 
ENDROOT
BRANCH   1   2
ATOM      2  C   UNL A   1      31.968  30.382  26.876  1.00  0.00     0.023 C 
BRANCH   2   3
ATOM      3  C   UNL A   1      32.720  29.825  25.668  1.00  0.00     0.116 C 
BRANCH   3   4
ATOM      4  N   UNL A   1      31.927  29.823  24.455  1.00  0.00    -0.356 N 
ATOM      5  C   UNL A   1      31.235  28.836  23.827  1.00  0.00     0.227 C 
ATOM      6  O   UNL A   1      30.497  29.181  22.897  1.00  0.00    -0.274 OA
ATOM      7  H   UNL A   1      31.880  30.697  24.005  1.00  0.00     0.163 HD
BRANCH   5   8
ATOM      8  C   UNL A   1      31.406  27.341  24.140  1.00  0.00     0.103 C 
ATOM      9  C   UNL A   1      29.764  26.013  25.409  1.00  0.00     0.106 C 
ATOM     10  C   UNL A   1      29.874  25.563  23.985  1.00  0.00    -0.006 C 
ATOM     11  C   UNL A   1      30.928  27.000  25.548  1.00  0.00     0.047 C 
ATOM     12  C   UNL A   1      30.716  26.331  23.281  1.00  0.00    -0.016 C 
BRANCH   9  13
ATOM     13  N   UNL A   1      29.791  24.879  26.307  1.00  0.00    -0.346 N 
ATOM     14  C   UNL A   1      30.679  23.827  26.403  1.00  0.00     0.254 C 
ATOM     15  O   UNL A   1      30.603  23.089  27.383  1.00  0.00    -0.269 OA
ATOM     16  H   UNL A   1      29.053  24.853  26.957  1.00  0.00     0.164 HD
BRANCH  14  17
ATOM     17  C   UNL A   1      31.654  23.524  25.324  1.00  0.00     0.075 A 
ATOM     18  C   UNL A   1      32.116  21.067  22.462  1.00  0.00     0.044 C 
ATOM     19  C   UNL A   1      32.388  22.184  23.429  1.00  0.00    -0.050 A 
ATOM     20  C   UNL A   1      33.686  22.678  23.583  1.00  0.00     0.006 A 
ATOM     21  C   UNL A   1      31.357  22.699  24.233  1.00  0.00     0.020 A 
ATOM     22  C   UNL A   1      33.961  23.617  24.575  1.00  0.00     0.040 A 
ATOM     23  C   UNL A   1      32.957  24.011  25.457  1.00  0.00     0.135 A 
ATOM     24  F   UNL A   1      33.298  24.826  26.466  1.00  0.00    -0.206 F 
ENDBRANCH  14  17
ENDBRANCH   9  13
ENDBRANCH   5   8
ENDBRANCH   3   4
ENDBRANCH   2   3
ENDBRANCH   1   2
BRANCH   1  25
ATOM     25  C   UNL A   1      32.995  32.706  27.271  1.00  0.00     0.116 C 
BRANCH  25  26
ATOM     26  N   UNL A   1      32.662  34.069  27.656  1.00  0.00    -0.352 N 
ATOM     27  C   UNL A   1      33.165  34.830  28.685  1.00  0.00     0.251 C 
ATOM     28  H   UNL A   1      31.980  34.510  27.100  1.00  0.00     0.163 HD
ATOM     29  O   UNL A   1      32.635  35.897  28.964  1.00  0.00    -0.269 OA
BRANCH  27  30
ATOM     30  C   UNL A   1      34.320  34.333  29.465  1.00  0.00     0.039 A 
ATOM     31  C   UNL A   1      34.083  33.659  30.664  1.00  0.00     0.014 A 
ATOM     32  C   UNL A   1      35.627  34.519  29.006  1.00  0.00     0.014 A 
ATOM     33  C   UNL A   1      35.158  33.118  31.372  1.00  0.00     0.010 A 
ATOM     34  C   UNL A   1      36.686  33.905  29.667  1.00  0.00     0.010 A 
ATOM     35  C   UNL A   1      36.464  33.203  30.861  1.00  0.00    -0.014 A 
BRANCH  35  36
ATOM     36  C   UNL A   1      37.604  32.565  31.569  1.00  0.00     0.031 A 
ATOM     37  C   UNL A   1      38.339  31.415  30.940  1.00  0.00     0.074 A 
ATOM     38  C   UNL A   1      37.938  32.989  32.803  1.00  0.00     0.049 A 
ATOM     39  N   UNL A   1      39.327  30.702  31.417  1.00  0.00    -0.248 NA
ATOM     40  C   UNL A   1      37.876  30.988  29.611  1.00  0.00     0.031 C 
ATOM     41  C   UNL A   1      37.258  34.056  33.542  1.00  0.00     0.029 A 
ATOM     42  N   UNL A   1      38.926  32.572  33.659  1.00  0.00    -0.354 N 
ATOM     43  C   UNL A   1      39.602  29.741  30.449  1.00  0.00     0.074 A 
ATOM     44  C   UNL A   1      38.616  29.912  29.402  1.00  0.00     0.031 C 
ATOM     45  C   UNL A   1      37.864  34.225  34.726  1.00  0.00     0.029 A 
ATOM     46  C   UNL A   1      38.943  33.252  34.855  1.00  0.00     0.049 A 
ATOM     47  H   UNL A   1      39.563  31.855  33.438  1.00  0.00     0.167 HD
ATOM     48  C   UNL A   1      40.602  28.823  30.421  1.00  0.00     0.034 A 
ATOM     49  C   UNL A   1      39.729  33.098  35.939  1.00  0.00     0.034 A 
ATOM     50  C   UNL A   1      41.566  28.664  31.483  1.00  0.00     0.049 A 
ATOM     51  C   UNL A   1      40.817  32.059  35.904  1.00  0.00     0.074 A 
ATOM     52  C   UNL A   1      42.647  27.802  31.546  1.00  0.00     0.029 A 
ATOM     53  N   UNL A   1      41.558  29.372  32.681  1.00  0.00    -0.354 N 
ATOM     54  N   UNL A   1      41.110  31.201  34.952  1.00  0.00    -0.248 NA
ATOM     55  C   UNL A   1      41.691  31.978  37.079  1.00  0.00     0.031 C 
ATOM     56  C   UNL A   1      43.240  27.931  32.808  1.00  0.00     0.029 A 
ATOM     57  C   UNL A   1      42.589  28.940  33.502  1.00  0.00     0.049 A 
ATOM     58  H   UNL A   1      40.912  30.079  32.912  1.00  0.00     0.167 HD
ATOM     59  C   UNL A   1      42.217  30.490  35.409  1.00  0.00     0.074 A 
ATOM     60  C   UNL A   1      42.551  31.042  36.708  1.00  0.00     0.031 C 
ATOM     61  C   UNL A   1      42.895  29.476  34.811  1.00  0.00     0.034 A 
BRANCH  48  62
ATOM     62  C   UNL A   1      40.666  27.913  29.214  1.00  0.00     0.023 A 
ATOM     63  C   UNL A   1      41.593  28.129  28.177  1.00  0.00     0.031 A 
ATOM     64  C   UNL A   1      39.750  26.857  29.060  1.00  0.00     0.131 A 
ATOM     65  C   UNL A   1      41.511  27.381  26.993  1.00  0.00     0.055 A 
ATOM     66  C   UNL A   1      39.742  26.049  27.920  1.00  0.00     0.041 A 
ATOM     67  F   UNL A   1      38.826  26.609  30.000  1.00  0.00    -0.206 F 
ATOM     68  C   UNL A   1      40.610  26.323  26.868  1.00  0.00     0.022 A 
BRANCH  65  69
ATOM     69  S   UNL A   1      42.458  27.946  25.551  1.00  0.00     0.124 S 
ATOM     70  O   UNL A   1      42.375  26.784  24.670  1.00  0.00    -0.237 OA
ATOM     71  O   UNL A   1      41.712  29.125  25.126  1.00  0.00    -0.237 OA
ATOM     72  O   UNL A   1      43.788  28.210  26.096  1.00  0.00    -0.744 OA
ENDBRANCH  65  69
ENDBRANCH  48  62
BRANCH  49  73
ATOM     73  C   UNL A   1      39.497  33.937  37.150  1.00  0.00     0.023 A 
ATOM     74  C   UNL A   1      38.855  33.423  38.287  1.00  0.00     0.031 A 
ATOM     75  C   UNL A   1      39.917  35.279  37.181  1.00  0.00     0.131 A 
ATOM     76  C   UNL A   1      38.621  34.255  39.394  1.00  0.00     0.055 A 
ATOM     77  C   UNL A   1      39.729  36.088  38.302  1.00  0.00     0.041 A 
ATOM     78  F   UNL A   1      40.543  35.819  36.122  1.00  0.00    -0.206 F 
ATOM     79  C   UNL A   1      39.067  35.579  39.415  1.00  0.00     0.022 A 
BRANCH  76  80
ATOM     80  S   UNL A   1      37.664  33.602  40.790  1.00  0.00     0.124 S 
ATOM     81  O   UNL A   1      37.358  34.817  41.535  1.00  0.00    -0.237 OA
ATOM     82  O   UNL A   1      36.539  32.964  40.114  1.00  0.00    -0.237 OA
ATOM     83  O   UNL A   1      38.597  32.686  41.442  1.00  0.00    -0.744 OA
ENDBRANCH  76  80
ENDBRANCH  49  73
BRANCH  61  84
ATOM     84  C   UNL A   1      44.087  28.920  35.556  1.00  0.00     0.023 A 
ATOM     85  C   UNL A   1      43.979  27.788  36.384  1.00  0.00     0.031 A 
ATOM     86  C   UNL A   1      45.341  29.549  35.463  1.00  0.00     0.131 A 
ATOM     87  C   UNL A   1      45.082  27.369  37.143  1.00  0.00     0.055 A 
ATOM     88  C   UNL A   1      46.455  29.080  36.161  1.00  0.00     0.041 A 
ATOM     89  F   UNL A   1      45.505  30.638  34.693  1.00  0.00    -0.206 F 
ATOM     90  C   UNL A   1      46.324  27.995  37.022  1.00  0.00     0.022 A 
BRANCH  87  91
ATOM     91  S   UNL A   1      44.835  26.075  38.392  1.00  0.00     0.124 S 
ATOM     92  O   UNL A   1      46.172  25.499  38.498  1.00  0.00    -0.237 OA
ATOM     93  O   UNL A   1      44.377  26.841  39.547  1.00  0.00    -0.237 OA
ATOM     94  O   UNL A   1      43.829  25.204  37.787  1.00  0.00    -0.744 OA
ENDBRANCH  87  91
ENDBRANCH  61  84
ENDBRANCH  35  36
ENDBRANCH  27  30
ENDBRANCH  25  26
ENDBRANCH   1  25
TORSDOF 16
ENDMDL
MODEL 2
REMARK VINA RESULT:     -12.5      1.454      2.023
REMARK SMILES Cc1ccc(F)c(C(=O)N[C@@H]2C=C[C@@H](C(=O)NCCCCNC(=O)c3ccc(-c4c5nc(c(-c6cc(S(=O)(=O)[O-])ccc6F)c6ccc([nH]6)c(-c6cc(S(=O)(=O)[O-])ccc6F)c6nc(c(-c7cc(S(=O)(=O)[O-])ccc7F)c7ccc4[nH]7)C=C6)C=C5)cc3)C2)c1
REMARK SMILES IDX 20 1 19 2 18 3 17 4 15 5 16 6 14 8 11 9 12 10 88 11 13 12
REMARK SMILES IDX 10 13 8 14 9 15 7 17 1 18 2 19 3 20 89 21 4 22 5 23 6 24
REMARK SMILES IDX 21 25 22 26 23 27 24 29 25 30 26 31 87 32 27 33 86 34 28 35
REMARK SMILES IDX 29 36 30 37 80 38 31 39 85 40 79 41 81 42 32 43 84 44 78 45
REMARK SMILES IDX 77 46 33 48 65 49 45 50 64 51 46 52 49 53 63 54 82 55 47 56
REMARK SMILES IDX 48 57 62 59 83 60 50 61 34 62 35 63 43 64 36 65 42 66 44 67
REMARK SMILES IDX 41 68 37 69 38 70 39 71 40 72 66 73 67 74 75 75 68 76 74 77
REMARK SMILES IDX 76 78 73 79 69 80 70 81 71 82 72 83 51 84 52 85 60 86 53 87
REMARK SMILES IDX 59 88 61 89 58 90 54 91 55 92 56 93 57 94
REMARK H PARENT 17 7 10 16 22 28 81 47 49 58
REMARK Flexibility Score: inf
ROOT
ATOM      1  C   UNL A   1      31.444  32.141  26.693  1.00  0.00     0.023 C 
ENDROOT
BRANCH   1   2
ATOM      2  C   UNL A   1      31.445  30.692  26.204  1.00  0.00     0.023 C 
BRANCH   2   3
ATOM      3  C   UNL A   1      32.253  29.719  27.062  1.00  0.00     0.116 C 
BRANCH   3   4
ATOM      4  N   UNL A   1      31.593  28.443  27.251  1.00  0.00    -0.356 N 
ATOM      5  C   UNL A   1      31.492  27.349  26.450  1.00  0.00     0.227 C 
ATOM      6  O   UNL A   1      31.012  26.330  26.961  1.00  0.00    -0.274 OA
ATOM      7  H   UNL A   1      31.135  28.352  28.117  1.00  0.00     0.163 HD
BRANCH   5   8
ATOM      8  C   UNL A   1      31.834  27.352  24.952  1.00  0.00     0.103 C 
ATOM      9  C   UNL A   1      31.911  25.318  23.563  1.00  0.00     0.106 C 
ATOM     10  C   UNL A   1      30.809  26.244  23.149  1.00  0.00    -0.006 C 
ATOM     11  C   UNL A   1      32.705  26.158  24.569  1.00  0.00     0.047 C 
ATOM     12  C   UNL A   1      30.726  27.315  23.949  1.00  0.00    -0.016 C 
BRANCH   9  13
ATOM     13  N   UNL A   1      32.651  24.855  22.409  1.00  0.00    -0.346 N 
ATOM     14  C   UNL A   1      33.169  23.612  22.110  1.00  0.00     0.254 C 
ATOM     15  O   UNL A   1      33.586  23.414  20.970  1.00  0.00    -0.269 OA
ATOM     16  H   UNL A   1      32.812  25.543  21.723  1.00  0.00     0.164 HD
BRANCH  14  17
ATOM     17  C   UNL A   1      33.306  22.552  23.142  1.00  0.00     0.075 A 
ATOM     18  C   UNL A   1      35.910  21.203  25.560  1.00  0.00     0.044 C 
ATOM     19  C   UNL A   1      34.622  21.349  24.800  1.00  0.00    -0.050 A 
ATOM     20  C   UNL A   1      33.709  20.292  24.755  1.00  0.00     0.006 A 
ATOM     21  C   UNL A   1      34.351  22.521  24.073  1.00  0.00     0.020 A 
ATOM     22  C   UNL A   1      32.582  20.378  23.941  1.00  0.00     0.040 A 
ATOM     23  C   UNL A   1      32.402  21.487  23.117  1.00  0.00     0.135 A 
ATOM     24  F   UNL A   1      31.366  21.471  22.267  1.00  0.00    -0.206 F 
ENDBRANCH  14  17
ENDBRANCH   9  13
ENDBRANCH   5   8
ENDBRANCH   3   4
ENDBRANCH   2   3
ENDBRANCH   1   2
BRANCH   1  25
ATOM     25  C   UNL A   1      32.788  32.638  27.216  1.00  0.00     0.116 C 
BRANCH  25  26
ATOM     26  N   UNL A   1      32.724  34.011  27.693  1.00  0.00    -0.352 N 
ATOM     27  C   UNL A   1      33.443  34.617  28.696  1.00  0.00     0.251 C 
ATOM     28  H   UNL A   1      32.075  34.589  27.231  1.00  0.00     0.163 HD
ATOM     29  O   UNL A   1      33.127  35.736  29.076  1.00  0.00    -0.269 OA
BRANCH  27  30
ATOM     30  C   UNL A   1      34.568  33.895  29.328  1.00  0.00     0.039 A 
ATOM     31  C   UNL A   1      35.871  34.185  28.920  1.00  0.00     0.014 A 
ATOM     32  C   UNL A   1      34.338  32.946  30.329  1.00  0.00     0.014 A 
ATOM     33  C   UNL A   1      36.946  33.568  29.559  1.00  0.00     0.010 A 
ATOM     34  C   UNL A   1      35.412  32.399  31.023  1.00  0.00     0.010 A 
ATOM     35  C   UNL A   1      36.729  32.698  30.642  1.00  0.00    -0.014 A 
BRANCH  35  36
ATOM     36  C   UNL A   1      37.870  32.094  31.377  1.00  0.00     0.031 A 
ATOM     37  C   UNL A   1      38.667  30.981  30.756  1.00  0.00     0.074 A 
ATOM     38  C   UNL A   1      38.148  32.512  32.627  1.00  0.00     0.049 A 
ATOM     39  N   UNL A   1      39.666  30.299  31.255  1.00  0.00    -0.248 NA
ATOM     40  C   UNL A   1      38.262  30.557  29.408  1.00  0.00     0.031 C 
ATOM     41  C   UNL A   1      37.406  33.541  33.358  1.00  0.00     0.029 A 
ATOM     42  N   UNL A   1      39.125  32.120  33.508  1.00  0.00    -0.354 N 
ATOM     43  C   UNL A   1      40.007  29.363  30.284  1.00  0.00     0.074 A 
ATOM     44  C   UNL A   1      39.048  29.512  29.208  1.00  0.00     0.031 C 
ATOM     45  C   UNL A   1      37.968  33.716  34.563  1.00  0.00     0.029 A 
ATOM     46  C   UNL A   1      39.079  32.782  34.713  1.00  0.00     0.049 A 
ATOM     47  H   UNL A   1      39.795  31.431  33.297  1.00  0.00     0.167 HD
ATOM     48  C   UNL A   1      41.041  28.484  30.275  1.00  0.00     0.034 A 
ATOM     49  C   UNL A   1      39.835  32.643  35.819  1.00  0.00     0.034 A 
ATOM     50  C   UNL A   1      41.978  28.346  31.365  1.00  0.00     0.049 A 
ATOM     51  C   UNL A   1      40.963  31.645  35.804  1.00  0.00     0.074 A 
ATOM     52  C   UNL A   1      43.088  27.524  31.450  1.00  0.00     0.029 A 
ATOM     53  N   UNL A   1      41.905  29.035  32.570  1.00  0.00    -0.354 N 
ATOM     54  N   UNL A   1      41.317  30.813  34.851  1.00  0.00    -0.248 NA
ATOM     55  C   UNL A   1      41.802  31.581  37.005  1.00  0.00     0.031 C 
ATOM     56  C   UNL A   1      43.636  27.657  32.732  1.00  0.00     0.029 A 
ATOM     57  C   UNL A   1      42.926  28.630  33.419  1.00  0.00     0.049 A 
ATOM     58  H   UNL A   1      41.226  29.714  32.790  1.00  0.00     0.167 HD
ATOM     59  C   UNL A   1      42.436  30.138  35.333  1.00  0.00     0.074 A 
ATOM     60  C   UNL A   1      42.708  30.683  36.649  1.00  0.00     0.031 C 
ATOM     61  C   UNL A   1      43.171  29.158  34.743  1.00  0.00     0.034 A 
BRANCH  48  62
ATOM     62  C   UNL A   1      41.177  27.594  29.058  1.00  0.00     0.023 A 
ATOM     63  C   UNL A   1      42.204  27.789  28.115  1.00  0.00     0.031 A 
ATOM     64  C   UNL A   1      40.236  26.582  28.798  1.00  0.00     0.131 A 
ATOM     65  C   UNL A   1      42.199  27.068  26.911  1.00  0.00     0.055 A 
ATOM     66  C   UNL A   1      40.299  25.796  27.645  1.00  0.00     0.041 A 
ATOM     67  F   UNL A   1      39.221  26.357  29.645  1.00  0.00    -0.206 F 
ATOM     68  C   UNL A   1      41.270  26.052  26.681  1.00  0.00     0.022 A 
BRANCH  65  69
ATOM     69  S   UNL A   1      43.296  27.617  25.574  1.00  0.00     0.124 S 
ATOM     70  O   UNL A   1      43.980  28.747  26.198  1.00  0.00    -0.237 OA
ATOM     71  O   UNL A   1      44.111  26.433  25.328  1.00  0.00    -0.237 OA
ATOM     72  O   UNL A   1      42.373  27.976  24.499  1.00  0.00    -0.744 OA
ENDBRANCH  65  69
ENDBRANCH  48  62
BRANCH  49  73
ATOM     73  C   UNL A   1      39.535  33.454  37.033  1.00  0.00     0.023 A 
ATOM     74  C   UNL A   1      38.908  32.892  38.156  1.00  0.00     0.031 A 
ATOM     75  C   UNL A   1      39.870  34.820  37.081  1.00  0.00     0.131 A 
ATOM     76  C   UNL A   1      38.607  33.698  39.266  1.00  0.00     0.055 A 
ATOM     77  C   UNL A   1      39.616  35.605  38.206  1.00  0.00     0.041 A 
ATOM     78  F   UNL A   1      40.477  35.407  36.037  1.00  0.00    -0.206 F 
ATOM     79  C   UNL A   1      38.971  35.046  39.304  1.00  0.00     0.022 A 
BRANCH  76  80
ATOM     80  S   UNL A   1      37.672  32.975  40.641  1.00  0.00     0.124 S 
ATOM     81  O   UNL A   1      37.984  33.893  41.729  1.00  0.00    -0.237 OA
ATOM     82  O   UNL A   1      36.304  33.022  40.135  1.00  0.00    -0.237 OA
ATOM     83  O   UNL A   1      38.239  31.634  40.770  1.00  0.00    -0.744 OA
ENDBRANCH  76  80
ENDBRANCH  49  73
BRANCH  61  84
ATOM     84  C   UNL A   1      44.359  28.637  35.518  1.00  0.00     0.023 A 
ATOM     85  C   UNL A   1      44.242  27.557  36.413  1.00  0.00     0.031 A 
ATOM     86  C   UNL A   1      45.618  29.248  35.386  1.00  0.00     0.131 A 
ATOM     87  C   UNL A   1      45.344  27.174  37.193  1.00  0.00     0.055 A 
ATOM     88  C   UNL A   1      46.730  28.811  36.109  1.00  0.00     0.041 A 
ATOM     89  F   UNL A   1      45.791  30.287  34.552  1.00  0.00    -0.206 F 
ATOM     90  C   UNL A   1      46.591  27.780  37.033  1.00  0.00     0.022 A 
BRANCH  87  91
ATOM     91  S   UNL A   1      45.087  25.959  38.518  1.00  0.00     0.124 S 
ATOM     92  O   UNL A   1      44.065  25.093  37.939  1.00  0.00    -0.237 OA
ATOM     93  O   UNL A   1      46.415  25.372  38.662  1.00  0.00    -0.237 OA
ATOM     94  O   UNL A   1      44.644  26.775  39.647  1.00  0.00    -0.744 OA
ENDBRANCH  87  91
ENDBRANCH  61  84
ENDBRANCH  35  36
ENDBRANCH  27  30
ENDBRANCH  25  26
ENDBRANCH   1  25
TORSDOF 16
ENDMDL
MODEL 3
REMARK VINA RESULT:     -12.5      3.355      8.655
REMARK SMILES Cc1ccc(F)c(C(=O)N[C@@H]2C=C[C@@H](C(=O)NCCCCNC(=O)c3ccc(-c4c5nc(c(-c6cc(S(=O)(=O)[O-])ccc6F)c6ccc([nH]6)c(-c6cc(S(=O)(=O)[O-])ccc6F)c6nc(c(-c7cc(S(=O)(=O)[O-])ccc7F)c7ccc4[nH]7)C=C6)C=C5)cc3)C2)c1
REMARK SMILES IDX 20 1 19 2 18 3 17 4 15 5 16 6 14 8 11 9 12 10 88 11 13 12
REMARK SMILES IDX 10 13 8 14 9 15 7 17 1 18 2 19 3 20 89 21 4 22 5 23 6 24
REMARK SMILES IDX 21 25 22 26 23 27 24 29 25 30 26 31 87 32 27 33 86 34 28 35
REMARK SMILES IDX 29 36 30 37 80 38 31 39 85 40 79 41 81 42 32 43 84 44 78 45
REMARK SMILES IDX 77 46 33 48 65 49 45 50 64 51 46 52 49 53 63 54 82 55 47 56
REMARK SMILES IDX 48 57 62 59 83 60 50 61 34 62 35 63 43 64 36 65 42 66 44 67
REMARK SMILES IDX 41 68 37 69 38 70 39 71 40 72 66 73 67 74 75 75 68 76 74 77
REMARK SMILES IDX 76 78 73 79 69 80 70 81 71 82 72 83 51 84 52 85 60 86 53 87
REMARK SMILES IDX 59 88 61 89 58 90 54 91 55 92 56 93 57 94
REMARK H PARENT 17 7 10 16 22 28 81 47 49 58
REMARK Flexibility Score: inf
ROOT
ATOM      1  C   UNL A   1      33.662  27.733  25.088  1.00  0.00     0.023 C 
ENDROOT
BRANCH   1   2
ATOM      2  C   UNL A   1      33.653  28.861  24.055  1.00  0.00     0.023 C 
BRANCH   2   3
ATOM      3  C   UNL A   1      32.795  28.601  22.818  1.00  0.00     0.116 C 
BRANCH   3   4
ATOM      4  N   UNL A   1      33.264  27.483  22.025  1.00  0.00    -0.356 N 
ATOM      5  C   UNL A   1      32.657  26.330  21.636  1.00  0.00     0.227 C 
ATOM      6  O   UNL A   1      33.256  25.642  20.802  1.00  0.00    -0.274 OA
ATOM      7  H   UNL A   1      34.192  27.576  21.709  1.00  0.00     0.163 HD
BRANCH   5   8
ATOM      8  C   UNL A   1      31.350  25.804  22.249  1.00  0.00     0.103 C 
ATOM      9  C   UNL A   1      31.178  24.904  24.536  1.00  0.00     0.106 C 
ATOM     10  C   UNL A   1      30.400  26.173  24.368  1.00  0.00    -0.006 C 
ATOM     11  C   UNL A   1      31.586  24.559  23.101  1.00  0.00     0.047 C 
ATOM     12  C   UNL A   1      30.552  26.695  23.144  1.00  0.00    -0.016 C 
BRANCH   9  13
ATOM     13  N   UNL A   1      30.386  23.906  25.221  1.00  0.00    -0.346 N 
ATOM     14  C   UNL A   1      30.749  22.704  25.793  1.00  0.00     0.254 C 
ATOM     15  O   UNL A   1      29.926  22.122  26.497  1.00  0.00    -0.269 OA
ATOM     16  H   UNL A   1      29.427  24.119  25.289  1.00  0.00     0.164 HD
BRANCH  14  17
ATOM     17  C   UNL A   1      32.063  22.070  25.515  1.00  0.00     0.075 A 
ATOM     18  C   UNL A   1      33.459  18.825  24.113  1.00  0.00     0.044 C 
ATOM     19  C   UNL A   1      33.401  20.192  24.733  1.00  0.00    -0.050 A 
ATOM     20  C   UNL A   1      34.514  20.708  25.403  1.00  0.00     0.006 A 
ATOM     21  C   UNL A   1      32.211  20.940  24.703  1.00  0.00     0.020 A 
ATOM     22  C   UNL A   1      34.415  21.914  26.092  1.00  0.00     0.040 A 
ATOM     23  C   UNL A   1      33.190  22.571  26.172  1.00  0.00     0.135 A 
ATOM     24  F   UNL A   1      33.118  23.666  26.943  1.00  0.00    -0.206 F 
ENDBRANCH  14  17
ENDBRANCH   9  13
ENDBRANCH   5   8
ENDBRANCH   3   4
ENDBRANCH   2   3
ENDBRANCH   1   2
BRANCH   1  25
ATOM     25  C   UNL A   1      33.787  28.195  26.536  1.00  0.00     0.116 C 
BRANCH  25  26
ATOM     26  N   UNL A   1      33.549  29.623  26.685  1.00  0.00    -0.352 N 
ATOM     27  C   UNL A   1      34.270  30.555  27.393  1.00  0.00     0.251 C 
ATOM     28  H   UNL A   1      32.759  29.971  26.212  1.00  0.00     0.163 HD
ATOM     29  O   UNL A   1      33.816  31.681  27.548  1.00  0.00    -0.269 OA
BRANCH  27  30
ATOM     30  C   UNL A   1      35.570  30.176  27.988  1.00  0.00     0.039 A 
ATOM     31  C   UNL A   1      35.596  29.679  29.292  1.00  0.00     0.014 A 
ATOM     32  C   UNL A   1      36.755  30.298  27.255  1.00  0.00     0.014 A 
ATOM     33  C   UNL A   1      36.805  29.247  29.839  1.00  0.00     0.010 A 
ATOM     34  C   UNL A   1      37.941  29.786  27.770  1.00  0.00     0.010 A 
ATOM     35  C   UNL A   1      37.981  29.260  29.070  1.00  0.00    -0.014 A 
BRANCH  35  36
ATOM     36  C   UNL A   1      39.258  28.732  29.618  1.00  0.00     0.031 A 
ATOM     37  C   UNL A   1      39.896  29.384  30.813  1.00  0.00     0.074 A 
ATOM     38  C   UNL A   1      39.867  27.701  29.002  1.00  0.00     0.049 A 
ATOM     39  N   UNL A   1      41.026  29.099  31.408  1.00  0.00    -0.248 NA
ATOM     40  C   UNL A   1      39.185  30.533  31.392  1.00  0.00     0.031 C 
ATOM     41  C   UNL A   1      39.375  27.027  27.799  1.00  0.00     0.029 A 
ATOM     42  N   UNL A   1      41.035  27.043  29.296  1.00  0.00    -0.354 N 
ATOM     43  C   UNL A   1      41.162  30.034  32.428  1.00  0.00     0.074 A 
ATOM     44  C   UNL A   1      40.044  30.945  32.310  1.00  0.00     0.031 C 
ATOM     45  C   UNL A   1      40.220  26.037  27.473  1.00  0.00     0.029 A 
ATOM     46  C   UNL A   1      41.337  26.034  28.412  1.00  0.00     0.049 A 
ATOM     47  H   UNL A   1      41.602  27.271  30.067  1.00  0.00     0.167 HD
ATOM     48  C   UNL A   1      42.114  30.106  33.394  1.00  0.00     0.034 A 
ATOM     49  C   UNL A   1      42.400  25.208  28.353  1.00  0.00     0.034 A 
ATOM     50  C   UNL A   1      43.228  29.193  33.485  1.00  0.00     0.049 A 
ATOM     51  C   UNL A   1      43.461  25.318  29.416  1.00  0.00     0.074 A 
ATOM     52  C   UNL A   1      44.227  29.140  34.442  1.00  0.00     0.029 A 
ATOM     53  N   UNL A   1      43.502  28.178  32.574  1.00  0.00    -0.354 N 
ATOM     54  N   UNL A   1      43.543  26.164  30.418  1.00  0.00    -0.248 NA
ATOM     55  C   UNL A   1      44.562  24.352  29.351  1.00  0.00     0.031 C 
ATOM     56  C   UNL A   1      45.144  28.152  34.066  1.00  0.00     0.029 A 
ATOM     57  C   UNL A   1      44.673  27.520  32.925  1.00  0.00     0.049 A 
ATOM     58  H   UNL A   1      42.945  27.957  31.793  1.00  0.00     0.167 HD
ATOM     59  C   UNL A   1      44.698  25.818  31.115  1.00  0.00     0.074 A 
ATOM     60  C   UNL A   1      45.260  24.669  30.430  1.00  0.00     0.031 C 
ATOM     61  C   UNL A   1      45.243  26.394  32.217  1.00  0.00     0.034 A 
BRANCH  48  62
ATOM     62  C   UNL A   1      41.992  31.234  34.397  1.00  0.00     0.023 A 
ATOM     63  C   UNL A   1      41.010  31.217  35.406  1.00  0.00     0.031 A 
ATOM     64  C   UNL A   1      42.817  32.369  34.307  1.00  0.00     0.131 A 
ATOM     65  C   UNL A   1      40.805  32.353  36.205  1.00  0.00     0.055 A 
ATOM     66  C   UNL A   1      42.674  33.454  35.176  1.00  0.00     0.041 A 
ATOM     67  F   UNL A   1      43.758  32.458  33.356  1.00  0.00    -0.206 F 
ATOM     68  C   UNL A   1      41.649  33.461  36.117  1.00  0.00     0.022 A 
BRANCH  65  69
ATOM     69  S   UNL A   1      39.298  32.434  37.214  1.00  0.00     0.124 S 
ATOM     70  O   UNL A   1      39.851  32.541  38.562  1.00  0.00    -0.237 OA
ATOM     71  O   UNL A   1      38.638  33.628  36.697  1.00  0.00    -0.237 OA
ATOM     72  O   UNL A   1      38.623  31.171  36.924  1.00  0.00    -0.744 OA
ENDBRANCH  65  69
ENDBRANCH  48  62
BRANCH  49  73
ATOM     73  C   UNL A   1      42.519  24.225  27.238  1.00  0.00     0.023 A 
ATOM     74  C   UNL A   1      41.927  22.955  27.313  1.00  0.00     0.031 A 
ATOM     75  C   UNL A   1      43.240  24.548  26.074  1.00  0.00     0.131 A 
ATOM     76  C   UNL A   1      42.094  22.042  26.259  1.00  0.00     0.055 A 
ATOM     77  C   UNL A   1      43.360  23.658  25.007  1.00  0.00     0.041 A 
ATOM     78  F   UNL A   1      43.821  25.753  25.948  1.00  0.00    -0.206 F 
ATOM     79  C   UNL A   1      42.792  22.391  25.100  1.00  0.00     0.022 A 
BRANCH  76  80
ATOM     80  S   UNL A   1      41.437  20.362  26.447  1.00  0.00     0.124 S 
ATOM     81  O   UNL A   1      41.815  20.047  27.819  1.00  0.00    -0.237 OA
ATOM     82  O   UNL A   1      40.013  20.566  26.204  1.00  0.00    -0.237 OA
ATOM     83  O   UNL A   1      42.140  19.605  25.413  1.00  0.00    -0.744 OA
ENDBRANCH  76  80
ENDBRANCH  49  73
BRANCH  61  84
ATOM     84  C   UNL A   1      46.505  25.765  32.763  1.00  0.00     0.023 A 
ATOM     85  C   UNL A   1      46.461  24.725  33.711  1.00  0.00     0.031 A 
ATOM     86  C   UNL A   1      47.766  26.232  32.356  1.00  0.00     0.131 A 
ATOM     87  C   UNL A   1      47.653  24.243  34.273  1.00  0.00     0.055 A 
ATOM     88  C   UNL A   1      48.950  25.694  32.863  1.00  0.00     0.041 A 
ATOM     89  F   UNL A   1      47.871  27.226  31.460  1.00  0.00    -0.206 F 
ATOM     90  C   UNL A   1      48.897  24.706  33.842  1.00  0.00     0.022 A 
BRANCH  87  91
ATOM     91  S   UNL A   1      47.547  23.095  35.676  1.00  0.00     0.124 S 
ATOM     92  O   UNL A   1      46.106  23.004  35.883  1.00  0.00    -0.237 OA
ATOM     93  O   UNL A   1      48.193  21.898  35.147  1.00  0.00    -0.237 OA
ATOM     94  O   UNL A   1      48.285  23.782  36.735  1.00  0.00    -0.744 OA
ENDBRANCH  87  91
ENDBRANCH  61  84
ENDBRANCH  35  36
ENDBRANCH  27  30
ENDBRANCH  25  26
ENDBRANCH   1  25
TORSDOF 16
ENDMDL
