MODEL 1
REMARK VINA RESULT:     -13.1      0.000      0.000
REMARK SMILES O=C(NCCCCNC(=O)[C@H](c1c[nH]c2cc(F)ccc12)[NH+]1CC[NH+](CC(=O)N2CCOCC2)CC1)c1ccc(-c2c3nc(c(-c4cc(S(=O)(=O)[O-])ccc4F)c4ccc([nH]4)c(-c4cc(S(=O)(=O)[O-])ccc4F)c4nc(c(-c5cc(S(=O)(=O)[O-])ccc5F)c5ccc2[nH]5)C=C4)C=C3)cc1
REMARK SMILES IDX 5 1 4 2 3 3 1 4 2 5 37 7 38 8 99 9 39 10 98 11 40 12 41 13
REMARK SMILES IDX 42 14 92 15 43 16 97 17 91 18 93 19 44 20 96 21 90 22 89 23
REMARK SMILES IDX 45 25 77 26 57 27 76 28 58 29 61 30 75 31 94 32 59 33 60 34
REMARK SMILES IDX 74 36 95 37 62 38 46 39 47 40 55 41 48 42 54 43 56 44 53 45
REMARK SMILES IDX 49 46 50 47 51 48 52 49 78 50 79 51 87 52 80 53 86 54 88 55
REMARK SMILES IDX 85 56 81 57 82 58 83 59 84 60 63 61 64 62 72 63 65 64 71 65
REMARK SMILES IDX 73 66 70 67 66 68 67 69 68 70 69 71 6 72 7 73 8 74 9 75
REMARK SMILES IDX 10 77 11 78 22 79 23 80 36 81 24 83 35 84 25 85 26 87 27 88
REMARK SMILES IDX 28 89 29 90 30 91 34 92 31 93 33 94 32 95 12 96 13 97 21 98
REMARK SMILES IDX 14 99 15 100 20 101 16 103 19 104 17 105 18 106
REMARK H PARENT 3 6 93 24 61 35 8 76 22 82 25 86 14 102
REMARK Flexibility Score: inf
ROOT
ATOM      1  C   UNL A   1      31.755  31.183  26.960  1.00  0.00     0.023 C 
ENDROOT
BRANCH   1   2
ATOM      2  C   UNL A   1      32.951  32.098  27.073  1.00  0.00     0.116 C 
BRANCH   2   3
ATOM      3  N   UNL A   1      32.572  33.451  27.457  1.00  0.00    -0.352 N 
ATOM      4  O   UNL A   1      32.672  35.291  28.775  1.00  0.00    -0.269 OA
ATOM      5  C   UNL A   1      33.161  34.224  28.423  1.00  0.00     0.251 C 
ATOM      6  H   UNL A   1      31.815  33.852  26.972  1.00  0.00     0.163 HD
BRANCH   5   7
ATOM      7  C   UNL A   1      34.394  33.700  29.029  1.00  0.00     0.039 A 
ATOM      8  C   UNL A   1      34.288  32.739  30.041  1.00  0.00     0.014 A 
ATOM      9  C   UNL A   1      35.622  34.256  28.677  1.00  0.00     0.014 A 
ATOM     10  C   UNL A   1      35.407  32.411  30.782  1.00  0.00     0.010 A 
ATOM     11  C   UNL A   1      36.764  33.841  29.355  1.00  0.00     0.010 A 
ATOM     12  C   UNL A   1      36.660  32.918  30.408  1.00  0.00    -0.014 A 
BRANCH  12  13
ATOM     13  C   UNL A   1      37.871  32.331  31.020  1.00  0.00     0.031 A 
ATOM     14  C   UNL A   1      38.601  31.196  30.373  1.00  0.00     0.074 A 
ATOM     15  C   UNL A   1      38.268  32.850  32.198  1.00  0.00     0.049 A 
ATOM     16  N   UNL A   1      39.621  30.520  30.828  1.00  0.00    -0.248 NA
ATOM     17  C   UNL A   1      38.121  30.751  29.055  1.00  0.00     0.031 C 
ATOM     18  C   UNL A   1      37.601  33.957  32.896  1.00  0.00     0.029 A 
ATOM     19  N   UNL A   1      39.311  32.527  33.021  1.00  0.00    -0.354 N 
ATOM     20  C   UNL A   1      39.893  29.549  29.872  1.00  0.00     0.074 A 
ATOM     21  C   UNL A   1      38.924  29.722  28.810  1.00  0.00     0.031 C 
ATOM     22  C   UNL A   1      38.266  34.236  34.023  1.00  0.00     0.029 A 
ATOM     23  C   UNL A   1      39.340  33.268  34.179  1.00  0.00     0.049 A 
ATOM     24  H   UNL A   1      39.976  31.833  32.806  1.00  0.00     0.167 HD
ATOM     25  C   UNL A   1      40.862  28.602  29.901  1.00  0.00     0.034 A 
ATOM     26  C   UNL A   1      40.108  33.145  35.276  1.00  0.00     0.034 A 
ATOM     27  C   UNL A   1      41.818  28.477  30.975  1.00  0.00     0.049 A 
ATOM     28  C   UNL A   1      41.139  32.054  35.291  1.00  0.00     0.074 A 
ATOM     29  C   UNL A   1      42.898  27.616  31.069  1.00  0.00     0.029 A 
ATOM     30  N   UNL A   1      41.796  29.217  32.151  1.00  0.00    -0.354 N 
ATOM     31  N   UNL A   1      41.418  31.175  34.356  1.00  0.00    -0.248 NA
ATOM     32  C   UNL A   1      41.950  31.929  36.506  1.00  0.00     0.031 C 
ATOM     33  C   UNL A   1      43.480  27.783  32.330  1.00  0.00     0.029 A 
ATOM     34  C   UNL A   1      42.809  28.796  32.998  1.00  0.00     0.049 A 
ATOM     35  H   UNL A   1      41.155  29.935  32.353  1.00  0.00     0.167 HD
ATOM     36  C   UNL A   1      42.443  30.393  34.870  1.00  0.00     0.074 A 
ATOM     37  C   UNL A   1      42.752  30.927  36.183  1.00  0.00     0.031 C 
ATOM     38  C   UNL A   1      43.072  29.328  34.313  1.00  0.00     0.034 A 
BRANCH  25  39
ATOM     39  C   UNL A   1      40.906  27.595  28.780  1.00  0.00     0.023 A 
ATOM     40  C   UNL A   1      41.853  27.663  27.745  1.00  0.00     0.031 A 
ATOM     41  C   UNL A   1      39.994  26.522  28.772  1.00  0.00     0.131 A 
ATOM     42  C   UNL A   1      41.845  26.695  26.726  1.00  0.00     0.055 A 
ATOM     43  C   UNL A   1      40.029  25.531  27.790  1.00  0.00     0.041 A 
ATOM     44  F   UNL A   1      39.054  26.419  29.725  1.00  0.00    -0.206 F 
ATOM     45  C   UNL A   1      40.955  25.618  26.755  1.00  0.00     0.022 A 
BRANCH  42  46
ATOM     46  S   UNL A   1      42.963  26.906  25.313  1.00  0.00     0.124 S 
ATOM     47  O   UNL A   1      42.836  25.616  24.640  1.00  0.00    -0.237 OA
ATOM     48  O   UNL A   1      42.383  28.050  24.619  1.00  0.00    -0.237 OA
ATOM     49  O   UNL A   1      44.263  27.149  25.937  1.00  0.00    -0.744 OA
ENDBRANCH  42  46
ENDBRANCH  25  39
BRANCH  26  50
ATOM     50  C   UNL A   1      39.871  34.016  36.460  1.00  0.00     0.023 A 
ATOM     51  C   UNL A   1      39.330  33.498  37.642  1.00  0.00     0.031 A 
ATOM     52  C   UNL A   1      40.165  35.393  36.414  1.00  0.00     0.131 A 
ATOM     53  C   UNL A   1      39.056  34.356  38.719  1.00  0.00     0.055 A 
ATOM     54  C   UNL A   1      39.949  36.230  37.509  1.00  0.00     0.041 A 
ATOM     55  F   UNL A   1      40.690  35.941  35.306  1.00  0.00    -0.206 F 
ATOM     56  C   UNL A   1      39.377  35.715  38.666  1.00  0.00     0.022 A 
BRANCH  53  57
ATOM     57  S   UNL A   1      38.179  33.685  40.157  1.00  0.00     0.124 S 
ATOM     58  O   UNL A   1      36.961  33.164  39.546  1.00  0.00    -0.237 OA
ATOM     59  O   UNL A   1      39.125  32.691  40.650  1.00  0.00    -0.237 OA
ATOM     60  O   UNL A   1      37.996  34.853  41.016  1.00  0.00    -0.744 OA
ENDBRANCH  53  57
ENDBRANCH  26  50
BRANCH  38  61
ATOM     61  C   UNL A   1      44.159  28.692  35.136  1.00  0.00     0.023 A 
ATOM     62  C   UNL A   1      43.872  27.660  36.045  1.00  0.00     0.031 A 
ATOM     63  C   UNL A   1      45.487  29.140  35.030  1.00  0.00     0.131 A 
ATOM     64  C   UNL A   1      44.894  27.141  36.852  1.00  0.00     0.055 A 
ATOM     65  C   UNL A   1      46.509  28.579  35.794  1.00  0.00     0.041 A 
ATOM     66  F   UNL A   1      45.807  30.128  34.179  1.00  0.00    -0.206 F 
ATOM     67  C   UNL A   1      46.213  27.583  36.719  1.00  0.00     0.022 A 
BRANCH  64  68
ATOM     68  S   UNL A   1      44.461  25.932  38.132  1.00  0.00     0.124 S 
ATOM     69  O   UNL A   1      45.527  26.130  39.108  1.00  0.00    -0.237 OA
ATOM     70  O   UNL A   1      43.131  26.372  38.543  1.00  0.00    -0.237 OA
ATOM     71  O   UNL A   1      44.497  24.655  37.422  1.00  0.00    -0.744 OA
ENDBRANCH  64  68
ENDBRANCH  38  61
ENDBRANCH  12  13
ENDBRANCH   5   7
ENDBRANCH   2   3
ENDBRANCH   1   2
BRANCH   1  72
ATOM     72  C   UNL A   1      31.805  30.293  25.727  1.00  0.00     0.023 C 
BRANCH  72  73
ATOM     73  C   UNL A   1      32.819  29.156  25.821  1.00  0.00     0.116 C 
BRANCH  73  74
ATOM     74  N   UNL A   1      32.242  28.040  26.534  1.00  0.00    -0.351 N 
ATOM     75  C   UNL A   1      31.276  27.180  26.078  1.00  0.00     0.283 C 
ATOM     76  H   UNL A   1      32.579  27.881  27.445  1.00  0.00     0.163 HD
ATOM     77  O   UNL A   1      30.724  26.479  26.932  1.00  0.00    -0.268 OA
BRANCH  75  78
ATOM     78  C   UNL A   1      31.059  27.031  24.545  1.00  0.00     0.308 C 
BRANCH  78  79
ATOM     79  N   UNL A   1      31.521  25.730  24.051  1.00  0.00    -0.312 N 
ATOM     80  C   UNL A   1      31.460  25.461  22.609  1.00  0.00     0.325 C 
ATOM     81  C   UNL A   1      32.726  25.252  24.700  1.00  0.00     0.325 C 
ATOM     82  H   UNL A   1      30.760  25.131  24.369  1.00  0.00     0.349 HD
ATOM     83  C   UNL A   1      32.808  25.398  21.835  1.00  0.00     0.325 C 
ATOM     84  C   UNL A   1      34.031  25.411  23.912  1.00  0.00     0.325 C 
ATOM     85  N   UNL A   1      33.976  24.873  22.557  1.00  0.00    -0.318 N 
ATOM     86  H   UNL A   1      34.794  25.230  22.062  1.00  0.00     0.348 HD
BRANCH  85  87
ATOM     87  C   UNL A   1      34.221  23.429  22.440  1.00  0.00     0.364 C 
BRANCH  87  88
ATOM     88  C   UNL A   1      35.132  22.762  23.479  1.00  0.00     0.277 C 
ATOM     89  O   UNL A   1      36.353  22.946  23.420  1.00  0.00    -0.268 OA
ATOM     90  N   UNL A   1      34.564  22.074  24.549  1.00  0.00    -0.333 N 
ATOM     91  C   UNL A   1      33.251  21.420  24.566  1.00  0.00     0.148 C 
ATOM     92  C   UNL A   1      35.447  21.639  25.634  1.00  0.00     0.148 C 
ATOM     93  C   UNL A   1      32.606  21.404  25.949  1.00  0.00     0.181 C 
ATOM     94  C   UNL A   1      34.712  21.644  26.979  1.00  0.00     0.181 C 
ATOM     95  O   UNL A   1      33.505  20.868  26.927  1.00  0.00    -0.378 OA
ENDBRANCH  87  88
ENDBRANCH  85  87
ENDBRANCH  78  79
BRANCH  78  96
ATOM     96  C   UNL A   1      29.695  27.369  23.991  1.00  0.00     0.044 A 
ATOM     97  C   UNL A   1      28.500  26.689  24.157  1.00  0.00     0.094 A 
ATOM     98  C   UNL A   1      29.399  28.495  23.137  1.00  0.00     0.009 A 
ATOM     99  N   UNL A   1      27.514  27.361  23.487  1.00  0.00    -0.361 N 
ATOM    100  C   UNL A   1      28.035  28.459  22.846  1.00  0.00     0.049 A 
ATOM    101  C   UNL A   1      30.177  29.542  22.587  1.00  0.00     0.014 A 
ATOM    102  H   UNL A   1      26.565  27.095  23.466  1.00  0.00     0.166 HD
ATOM    103  C   UNL A   1      27.411  29.415  22.034  1.00  0.00     0.065 A 
ATOM    104  C   UNL A   1      29.571  30.498  21.767  1.00  0.00     0.040 A 
ATOM    105  C   UNL A   1      28.212  30.424  21.502  1.00  0.00     0.125 A 
ATOM    106  F   UNL A   1      27.653  31.348  20.707  1.00  0.00    -0.207 F 
ENDBRANCH  78  96
ENDBRANCH  75  78
ENDBRANCH  73  74
ENDBRANCH  72  73
ENDBRANCH   1  72
TORSDOF 18
ENDMDL
MODEL 2
REMARK VINA RESULT:     -13.0      1.454      1.935
REMARK SMILES O=C(NCCCCNC(=O)[C@H](c1c[nH]c2cc(F)ccc12)[NH+]1CC[NH+](CC(=O)N2CCOCC2)CC1)c1ccc(-c2c3nc(c(-c4cc(S(=O)(=O)[O-])ccc4F)c4ccc([nH]4)c(-c4cc(S(=O)(=O)[O-])ccc4F)c4nc(c(-c5cc(S(=O)(=O)[O-])ccc5F)c5ccc2[nH]5)C=C4)C=C3)cc1
REMARK SMILES IDX 5 1 4 2 3 3 1 4 2 5 37 7 38 8 99 9 39 10 98 11 40 12 41 13
REMARK SMILES IDX 42 14 92 15 43 16 97 17 91 18 93 19 44 20 96 21 90 22 89 23
REMARK SMILES IDX 45 25 77 26 57 27 76 28 58 29 61 30 75 31 94 32 59 33 60 34
REMARK SMILES IDX 74 36 95 37 62 38 46 39 47 40 55 41 48 42 54 43 56 44 53 45
REMARK SMILES IDX 49 46 50 47 51 48 52 49 78 50 79 51 87 52 80 53 86 54 88 55
REMARK SMILES IDX 85 56 81 57 82 58 83 59 84 60 63 61 64 62 72 63 65 64 71 65
REMARK SMILES IDX 73 66 70 67 66 68 67 69 68 70 69 71 6 72 7 73 8 74 9 75
REMARK SMILES IDX 10 77 11 78 22 79 23 80 36 81 24 83 35 84 25 85 26 87 27 88
REMARK SMILES IDX 28 89 29 90 30 91 34 92 31 93 33 94 32 95 12 96 13 97 21 98
REMARK SMILES IDX 14 99 15 100 20 101 16 103 19 104 17 105 18 106
REMARK H PARENT 3 6 93 24 61 35 8 76 22 82 25 86 14 102
REMARK Flexibility Score: inf
ROOT
ATOM      1  C   UNL A   1      31.565  31.679  26.888  1.00  0.00     0.023 C 
ENDROOT
BRANCH   1   2
ATOM      2  C   UNL A   1      32.836  32.435  27.194  1.00  0.00     0.116 C 
BRANCH   2   3
ATOM      3  N   UNL A   1      32.572  33.802  27.621  1.00  0.00    -0.352 N 
ATOM      4  O   UNL A   1      32.818  35.583  29.000  1.00  0.00    -0.269 OA
ATOM      5  C   UNL A   1      33.215  34.489  28.616  1.00  0.00     0.251 C 
ATOM      6  H   UNL A   1      31.857  34.283  27.143  1.00  0.00     0.163 HD
BRANCH   5   7
ATOM      7  C   UNL A   1      34.392  33.840  29.213  1.00  0.00     0.039 A 
ATOM      8  C   UNL A   1      35.665  34.248  28.800  1.00  0.00     0.014 A 
ATOM      9  C   UNL A   1      34.216  32.759  30.074  1.00  0.00     0.014 A 
ATOM     10  C   UNL A   1      36.767  33.499  29.165  1.00  0.00     0.010 A 
ATOM     11  C   UNL A   1      35.340  32.074  30.527  1.00  0.00     0.010 A 
ATOM     12  C   UNL A   1      36.617  32.442  30.075  1.00  0.00    -0.014 A 
BRANCH  12  13
ATOM     13  C   UNL A   1      37.830  31.849  30.675  1.00  0.00     0.031 A 
ATOM     14  C   UNL A   1      38.649  30.833  29.941  1.00  0.00     0.074 A 
ATOM     15  C   UNL A   1      38.146  32.247  31.923  1.00  0.00     0.049 A 
ATOM     16  N   UNL A   1      39.684  30.161  30.368  1.00  0.00    -0.248 NA
ATOM     17  C   UNL A   1      38.253  30.520  28.560  1.00  0.00     0.031 C 
ATOM     18  C   UNL A   1      37.390  33.232  32.707  1.00  0.00     0.029 A 
ATOM     19  N   UNL A   1      39.169  31.884  32.755  1.00  0.00    -0.354 N 
ATOM     20  C   UNL A   1      40.050  29.322  29.322  1.00  0.00     0.074 A 
ATOM     21  C   UNL A   1      39.120  29.567  28.240  1.00  0.00     0.031 C 
ATOM     22  C   UNL A   1      37.989  33.412  33.891  1.00  0.00     0.029 A 
ATOM     23  C   UNL A   1      39.107  32.487  33.989  1.00  0.00     0.049 A 
ATOM     24  H   UNL A   1      39.880  31.253  32.496  1.00  0.00     0.167 HD
ATOM     25  C   UNL A   1      41.067  28.426  29.292  1.00  0.00     0.034 A 
ATOM     26  C   UNL A   1      39.832  32.276  35.102  1.00  0.00     0.034 A 
ATOM     27  C   UNL A   1      41.981  28.226  30.391  1.00  0.00     0.049 A 
ATOM     28  C   UNL A   1      40.919  31.243  35.045  1.00  0.00     0.074 A 
ATOM     29  C   UNL A   1      43.101  27.414  30.440  1.00  0.00     0.029 A 
ATOM     30  N   UNL A   1      41.867  28.824  31.640  1.00  0.00    -0.354 N 
ATOM     31  N   UNL A   1      41.286  30.493  34.031  1.00  0.00    -0.248 NA
ATOM     32  C   UNL A   1      41.682  31.019  36.276  1.00  0.00     0.031 C 
ATOM     33  C   UNL A   1      43.619  27.464  31.740  1.00  0.00     0.029 A 
ATOM     34  C   UNL A   1      42.865  28.358  32.484  1.00  0.00     0.049 A 
ATOM     35  H   UNL A   1      41.179  29.481  31.891  1.00  0.00     0.167 HD
ATOM     36  C   UNL A   1      42.330  29.708  34.504  1.00  0.00     0.074 A 
ATOM     37  C   UNL A   1      42.551  30.102  35.882  1.00  0.00     0.031 C 
ATOM     38  C   UNL A   1      43.040  28.748  33.862  1.00  0.00     0.034 A 
BRANCH  25  39
ATOM     39  C   UNL A   1      41.216  27.559  28.068  1.00  0.00     0.023 A 
ATOM     40  C   UNL A   1      40.850  26.203  28.058  1.00  0.00     0.031 A 
ATOM     41  C   UNL A   1      41.706  28.120  26.873  1.00  0.00     0.131 A 
ATOM     42  C   UNL A   1      41.012  25.444  26.887  1.00  0.00     0.055 A 
ATOM     43  C   UNL A   1      41.810  27.376  25.697  1.00  0.00     0.041 A 
ATOM     44  F   UNL A   1      42.091  29.405  26.831  1.00  0.00    -0.206 F 
ATOM     45  C   UNL A   1      41.468  26.027  25.701  1.00  0.00     0.022 A 
BRANCH  42  46
ATOM     46  S   UNL A   1      40.696  23.659  26.953  1.00  0.00     0.124 S 
ATOM     47  O   UNL A   1      41.643  23.155  25.961  1.00  0.00    -0.237 OA
ATOM     48  O   UNL A   1      40.995  23.336  28.342  1.00  0.00    -0.237 OA
ATOM     49  O   UNL A   1      39.289  23.545  26.574  1.00  0.00    -0.744 OA
ENDBRANCH  42  46
ENDBRANCH  25  39
BRANCH  26  50
ATOM     50  C   UNL A   1      39.496  32.992  36.363  1.00  0.00     0.023 A 
ATOM     51  C   UNL A   1      38.627  32.428  37.305  1.00  0.00     0.031 A 
ATOM     52  C   UNL A   1      40.027  34.269  36.633  1.00  0.00     0.131 A 
ATOM     53  C   UNL A   1      38.277  33.156  38.454  1.00  0.00     0.055 A 
ATOM     54  C   UNL A   1      39.725  34.960  37.806  1.00  0.00     0.041 A 
ATOM     55  F   UNL A   1      40.869  34.853  35.766  1.00  0.00    -0.206 F 
ATOM     56  C   UNL A   1      38.832  34.410  38.719  1.00  0.00     0.022 A 
BRANCH  53  57
ATOM     57  S   UNL A   1      37.003  32.477  39.551  1.00  0.00     0.124 S 
ATOM     58  O   UNL A   1      37.446  31.095  39.704  1.00  0.00    -0.237 OA
ATOM     59  O   UNL A   1      37.136  33.327  40.728  1.00  0.00    -0.237 OA
ATOM     60  O   UNL A   1      35.770  32.655  38.788  1.00  0.00    -0.744 OA
ENDBRANCH  53  57
ENDBRANCH  26  50
BRANCH  38  61
ATOM     61  C   UNL A   1      44.123  28.076  34.661  1.00  0.00     0.023 A 
ATOM     62  C   UNL A   1      43.860  26.916  35.410  1.00  0.00     0.031 A 
ATOM     63  C   UNL A   1      45.421  28.614  34.695  1.00  0.00     0.131 A 
ATOM     64  C   UNL A   1      44.872  26.358  36.203  1.00  0.00     0.055 A 
ATOM     65  C   UNL A   1      46.438  28.021  35.441  1.00  0.00     0.041 A 
ATOM     66  F   UNL A   1      45.717  29.724  34.000  1.00  0.00    -0.206 F 
ATOM     67  C   UNL A   1      46.163  26.893  36.210  1.00  0.00     0.022 A 
BRANCH  64  68
ATOM     68  S   UNL A   1      44.456  24.966  37.288  1.00  0.00     0.124 S 
ATOM     69  O   UNL A   1      45.081  23.845  36.594  1.00  0.00    -0.237 OA
ATOM     70  O   UNL A   1      45.073  25.356  38.552  1.00  0.00    -0.237 OA
ATOM     71  O   UNL A   1      42.995  24.959  37.290  1.00  0.00    -0.744 OA
ENDBRANCH  64  68
ENDBRANCH  38  61
ENDBRANCH  12  13
ENDBRANCH   5   7
ENDBRANCH   2   3
ENDBRANCH   1   2
BRANCH   1  72
ATOM     72  C   UNL A   1      31.753  30.612  25.820  1.00  0.00     0.023 C 
BRANCH  72  73
ATOM     73  C   UNL A   1      32.947  29.693  26.063  1.00  0.00     0.116 C 
BRANCH  73  74
ATOM     74  N   UNL A   1      32.539  28.555  26.853  1.00  0.00    -0.351 N 
ATOM     75  C   UNL A   1      31.744  27.512  26.449  1.00  0.00     0.283 C 
ATOM     76  H   UNL A   1      32.866  28.525  27.781  1.00  0.00     0.163 HD
ATOM     77  O   UNL A   1      31.287  26.797  27.346  1.00  0.00    -0.268 OA
BRANCH  75  78
ATOM     78  C   UNL A   1      31.608  27.211  24.929  1.00  0.00     0.308 C 
BRANCH  78  79
ATOM     79  N   UNL A   1      32.288  25.967  24.554  1.00  0.00    -0.312 N 
ATOM     80  C   UNL A   1      31.664  24.687  24.909  1.00  0.00     0.325 C 
ATOM     81  C   UNL A   1      32.879  25.999  23.230  1.00  0.00     0.325 C 
ATOM     82  H   UNL A   1      33.060  25.971  25.220  1.00  0.00     0.349 HD
ATOM     83  C   UNL A   1      31.068  23.835  23.752  1.00  0.00     0.325 C 
ATOM     84  C   UNL A   1      32.103  25.278  22.122  1.00  0.00     0.325 C 
ATOM     85  N   UNL A   1      31.744  23.903  22.448  1.00  0.00    -0.318 N 
ATOM     86  H   UNL A   1      31.052  23.605  21.759  1.00  0.00     0.348 HD
BRANCH  85  87
ATOM     87  C   UNL A   1      32.791  22.901  22.204  1.00  0.00     0.364 C 
BRANCH  87  88
ATOM     88  C   UNL A   1      33.018  21.818  23.267  1.00  0.00     0.277 C 
ATOM     89  O   UNL A   1      32.257  20.845  23.313  1.00  0.00    -0.268 OA
ATOM     90  N   UNL A   1      34.152  21.877  24.075  1.00  0.00    -0.333 N 
ATOM     91  C   UNL A   1      34.895  23.086  24.448  1.00  0.00     0.148 C 
ATOM     92  C   UNL A   1      34.452  20.722  24.924  1.00  0.00     0.148 C 
ATOM     93  C   UNL A   1      36.381  22.830  24.679  1.00  0.00     0.181 C 
ATOM     94  C   UNL A   1      35.964  20.551  25.109  1.00  0.00     0.181 C 
ATOM     95  O   UNL A   1      36.578  21.751  25.602  1.00  0.00    -0.378 OA
ENDBRANCH  87  88
ENDBRANCH  85  87
ENDBRANCH  78  79
BRANCH  78  96
ATOM     96  C   UNL A   1      30.227  27.280  24.319  1.00  0.00     0.044 A 
ATOM     97  C   UNL A   1      29.173  26.394  24.461  1.00  0.00     0.094 A 
ATOM     98  C   UNL A   1      29.762  28.316  23.427  1.00  0.00     0.009 A 
ATOM     99  N   UNL A   1      28.106  26.859  23.740  1.00  0.00    -0.361 N 
ATOM    100  C   UNL A   1      28.441  28.022  23.090  1.00  0.00     0.049 A 
ATOM    101  C   UNL A   1      30.354  29.478  22.879  1.00  0.00     0.014 A 
ATOM    102  H   UNL A   1      27.225  26.421  23.693  1.00  0.00     0.166 HD
ATOM    103  C   UNL A   1      27.683  28.831  22.233  1.00  0.00     0.065 A 
ATOM    104  C   UNL A   1      29.615  30.290  22.014  1.00  0.00     0.040 A 
ATOM    105  C   UNL A   1      28.304  29.961  21.704  1.00  0.00     0.125 A 
ATOM    106  F   UNL A   1      27.616  30.751  20.867  1.00  0.00    -0.207 F 
ENDBRANCH  78  96
ENDBRANCH  75  78
ENDBRANCH  73  74
ENDBRANCH  72  73
ENDBRANCH   1  72
TORSDOF 18
ENDMDL
MODEL 3
REMARK VINA RESULT:     -12.9      5.398     11.495
REMARK SMILES O=C(NCCCCNC(=O)[C@H](c1c[nH]c2cc(F)ccc12)[NH+]1CC[NH+](CC(=O)N2CCOCC2)CC1)c1ccc(-c2c3nc(c(-c4cc(S(=O)(=O)[O-])ccc4F)c4ccc([nH]4)c(-c4cc(S(=O)(=O)[O-])ccc4F)c4nc(c(-c5cc(S(=O)(=O)[O-])ccc5F)c5ccc2[nH]5)C=C4)C=C3)cc1
REMARK SMILES IDX 5 1 4 2 3 3 1 4 2 5 37 7 38 8 99 9 39 10 98 11 40 12 41 13
REMARK SMILES IDX 42 14 92 15 43 16 97 17 91 18 93 19 44 20 96 21 90 22 89 23
REMARK SMILES IDX 45 25 77 26 57 27 76 28 58 29 61 30 75 31 94 32 59 33 60 34
REMARK SMILES IDX 74 36 95 37 62 38 46 39 47 40 55 41 48 42 54 43 56 44 53 45
REMARK SMILES IDX 49 46 50 47 51 48 52 49 78 50 79 51 87 52 80 53 86 54 88 55
REMARK SMILES IDX 85 56 81 57 82 58 83 59 84 60 63 61 64 62 72 63 65 64 71 65
REMARK SMILES IDX 73 66 70 67 66 68 67 69 68 70 69 71 6 72 7 73 8 74 9 75
REMARK SMILES IDX 10 77 11 78 22 79 23 80 36 81 24 83 35 84 25 85 26 87 27 88
REMARK SMILES IDX 28 89 29 90 30 91 34 92 31 93 33 94 32 95 12 96 13 97 21 98
REMARK SMILES IDX 14 99 15 100 20 101 16 103 19 104 17 105 18 106
REMARK H PARENT 3 6 93 24 61 35 8 76 22 82 25 86 14 102
REMARK Flexibility Score: inf
ROOT
ATOM      1  C   UNL A   1      38.115  20.701  24.848  1.00  0.00     0.023 C 
ENDROOT
BRANCH   1   2
ATOM      2  C   UNL A   1      39.000  20.659  26.070  1.00  0.00     0.116 C 
BRANCH   2   3
ATOM      3  N   UNL A   1      39.989  19.593  25.994  1.00  0.00    -0.352 N 
ATOM      4  O   UNL A   1      42.105  18.790  25.877  1.00  0.00    -0.269 OA
ATOM      5  C   UNL A   1      41.348  19.726  26.107  1.00  0.00     0.251 C 
ATOM      6  H   UNL A   1      39.646  18.682  25.846  1.00  0.00     0.163 HD
BRANCH   5   7
ATOM      7  C   UNL A   1      41.852  21.051  26.497  1.00  0.00     0.039 A 
ATOM      8  C   UNL A   1      42.063  22.009  25.499  1.00  0.00     0.014 A 
ATOM      9  C   UNL A   1      42.226  21.281  27.819  1.00  0.00     0.014 A 
ATOM     10  C   UNL A   1      42.753  23.166  25.806  1.00  0.00     0.010 A 
ATOM     11  C   UNL A   1      42.824  22.495  28.145  1.00  0.00     0.010 A 
ATOM     12  C   UNL A   1      43.089  23.440  27.140  1.00  0.00    -0.014 A 
BRANCH  12  13
ATOM     13  C   UNL A   1      43.556  24.798  27.486  1.00  0.00     0.031 A 
ATOM     14  C   UNL A   1      42.618  25.831  28.031  1.00  0.00     0.074 A 
ATOM     15  C   UNL A   1      44.857  25.068  27.263  1.00  0.00     0.049 A 
ATOM     16  N   UNL A   1      42.858  27.087  28.297  1.00  0.00    -0.248 NA
ATOM     17  C   UNL A   1      41.235  25.411  28.298  1.00  0.00     0.031 C 
ATOM     18  C   UNL A   1      45.833  24.111  26.727  1.00  0.00     0.029 A 
ATOM     19  N   UNL A   1      45.587  26.210  27.449  1.00  0.00    -0.354 N 
ATOM     20  C   UNL A   1      41.653  27.620  28.737  1.00  0.00     0.074 A 
ATOM     21  C   UNL A   1      40.680  26.549  28.696  1.00  0.00     0.031 C 
ATOM     22  C   UNL A   1      47.034  24.697  26.653  1.00  0.00     0.029 A 
ATOM     23  C   UNL A   1      46.894  26.092  27.039  1.00  0.00     0.049 A 
ATOM     24  H   UNL A   1      45.214  27.034  27.838  1.00  0.00     0.167 HD
ATOM     25  C   UNL A   1      41.399  28.894  29.125  1.00  0.00     0.034 A 
ATOM     26  C   UNL A   1      47.861  27.020  26.927  1.00  0.00     0.034 A 
ATOM     27  C   UNL A   1      42.407  29.927  29.165  1.00  0.00     0.049 A 
ATOM     28  C   UNL A   1      47.529  28.429  27.321  1.00  0.00     0.074 A 
ATOM     29  C   UNL A   1      42.287  31.226  29.626  1.00  0.00     0.029 A 
ATOM     30  N   UNL A   1      43.710  29.786  28.706  1.00  0.00    -0.354 N 
ATOM     31  N   UNL A   1      46.397  28.907  27.784  1.00  0.00    -0.248 NA
ATOM     32  C   UNL A   1      48.595  29.424  27.171  1.00  0.00     0.031 C 
ATOM     33  C   UNL A   1      43.493  31.890  29.377  1.00  0.00     0.029 A 
ATOM     34  C   UNL A   1      44.390  30.989  28.823  1.00  0.00     0.049 A 
ATOM     35  H   UNL A   1      44.096  28.954  28.350  1.00  0.00     0.167 HD
ATOM     36  C   UNL A   1      46.617  30.263  27.985  1.00  0.00     0.074 A 
ATOM     37  C   UNL A   1      47.998  30.517  27.623  1.00  0.00     0.031 C 
ATOM     38  C   UNL A   1      45.758  31.216  28.425  1.00  0.00     0.034 A 
BRANCH  25  39
ATOM     39  C   UNL A   1      39.981  29.260  29.481  1.00  0.00     0.023 A 
ATOM     40  C   UNL A   1      39.548  29.387  30.811  1.00  0.00     0.031 A 
ATOM     41  C   UNL A   1      39.052  29.521  28.455  1.00  0.00     0.131 A 
ATOM     42  C   UNL A   1      38.212  29.732  31.081  1.00  0.00     0.055 A 
ATOM     43  C   UNL A   1      37.743  29.919  28.730  1.00  0.00     0.041 A 
ATOM     44  F   UNL A   1      39.405  29.394  27.167  1.00  0.00    -0.206 F 
ATOM     45  C   UNL A   1      37.314  30.020  30.049  1.00  0.00     0.022 A 
BRANCH  42  46
ATOM     46  S   UNL A   1      37.638  29.718  32.801  1.00  0.00     0.124 S 
ATOM     47  O   UNL A   1      38.795  30.267  33.503  1.00  0.00    -0.237 OA
ATOM     48  O   UNL A   1      36.458  30.572  32.748  1.00  0.00    -0.237 OA
ATOM     49  O   UNL A   1      37.374  28.304  33.064  1.00  0.00    -0.744 OA
ENDBRANCH  42  46
ENDBRANCH  25  39
BRANCH  26  50
ATOM     50  C   UNL A   1      49.184  26.658  26.347  1.00  0.00     0.023 A 
ATOM     51  C   UNL A   1      49.585  27.151  25.099  1.00  0.00     0.031 A 
ATOM     52  C   UNL A   1      50.059  25.791  27.028  1.00  0.00     0.131 A 
ATOM     53  C   UNL A   1      50.810  26.740  24.549  1.00  0.00     0.055 A 
ATOM     54  C   UNL A   1      51.302  25.435  26.505  1.00  0.00     0.041 A 
ATOM     55  F   UNL A   1      49.725  25.293  28.230  1.00  0.00    -0.206 F 
ATOM     56  C   UNL A   1      51.677  25.899  25.249  1.00  0.00     0.022 A 
BRANCH  53  57
ATOM     57  S   UNL A   1      51.206  27.244  22.853  1.00  0.00     0.124 S 
ATOM     58  O   UNL A   1      52.494  26.592  22.641  1.00  0.00    -0.237 OA
ATOM     59  O   UNL A   1      50.080  26.698  22.105  1.00  0.00    -0.237 OA
ATOM     60  O   UNL A   1      51.252  28.703  22.935  1.00  0.00    -0.744 OA
ENDBRANCH  53  57
ENDBRANCH  26  50
BRANCH  38  61
ATOM     61  C   UNL A   1      46.312  32.610  28.539  1.00  0.00     0.023 A 
ATOM     62  C   UNL A   1      46.384  33.457  27.421  1.00  0.00     0.031 A 
ATOM     63  C   UNL A   1      46.795  33.085  29.771  1.00  0.00     0.131 A 
ATOM     64  C   UNL A   1      46.975  34.722  27.545  1.00  0.00     0.055 A 
ATOM     65  C   UNL A   1      47.330  34.366  29.900  1.00  0.00     0.041 A 
ATOM     66  F   UNL A   1      46.753  32.309  30.866  1.00  0.00    -0.206 F 
ATOM     67  C   UNL A   1      47.432  35.187  28.781  1.00  0.00     0.022 A 
BRANCH  64  68
ATOM     68  S   UNL A   1      47.207  35.722  26.051  1.00  0.00     0.124 S 
ATOM     69  O   UNL A   1      48.647  35.960  26.066  1.00  0.00    -0.237 OA
ATOM     70  O   UNL A   1      46.719  34.835  25.000  1.00  0.00    -0.237 OA
ATOM     71  O   UNL A   1      46.380  36.902  26.297  1.00  0.00    -0.744 OA
ENDBRANCH  64  68
ENDBRANCH  38  61
ENDBRANCH  12  13
ENDBRANCH   5   7
ENDBRANCH   2   3
ENDBRANCH   1   2
BRANCH   1  72
ATOM     72  C   UNL A   1      36.634  20.629  25.186  1.00  0.00     0.023 C 
BRANCH  72  73
ATOM     73  C   UNL A   1      36.039  21.952  25.663  1.00  0.00     0.116 C 
BRANCH  73  74
ATOM     74  N   UNL A   1      35.835  22.833  24.537  1.00  0.00    -0.351 N 
ATOM     75  C   UNL A   1      34.746  22.870  23.703  1.00  0.00     0.283 C 
ATOM     76  H   UNL A   1      36.556  23.476  24.348  1.00  0.00     0.163 HD
ATOM     77  O   UNL A   1      34.889  23.492  22.647  1.00  0.00    -0.268 OA
BRANCH  75  78
ATOM     78  C   UNL A   1      33.394  22.282  24.201  1.00  0.00     0.308 C 
BRANCH  78  79
ATOM     79  N   UNL A   1      32.364  23.317  24.338  1.00  0.00    -0.312 N 
ATOM     80  C   UNL A   1      31.051  22.940  24.875  1.00  0.00     0.325 C 
ATOM     81  C   UNL A   1      32.870  24.585  24.827  1.00  0.00     0.325 C 
ATOM     82  H   UNL A   1      32.114  23.459  23.360  1.00  0.00     0.349 HD
ATOM     83  C   UNL A   1      30.691  23.442  26.303  1.00  0.00     0.325 C 
ATOM     84  C   UNL A   1      32.615  24.894  26.306  1.00  0.00     0.325 C 
ATOM     85  N   UNL A   1      31.221  24.752  26.710  1.00  0.00    -0.318 N 
ATOM     86  H   UNL A   1      31.205  24.754  27.731  1.00  0.00     0.348 HD
BRANCH  85  87
ATOM     87  C   UNL A   1      30.364  25.915  26.442  1.00  0.00     0.364 C 
BRANCH  87  88
ATOM     88  C   UNL A   1      31.008  27.307  26.453  1.00  0.00     0.277 C 
ATOM     89  O   UNL A   1      31.292  27.834  27.534  1.00  0.00    -0.268 OA
ATOM     90  N   UNL A   1      31.388  27.897  25.249  1.00  0.00    -0.333 N 
ATOM     91  C   UNL A   1      30.793  27.649  23.931  1.00  0.00     0.148 C 
ATOM     92  C   UNL A   1      32.193  29.119  25.306  1.00  0.00     0.148 C 
ATOM     93  C   UNL A   1      31.784  27.816  22.784  1.00  0.00     0.181 C 
ATOM     94  C   UNL A   1      33.148  29.207  24.110  1.00  0.00     0.181 C 
ATOM     95  O   UNL A   1      32.449  29.083  22.862  1.00  0.00    -0.378 OA
ENDBRANCH  87  88
ENDBRANCH  85  87
ENDBRANCH  78  79
BRANCH  78  96
ATOM     96  C   UNL A   1      32.850  21.067  23.487  1.00  0.00     0.044 A 
ATOM     97  C   UNL A   1      32.124  21.007  22.309  1.00  0.00     0.094 A 
ATOM     98  C   UNL A   1      32.981  19.704  23.947  1.00  0.00     0.009 A 
ATOM     99  N   UNL A   1      31.850  19.696  22.027  1.00  0.00    -0.361 N 
ATOM    100  C   UNL A   1      32.350  18.881  23.014  1.00  0.00     0.049 A 
ATOM    101  C   UNL A   1      33.583  19.102  25.077  1.00  0.00     0.014 A 
ATOM    102  H   UNL A   1      31.364  19.381  21.230  1.00  0.00     0.166 HD
ATOM    103  C   UNL A   1      32.291  17.488  23.154  1.00  0.00     0.065 A 
ATOM    104  C   UNL A   1      33.523  17.715  25.238  1.00  0.00     0.040 A 
ATOM    105  C   UNL A   1      32.885  16.933  24.286  1.00  0.00     0.125 A 
ATOM    106  F   UNL A   1      32.834  15.605  24.464  1.00  0.00    -0.207 F 
ENDBRANCH  78  96
ENDBRANCH  75  78
ENDBRANCH  73  74
ENDBRANCH  72  73
ENDBRANCH   1  72
TORSDOF 18
ENDMDL
