MODEL 1
REMARK VINA RESULT:     -12.9      0.000      0.000
REMARK SMILES O=C(NCCCCNC(=O)c1ccc(-c2c3nc(c(-c4cc(S(=O)(=O)[O-])ccc4F)c4ccc([nH]4)c(-c4cc(S(=O)(=O)[O-])ccc4F)c4nc(c(-c5cc(S(=O)(=O)[O-])ccc5F)c5ccc2[nH]5)C=C4)C=C3)cc1)c1ccc(/C=N/NC(=O)c2cccc3ccccc23)cc1
REMARK SMILES IDX 5 1 4 2 3 3 1 4 2 5 74 7 75 8 94 9 76 10 93 11 77 12 78 13
REMARK SMILES IDX 79 14 80 15 81 16 82 18 83 19 84 20 92 21 85 22 87 23 91 24
REMARK SMILES IDX 86 25 88 26 90 27 89 28 6 29 7 30 8 31 9 32 10 34 11 35
REMARK SMILES IDX 12 36 73 37 13 38 72 39 14 40 15 41 16 42 66 43 17 44 71 45
REMARK SMILES IDX 65 46 67 47 18 48 70 49 64 50 63 51 19 53 51 54 31 55 50 56
REMARK SMILES IDX 32 57 35 58 49 59 68 60 33 61 34 62 48 64 69 65 36 66 20 67
REMARK SMILES IDX 21 68 29 69 22 70 28 71 30 72 27 73 23 74 24 75 25 76 26 77
REMARK SMILES IDX 52 78 53 79 61 80 54 81 60 82 62 83 59 84 55 85 56 86 57 87
REMARK SMILES IDX 58 88 37 89 38 90 46 91 39 92 45 93 47 94 44 95 40 96 41 97
REMARK SMILES IDX 42 98 43 99
REMARK H PARENT 3 6 80 17 8 33 67 52 35 63
REMARK Flexibility Score: inf
ROOT
ATOM      1  C   UNL A   1      35.178  22.789  26.109  1.00  0.00     0.023 C 
ENDROOT
BRANCH   1   2
ATOM      2  C   UNL A   1      34.285  21.897  26.965  1.00  0.00     0.116 C 
BRANCH   2   3
ATOM      3  N   UNL A   1      33.718  20.779  26.225  1.00  0.00    -0.352 N 
ATOM      4  O   UNL A   1      32.182  19.668  24.992  1.00  0.00    -0.269 OA
ATOM      5  C   UNL A   1      32.587  20.733  25.448  1.00  0.00     0.251 C 
ATOM      6  H   UNL A   1      34.218  19.933  26.291  1.00  0.00     0.163 HD
BRANCH   5   7
ATOM      7  C   UNL A   1      31.819  21.969  25.190  1.00  0.00     0.039 A 
ATOM      8  C   UNL A   1      31.937  22.656  23.976  1.00  0.00     0.014 A 
ATOM      9  C   UNL A   1      30.987  22.453  26.206  1.00  0.00     0.014 A 
ATOM     10  C   UNL A   1      31.326  23.899  23.828  1.00  0.00     0.010 A 
ATOM     11  C   UNL A   1      30.339  23.676  26.044  1.00  0.00     0.010 A 
ATOM     12  C   UNL A   1      30.545  24.406  24.870  1.00  0.00    -0.005 A 
BRANCH  12  13
ATOM     13  C   UNL A   1      30.047  25.788  24.823  1.00  0.00     0.141 C 
ATOM     14  N   UNL A   1      29.430  26.199  23.766  1.00  0.00    -0.180 NA
BRANCH  14  15
ATOM     15  N   UNL A   1      29.160  27.519  23.610  1.00  0.00    -0.243 N 
ATOM     16  C   UNL A   1      29.983  28.626  23.535  1.00  0.00     0.271 C 
ATOM     17  H   UNL A   1      28.200  27.727  23.538  1.00  0.00     0.194 HD
ATOM     18  O   UNL A   1      29.471  29.736  23.358  1.00  0.00    -0.267 OA
BRANCH  16  19
ATOM     19  C   UNL A   1      31.457  28.577  23.696  1.00  0.00     0.049 A 
ATOM     20  C   UNL A   1      32.152  28.324  22.499  1.00  0.00     0.014 A 
ATOM     21  C   UNL A   1      32.155  28.670  24.935  1.00  0.00    -0.006 A 
ATOM     22  C   UNL A   1      33.530  28.151  22.501  1.00  0.00     0.001 A 
ATOM     23  C   UNL A   1      33.565  28.480  24.912  1.00  0.00    -0.018 A 
ATOM     24  C   UNL A   1      31.564  28.941  26.194  1.00  0.00     0.009 A 
ATOM     25  C   UNL A   1      34.225  28.215  23.702  1.00  0.00     0.009 A 
ATOM     26  C   UNL A   1      34.312  28.557  26.097  1.00  0.00     0.009 A 
ATOM     27  C   UNL A   1      32.331  29.071  27.356  1.00  0.00     0.001 A 
ATOM     28  C   UNL A   1      33.703  28.868  27.310  1.00  0.00     0.001 A 
ENDBRANCH  16  19
ENDBRANCH  14  15
ENDBRANCH  12  13
ENDBRANCH   5   7
ENDBRANCH   2   3
ENDBRANCH   1   2
BRANCH   1  29
ATOM     29  C   UNL A   1      35.747  22.136  24.853  1.00  0.00     0.023 C 
BRANCH  29  30
ATOM     30  C   UNL A   1      37.253  22.275  24.671  1.00  0.00     0.116 C 
BRANCH  30  31
ATOM     31  N   UNL A   1      37.993  21.101  25.112  1.00  0.00    -0.352 N 
ATOM     32  C   UNL A   1      39.109  21.036  25.916  1.00  0.00     0.251 C 
ATOM     33  H   UNL A   1      37.648  20.236  24.791  1.00  0.00     0.163 HD
ATOM     34  O   UNL A   1      39.688  19.968  26.082  1.00  0.00    -0.269 OA
BRANCH  32  35
ATOM     35  C   UNL A   1      39.620  22.275  26.541  1.00  0.00     0.039 A 
ATOM     36  C   UNL A   1      40.609  22.186  27.522  1.00  0.00     0.014 A 
ATOM     37  C   UNL A   1      39.166  23.523  26.108  1.00  0.00     0.014 A 
ATOM     38  C   UNL A   1      41.209  23.352  28.006  1.00  0.00     0.010 A 
ATOM     39  C   UNL A   1      39.818  24.676  26.533  1.00  0.00     0.010 A 
ATOM     40  C   UNL A   1      40.853  24.604  27.480  1.00  0.00    -0.014 A 
BRANCH  40  41
ATOM     41  C   UNL A   1      41.541  25.858  27.895  1.00  0.00     0.031 A 
ATOM     42  C   UNL A   1      40.766  26.922  28.624  1.00  0.00     0.074 A 
ATOM     43  C   UNL A   1      42.822  26.080  27.529  1.00  0.00     0.049 A 
ATOM     44  N   UNL A   1      41.124  28.142  28.932  1.00  0.00    -0.248 NA
ATOM     45  C   UNL A   1      39.395  26.578  29.034  1.00  0.00     0.031 C 
ATOM     46  C   UNL A   1      43.670  25.137  26.796  1.00  0.00     0.029 A 
ATOM     47  N   UNL A   1      43.629  27.178  27.704  1.00  0.00    -0.354 N 
ATOM     48  C   UNL A   1      40.013  28.721  29.538  1.00  0.00     0.074 A 
ATOM     49  C   UNL A   1      38.958  27.730  29.521  1.00  0.00     0.031 C 
ATOM     50  C   UNL A   1      44.877  25.693  26.596  1.00  0.00     0.029 A 
ATOM     51  C   UNL A   1      44.875  27.051  27.129  1.00  0.00     0.049 A 
ATOM     52  H   UNL A   1      43.344  27.982  28.194  1.00  0.00     0.167 HD
ATOM     53  C   UNL A   1      39.890  29.961  30.069  1.00  0.00     0.034 A 
ATOM     54  C   UNL A   1      45.888  27.936  27.020  1.00  0.00     0.034 A 
ATOM     55  C   UNL A   1      40.963  30.923  30.116  1.00  0.00     0.049 A 
ATOM     56  C   UNL A   1      45.714  29.318  27.607  1.00  0.00     0.074 A 
ATOM     57  C   UNL A   1      40.969  32.173  30.710  1.00  0.00     0.029 A 
ATOM     58  N   UNL A   1      42.215  30.749  29.542  1.00  0.00    -0.354 N 
ATOM     59  N   UNL A   1      44.677  29.825  28.233  1.00  0.00    -0.248 NA
ATOM     60  C   UNL A   1      46.848  30.245  27.480  1.00  0.00     0.031 C 
ATOM     61  C   UNL A   1      42.193  32.785  30.430  1.00  0.00     0.029 A 
ATOM     62  C   UNL A   1      42.985  31.884  29.736  1.00  0.00     0.049 A 
ATOM     63  H   UNL A   1      42.512  29.938  29.067  1.00  0.00     0.167 HD
ATOM     64  C   UNL A   1      45.056  31.110  28.614  1.00  0.00     0.074 A 
ATOM     65  C   UNL A   1      46.414  31.299  28.155  1.00  0.00     0.031 C 
ATOM     66  C   UNL A   1      44.346  32.050  29.288  1.00  0.00     0.034 A 
BRANCH  53  67
ATOM     67  C   UNL A   1      38.546  30.368  30.618  1.00  0.00     0.023 A 
ATOM     68  C   UNL A   1      37.645  31.151  29.877  1.00  0.00     0.031 A 
ATOM     69  C   UNL A   1      38.152  29.940  31.899  1.00  0.00     0.131 A 
ATOM     70  C   UNL A   1      36.414  31.521  30.442  1.00  0.00     0.055 A 
ATOM     71  C   UNL A   1      36.898  30.251  32.425  1.00  0.00     0.041 A 
ATOM     72  F   UNL A   1      38.982  29.209  32.660  1.00  0.00    -0.206 F 
ATOM     73  C   UNL A   1      36.024  31.053  31.699  1.00  0.00     0.022 A 
BRANCH  70  74
ATOM     74  S   UNL A   1      35.372  32.707  29.551  1.00  0.00     0.124 S 
ATOM     75  O   UNL A   1      36.304  33.811  29.330  1.00  0.00    -0.237 OA
ATOM     76  O   UNL A   1      34.980  31.956  28.364  1.00  0.00    -0.237 OA
ATOM     77  O   UNL A   1      34.293  32.992  30.495  1.00  0.00    -0.744 OA
ENDBRANCH  70  74
ENDBRANCH  53  67
BRANCH  54  78
ATOM     78  C   UNL A   1      47.152  27.578  26.305  1.00  0.00     0.023 A 
ATOM     79  C   UNL A   1      47.322  27.886  24.946  1.00  0.00     0.031 A 
ATOM     80  C   UNL A   1      48.165  26.838  26.941  1.00  0.00     0.131 A 
ATOM     81  C   UNL A   1      48.435  27.390  24.248  1.00  0.00     0.055 A 
ATOM     82  C   UNL A   1      49.306  26.408  26.260  1.00  0.00     0.041 A 
ATOM     83  F   UNL A   1      48.058  26.514  28.239  1.00  0.00    -0.206 F 
ATOM     84  C   UNL A   1      49.436  26.666  24.899  1.00  0.00     0.022 A 
BRANCH  81  85
ATOM     85  S   UNL A   1      48.483  27.584  22.444  1.00  0.00     0.124 S 
ATOM     86  O   UNL A   1      48.587  26.198  22.002  1.00  0.00    -0.237 OA
ATOM     87  O   UNL A   1      47.211  28.249  22.179  1.00  0.00    -0.237 OA
ATOM     88  O   UNL A   1      49.672  28.402  22.222  1.00  0.00    -0.744 OA
ENDBRANCH  81  85
ENDBRANCH  54  78
BRANCH  66  89
ATOM     89  C   UNL A   1      45.053  33.335  29.641  1.00  0.00     0.023 A 
ATOM     90  C   UNL A   1      44.976  34.479  28.828  1.00  0.00     0.031 A 
ATOM     91  C   UNL A   1      45.804  33.415  30.829  1.00  0.00     0.131 A 
ATOM     92  C   UNL A   1      45.674  35.641  29.192  1.00  0.00     0.055 A 
ATOM     93  C   UNL A   1      46.446  34.592  31.214  1.00  0.00     0.041 A 
ATOM     94  F   UNL A   1      45.913  32.353  31.642  1.00  0.00    -0.206 F 
ATOM     95  C   UNL A   1      46.392  35.710  30.388  1.00  0.00     0.022 A 
BRANCH  92  96
ATOM     96  S   UNL A   1      45.690  37.045  28.043  1.00  0.00     0.124 S 
ATOM     97  O   UNL A   1      46.857  36.749  27.219  1.00  0.00    -0.237 OA
ATOM     98  O   UNL A   1      44.396  36.922  27.380  1.00  0.00    -0.237 OA
ATOM     99  O   UNL A   1      45.828  38.204  28.921  1.00  0.00    -0.744 OA
ENDBRANCH  92  96
ENDBRANCH  66  89
ENDBRANCH  40  41
ENDBRANCH  32  35
ENDBRANCH  30  31
ENDBRANCH  29  30
ENDBRANCH   1  29
TORSDOF 17
ENDMDL
MODEL 2
REMARK VINA RESULT:     -12.9      5.439     10.436
REMARK SMILES O=C(NCCCCNC(=O)c1ccc(-c2c3nc(c(-c4cc(S(=O)(=O)[O-])ccc4F)c4ccc([nH]4)c(-c4cc(S(=O)(=O)[O-])ccc4F)c4nc(c(-c5cc(S(=O)(=O)[O-])ccc5F)c5ccc2[nH]5)C=C4)C=C3)cc1)c1ccc(/C=N/NC(=O)c2cccc3ccccc23)cc1
REMARK SMILES IDX 5 1 4 2 3 3 1 4 2 5 74 7 75 8 94 9 76 10 93 11 77 12 78 13
REMARK SMILES IDX 79 14 80 15 81 16 82 18 83 19 84 20 92 21 85 22 87 23 91 24
REMARK SMILES IDX 86 25 88 26 90 27 89 28 6 29 7 30 8 31 9 32 10 34 11 35
REMARK SMILES IDX 12 36 73 37 13 38 72 39 14 40 15 41 16 42 66 43 17 44 71 45
REMARK SMILES IDX 65 46 67 47 18 48 70 49 64 50 63 51 19 53 51 54 31 55 50 56
REMARK SMILES IDX 32 57 35 58 49 59 68 60 33 61 34 62 48 64 69 65 36 66 20 67
REMARK SMILES IDX 21 68 29 69 22 70 28 71 30 72 27 73 23 74 24 75 25 76 26 77
REMARK SMILES IDX 52 78 53 79 61 80 54 81 60 82 62 83 59 84 55 85 56 86 57 87
REMARK SMILES IDX 58 88 37 89 38 90 46 91 39 92 45 93 47 94 44 95 40 96 41 97
REMARK SMILES IDX 42 98 43 99
REMARK H PARENT 3 6 80 17 8 33 67 52 35 63
REMARK Flexibility Score: inf
ROOT
ATOM      1  C   UNL A   1      31.273  30.895  25.758  1.00  0.00     0.023 C 
ENDROOT
BRANCH   1   2
ATOM      2  C   UNL A   1      31.466  29.700  24.830  1.00  0.00     0.116 C 
BRANCH   2   3
ATOM      3  N   UNL A   1      30.624  29.756  23.644  1.00  0.00    -0.352 N 
ATOM      4  O   UNL A   1      29.783  29.079  21.657  1.00  0.00    -0.269 OA
ATOM      5  C   UNL A   1      30.440  28.817  22.661  1.00  0.00     0.251 C 
ATOM      6  H   UNL A   1      30.112  30.590  23.531  1.00  0.00     0.163 HD
BRANCH   5   7
ATOM      7  C   UNL A   1      31.074  27.488  22.783  1.00  0.00     0.039 A 
ATOM      8  C   UNL A   1      32.329  27.229  22.220  1.00  0.00     0.014 A 
ATOM      9  C   UNL A   1      30.373  26.480  23.455  1.00  0.00     0.014 A 
ATOM     10  C   UNL A   1      32.824  25.927  22.213  1.00  0.00     0.010 A 
ATOM     11  C   UNL A   1      30.886  25.185  23.489  1.00  0.00     0.010 A 
ATOM     12  C   UNL A   1      32.090  24.913  22.835  1.00  0.00    -0.005 A 
BRANCH  12  13
ATOM     13  C   UNL A   1      32.487  23.506  22.681  1.00  0.00     0.141 C 
ATOM     14  N   UNL A   1      31.681  22.578  23.074  1.00  0.00    -0.180 NA
BRANCH  14  15
ATOM     15  N   UNL A   1      32.111  21.294  23.147  1.00  0.00    -0.243 N 
ATOM     16  C   UNL A   1      32.940  20.649  24.044  1.00  0.00     0.271 C 
ATOM     17  H   UNL A   1      31.769  20.714  22.427  1.00  0.00     0.194 HD
ATOM     18  O   UNL A   1      33.152  19.441  23.894  1.00  0.00    -0.267 OA
BRANCH  16  19
ATOM     19  C   UNL A   1      33.639  21.325  25.164  1.00  0.00     0.049 A 
ATOM     20  C   UNL A   1      32.964  21.229  26.395  1.00  0.00     0.014 A 
ATOM     21  C   UNL A   1      34.829  22.100  25.048  1.00  0.00    -0.006 A 
ATOM     22  C   UNL A   1      33.438  21.893  27.519  1.00  0.00     0.001 A 
ATOM     23  C   UNL A   1      35.289  22.778  26.210  1.00  0.00    -0.018 A 
ATOM     24  C   UNL A   1      35.600  22.250  23.868  1.00  0.00     0.009 A 
ATOM     25  C   UNL A   1      34.584  22.673  27.419  1.00  0.00     0.009 A 
ATOM     26  C   UNL A   1      36.454  23.558  26.163  1.00  0.00     0.009 A 
ATOM     27  C   UNL A   1      36.790  22.986  23.854  1.00  0.00     0.001 A 
ATOM     28  C   UNL A   1      37.211  23.649  24.998  1.00  0.00     0.001 A 
ENDBRANCH  16  19
ENDBRANCH  14  15
ENDBRANCH  12  13
ENDBRANCH   5   7
ENDBRANCH   2   3
ENDBRANCH   1   2
BRANCH   1  29
ATOM     29  C   UNL A   1      32.077  30.856  27.055  1.00  0.00     0.023 C 
BRANCH  29  30
ATOM     30  C   UNL A   1      33.198  31.881  27.158  1.00  0.00     0.116 C 
BRANCH  30  31
ATOM     31  N   UNL A   1      32.717  33.231  27.410  1.00  0.00    -0.352 N 
ATOM     32  C   UNL A   1      33.146  34.138  28.354  1.00  0.00     0.251 C 
ATOM     33  H   UNL A   1      31.986  33.538  26.826  1.00  0.00     0.163 HD
ATOM     34  O   UNL A   1      32.539  35.190  28.518  1.00  0.00    -0.269 OA
BRANCH  32  35
ATOM     35  C   UNL A   1      34.320  33.806  29.190  1.00  0.00     0.039 A 
ATOM     36  C   UNL A   1      34.147  33.006  30.321  1.00  0.00     0.014 A 
ATOM     37  C   UNL A   1      35.596  34.234  28.816  1.00  0.00     0.014 A 
ATOM     38  C   UNL A   1      35.267  32.558  31.028  1.00  0.00     0.010 A 
ATOM     39  C   UNL A   1      36.711  33.723  29.474  1.00  0.00     0.010 A 
ATOM     40  C   UNL A   1      36.560  32.872  30.582  1.00  0.00    -0.014 A 
BRANCH  40  41
ATOM     41  C   UNL A   1      37.777  32.330  31.247  1.00  0.00     0.031 A 
ATOM     42  C   UNL A   1      38.532  31.198  30.603  1.00  0.00     0.074 A 
ATOM     43  C   UNL A   1      38.141  32.783  32.466  1.00  0.00     0.049 A 
ATOM     44  N   UNL A   1      39.512  30.479  31.083  1.00  0.00    -0.248 NA
ATOM     45  C   UNL A   1      38.104  30.804  29.251  1.00  0.00     0.031 C 
ATOM     46  C   UNL A   1      37.474  33.857  33.205  1.00  0.00     0.029 A 
ATOM     47  N   UNL A   1      39.149  32.382  33.310  1.00  0.00    -0.354 N 
ATOM     48  C   UNL A   1      39.795  29.526  30.110  1.00  0.00     0.074 A 
ATOM     49  C   UNL A   1      38.857  29.736  29.028  1.00  0.00     0.031 C 
ATOM     50  C   UNL A   1      38.096  34.036  34.383  1.00  0.00     0.029 A 
ATOM     51  C   UNL A   1      39.167  33.053  34.513  1.00  0.00     0.049 A 
ATOM     52  H   UNL A   1      39.797  31.680  33.077  1.00  0.00     0.167 HD
ATOM     53  C   UNL A   1      40.755  28.571  30.115  1.00  0.00     0.034 A 
ATOM     54  C   UNL A   1      39.938  32.878  35.607  1.00  0.00     0.034 A 
ATOM     55  C   UNL A   1      41.709  28.399  31.183  1.00  0.00     0.049 A 
ATOM     56  C   UNL A   1      40.990  31.792  35.589  1.00  0.00     0.074 A 
ATOM     57  C   UNL A   1      42.777  27.521  31.246  1.00  0.00     0.029 A 
ATOM     58  N   UNL A   1      41.709  29.111  32.374  1.00  0.00    -0.354 N 
ATOM     59  N   UNL A   1      41.284  30.941  34.632  1.00  0.00    -0.248 NA
ATOM     60  C   UNL A   1      41.820  31.645  36.794  1.00  0.00     0.031 C 
ATOM     61  C   UNL A   1      43.373  27.646  32.503  1.00  0.00     0.029 A 
ATOM     62  C   UNL A   1      42.733  28.664  33.192  1.00  0.00     0.049 A 
ATOM     63  H   UNL A   1      41.073  29.828  32.604  1.00  0.00     0.167 HD
ATOM     64  C   UNL A   1      42.361  30.196  35.105  1.00  0.00     0.074 A 
ATOM     65  C   UNL A   1      42.670  30.698  36.426  1.00  0.00     0.031 C 
ATOM     66  C   UNL A   1      43.040  29.188  34.500  1.00  0.00     0.034 A 
BRANCH  53  67
ATOM     67  C   UNL A   1      40.813  27.615  28.950  1.00  0.00     0.023 A 
ATOM     68  C   UNL A   1      41.746  27.762  27.910  1.00  0.00     0.031 A 
ATOM     69  C   UNL A   1      39.931  26.520  28.897  1.00  0.00     0.131 A 
ATOM     70  C   UNL A   1      41.743  26.857  26.838  1.00  0.00     0.055 A 
ATOM     71  C   UNL A   1      39.982  25.583  27.865  1.00  0.00     0.041 A 
ATOM     72  F   UNL A   1      39.003  26.343  29.852  1.00  0.00    -0.206 F 
ATOM     73  C   UNL A   1      40.887  25.753  26.822  1.00  0.00     0.022 A 
BRANCH  70  74
ATOM     74  S   UNL A   1      42.808  27.200  25.411  1.00  0.00     0.124 S 
ATOM     75  O   UNL A   1      42.666  25.970  24.634  1.00  0.00    -0.237 OA
ATOM     76  O   UNL A   1      42.195  28.392  24.837  1.00  0.00    -0.237 OA
ATOM     77  O   UNL A   1      44.127  27.403  26.009  1.00  0.00    -0.744 OA
ENDBRANCH  70  74
ENDBRANCH  53  67
BRANCH  54  78
ATOM     78  C   UNL A   1      39.745  33.714  36.831  1.00  0.00     0.023 A 
ATOM     79  C   UNL A   1      40.572  34.819  37.086  1.00  0.00     0.031 A 
ATOM     80  C   UNL A   1      38.798  33.364  37.811  1.00  0.00     0.131 A 
ATOM     81  C   UNL A   1      40.493  35.486  38.319  1.00  0.00     0.055 A 
ATOM     82  C   UNL A   1      38.674  34.075  39.007  1.00  0.00     0.041 A 
ATOM     83  F   UNL A   1      37.980  32.317  37.623  1.00  0.00    -0.206 F 
ATOM     84  C   UNL A   1      39.539  35.131  39.275  1.00  0.00     0.022 A 
BRANCH  81  85
ATOM     85  S   UNL A   1      41.752  36.732  38.712  1.00  0.00     0.124 S 
ATOM     86  O   UNL A   1      42.286  37.039  37.391  1.00  0.00    -0.237 OA
ATOM     87  O   UNL A   1      40.953  37.779  39.342  1.00  0.00    -0.237 OA
ATOM     88  O   UNL A   1      42.664  36.022  39.605  1.00  0.00    -0.744 OA
ENDBRANCH  81  85
ENDBRANCH  54  78
BRANCH  66  89
ATOM     89  C   UNL A   1      44.233  28.619  35.227  1.00  0.00     0.023 A 
ATOM     90  C   UNL A   1      44.107  27.605  36.192  1.00  0.00     0.031 A 
ATOM     91  C   UNL A   1      45.524  29.093  34.928  1.00  0.00     0.131 A 
ATOM     92  C   UNL A   1      45.248  27.129  36.855  1.00  0.00     0.055 A 
ATOM     93  C   UNL A   1      46.660  28.573  35.548  1.00  0.00     0.041 A 
ATOM     94  F   UNL A   1      45.702  30.062  34.015  1.00  0.00    -0.206 F 
ATOM     95  C   UNL A   1      46.524  27.593  36.526  1.00  0.00     0.022 A 
BRANCH  92  96
ATOM     96  S   UNL A   1      45.038  25.940  38.209  1.00  0.00     0.124 S 
ATOM     97  O   UNL A   1      43.882  26.485  38.914  1.00  0.00    -0.237 OA
ATOM     98  O   UNL A   1      44.816  24.688  37.495  1.00  0.00    -0.237 OA
ATOM     99  O   UNL A   1      46.303  26.022  38.937  1.00  0.00    -0.744 OA
ENDBRANCH  92  96
ENDBRANCH  66  89
ENDBRANCH  40  41
ENDBRANCH  32  35
ENDBRANCH  30  31
ENDBRANCH  29  30
ENDBRANCH   1  29
TORSDOF 17
ENDMDL
MODEL 3
REMARK VINA RESULT:     -12.9      4.544      8.128
REMARK SMILES O=C(NCCCCNC(=O)c1ccc(-c2c3nc(c(-c4cc(S(=O)(=O)[O-])ccc4F)c4ccc([nH]4)c(-c4cc(S(=O)(=O)[O-])ccc4F)c4nc(c(-c5cc(S(=O)(=O)[O-])ccc5F)c5ccc2[nH]5)C=C4)C=C3)cc1)c1ccc(/C=N/NC(=O)c2cccc3ccccc23)cc1
REMARK SMILES IDX 5 1 4 2 3 3 1 4 2 5 74 7 75 8 94 9 76 10 93 11 77 12 78 13
REMARK SMILES IDX 79 14 80 15 81 16 82 18 83 19 84 20 92 21 85 22 87 23 91 24
REMARK SMILES IDX 86 25 88 26 90 27 89 28 6 29 7 30 8 31 9 32 10 34 11 35
REMARK SMILES IDX 12 36 73 37 13 38 72 39 14 40 15 41 16 42 66 43 17 44 71 45
REMARK SMILES IDX 65 46 67 47 18 48 70 49 64 50 63 51 19 53 51 54 31 55 50 56
REMARK SMILES IDX 32 57 35 58 49 59 68 60 33 61 34 62 48 64 69 65 36 66 20 67
REMARK SMILES IDX 21 68 29 69 22 70 28 71 30 72 27 73 23 74 24 75 25 76 26 77
REMARK SMILES IDX 52 78 53 79 61 80 54 81 60 82 62 83 59 84 55 85 56 86 57 87
REMARK SMILES IDX 58 88 37 89 38 90 46 91 39 92 45 93 47 94 44 95 40 96 41 97
REMARK SMILES IDX 42 98 43 99
REMARK H PARENT 3 6 80 17 8 33 67 52 35 63
REMARK Flexibility Score: inf
ROOT
ATOM      1  C   UNL A   1      32.776  29.266  24.576  1.00  0.00     0.023 C 
ENDROOT
BRANCH   1   2
ATOM      2  C   UNL A   1      31.324  29.660  24.827  1.00  0.00     0.116 C 
BRANCH   2   3
ATOM      3  N   UNL A   1      30.605  29.998  23.608  1.00  0.00    -0.352 N 
ATOM      4  O   UNL A   1      29.649  29.636  21.591  1.00  0.00    -0.269 OA
ATOM      5  C   UNL A   1      30.127  29.171  22.621  1.00  0.00     0.251 C 
ATOM      6  H   UNL A   1      30.436  30.958  23.470  1.00  0.00     0.163 HD
BRANCH   5   7
ATOM      7  C   UNL A   1      30.228  27.705  22.774  1.00  0.00     0.039 A 
ATOM      8  C   UNL A   1      29.364  27.004  23.624  1.00  0.00     0.014 A 
ATOM      9  C   UNL A   1      31.232  27.034  22.067  1.00  0.00     0.014 A 
ATOM     10  C   UNL A   1      29.589  25.651  23.869  1.00  0.00     0.010 A 
ATOM     11  C   UNL A   1      31.432  25.672  22.276  1.00  0.00     0.010 A 
ATOM     12  C   UNL A   1      30.632  25.000  23.205  1.00  0.00    -0.005 A 
BRANCH  12  13
ATOM     13  C   UNL A   1      31.015  23.633  23.582  1.00  0.00     0.141 C 
ATOM     14  N   UNL A   1      31.878  22.998  22.861  1.00  0.00    -0.180 NA
BRANCH  14  15
ATOM     15  N   UNL A   1      32.080  21.672  23.056  1.00  0.00    -0.243 N 
ATOM     16  C   UNL A   1      32.748  20.976  24.045  1.00  0.00     0.271 C 
ATOM     17  H   UNL A   1      31.676  21.098  22.365  1.00  0.00     0.194 HD
ATOM     18  O   UNL A   1      32.757  19.742  24.000  1.00  0.00    -0.267 OA
BRANCH  16  19
ATOM     19  C   UNL A   1      33.502  21.620  25.148  1.00  0.00     0.049 A 
ATOM     20  C   UNL A   1      32.823  21.613  26.381  1.00  0.00     0.014 A 
ATOM     21  C   UNL A   1      34.754  22.286  25.013  1.00  0.00    -0.006 A 
ATOM     22  C   UNL A   1      33.353  22.263  27.488  1.00  0.00     0.001 A 
ATOM     23  C   UNL A   1      35.272  22.953  26.159  1.00  0.00    -0.018 A 
ATOM     24  C   UNL A   1      35.534  22.341  23.831  1.00  0.00     0.009 A 
ATOM     25  C   UNL A   1      34.562  22.939  27.369  1.00  0.00     0.009 A 
ATOM     26  C   UNL A   1      36.499  23.630  26.093  1.00  0.00     0.009 A 
ATOM     27  C   UNL A   1      36.782  22.971  23.800  1.00  0.00     0.001 A 
ATOM     28  C   UNL A   1      37.259  23.626  24.926  1.00  0.00     0.001 A 
ENDBRANCH  16  19
ENDBRANCH  14  15
ENDBRANCH  12  13
ENDBRANCH   5   7
ENDBRANCH   2   3
ENDBRANCH   1   2
BRANCH   1  29
ATOM     29  C   UNL A   1      33.381  28.303  25.593  1.00  0.00     0.023 C 
BRANCH  29  30
ATOM     30  C   UNL A   1      34.343  28.931  26.593  1.00  0.00     0.116 C 
BRANCH  30  31
ATOM     31  N   UNL A   1      34.015  30.313  26.912  1.00  0.00    -0.352 N 
ATOM     32  C   UNL A   1      34.627  31.160  27.808  1.00  0.00     0.251 C 
ATOM     33  H   UNL A   1      33.251  30.693  26.420  1.00  0.00     0.163 HD
ATOM     34  O   UNL A   1      34.138  32.258  28.052  1.00  0.00    -0.269 OA
BRANCH  32  35
ATOM     35  C   UNL A   1      35.856  30.712  28.499  1.00  0.00     0.039 A 
ATOM     36  C   UNL A   1      35.749  29.829  29.576  1.00  0.00     0.014 A 
ATOM     37  C   UNL A   1      37.112  31.114  28.038  1.00  0.00     0.014 A 
ATOM     38  C   UNL A   1      36.906  29.278  30.134  1.00  0.00     0.010 A 
ATOM     39  C   UNL A   1      38.256  30.505  28.544  1.00  0.00     0.010 A 
ATOM     40  C   UNL A   1      38.167  29.573  29.592  1.00  0.00    -0.014 A 
BRANCH  40  41
ATOM     41  C   UNL A   1      39.411  28.928  30.091  1.00  0.00     0.031 A 
ATOM     42  C   UNL A   1      40.141  29.530  31.262  1.00  0.00     0.074 A 
ATOM     43  C   UNL A   1      39.935  27.870  29.435  1.00  0.00     0.049 A 
ATOM     44  N   UNL A   1      41.314  29.225  31.751  1.00  0.00    -0.248 NA
ATOM     45  C   UNL A   1      39.474  30.645  31.953  1.00  0.00     0.031 C 
ATOM     46  C   UNL A   1      39.337  27.213  28.271  1.00  0.00     0.029 A 
ATOM     47  N   UNL A   1      41.102  27.173  29.640  1.00  0.00    -0.354 N 
ATOM     48  C   UNL A   1      41.542  30.131  32.783  1.00  0.00     0.074 A 
ATOM     49  C   UNL A   1      40.400  31.020  32.823  1.00  0.00     0.031 C 
ATOM     50  C   UNL A   1      40.133  26.205  27.874  1.00  0.00     0.029 A 
ATOM     51  C   UNL A   1      41.327  26.179  28.713  1.00  0.00     0.049 A 
ATOM     52  H   UNL A   1      41.721  27.367  30.380  1.00  0.00     0.167 HD
ATOM     53  C   UNL A   1      42.601  30.206  33.624  1.00  0.00     0.034 A 
ATOM     54  C   UNL A   1      42.386  25.360  28.540  1.00  0.00     0.034 A 
ATOM     55  C   UNL A   1      43.713  29.288  33.597  1.00  0.00     0.049 A 
ATOM     56  C   UNL A   1      43.561  25.480  29.484  1.00  0.00     0.074 A 
ATOM     57  C   UNL A   1      44.792  29.223  34.461  1.00  0.00     0.029 A 
ATOM     58  N   UNL A   1      43.893  28.283  32.658  1.00  0.00    -0.354 N 
ATOM     59  N   UNL A   1      43.728  26.302  30.495  1.00  0.00    -0.248 NA
ATOM     60  C   UNL A   1      44.686  24.558  29.272  1.00  0.00     0.031 C 
ATOM     61  C   UNL A   1      45.662  28.232  34.000  1.00  0.00     0.029 A 
ATOM     62  C   UNL A   1      45.085  27.619  32.900  1.00  0.00     0.049 A 
ATOM     63  H   UNL A   1      43.268  28.072  31.927  1.00  0.00     0.167 HD
ATOM     64  C   UNL A   1      44.954  25.961  31.061  1.00  0.00     0.074 A 
ATOM     65  C   UNL A   1      45.479  24.858  30.289  1.00  0.00     0.031 C 
ATOM     66  C   UNL A   1      45.587  26.507  32.130  1.00  0.00     0.034 A 
BRANCH  53  67
ATOM     67  C   UNL A   1      42.632  31.331  34.627  1.00  0.00     0.023 A 
ATOM     68  C   UNL A   1      43.192  32.584  34.325  1.00  0.00     0.031 A 
ATOM     69  C   UNL A   1      42.066  31.151  35.902  1.00  0.00     0.131 A 
ATOM     70  C   UNL A   1      43.215  33.592  35.302  1.00  0.00     0.055 A 
ATOM     71  C   UNL A   1      42.027  32.180  36.843  1.00  0.00     0.041 A 
ATOM     72  F   UNL A   1      41.537  29.968  36.253  1.00  0.00    -0.206 F 
ATOM     73  C   UNL A   1      42.612  33.407  36.548  1.00  0.00     0.022 A 
BRANCH  70  74
ATOM     74  S   UNL A   1      44.136  35.115  34.955  1.00  0.00     0.124 S 
ATOM     75  O   UNL A   1      44.586  35.498  36.291  1.00  0.00    -0.237 OA
ATOM     76  O   UNL A   1      45.174  34.656  34.039  1.00  0.00    -0.237 OA
ATOM     77  O   UNL A   1      43.130  35.997  34.366  1.00  0.00    -0.744 OA
ENDBRANCH  70  74
ENDBRANCH  53  67
BRANCH  54  78
ATOM     78  C   UNL A   1      42.422  24.370  27.420  1.00  0.00     0.023 A 
ATOM     79  C   UNL A   1      41.762  23.136  27.528  1.00  0.00     0.031 A 
ATOM     80  C   UNL A   1      43.197  24.600  26.269  1.00  0.00     0.131 A 
ATOM     81  C   UNL A   1      41.949  22.151  26.546  1.00  0.00     0.055 A 
ATOM     82  C   UNL A   1      43.323  23.643  25.259  1.00  0.00     0.041 A 
ATOM     83  F   UNL A   1      43.852  25.760  26.109  1.00  0.00    -0.206 F 
ATOM     84  C   UNL A   1      42.714  22.401  25.405  1.00  0.00     0.022 A 
BRANCH  81  85
ATOM     85  S   UNL A   1      41.297  20.486  26.854  1.00  0.00     0.124 S 
ATOM     86  O   UNL A   1      40.893  20.581  28.252  1.00  0.00    -0.237 OA
ATOM     87  O   UNL A   1      40.215  20.401  25.877  1.00  0.00    -0.237 OA
ATOM     88  O   UNL A   1      42.442  19.618  26.592  1.00  0.00    -0.744 OA
ENDBRANCH  81  85
ENDBRANCH  54  78
BRANCH  66  89
ATOM     89  C   UNL A   1      46.879  25.867  32.576  1.00  0.00     0.023 A 
ATOM     90  C   UNL A   1      46.916  24.869  33.565  1.00  0.00     0.031 A 
ATOM     91  C   UNL A   1      48.093  26.256  31.979  1.00  0.00     0.131 A 
ATOM     92  C   UNL A   1      48.148  24.325  33.959  1.00  0.00     0.055 A 
ATOM     93  C   UNL A   1      49.307  25.668  32.333  1.00  0.00     0.041 A 
ATOM     94  F   UNL A   1      48.115  27.205  31.031  1.00  0.00    -0.206 F 
ATOM     95  C   UNL A   1      49.340  24.704  33.336  1.00  0.00     0.022 A 
BRANCH  92  96
ATOM     96  S   UNL A   1      48.182  23.160  35.349  1.00  0.00     0.124 S 
ATOM     97  O   UNL A   1      49.541  22.634  35.270  1.00  0.00    -0.237 OA
ATOM     98  O   UNL A   1      47.901  24.024  36.489  1.00  0.00    -0.237 OA
ATOM     99  O   UNL A   1      47.127  22.204  35.021  1.00  0.00    -0.744 OA
ENDBRANCH  92  96
ENDBRANCH  66  89
ENDBRANCH  40  41
ENDBRANCH  32  35
ENDBRANCH  30  31
ENDBRANCH  29  30
ENDBRANCH   1  29
TORSDOF 17
ENDMDL
