MODEL 1
REMARK VINA RESULT:     -11.1      0.000      0.000
REMARK SMILES CC(C)(C)OC(=O)c1c(F)ccc(C(=O)NCCCCNC(=O)c2ccc(-c3c4nc(c(-c5cc(S(=O)(=O)[O-])ccc5F)c5ccc([nH]5)c(-c5cc(S(=O)(=O)[O-])ccc5F)c5nc(c(-c6cc(S(=O)(=O)[O-])ccc6F)c6ccc3[nH]6)C=C5)C=C4)cc2)c1N
REMARK SMILES IDX 18 1 17 2 16 3 14 4 15 5 13 7 8 8 9 9 87 10 10 11 11 12
REMARK SMILES IDX 12 13 6 14 7 15 5 16 2 17 1 18 3 19 4 20 88 21 19 24 20 25
REMARK SMILES IDX 21 26 22 27 23 29 24 30 25 31 86 32 26 33 85 34 27 35 28 36
REMARK SMILES IDX 29 37 79 38 30 39 84 40 78 41 80 42 31 43 83 44 77 45 76 46
REMARK SMILES IDX 32 48 64 49 44 50 63 51 45 52 48 53 62 54 81 55 46 56 47 57
REMARK SMILES IDX 61 59 82 60 49 61 33 62 34 63 42 64 35 65 41 66 43 67 40 68
REMARK SMILES IDX 36 69 37 70 38 71 39 72 65 73 66 74 74 75 67 76 73 77 75 78
REMARK SMILES IDX 72 79 68 80 69 81 70 82 71 83 50 84 51 85 59 86 52 87 58 88
REMARK SMILES IDX 60 89 57 90 53 91 54 92 55 93 56 94
REMARK H PARENT 16 6 88 22 88 23 21 28 80 47 48 58
REMARK Flexibility Score: inf
ROOT
ATOM      1  C   UNL A   1      32.929  26.938  26.045  1.00  0.00     0.023 C 
ENDROOT
BRANCH   1   2
ATOM      2  C   UNL A   1      33.908  26.023  25.319  1.00  0.00     0.116 C 
BRANCH   2   3
ATOM      3  N   UNL A   1      33.753  25.969  23.873  1.00  0.00    -0.352 N 
ATOM      4  C   UNL A   1      33.941  24.906  23.017  1.00  0.00     0.253 C 
ATOM      5  O   UNL A   1      33.709  25.047  21.818  1.00  0.00    -0.269 OA
ATOM      6  H   UNL A   1      33.474  26.811  23.447  1.00  0.00     0.163 HD
BRANCH   4   7
ATOM      7  C   UNL A   1      34.517  23.616  23.491  1.00  0.00     0.063 A 
ATOM      8  C   UNL A   1      34.368  21.407  24.461  1.00  0.00     0.119 A 
ATOM      9  C   UNL A   1      35.746  21.452  24.719  1.00  0.00     0.139 A 
ATOM     10  C   UNL A   1      33.767  22.436  23.697  1.00  0.00     0.062 A 
ATOM     11  F   UNL A   1      36.374  20.443  25.340  1.00  0.00    -0.206 F 
ATOM     12  C   UNL A   1      36.520  22.537  24.326  1.00  0.00     0.041 A 
ATOM     13  C   UNL A   1      35.899  23.639  23.752  1.00  0.00     0.019 A 
BRANCH   8  14
ATOM     14  C   UNL A   1      33.606  20.317  25.137  1.00  0.00     0.343 C 
ATOM     15  O   UNL A   1      33.464  20.257  26.347  1.00  0.00    -0.246 OA
BRANCH  14  16
ATOM     16  O   UNL A   1      33.042  19.471  24.241  1.00  0.00    -0.456 OA
BRANCH  16  17
ATOM     17  C   UNL A   1      33.353  18.051  24.268  1.00  0.00     0.104 C 
ATOM     18  C   UNL A   1      32.883  17.524  22.904  1.00  0.00     0.056 C 
ATOM     19  C   UNL A   1      32.558  17.329  25.364  1.00  0.00     0.056 C 
ATOM     20  C   UNL A   1      34.859  17.812  24.397  1.00  0.00     0.056 C 
ENDBRANCH  16  17
ENDBRANCH  14  16
ENDBRANCH   8  14
BRANCH  10  21
ATOM     21  N   UNL A   1      32.449  22.346  23.242  1.00  0.00    -0.397 N 
ATOM     22  H   UNL A   1      32.155  22.890  22.476  1.00  0.00     0.156 HD
ATOM     23  H   UNL A   1      31.815  21.739  23.687  1.00  0.00     0.156 HD
ENDBRANCH  10  21
ENDBRANCH   4   7
ENDBRANCH   2   3
ENDBRANCH   1   2
BRANCH   1  24
ATOM     24  C   UNL A   1      33.541  28.019  26.936  1.00  0.00     0.023 C 
BRANCH  24  25
ATOM     25  C   UNL A   1      34.267  29.162  26.233  1.00  0.00     0.116 C 
BRANCH  25  26
ATOM     26  N   UNL A   1      33.891  30.484  26.708  1.00  0.00    -0.352 N 
ATOM     27  C   UNL A   1      34.467  31.286  27.668  1.00  0.00     0.251 C 
ATOM     28  H   UNL A   1      33.094  30.868  26.274  1.00  0.00     0.163 HD
ATOM     29  O   UNL A   1      33.925  32.346  27.969  1.00  0.00    -0.269 OA
BRANCH  27  30
ATOM     30  C   UNL A   1      35.700  30.857  28.370  1.00  0.00     0.039 A 
ATOM     31  C   UNL A   1      35.595  29.912  29.396  1.00  0.00     0.014 A 
ATOM     32  C   UNL A   1      36.954  31.360  28.018  1.00  0.00     0.014 A 
ATOM     33  C   UNL A   1      36.752  29.396  29.988  1.00  0.00     0.010 A 
ATOM     34  C   UNL A   1      38.107  30.785  28.549  1.00  0.00     0.010 A 
ATOM     35  C   UNL A   1      38.021  29.784  29.529  1.00  0.00    -0.014 A 
BRANCH  35  36
ATOM     36  C   UNL A   1      39.265  29.143  30.041  1.00  0.00     0.031 A 
ATOM     37  C   UNL A   1      39.963  29.699  31.254  1.00  0.00     0.074 A 
ATOM     38  C   UNL A   1      39.811  28.109  29.368  1.00  0.00     0.049 A 
ATOM     39  N   UNL A   1      41.109  29.356  31.782  1.00  0.00    -0.248 NA
ATOM     40  C   UNL A   1      39.292  30.811  31.946  1.00  0.00     0.031 C 
ATOM     41  C   UNL A   1      39.258  27.503  28.154  1.00  0.00     0.029 A 
ATOM     42  N   UNL A   1      40.961  27.392  29.597  1.00  0.00    -0.354 N 
ATOM     43  C   UNL A   1      41.309  30.218  32.855  1.00  0.00     0.074 A 
ATOM     44  C   UNL A   1      40.189  31.137  32.865  1.00  0.00     0.031 C 
ATOM     45  C   UNL A   1      40.054  26.496  27.761  1.00  0.00     0.029 A 
ATOM     46  C   UNL A   1      41.201  26.414  28.659  1.00  0.00     0.049 A 
ATOM     47  H   UNL A   1      41.557  27.563  30.362  1.00  0.00     0.167 HD
ATOM     48  C   UNL A   1      42.317  30.228  33.762  1.00  0.00     0.034 A 
ATOM     49  C   UNL A   1      42.235  25.558  28.526  1.00  0.00     0.034 A 
ATOM     50  C   UNL A   1      43.418  29.295  33.754  1.00  0.00     0.049 A 
ATOM     51  C   UNL A   1      43.354  25.600  29.537  1.00  0.00     0.074 A 
ATOM     52  C   UNL A   1      44.464  29.188  34.655  1.00  0.00     0.029 A 
ATOM     53  N   UNL A   1      43.618  28.309  32.797  1.00  0.00    -0.354 N 
ATOM     54  N   UNL A   1      43.502  26.397  30.571  1.00  0.00    -0.248 NA
ATOM     55  C   UNL A   1      44.437  24.623  29.370  1.00  0.00     0.031 C 
ATOM     56  C   UNL A   1      45.326  28.180  34.210  1.00  0.00     0.029 A 
ATOM     57  C   UNL A   1      44.782  27.607  33.073  1.00  0.00     0.049 A 
ATOM     58  H   UNL A   1      43.021  28.133  32.033  1.00  0.00     0.167 HD
ATOM     59  C   UNL A   1      44.679  25.990  31.194  1.00  0.00     0.074 A 
ATOM     60  C   UNL A   1      45.191  24.872  30.430  1.00  0.00     0.031 C 
ATOM     61  C   UNL A   1      45.283  26.495  32.301  1.00  0.00     0.034 A 
BRANCH  48  62
ATOM     62  C   UNL A   1      42.282  31.297  34.829  1.00  0.00     0.023 A 
ATOM     63  C   UNL A   1      42.916  32.539  34.648  1.00  0.00     0.031 A 
ATOM     64  C   UNL A   1      41.620  31.068  36.047  1.00  0.00     0.131 A 
ATOM     65  C   UNL A   1      42.937  33.474  35.693  1.00  0.00     0.055 A 
ATOM     66  C   UNL A   1      41.575  32.035  37.055  1.00  0.00     0.041 A 
ATOM     67  F   UNL A   1      41.012  29.896  36.286  1.00  0.00    -0.206 F 
ATOM     68  C   UNL A   1      42.248  33.241  36.886  1.00  0.00     0.022 A 
BRANCH  65  69
ATOM     69  S   UNL A   1      43.988  34.941  35.521  1.00  0.00     0.124 S 
ATOM     70  O   UNL A   1      43.393  35.845  36.503  1.00  0.00    -0.237 OA
ATOM     71  O   UNL A   1      45.311  34.424  35.848  1.00  0.00    -0.237 OA
ATOM     72  O   UNL A   1      43.800  35.337  34.127  1.00  0.00    -0.744 OA
ENDBRANCH  65  69
ENDBRANCH  48  62
BRANCH  49  73
ATOM     73  C   UNL A   1      42.283  24.592  27.388  1.00  0.00     0.023 A 
ATOM     74  C   UNL A   1      41.523  23.413  27.409  1.00  0.00     0.031 A 
ATOM     75  C   UNL A   1      43.138  24.805  26.291  1.00  0.00     0.131 A 
ATOM     76  C   UNL A   1      41.673  22.465  26.385  1.00  0.00     0.055 A 
ATOM     77  C   UNL A   1      43.241  23.884  25.246  1.00  0.00     0.041 A 
ATOM     78  F   UNL A   1      43.885  25.918  26.218  1.00  0.00    -0.206 F 
ATOM     79  C   UNL A   1      42.517  22.698  25.298  1.00  0.00     0.022 A 
BRANCH  76  80
ATOM     80  S   UNL A   1      40.822  20.870  26.549  1.00  0.00     0.124 S 
ATOM     81  O   UNL A   1      40.831  20.676  27.994  1.00  0.00    -0.237 OA
ATOM     82  O   UNL A   1      39.524  21.158  25.948  1.00  0.00    -0.237 OA
ATOM     83  O   UNL A   1      41.669  19.953  25.789  1.00  0.00    -0.744 OA
ENDBRANCH  76  80
ENDBRANCH  49  73
BRANCH  61  84
ATOM     84  C   UNL A   1      46.534  25.798  32.778  1.00  0.00     0.023 A 
ATOM     85  C   UNL A   1      47.794  26.075  32.220  1.00  0.00     0.031 A 
ATOM     86  C   UNL A   1      46.458  24.836  33.799  1.00  0.00     0.131 A 
ATOM     87  C   UNL A   1      48.920  25.356  32.648  1.00  0.00     0.055 A 
ATOM     88  C   UNL A   1      47.591  24.165  34.262  1.00  0.00     0.041 A 
ATOM     89  F   UNL A   1      45.280  24.532  34.366  1.00  0.00    -0.206 F 
ATOM     90  C   UNL A   1      48.829  24.415  33.677  1.00  0.00     0.022 A 
BRANCH  87  91
ATOM     91  S   UNL A   1      50.495  25.605  31.783  1.00  0.00     0.124 S 
ATOM     92  O   UNL A   1      50.283  26.892  31.129  1.00  0.00    -0.237 OA
ATOM     93  O   UNL A   1      51.457  25.599  32.880  1.00  0.00    -0.237 OA
ATOM     94  O   UNL A   1      50.577  24.457  30.883  1.00  0.00    -0.744 OA
ENDBRANCH  87  91
ENDBRANCH  61  84
ENDBRANCH  35  36
ENDBRANCH  27  30
ENDBRANCH  25  26
ENDBRANCH  24  25
ENDBRANCH   1  24
TORSDOF 18
ENDMDL
MODEL 2
REMARK VINA RESULT:     -11.1      2.402      8.163
REMARK SMILES CC(C)(C)OC(=O)c1c(F)ccc(C(=O)NCCCCNC(=O)c2ccc(-c3c4nc(c(-c5cc(S(=O)(=O)[O-])ccc5F)c5ccc([nH]5)c(-c5cc(S(=O)(=O)[O-])ccc5F)c5nc(c(-c6cc(S(=O)(=O)[O-])ccc6F)c6ccc3[nH]6)C=C5)C=C4)cc2)c1N
REMARK SMILES IDX 18 1 17 2 16 3 14 4 15 5 13 7 8 8 9 9 87 10 10 11 11 12
REMARK SMILES IDX 12 13 6 14 7 15 5 16 2 17 1 18 3 19 4 20 88 21 19 24 20 25
REMARK SMILES IDX 21 26 22 27 23 29 24 30 25 31 86 32 26 33 85 34 27 35 28 36
REMARK SMILES IDX 29 37 79 38 30 39 84 40 78 41 80 42 31 43 83 44 77 45 76 46
REMARK SMILES IDX 32 48 64 49 44 50 63 51 45 52 48 53 62 54 81 55 46 56 47 57
REMARK SMILES IDX 61 59 82 60 49 61 33 62 34 63 42 64 35 65 41 66 43 67 40 68
REMARK SMILES IDX 36 69 37 70 38 71 39 72 65 73 66 74 74 75 67 76 73 77 75 78
REMARK SMILES IDX 72 79 68 80 69 81 70 82 71 83 50 84 51 85 59 86 52 87 58 88
REMARK SMILES IDX 60 89 57 90 53 91 54 92 55 93 56 94
REMARK H PARENT 16 6 88 22 88 23 21 28 80 47 48 58
REMARK Flexibility Score: inf
ROOT
ATOM      1  C   UNL A   1      32.704  26.800  26.020  1.00  0.00     0.023 C 
ENDROOT
BRANCH   1   2
ATOM      2  C   UNL A   1      33.831  26.134  25.238  1.00  0.00     0.116 C 
BRANCH   2   3
ATOM      3  N   UNL A   1      33.631  26.064  23.799  1.00  0.00    -0.352 N 
ATOM      4  C   UNL A   1      33.782  24.989  22.950  1.00  0.00     0.253 C 
ATOM      5  O   UNL A   1      33.515  25.118  21.757  1.00  0.00    -0.269 OA
ATOM      6  H   UNL A   1      33.349  26.904  23.371  1.00  0.00     0.163 HD
BRANCH   4   7
ATOM      7  C   UNL A   1      34.358  23.699  23.423  1.00  0.00     0.063 A 
ATOM      8  C   UNL A   1      34.218  21.510  24.441  1.00  0.00     0.119 A 
ATOM      9  C   UNL A   1      35.608  21.538  24.635  1.00  0.00     0.139 A 
ATOM     10  C   UNL A   1      33.600  22.535  23.686  1.00  0.00     0.062 A 
ATOM     11  F   UNL A   1      36.246  20.529  25.247  1.00  0.00    -0.206 F 
ATOM     12  C   UNL A   1      36.379  22.602  24.187  1.00  0.00     0.041 A 
ATOM     13  C   UNL A   1      35.751  23.703  23.620  1.00  0.00     0.019 A 
BRANCH   8  14
ATOM     14  C   UNL A   1      33.471  20.446  25.172  1.00  0.00     0.343 C 
ATOM     15  O   UNL A   1      33.486  20.339  26.387  1.00  0.00    -0.246 OA
BRANCH  14  16
ATOM     16  O   UNL A   1      32.729  19.687  24.328  1.00  0.00    -0.456 OA
BRANCH  16  17
ATOM     17  C   UNL A   1      33.059  18.288  24.109  1.00  0.00     0.104 C 
ATOM     18  C   UNL A   1      32.312  17.534  25.219  1.00  0.00     0.056 C 
ATOM     19  C   UNL A   1      34.563  18.039  24.283  1.00  0.00     0.056 C 
ATOM     20  C   UNL A   1      32.549  17.801  22.750  1.00  0.00     0.056 C 
ENDBRANCH  16  17
ENDBRANCH  14  16
ENDBRANCH   8  14
BRANCH  10  21
ATOM     21  N   UNL A   1      32.261  22.459  23.292  1.00  0.00    -0.397 N 
ATOM     22  H   UNL A   1      31.549  22.444  23.971  1.00  0.00     0.156 HD
ATOM     23  H   UNL A   1      32.031  22.419  22.335  1.00  0.00     0.156 HD
ENDBRANCH  10  21
ENDBRANCH   4   7
ENDBRANCH   2   3
ENDBRANCH   1   2
BRANCH   1  24
ATOM     24  C   UNL A   1      32.125  28.081  25.419  1.00  0.00     0.023 C 
BRANCH  24  25
ATOM     25  C   UNL A   1      33.062  29.282  25.326  1.00  0.00     0.116 C 
BRANCH  25  26
ATOM     26  N   UNL A   1      32.563  30.475  25.993  1.00  0.00    -0.352 N 
ATOM     27  C   UNL A   1      33.115  31.230  27.004  1.00  0.00     0.251 C 
ATOM     28  H   UNL A   1      31.689  30.794  25.669  1.00  0.00     0.163 HD
ATOM     29  O   UNL A   1      32.471  32.162  27.477  1.00  0.00    -0.269 OA
BRANCH  27  30
ATOM     30  C   UNL A   1      34.450  30.894  27.555  1.00  0.00     0.039 A 
ATOM     31  C   UNL A   1      35.383  31.921  27.728  1.00  0.00     0.014 A 
ATOM     32  C   UNL A   1      34.783  29.587  27.917  1.00  0.00     0.014 A 
ATOM     33  C   UNL A   1      36.601  31.655  28.362  1.00  0.00     0.010 A 
ATOM     34  C   UNL A   1      35.959  29.341  28.623  1.00  0.00     0.010 A 
ATOM     35  C   UNL A   1      36.876  30.375  28.868  1.00  0.00    -0.014 A 
BRANCH  35  36
ATOM     36  C   UNL A   1      38.099  30.101  29.674  1.00  0.00     0.031 A 
ATOM     37  C   UNL A   1      39.139  29.133  29.173  1.00  0.00     0.074 A 
ATOM     38  C   UNL A   1      38.238  30.663  30.893  1.00  0.00     0.049 A 
ATOM     39  N   UNL A   1      40.207  28.678  29.775  1.00  0.00    -0.248 NA
ATOM     40  C   UNL A   1      38.928  28.582  27.825  1.00  0.00     0.031 C 
ATOM     41  C   UNL A   1      37.283  31.584  31.514  1.00  0.00     0.029 A 
ATOM     42  N   UNL A   1      39.227  30.531  31.839  1.00  0.00    -0.354 N 
ATOM     43  C   UNL A   1      40.788  27.775  28.890  1.00  0.00     0.074 A 
ATOM     44  C   UNL A   1      39.917  27.705  27.735  1.00  0.00     0.031 C 
ATOM     45  C   UNL A   1      37.743  31.950  32.721  1.00  0.00     0.029 A 
ATOM     46  C   UNL A   1      38.997  31.253  32.988  1.00  0.00     0.049 A 
ATOM     47  H   UNL A   1      40.026  29.971  31.706  1.00  0.00     0.167 HD
ATOM     48  C   UNL A   1      41.948  27.085  29.018  1.00  0.00     0.034 A 
ATOM     49  C   UNL A   1      39.705  31.334  34.133  1.00  0.00     0.034 A 
ATOM     50  C   UNL A   1      42.818  27.177  30.167  1.00  0.00     0.049 A 
ATOM     51  C   UNL A   1      40.984  30.544  34.258  1.00  0.00     0.074 A 
ATOM     52  C   UNL A   1      44.040  26.559  30.375  1.00  0.00     0.029 A 
ATOM     53  N   UNL A   1      42.558  27.931  31.304  1.00  0.00    -0.354 N 
ATOM     54  N   UNL A   1      41.538  29.727  33.391  1.00  0.00    -0.248 NA
ATOM     55  C   UNL A   1      41.738  30.695  35.509  1.00  0.00     0.031 C 
ATOM     56  C   UNL A   1      44.488  26.892  31.657  1.00  0.00     0.029 A 
ATOM     57  C   UNL A   1      43.584  27.775  32.223  1.00  0.00     0.049 A 
ATOM     58  H   UNL A   1      41.762  28.495  31.437  1.00  0.00     0.167 HD
ATOM     59  C   UNL A   1      42.722  29.295  33.983  1.00  0.00     0.074 A 
ATOM     60  C   UNL A   1      42.808  29.953  35.271  1.00  0.00     0.031 C 
ATOM     61  C   UNL A   1      43.657  28.435  33.505  1.00  0.00     0.034 A 
BRANCH  48  62
ATOM     62  C   UNL A   1      42.334  26.158  27.891  1.00  0.00     0.023 A 
ATOM     63  C   UNL A   1      41.792  24.865  27.784  1.00  0.00     0.031 A 
ATOM     64  C   UNL A   1      43.265  26.563  26.919  1.00  0.00     0.131 A 
ATOM     65  C   UNL A   1      42.238  23.999  26.774  1.00  0.00     0.055 A 
ATOM     66  C   UNL A   1      43.645  25.724  25.868  1.00  0.00     0.041 A 
ATOM     67  F   UNL A   1      43.831  27.778  26.978  1.00  0.00    -0.206 F 
ATOM     68  C   UNL A   1      43.141  24.429  25.799  1.00  0.00     0.022 A 
BRANCH  65  69
ATOM     69  S   UNL A   1      41.720  22.262  26.832  1.00  0.00     0.124 S 
ATOM     70  O   UNL A   1      42.194  21.771  25.540  1.00  0.00    -0.237 OA
ATOM     71  O   UNL A   1      42.428  21.760  28.004  1.00  0.00    -0.237 OA
ATOM     72  O   UNL A   1      40.268  22.341  26.966  1.00  0.00    -0.744 OA
ENDBRANCH  65  69
ENDBRANCH  48  62
BRANCH  49  73
ATOM     73  C   UNL A   1      39.226  32.178  35.267  1.00  0.00     0.023 A 
ATOM     74  C   UNL A   1      39.692  33.491  35.437  1.00  0.00     0.031 A 
ATOM     75  C   UNL A   1      38.342  31.663  36.232  1.00  0.00     0.131 A 
ATOM     76  C   UNL A   1      39.320  34.224  36.574  1.00  0.00     0.055 A 
ATOM     77  C   UNL A   1      37.929  32.418  37.333  1.00  0.00     0.041 A 
ATOM     78  F   UNL A   1      37.861  30.414  36.116  1.00  0.00    -0.206 F 
ATOM     79  C   UNL A   1      38.432  33.702  37.516  1.00  0.00     0.022 A 
BRANCH  76  80
ATOM     80  S   UNL A   1      40.097  35.840  36.857  1.00  0.00     0.124 S 
ATOM     81  O   UNL A   1      39.648  36.593  35.692  1.00  0.00    -0.237 OA
ATOM     82  O   UNL A   1      39.518  36.233  38.138  1.00  0.00    -0.237 OA
ATOM     83  O   UNL A   1      41.524  35.529  36.889  1.00  0.00    -0.744 OA
ENDBRANCH  76  80
ENDBRANCH  49  73
BRANCH  61  84
ATOM     84  C   UNL A   1      44.878  28.204  34.361  1.00  0.00     0.023 A 
ATOM     85  C   UNL A   1      44.924  27.185  35.328  1.00  0.00     0.031 A 
ATOM     86  C   UNL A   1      46.009  29.026  34.210  1.00  0.00     0.131 A 
ATOM     87  C   UNL A   1      46.056  27.049  36.146  1.00  0.00     0.055 A 
ATOM     88  C   UNL A   1      47.155  28.849  34.987  1.00  0.00     0.041 A 
ATOM     89  F   UNL A   1      46.019  30.015  33.302  1.00  0.00    -0.206 F 
ATOM     90  C   UNL A   1      47.177  27.864  35.970  1.00  0.00     0.022 A 
BRANCH  87  91
ATOM     91  S   UNL A   1      46.012  25.847  37.504  1.00  0.00     0.124 S 
ATOM     92  O   UNL A   1      47.413  25.798  37.912  1.00  0.00    -0.237 OA
ATOM     93  O   UNL A   1      45.096  26.478  38.448  1.00  0.00    -0.237 OA
ATOM     94  O   UNL A   1      45.506  24.631  36.871  1.00  0.00    -0.744 OA
ENDBRANCH  87  91
ENDBRANCH  61  84
ENDBRANCH  35  36
ENDBRANCH  27  30
ENDBRANCH  25  26
ENDBRANCH  24  25
ENDBRANCH   1  24
TORSDOF 18
ENDMDL
MODEL 3
REMARK VINA RESULT:     -11.0      4.133      9.185
REMARK SMILES CC(C)(C)OC(=O)c1c(F)ccc(C(=O)NCCCCNC(=O)c2ccc(-c3c4nc(c(-c5cc(S(=O)(=O)[O-])ccc5F)c5ccc([nH]5)c(-c5cc(S(=O)(=O)[O-])ccc5F)c5nc(c(-c6cc(S(=O)(=O)[O-])ccc6F)c6ccc3[nH]6)C=C5)C=C4)cc2)c1N
REMARK SMILES IDX 18 1 17 2 16 3 14 4 15 5 13 7 8 8 9 9 87 10 10 11 11 12
REMARK SMILES IDX 12 13 6 14 7 15 5 16 2 17 1 18 3 19 4 20 88 21 19 24 20 25
REMARK SMILES IDX 21 26 22 27 23 29 24 30 25 31 86 32 26 33 85 34 27 35 28 36
REMARK SMILES IDX 29 37 79 38 30 39 84 40 78 41 80 42 31 43 83 44 77 45 76 46
REMARK SMILES IDX 32 48 64 49 44 50 63 51 45 52 48 53 62 54 81 55 46 56 47 57
REMARK SMILES IDX 61 59 82 60 49 61 33 62 34 63 42 64 35 65 41 66 43 67 40 68
REMARK SMILES IDX 36 69 37 70 38 71 39 72 65 73 66 74 74 75 67 76 73 77 75 78
REMARK SMILES IDX 72 79 68 80 69 81 70 82 71 83 50 84 51 85 59 86 52 87 58 88
REMARK SMILES IDX 60 89 57 90 53 91 54 92 55 93 56 94
REMARK H PARENT 16 6 88 22 88 23 21 28 80 47 48 58
REMARK Flexibility Score: inf
ROOT
ATOM      1  C   UNL A   1      32.706  26.488  26.088  1.00  0.00     0.023 C 
ENDROOT
BRANCH   1   2
ATOM      2  C   UNL A   1      33.846  26.953  25.189  1.00  0.00     0.116 C 
BRANCH   2   3
ATOM      3  N   UNL A   1      34.002  26.209  23.949  1.00  0.00    -0.352 N 
ATOM      4  C   UNL A   1      33.164  26.152  22.857  1.00  0.00     0.253 C 
ATOM      5  O   UNL A   1      33.498  25.498  21.871  1.00  0.00    -0.269 OA
ATOM      6  H   UNL A   1      34.823  25.670  23.880  1.00  0.00     0.163 HD
BRANCH   4   7
ATOM      7  C   UNL A   1      31.814  26.782  22.877  1.00  0.00     0.063 A 
ATOM      8  C   UNL A   1      30.304  28.658  23.101  1.00  0.00     0.119 A 
ATOM      9  C   UNL A   1      29.251  27.755  23.314  1.00  0.00     0.139 A 
ATOM     10  C   UNL A   1      31.577  28.167  22.723  1.00  0.00     0.062 A 
ATOM     11  F   UNL A   1      28.005  28.183  23.561  1.00  0.00    -0.206 F 
ATOM     12  C   UNL A   1      29.455  26.382  23.260  1.00  0.00     0.041 A 
ATOM     13  C   UNL A   1      30.743  25.894  23.086  1.00  0.00     0.019 A 
BRANCH   8  14
ATOM     14  C   UNL A   1      30.022  30.087  23.420  1.00  0.00     0.343 C 
ATOM     15  O   UNL A   1      30.172  30.561  24.534  1.00  0.00    -0.246 OA
BRANCH  14  16
ATOM     16  O   UNL A   1      29.665  30.786  22.315  1.00  0.00    -0.456 OA
BRANCH  16  17
ATOM     17  C   UNL A   1      28.482  31.632  22.326  1.00  0.00     0.104 C 
ATOM     18  C   UNL A   1      27.912  31.521  20.904  1.00  0.00     0.056 C 
ATOM     19  C   UNL A   1      28.851  33.099  22.585  1.00  0.00     0.056 C 
ATOM     20  C   UNL A   1      27.437  31.118  23.319  1.00  0.00     0.056 C 
ENDBRANCH  16  17
ENDBRANCH  14  16
ENDBRANCH   8  14
BRANCH  10  21
ATOM     21  N   UNL A   1      32.604  29.018  22.306  1.00  0.00    -0.397 N 
ATOM     22  H   UNL A   1      33.312  29.282  22.938  1.00  0.00     0.156 HD
ATOM     23  H   UNL A   1      32.619  29.355  21.381  1.00  0.00     0.156 HD
ENDBRANCH  10  21
ENDBRANCH   4   7
ENDBRANCH   2   3
ENDBRANCH   1   2
BRANCH   1  24
ATOM     24  C   UNL A   1      31.629  27.525  26.411  1.00  0.00     0.023 C 
BRANCH  24  25
ATOM     25  C   UNL A   1      31.964  28.552  27.487  1.00  0.00     0.116 C 
BRANCH  25  26
ATOM     26  N   UNL A   1      31.818  29.934  27.054  1.00  0.00    -0.352 N 
ATOM     27  C   UNL A   1      32.698  30.990  27.125  1.00  0.00     0.251 C 
ATOM     28  H   UNL A   1      30.948  30.148  26.644  1.00  0.00     0.163 HD
ATOM     29  O   UNL A   1      32.329  32.105  26.766  1.00  0.00    -0.269 OA
BRANCH  27  30
ATOM     30  C   UNL A   1      34.062  30.802  27.675  1.00  0.00     0.039 A 
ATOM     31  C   UNL A   1      34.677  31.873  28.330  1.00  0.00     0.014 A 
ATOM     32  C   UNL A   1      34.731  29.581  27.566  1.00  0.00     0.014 A 
ATOM     33  C   UNL A   1      35.908  31.687  28.968  1.00  0.00     0.010 A 
ATOM     34  C   UNL A   1      35.915  29.373  28.272  1.00  0.00     0.010 A 
ATOM     35  C   UNL A   1      36.510  30.419  28.995  1.00  0.00    -0.014 A 
BRANCH  35  36
ATOM     36  C   UNL A   1      37.744  30.159  29.788  1.00  0.00     0.031 A 
ATOM     37  C   UNL A   1      38.826  29.265  29.240  1.00  0.00     0.074 A 
ATOM     38  C   UNL A   1      37.858  30.662  31.034  1.00  0.00     0.049 A 
ATOM     39  N   UNL A   1      39.914  28.828  29.820  1.00  0.00    -0.248 NA
ATOM     40  C   UNL A   1      38.640  28.775  27.865  1.00  0.00     0.031 C 
ATOM     41  C   UNL A   1      36.863  31.507  31.700  1.00  0.00     0.029 A 
ATOM     42  N   UNL A   1      38.852  30.527  31.974  1.00  0.00    -0.354 N 
ATOM     43  C   UNL A   1      40.534  27.999  28.891  1.00  0.00     0.074 A 
ATOM     44  C   UNL A   1      39.668  27.950  27.731  1.00  0.00     0.031 C 
ATOM     45  C   UNL A   1      37.306  31.830  32.926  1.00  0.00     0.029 A 
ATOM     46  C   UNL A   1      38.590  31.177  33.158  1.00  0.00     0.049 A 
ATOM     47  H   UNL A   1      39.675  30.011  31.814  1.00  0.00     0.167 HD
ATOM     48  C   UNL A   1      41.725  27.357  28.985  1.00  0.00     0.034 A 
ATOM     49  C   UNL A   1      39.293  31.230  34.308  1.00  0.00     0.034 A 
ATOM     50  C   UNL A   1      42.589  27.427  30.139  1.00  0.00     0.049 A 
ATOM     51  C   UNL A   1      40.607  30.493  34.395  1.00  0.00     0.074 A 
ATOM     52  C   UNL A   1      43.838  26.855  30.317  1.00  0.00     0.029 A 
ATOM     53  N   UNL A   1      42.296  28.110  31.313  1.00  0.00    -0.354 N 
ATOM     54  N   UNL A   1      41.197  29.747  33.488  1.00  0.00    -0.248 NA
ATOM     55  C   UNL A   1      41.353  30.613  35.654  1.00  0.00     0.031 C 
ATOM     56  C   UNL A   1      44.271  27.141  31.617  1.00  0.00     0.029 A 
ATOM     57  C   UNL A   1      43.329  27.952  32.225  1.00  0.00     0.049 A 
ATOM     58  H   UNL A   1      41.476  28.629  31.474  1.00  0.00     0.167 HD
ATOM     59  C   UNL A   1      42.399  29.340  34.060  1.00  0.00     0.074 A 
ATOM     60  C   UNL A   1      42.456  29.933  35.379  1.00  0.00     0.031 C 
ATOM     61  C   UNL A   1      43.372  28.547  33.540  1.00  0.00     0.034 A 
BRANCH  48  62
ATOM     62  C   UNL A   1      42.151  26.506  27.813  1.00  0.00     0.023 A 
ATOM     63  C   UNL A   1      41.716  25.177  27.670  1.00  0.00     0.031 A 
ATOM     64  C   UNL A   1      43.015  27.024  26.832  1.00  0.00     0.131 A 
ATOM     65  C   UNL A   1      42.201  24.389  26.616  1.00  0.00     0.055 A 
ATOM     66  C   UNL A   1      43.431  26.259  25.739  1.00  0.00     0.041 A 
ATOM     67  F   UNL A   1      43.479  28.280  26.922  1.00  0.00    -0.206 F 
ATOM     68  C   UNL A   1      43.035  24.929  25.634  1.00  0.00     0.022 A 
BRANCH  65  69
ATOM     69  S   UNL A   1      41.832  22.614  26.620  1.00  0.00     0.124 S 
ATOM     70  O   UNL A   1      40.387  22.615  26.837  1.00  0.00    -0.237 OA
ATOM     71  O   UNL A   1      42.279  22.195  25.297  1.00  0.00    -0.237 OA
ATOM     72  O   UNL A   1      42.622  22.102  27.737  1.00  0.00    -0.744 OA
ENDBRANCH  65  69
ENDBRANCH  48  62
BRANCH  49  73
ATOM     73  C   UNL A   1      38.777  31.992  35.483  1.00  0.00     0.023 A 
ATOM     74  C   UNL A   1      38.261  31.327  36.605  1.00  0.00     0.031 A 
ATOM     75  C   UNL A   1      38.736  33.398  35.474  1.00  0.00     0.131 A 
ATOM     76  C   UNL A   1      37.674  32.062  37.647  1.00  0.00     0.055 A 
ATOM     77  C   UNL A   1      38.202  34.127  36.539  1.00  0.00     0.041 A 
ATOM     78  F   UNL A   1      39.220  34.086  34.428  1.00  0.00    -0.206 F 
ATOM     79  C   UNL A   1      37.652  33.457  37.627  1.00  0.00     0.022 A 
BRANCH  76  80
ATOM     80  S   UNL A   1      36.843  31.159  38.984  1.00  0.00     0.124 S 
ATOM     81  O   UNL A   1      36.696  29.832  38.400  1.00  0.00    -0.237 OA
ATOM     82  O   UNL A   1      37.809  31.278  40.073  1.00  0.00    -0.237 OA
ATOM     83  O   UNL A   1      35.599  31.901  39.174  1.00  0.00    -0.744 OA
ENDBRANCH  76  80
ENDBRANCH  49  73
BRANCH  61  84
ATOM     84  C   UNL A   1      44.602  28.328  34.385  1.00  0.00     0.023 A 
ATOM     85  C   UNL A   1      44.702  27.251  35.282  1.00  0.00     0.031 A 
ATOM     86  C   UNL A   1      45.686  29.219  34.296  1.00  0.00     0.131 A 
ATOM     87  C   UNL A   1      45.838  27.123  36.096  1.00  0.00     0.055 A 
ATOM     88  C   UNL A   1      46.838  29.054  35.066  1.00  0.00     0.041 A 
ATOM     89  F   UNL A   1      45.643  30.265  33.455  1.00  0.00    -0.206 F 
ATOM     90  C   UNL A   1      46.914  28.008  35.981  1.00  0.00     0.022 A 
BRANCH  87  91
ATOM     91  S   UNL A   1      45.858  25.833  37.371  1.00  0.00     0.124 S 
ATOM     92  O   UNL A   1      44.717  26.208  38.201  1.00  0.00    -0.237 OA
ATOM     93  O   UNL A   1      45.699  24.614  36.584  1.00  0.00    -0.237 OA
ATOM     94  O   UNL A   1      47.166  25.994  38.003  1.00  0.00    -0.744 OA
ENDBRANCH  87  91
ENDBRANCH  61  84
ENDBRANCH  35  36
ENDBRANCH  27  30
ENDBRANCH  25  26
ENDBRANCH  24  25
ENDBRANCH   1  24
TORSDOF 18
ENDMDL
