MODEL 1
REMARK VINA RESULT:     -12.0      0.000      0.000
REMARK SMILES C[C@@H]1CCC[C@H](C)N1C(=O)Cn1cccc1C(=O)NCCCCNC(=O)c1ccc(-c2c3nc(c(-c4cc(S(=O)(=O)[O-])ccc4F)c4ccc([nH]4)c(-c4cc(S(=O)(=O)[O-])ccc4F)c4nc(c(-c5cc(S(=O)(=O)[O-])ccc5F)c5ccc2[nH]5)C=C4)C=C3)cc1
REMARK SMILES IDX 21 1 20 2 19 3 17 4 18 5 16 7 12 8 13 9 14 10 15 11 11 12
REMARK SMILES IDX 9 13 10 14 8 15 1 16 2 17 3 18 4 19 6 20 5 21 7 22 22 23
REMARK SMILES IDX 23 24 24 25 25 26 26 28 27 29 28 30 89 31 29 32 88 33 30 34
REMARK SMILES IDX 31 35 32 36 82 37 33 38 87 39 81 40 83 41 34 42 86 43 80 44
REMARK SMILES IDX 79 45 35 47 67 48 47 49 66 50 48 51 51 52 65 53 84 54 49 55
REMARK SMILES IDX 50 56 64 58 85 59 52 60 36 61 37 62 45 63 38 64 44 65 46 66
REMARK SMILES IDX 43 67 39 68 40 69 41 70 42 71 68 72 69 73 77 74 70 75 76 76
REMARK SMILES IDX 78 77 75 78 71 79 72 80 73 81 74 82 53 83 54 84 62 85 55 86
REMARK SMILES IDX 61 87 63 88 60 89 56 90 57 91 58 92 59 93
REMARK H PARENT 19 6 24 27 83 46 51 57
REMARK Flexibility Score: inf
ROOT
ATOM      1  C   UNL A   1      32.592  29.330  24.751  1.00  0.00     0.023 C 
ENDROOT
BRANCH   1   2
ATOM      2  C   UNL A   1      31.130  29.416  24.232  1.00  0.00     0.116 C 
BRANCH   2   3
ATOM      3  N   UNL A   1      30.349  28.194  24.151  1.00  0.00    -0.351 N 
ATOM      4  C   UNL A   1      30.657  26.859  24.054  1.00  0.00     0.267 C 
ATOM      5  O   UNL A   1      29.960  26.161  24.802  1.00  0.00    -0.268 OA
ATOM      6  H   UNL A   1      29.379  28.361  24.169  1.00  0.00     0.163 HD
BRANCH   4   7
ATOM      7  C   UNL A   1      31.630  26.209  23.177  1.00  0.00     0.107 A 
ATOM      8  N   UNL A   1      32.875  25.623  23.366  1.00  0.00    -0.334 N 
ATOM      9  C   UNL A   1      33.379  25.196  22.137  1.00  0.00     0.087 A 
ATOM     10  C   UNL A   1      32.609  25.727  21.139  1.00  0.00     0.020 A 
ATOM     11  C   UNL A   1      31.528  26.351  21.782  1.00  0.00     0.033 A 
BRANCH   8  12
ATOM     12  C   UNL A   1      33.777  25.548  24.518  1.00  0.00     0.222 C 
BRANCH  12  13
ATOM     13  C   UNL A   1      33.585  24.425  25.500  1.00  0.00     0.242 C 
ATOM     14  O   UNL A   1      32.665  24.471  26.314  1.00  0.00    -0.273 OA
BRANCH  13  15
ATOM     15  N   UNL A   1      34.412  23.316  25.421  1.00  0.00    -0.336 N 
ATOM     16  C   UNL A   1      34.502  22.101  27.557  1.00  0.00     0.031 C 
ATOM     17  C   UNL A   1      34.066  22.062  26.088  1.00  0.00     0.082 C 
ATOM     18  C   UNL A   1      34.591  20.849  25.312  1.00  0.00     0.025 C 
ATOM     19  C   UNL A   1      36.017  21.002  24.781  1.00  0.00     0.004 C 
ATOM     20  C   UNL A   1      35.799  23.501  24.976  1.00  0.00     0.082 C 
ATOM     21  C   UNL A   1      36.200  22.338  24.072  1.00  0.00     0.025 C 
ATOM     22  C   UNL A   1      36.829  23.797  26.064  1.00  0.00     0.031 C 
ENDBRANCH  13  15
ENDBRANCH  12  13
ENDBRANCH   8  12
ENDBRANCH   4   7
ENDBRANCH   2   3
ENDBRANCH   1   2
BRANCH   1  23
ATOM     23  C   UNL A   1      32.895  28.819  26.176  1.00  0.00     0.023 C 
BRANCH  23  24
ATOM     24  C   UNL A   1      34.320  29.072  26.693  1.00  0.00     0.116 C 
BRANCH  24  25
ATOM     25  N   UNL A   1      34.534  30.434  27.160  1.00  0.00    -0.352 N 
ATOM     26  C   UNL A   1      35.564  30.927  27.928  1.00  0.00     0.251 C 
ATOM     27  H   UNL A   1      33.851  31.091  26.891  1.00  0.00     0.163 HD
ATOM     28  O   UNL A   1      35.490  32.043  28.434  1.00  0.00    -0.269 OA
BRANCH  26  29
ATOM     29  C   UNL A   1      36.744  30.080  28.176  1.00  0.00     0.039 A 
ATOM     30  C   UNL A   1      37.784  30.094  27.245  1.00  0.00     0.014 A 
ATOM     31  C   UNL A   1      36.839  29.315  29.347  1.00  0.00     0.014 A 
ATOM     32  C   UNL A   1      38.963  29.422  27.539  1.00  0.00     0.010 A 
ATOM     33  C   UNL A   1      38.024  28.661  29.654  1.00  0.00     0.010 A 
ATOM     34  C   UNL A   1      39.095  28.741  28.761  1.00  0.00    -0.014 A 
BRANCH  34  35
ATOM     35  C   UNL A   1      40.433  28.225  29.124  1.00  0.00     0.031 A 
ATOM     36  C   UNL A   1      40.759  26.903  28.401  1.00  0.00     0.074 A 
ATOM     37  C   UNL A   1      41.107  28.926  30.079  1.00  0.00     0.049 A 
ATOM     38  N   UNL A   1      41.321  25.809  28.828  1.00  0.00    -0.248 NA
ATOM     39  C   UNL A   1      40.246  26.739  27.014  1.00  0.00     0.031 C 
ATOM     40  C   UNL A   1      40.667  30.212  30.672  1.00  0.00     0.029 A 
ATOM     41  N   UNL A   1      42.275  28.698  30.761  1.00  0.00    -0.354 N 
ATOM     42  C   UNL A   1      41.403  24.918  27.729  1.00  0.00     0.074 A 
ATOM     43  C   UNL A   1      40.589  25.489  26.696  1.00  0.00     0.031 C 
ATOM     44  C   UNL A   1      41.491  30.587  31.675  1.00  0.00     0.029 A 
ATOM     45  C   UNL A   1      42.525  29.586  31.840  1.00  0.00     0.049 A 
ATOM     46  H   UNL A   1      42.895  27.973  30.520  1.00  0.00     0.167 HD
ATOM     47  C   UNL A   1      42.261  23.853  27.664  1.00  0.00     0.034 A 
ATOM     48  C   UNL A   1      43.439  29.464  32.849  1.00  0.00     0.034 A 
ATOM     49  C   UNL A   1      43.070  23.776  28.839  1.00  0.00     0.049 A 
ATOM     50  C   UNL A   1      44.106  28.181  32.569  1.00  0.00     0.074 A 
ATOM     51  C   UNL A   1      43.083  23.110  30.038  1.00  0.00     0.029 A 
ATOM     52  N   UNL A   1      44.229  24.507  28.771  1.00  0.00    -0.354 N 
ATOM     53  N   UNL A   1      44.996  27.977  31.653  1.00  0.00    -0.248 NA
ATOM     54  C   UNL A   1      43.611  26.998  33.272  1.00  0.00     0.031 C 
ATOM     55  C   UNL A   1      44.176  23.658  30.766  1.00  0.00     0.029 A 
ATOM     56  C   UNL A   1      44.642  24.757  30.048  1.00  0.00     0.049 A 
ATOM     57  H   UNL A   1      44.681  24.798  27.947  1.00  0.00     0.167 HD
ATOM     58  C   UNL A   1      45.004  26.612  31.494  1.00  0.00     0.074 A 
ATOM     59  C   UNL A   1      44.295  26.057  32.632  1.00  0.00     0.031 C 
ATOM     60  C   UNL A   1      45.250  26.042  30.288  1.00  0.00     0.034 A 
BRANCH  47  61
ATOM     61  C   UNL A   1      42.756  22.986  26.502  1.00  0.00     0.023 A 
ATOM     62  C   UNL A   1      42.237  21.661  26.454  1.00  0.00     0.031 A 
ATOM     63  C   UNL A   1      43.888  23.213  25.706  1.00  0.00     0.131 A 
ATOM     64  C   UNL A   1      42.918  20.613  25.820  1.00  0.00     0.055 A 
ATOM     65  C   UNL A   1      44.519  22.177  24.991  1.00  0.00     0.041 A 
ATOM     66  F   UNL A   1      44.483  24.410  25.643  1.00  0.00    -0.206 F 
ATOM     67  C   UNL A   1      44.067  20.862  25.084  1.00  0.00     0.022 A 
BRANCH  64  68
ATOM     68  S   UNL A   1      42.375  18.911  26.159  1.00  0.00     0.124 S 
ATOM     69  O   UNL A   1      40.998  18.923  25.680  1.00  0.00    -0.237 OA
ATOM     70  O   UNL A   1      43.319  18.127  25.367  1.00  0.00    -0.237 OA
ATOM     71  O   UNL A   1      42.530  18.787  27.607  1.00  0.00    -0.744 OA
ENDBRANCH  64  68
ENDBRANCH  47  61
BRANCH  48  72
ATOM     72  C   UNL A   1      43.774  30.134  34.163  1.00  0.00     0.023 A 
ATOM     73  C   UNL A   1      42.855  30.697  35.065  1.00  0.00     0.031 A 
ATOM     74  C   UNL A   1      45.139  30.197  34.583  1.00  0.00     0.131 A 
ATOM     75  C   UNL A   1      43.298  31.202  36.319  1.00  0.00     0.055 A 
ATOM     76  C   UNL A   1      45.560  30.631  35.839  1.00  0.00     0.041 A 
ATOM     77  F   UNL A   1      46.147  29.821  33.782  1.00  0.00    -0.206 F 
ATOM     78  C   UNL A   1      44.632  31.123  36.726  1.00  0.00     0.022 A 
BRANCH  75  79
ATOM     79  S   UNL A   1      42.148  31.970  37.499  1.00  0.00     0.124 S 
ATOM     80  O   UNL A   1      42.609  31.422  38.770  1.00  0.00    -0.237 OA
ATOM     81  O   UNL A   1      42.370  33.399  37.300  1.00  0.00    -0.237 OA
ATOM     82  O   UNL A   1      40.845  31.483  37.048  1.00  0.00    -0.744 OA
ENDBRANCH  75  79
ENDBRANCH  48  72
BRANCH  60  83
ATOM     83  C   UNL A   1      45.664  27.041  29.208  1.00  0.00     0.023 A 
ATOM     84  C   UNL A   1      44.766  27.997  28.711  1.00  0.00     0.031 A 
ATOM     85  C   UNL A   1      46.913  26.961  28.551  1.00  0.00     0.131 A 
ATOM     86  C   UNL A   1      45.130  28.813  27.618  1.00  0.00     0.055 A 
ATOM     87  C   UNL A   1      47.288  27.787  27.491  1.00  0.00     0.041 A 
ATOM     88  F   UNL A   1      47.822  26.060  28.926  1.00  0.00    -0.206 F 
ATOM     89  C   UNL A   1      46.388  28.720  27.014  1.00  0.00     0.022 A 
BRANCH  86  90
ATOM     90  S   UNL A   1      43.939  30.022  26.981  1.00  0.00     0.124 S 
ATOM     91  O   UNL A   1      43.320  30.530  28.211  1.00  0.00    -0.237 OA
ATOM     92  O   UNL A   1      44.773  30.949  26.255  1.00  0.00    -0.237 OA
ATOM     93  O   UNL A   1      43.044  29.207  26.147  1.00  0.00    -0.744 OA
ENDBRANCH  86  90
ENDBRANCH  60  83
ENDBRANCH  34  35
ENDBRANCH  26  29
ENDBRANCH  24  25
ENDBRANCH  23  24
ENDBRANCH   1  23
TORSDOF 17
ENDMDL
MODEL 2
REMARK VINA RESULT:     -12.0      3.799      9.510
REMARK SMILES C[C@@H]1CCC[C@H](C)N1C(=O)Cn1cccc1C(=O)NCCCCNC(=O)c1ccc(-c2c3nc(c(-c4cc(S(=O)(=O)[O-])ccc4F)c4ccc([nH]4)c(-c4cc(S(=O)(=O)[O-])ccc4F)c4nc(c(-c5cc(S(=O)(=O)[O-])ccc5F)c5ccc2[nH]5)C=C4)C=C3)cc1
REMARK SMILES IDX 21 1 20 2 19 3 17 4 18 5 16 7 12 8 13 9 14 10 15 11 11 12
REMARK SMILES IDX 9 13 10 14 8 15 1 16 2 17 3 18 4 19 6 20 5 21 7 22 22 23
REMARK SMILES IDX 23 24 24 25 25 26 26 28 27 29 28 30 89 31 29 32 88 33 30 34
REMARK SMILES IDX 31 35 32 36 82 37 33 38 87 39 81 40 83 41 34 42 86 43 80 44
REMARK SMILES IDX 79 45 35 47 67 48 47 49 66 50 48 51 51 52 65 53 84 54 49 55
REMARK SMILES IDX 50 56 64 58 85 59 52 60 36 61 37 62 45 63 38 64 44 65 46 66
REMARK SMILES IDX 43 67 39 68 40 69 41 70 42 71 68 72 69 73 77 74 70 75 76 76
REMARK SMILES IDX 78 77 75 78 71 79 72 80 73 81 74 82 53 83 54 84 62 85 55 86
REMARK SMILES IDX 61 87 63 88 60 89 56 90 57 91 58 92 59 93
REMARK H PARENT 19 6 24 27 83 46 51 57
REMARK Flexibility Score: inf
ROOT
ATOM      1  C   UNL A   1      36.911  21.746  24.581  1.00  0.00     0.023 C 
ENDROOT
BRANCH   1   2
ATOM      2  C   UNL A   1      36.612  20.286  25.017  1.00  0.00     0.116 C 
BRANCH   2   3
ATOM      3  N   UNL A   1      35.247  19.798  24.919  1.00  0.00    -0.351 N 
ATOM      4  C   UNL A   1      34.009  20.392  24.931  1.00  0.00     0.267 C 
ATOM      5  O   UNL A   1      33.257  19.928  24.064  1.00  0.00    -0.268 OA
ATOM      6  H   UNL A   1      35.199  18.820  24.823  1.00  0.00     0.163 HD
BRANCH   4   7
ATOM      7  C   UNL A   1      33.499  21.420  25.838  1.00  0.00     0.107 A 
ATOM      8  N   UNL A   1      32.980  22.697  25.673  1.00  0.00    -0.334 N 
ATOM      9  C   UNL A   1      32.693  23.247  26.923  1.00  0.00     0.087 A 
ATOM     10  C   UNL A   1      33.257  22.460  27.889  1.00  0.00     0.020 A 
ATOM     11  C   UNL A   1      33.753  21.331  27.219  1.00  0.00     0.033 A 
BRANCH   8  12
ATOM     12  C   UNL A   1      32.866  23.584  24.512  1.00  0.00     0.222 C 
BRANCH  12  13
ATOM     13  C   UNL A   1      33.299  25.017  24.667  1.00  0.00     0.242 C 
ATOM     14  O   UNL A   1      34.432  25.275  25.069  1.00  0.00    -0.273 OA
BRANCH  13  15
ATOM     15  N   UNL A   1      32.430  26.025  24.284  1.00  0.00    -0.336 N 
ATOM     16  C   UNL A   1      32.153  26.100  21.842  1.00  0.00     0.031 C 
ATOM     17  C   UNL A   1      31.477  25.832  23.192  1.00  0.00     0.082 C 
ATOM     18  C   UNL A   1      30.191  26.634  23.418  1.00  0.00     0.025 C 
ATOM     19  C   UNL A   1      30.412  28.059  23.925  1.00  0.00     0.004 C 
ATOM     20  C   UNL A   1      32.704  27.398  24.725  1.00  0.00     0.082 C 
ATOM     21  C   UNL A   1      31.390  28.084  25.092  1.00  0.00     0.025 C 
ATOM     22  C   UNL A   1      33.585  28.244  23.809  1.00  0.00     0.031 C 
ENDBRANCH  13  15
ENDBRANCH  12  13
ENDBRANCH   8  12
ENDBRANCH   4   7
ENDBRANCH   2   3
ENDBRANCH   1   2
BRANCH   1  23
ATOM     23  C   UNL A   1      36.632  22.929  25.534  1.00  0.00     0.023 C 
BRANCH  23  24
ATOM     24  C   UNL A   1      37.799  23.903  25.758  1.00  0.00     0.116 C 
BRANCH  24  25
ATOM     25  N   UNL A   1      39.031  23.246  26.171  1.00  0.00    -0.352 N 
ATOM     26  C   UNL A   1      40.139  23.800  26.770  1.00  0.00     0.251 C 
ATOM     27  H   UNL A   1      39.077  22.278  26.001  1.00  0.00     0.163 HD
ATOM     28  O   UNL A   1      41.189  23.168  26.850  1.00  0.00    -0.269 OA
BRANCH  26  29
ATOM     29  C   UNL A   1      40.068  25.182  27.276  1.00  0.00     0.039 A 
ATOM     30  C   UNL A   1      39.700  25.388  28.606  1.00  0.00     0.014 A 
ATOM     31  C   UNL A   1      40.412  26.261  26.451  1.00  0.00     0.014 A 
ATOM     32  C   UNL A   1      39.778  26.668  29.138  1.00  0.00     0.010 A 
ATOM     33  C   UNL A   1      40.511  27.539  26.984  1.00  0.00     0.010 A 
ATOM     34  C   UNL A   1      40.222  27.733  28.337  1.00  0.00    -0.014 A 
BRANCH  34  35
ATOM     35  C   UNL A   1      40.492  29.030  28.997  1.00  0.00     0.031 A 
ATOM     36  C   UNL A   1      39.193  29.752  29.407  1.00  0.00     0.074 A 
ATOM     37  C   UNL A   1      41.799  29.411  29.054  1.00  0.00     0.049 A 
ATOM     38  N   UNL A   1      38.846  31.004  29.321  1.00  0.00    -0.248 NA
ATOM     39  C   UNL A   1      38.056  28.907  29.858  1.00  0.00     0.031 C 
ATOM     40  C   UNL A   1      42.955  28.585  28.633  1.00  0.00     0.029 A 
ATOM     41  N   UNL A   1      42.422  30.568  29.450  1.00  0.00    -0.354 N 
ATOM     42  C   UNL A   1      37.548  31.123  29.879  1.00  0.00     0.074 A 
ATOM     43  C   UNL A   1      37.066  29.782  30.042  1.00  0.00     0.031 C 
ATOM     44  C   UNL A   1      44.105  29.293  28.701  1.00  0.00     0.029 A 
ATOM     45  C   UNL A   1      43.809  30.636  29.153  1.00  0.00     0.049 A 
ATOM     46  H   UNL A   1      41.944  31.296  29.907  1.00  0.00     0.167 HD
ATOM     47  C   UNL A   1      37.009  32.298  30.329  1.00  0.00     0.034 A 
ATOM     48  C   UNL A   1      44.631  31.728  29.177  1.00  0.00     0.034 A 
ATOM     49  C   UNL A   1      37.934  33.375  30.180  1.00  0.00     0.049 A 
ATOM     50  C   UNL A   1      43.742  32.833  29.573  1.00  0.00     0.074 A 
ATOM     51  C   UNL A   1      38.203  34.386  29.293  1.00  0.00     0.029 A 
ATOM     52  N   UNL A   1      38.779  33.541  31.248  1.00  0.00    -0.354 N 
ATOM     53  N   UNL A   1      43.304  33.058  30.768  1.00  0.00    -0.248 NA
ATOM     54  C   UNL A   1      43.173  33.653  28.503  1.00  0.00     0.031 C 
ATOM     55  C   UNL A   1      39.390  35.009  29.773  1.00  0.00     0.029 A 
ATOM     56  C   UNL A   1      39.881  34.219  30.811  1.00  0.00     0.049 A 
ATOM     57  H   UNL A   1      38.619  33.227  32.167  1.00  0.00     0.167 HD
ATOM     58  C   UNL A   1      42.226  33.888  30.577  1.00  0.00     0.074 A 
ATOM     59  C   UNL A   1      42.312  34.374  29.212  1.00  0.00     0.031 C 
ATOM     60  C   UNL A   1      41.144  33.842  31.394  1.00  0.00     0.034 A 
BRANCH  47  61
ATOM     61  C   UNL A   1      35.818  32.613  31.240  1.00  0.00     0.023 A 
ATOM     62  C   UNL A   1      34.899  33.581  30.745  1.00  0.00     0.031 A 
ATOM     63  C   UNL A   1      35.711  32.334  32.610  1.00  0.00     0.131 A 
ATOM     64  C   UNL A   1      34.085  34.344  31.592  1.00  0.00     0.055 A 
ATOM     65  C   UNL A   1      34.823  33.037  33.448  1.00  0.00     0.041 A 
ATOM     66  F   UNL A   1      36.501  31.442  33.218  1.00  0.00    -0.206 F 
ATOM     67  C   UNL A   1      34.042  34.079  32.953  1.00  0.00     0.022 A 
BRANCH  64  68
ATOM     68  S   UNL A   1      33.258  35.806  30.897  1.00  0.00     0.124 S 
ATOM     69  O   UNL A   1      33.714  35.792  29.512  1.00  0.00    -0.237 OA
ATOM     70  O   UNL A   1      31.848  35.487  31.108  1.00  0.00    -0.237 OA
ATOM     71  O   UNL A   1      33.772  36.906  31.711  1.00  0.00    -0.744 OA
ENDBRANCH  64  68
ENDBRANCH  47  61
BRANCH  48  72
ATOM     72  C   UNL A   1      46.034  32.100  28.749  1.00  0.00     0.023 A 
ATOM     73  C   UNL A   1      46.379  32.921  27.662  1.00  0.00     0.031 A 
ATOM     74  C   UNL A   1      47.143  31.619  29.511  1.00  0.00     0.131 A 
ATOM     75  C   UNL A   1      47.737  33.279  27.435  1.00  0.00     0.055 A 
ATOM     76  C   UNL A   1      48.464  32.025  29.325  1.00  0.00     0.041 A 
ATOM     77  F   UNL A   1      46.993  30.725  30.499  1.00  0.00    -0.206 F 
ATOM     78  C   UNL A   1      48.767  32.876  28.290  1.00  0.00     0.022 A 
BRANCH  75  79
ATOM     79  S   UNL A   1      48.230  34.309  26.021  1.00  0.00     0.124 S 
ATOM     80  O   UNL A   1      48.657  35.539  26.678  1.00  0.00    -0.237 OA
ATOM     81  O   UNL A   1      49.283  33.523  25.386  1.00  0.00    -0.237 OA
ATOM     82  O   UNL A   1      46.993  34.414  25.248  1.00  0.00    -0.744 OA
ENDBRANCH  75  79
ENDBRANCH  48  72
BRANCH  60  83
ATOM     83  C   UNL A   1      41.322  32.918  32.598  1.00  0.00     0.023 A 
ATOM     84  C   UNL A   1      40.943  31.568  32.549  1.00  0.00     0.031 A 
ATOM     85  C   UNL A   1      41.732  33.402  33.860  1.00  0.00     0.131 A 
ATOM     86  C   UNL A   1      40.988  30.774  33.716  1.00  0.00     0.055 A 
ATOM     87  C   UNL A   1      41.808  32.613  35.009  1.00  0.00     0.041 A 
ATOM     88  F   UNL A   1      42.078  34.680  34.019  1.00  0.00    -0.206 F 
ATOM     89  C   UNL A   1      41.428  31.286  34.940  1.00  0.00     0.022 A 
BRANCH  86  90
ATOM     90  S   UNL A   1      40.468  29.040  33.626  1.00  0.00     0.124 S 
ATOM     91  O   UNL A   1      39.009  29.155  33.509  1.00  0.00    -0.237 OA
ATOM     92  O   UNL A   1      41.166  28.552  32.462  1.00  0.00    -0.237 OA
ATOM     93  O   UNL A   1      40.929  28.482  34.906  1.00  0.00    -0.744 OA
ENDBRANCH  86  90
ENDBRANCH  60  83
ENDBRANCH  34  35
ENDBRANCH  26  29
ENDBRANCH  24  25
ENDBRANCH  23  24
ENDBRANCH   1  23
TORSDOF 17
ENDMDL
MODEL 3
REMARK VINA RESULT:     -11.8      3.104      8.360
REMARK SMILES C[C@@H]1CCC[C@H](C)N1C(=O)Cn1cccc1C(=O)NCCCCNC(=O)c1ccc(-c2c3nc(c(-c4cc(S(=O)(=O)[O-])ccc4F)c4ccc([nH]4)c(-c4cc(S(=O)(=O)[O-])ccc4F)c4nc(c(-c5cc(S(=O)(=O)[O-])ccc5F)c5ccc2[nH]5)C=C4)C=C3)cc1
REMARK SMILES IDX 21 1 20 2 19 3 17 4 18 5 16 7 12 8 13 9 14 10 15 11 11 12
REMARK SMILES IDX 9 13 10 14 8 15 1 16 2 17 3 18 4 19 6 20 5 21 7 22 22 23
REMARK SMILES IDX 23 24 24 25 25 26 26 28 27 29 28 30 89 31 29 32 88 33 30 34
REMARK SMILES IDX 31 35 32 36 82 37 33 38 87 39 81 40 83 41 34 42 86 43 80 44
REMARK SMILES IDX 79 45 35 47 67 48 47 49 66 50 48 51 51 52 65 53 84 54 49 55
REMARK SMILES IDX 50 56 64 58 85 59 52 60 36 61 37 62 45 63 38 64 44 65 46 66
REMARK SMILES IDX 43 67 39 68 40 69 41 70 42 71 68 72 69 73 77 74 70 75 76 76
REMARK SMILES IDX 78 77 75 78 71 79 72 80 73 81 74 82 53 83 54 84 62 85 55 86
REMARK SMILES IDX 61 87 63 88 60 89 56 90 57 91 58 92 59 93
REMARK H PARENT 19 6 24 27 83 46 51 57
REMARK Flexibility Score: inf
ROOT
ATOM      1  C   UNL A   1      33.390  28.501  26.294  1.00  0.00     0.023 C 
ENDROOT
BRANCH   1   2
ATOM      2  C   UNL A   1      32.688  27.458  27.207  1.00  0.00     0.116 C 
BRANCH   2   3
ATOM      3  N   UNL A   1      31.305  27.111  26.931  1.00  0.00    -0.351 N 
ATOM      4  C   UNL A   1      30.669  26.411  25.936  1.00  0.00     0.267 C 
ATOM      5  O   UNL A   1      29.805  25.643  26.380  1.00  0.00    -0.268 OA
ATOM      6  H   UNL A   1      30.683  27.457  27.611  1.00  0.00     0.163 HD
BRANCH   4   7
ATOM      7  C   UNL A   1      30.858  26.507  24.489  1.00  0.00     0.107 A 
ATOM      8  N   UNL A   1      31.727  25.922  23.578  1.00  0.00    -0.334 N 
ATOM      9  C   UNL A   1      31.476  26.431  22.303  1.00  0.00     0.087 A 
ATOM     10  C   UNL A   1      30.649  27.514  22.418  1.00  0.00     0.020 A 
ATOM     11  C   UNL A   1      30.267  27.560  23.768  1.00  0.00     0.033 A 
BRANCH   8  12
ATOM     12  C   UNL A   1      32.907  25.066  23.733  1.00  0.00     0.222 C 
BRANCH  12  13
ATOM     13  C   UNL A   1      32.705  23.660  24.229  1.00  0.00     0.242 C 
ATOM     14  O   UNL A   1      31.572  23.186  24.286  1.00  0.00    -0.273 OA
BRANCH  13  15
ATOM     15  N   UNL A   1      33.815  22.897  24.550  1.00  0.00    -0.336 N 
ATOM     16  C   UNL A   1      33.665  21.997  26.834  1.00  0.00     0.031 C 
ATOM     17  C   UNL A   1      33.691  21.670  25.336  1.00  0.00     0.082 C 
ATOM     18  C   UNL A   1      34.753  20.638  24.940  1.00  0.00     0.025 C 
ATOM     19  C   UNL A   1      36.155  21.215  24.737  1.00  0.00     0.004 C 
ATOM     20  C   UNL A   1      35.148  23.498  24.415  1.00  0.00     0.082 C 
ATOM     21  C   UNL A   1      36.118  22.458  23.858  1.00  0.00     0.025 C 
ATOM     22  C   UNL A   1      35.692  24.229  25.639  1.00  0.00     0.031 C 
ENDBRANCH  13  15
ENDBRANCH  12  13
ENDBRANCH   8  12
ENDBRANCH   4   7
ENDBRANCH   2   3
ENDBRANCH   1   2
BRANCH   1  23
ATOM     23  C   UNL A   1      34.101  29.731  26.900  1.00  0.00     0.023 C 
BRANCH  23  24
ATOM     24  C   UNL A   1      35.456  29.460  27.572  1.00  0.00     0.116 C 
BRANCH  24  25
ATOM     25  N   UNL A   1      35.521  29.920  28.951  1.00  0.00    -0.352 N 
ATOM     26  C   UNL A   1      36.470  29.636  29.907  1.00  0.00     0.251 C 
ATOM     27  H   UNL A   1      34.790  30.513  29.240  1.00  0.00     0.163 HD
ATOM     28  O   UNL A   1      36.271  29.908  31.088  1.00  0.00    -0.269 OA
BRANCH  26  29
ATOM     29  C   UNL A   1      37.715  28.958  29.505  1.00  0.00     0.039 A 
ATOM     30  C   UNL A   1      38.261  29.252  28.254  1.00  0.00     0.014 A 
ATOM     31  C   UNL A   1      38.361  28.076  30.382  1.00  0.00     0.014 A 
ATOM     32  C   UNL A   1      39.509  28.739  27.926  1.00  0.00     0.010 A 
ATOM     33  C   UNL A   1      39.618  27.580  30.066  1.00  0.00     0.010 A 
ATOM     34  C   UNL A   1      40.203  27.938  28.848  1.00  0.00    -0.014 A 
BRANCH  34  35
ATOM     35  C   UNL A   1      41.609  27.593  28.546  1.00  0.00     0.031 A 
ATOM     36  C   UNL A   1      42.505  28.845  28.455  1.00  0.00     0.074 A 
ATOM     37  C   UNL A   1      41.866  26.276  28.313  1.00  0.00     0.049 A 
ATOM     38  N   UNL A   1      43.450  29.162  27.617  1.00  0.00    -0.248 NA
ATOM     39  C   UNL A   1      42.193  29.976  29.370  1.00  0.00     0.031 C 
ATOM     40  C   UNL A   1      40.890  25.170  28.464  1.00  0.00     0.029 A 
ATOM     41  N   UNL A   1      42.978  25.598  27.881  1.00  0.00    -0.354 N 
ATOM     42  C   UNL A   1      43.966  30.420  28.019  1.00  0.00     0.074 A 
ATOM     43  C   UNL A   1      43.050  30.929  28.997  1.00  0.00     0.031 C 
ATOM     44  C   UNL A   1      41.418  23.999  28.041  1.00  0.00     0.029 A 
ATOM     45  C   UNL A   1      42.765  24.231  27.565  1.00  0.00     0.049 A 
ATOM     46  H   UNL A   1      43.859  26.028  27.798  1.00  0.00     0.167 HD
ATOM     47  C   UNL A   1      45.196  30.899  27.653  1.00  0.00     0.034 A 
ATOM     48  C   UNL A   1      43.584  23.379  26.877  1.00  0.00     0.034 A 
ATOM     49  C   UNL A   1      45.890  29.956  26.836  1.00  0.00     0.049 A 
ATOM     50  C   UNL A   1      44.746  24.212  26.523  1.00  0.00     0.074 A 
ATOM     51  C   UNL A   1      46.112  29.714  25.505  1.00  0.00     0.029 A 
ATOM     52  N   UNL A   1      46.634  29.044  27.541  1.00  0.00    -0.354 N 
ATOM     53  N   UNL A   1      45.691  24.571  27.330  1.00  0.00    -0.248 NA
ATOM     54  C   UNL A   1      44.755  24.823  25.194  1.00  0.00     0.031 C 
ATOM     55  C   UNL A   1      46.826  28.484  25.455  1.00  0.00     0.029 A 
ATOM     56  C   UNL A   1      46.826  27.952  26.743  1.00  0.00     0.049 A 
ATOM     57  H   UNL A   1      46.969  29.156  28.460  1.00  0.00     0.167 HD
ATOM     58  C   UNL A   1      46.284  25.636  26.695  1.00  0.00     0.074 A 
ATOM     59  C   UNL A   1      45.809  25.620  25.324  1.00  0.00     0.031 C 
ATOM     60  C   UNL A   1      46.819  26.667  27.395  1.00  0.00     0.034 A 
BRANCH  47  61
ATOM     61  C   UNL A   1      46.078  32.024  28.204  1.00  0.00     0.023 A 
ATOM     62  C   UNL A   1      46.651  32.893  27.233  1.00  0.00     0.031 A 
ATOM     63  C   UNL A   1      46.658  32.090  29.480  1.00  0.00     0.131 A 
ATOM     64  C   UNL A   1      47.828  33.613  27.474  1.00  0.00     0.055 A 
ATOM     65  C   UNL A   1      47.786  32.888  29.747  1.00  0.00     0.041 A 
ATOM     66  F   UNL A   1      46.222  31.338  30.498  1.00  0.00    -0.206 F 
ATOM     67  C   UNL A   1      48.408  33.615  28.734  1.00  0.00     0.022 A 
BRANCH  64  68
ATOM     68  S   UNL A   1      48.678  34.366  26.053  1.00  0.00     0.124 S 
ATOM     69  O   UNL A   1      49.304  35.539  26.652  1.00  0.00    -0.237 OA
ATOM     70  O   UNL A   1      49.585  33.298  25.641  1.00  0.00    -0.237 OA
ATOM     71  O   UNL A   1      47.590  34.649  25.119  1.00  0.00    -0.744 OA
ENDBRANCH  64  68
ENDBRANCH  47  61
BRANCH  48  72
ATOM     72  C   UNL A   1      43.526  21.996  26.267  1.00  0.00     0.023 A 
ATOM     73  C   UNL A   1      44.598  21.301  25.682  1.00  0.00     0.031 A 
ATOM     74  C   UNL A   1      42.290  21.277  26.295  1.00  0.00     0.131 A 
ATOM     75  C   UNL A   1      44.429  19.958  25.243  1.00  0.00     0.055 A 
ATOM     76  C   UNL A   1      42.146  19.941  25.923  1.00  0.00     0.041 A 
ATOM     77  F   UNL A   1      41.146  21.845  26.700  1.00  0.00    -0.206 F 
ATOM     78  C   UNL A   1      43.227  19.265  25.409  1.00  0.00     0.022 A 
BRANCH  75  79
ATOM     79  S   UNL A   1      45.779  19.036  24.449  1.00  0.00     0.124 S 
ATOM     80  O   UNL A   1      45.243  18.811  23.110  1.00  0.00    -0.237 OA
ATOM     81  O   UNL A   1      46.910  19.954  24.540  1.00  0.00    -0.237 OA
ATOM     82  O   UNL A   1      45.890  17.840  25.282  1.00  0.00    -0.744 OA
ENDBRANCH  75  79
ENDBRANCH  48  72
BRANCH  60  83
ATOM     83  C   UNL A   1      46.836  26.442  28.907  1.00  0.00     0.023 A 
ATOM     84  C   UNL A   1      45.800  26.907  29.729  1.00  0.00     0.031 A 
ATOM     85  C   UNL A   1      47.955  25.891  29.570  1.00  0.00     0.131 A 
ATOM     86  C   UNL A   1      45.907  26.809  31.134  1.00  0.00     0.055 A 
ATOM     87  C   UNL A   1      48.053  25.764  30.956  1.00  0.00     0.041 A 
ATOM     88  F   UNL A   1      49.008  25.453  28.879  1.00  0.00    -0.206 F 
ATOM     89  C   UNL A   1      47.022  26.231  31.749  1.00  0.00     0.022 A 
BRANCH  86  90
ATOM     90  S   UNL A   1      44.563  27.443  32.170  1.00  0.00     0.124 S 
ATOM     91  O   UNL A   1      43.368  26.987  31.449  1.00  0.00    -0.237 OA
ATOM     92  O   UNL A   1      44.815  26.820  33.447  1.00  0.00    -0.237 OA
ATOM     93  O   UNL A   1      44.768  28.899  32.137  1.00  0.00    -0.744 OA
ENDBRANCH  86  90
ENDBRANCH  60  83
ENDBRANCH  34  35
ENDBRANCH  26  29
ENDBRANCH  24  25
ENDBRANCH  23  24
ENDBRANCH   1  23
TORSDOF 17
ENDMDL
