MODEL 1
REMARK VINA RESULT:     -10.2      0.000      0.000
REMARK SMILES CCOC(=O)c1c(NC(=O)/C=C/C(=O)NCCCCNC(=O)c2ccc(-c3c4nc(c(-c5cc(S(=O)(=O)[O-])ccc5F)c5ccc([nH]5)c(-c5cc(S(=O)(=O)[O-])ccc5F)c5nc(c(-c6cc(S(=O)(=O)[O-])ccc6F)c6ccc3[nH]6)C=C5)C=C4)cc2)sc(C)c1-c1ccc(C)c(C)c1
REMARK SMILES IDX 16 1 15 2 13 3 14 4 12 6 11 7 9 8 8 9 10 11 7 12 6 13 89 14
REMARK SMILES IDX 86 15 87 16 88 17 4 18 5 19 3 20 2 21 1 22 90 23 91 24 97 25
REMARK SMILES IDX 92 26 95 27 93 28 96 29 94 30 17 31 18 32 19 33 20 34 21 35
REMARK SMILES IDX 22 37 23 38 24 39 85 40 25 41 84 42 26 43 27 44 28 45 78 46
REMARK SMILES IDX 29 47 83 48 77 49 79 50 30 51 82 52 76 53 75 54 31 56 63 57
REMARK SMILES IDX 43 58 62 59 44 60 47 61 61 62 80 63 45 64 46 65 60 67 81 68
REMARK SMILES IDX 48 69 32 70 33 71 41 72 34 73 40 74 42 75 39 76 35 77 36 78
REMARK SMILES IDX 37 79 38 80 64 81 65 82 73 83 66 84 72 85 74 86 71 87 67 88
REMARK SMILES IDX 68 89 69 90 70 91 49 92 50 93 58 94 51 95 57 96 59 97 56 98
REMARK SMILES IDX 52 99 53 100 54 101 55 102
REMARK H PARENT 15 5 8 10 20 36 79 55 47 66
REMARK Flexibility Score: inf
ROOT
ATOM      1  C   UNL A   1      44.891  22.319  24.148  1.00  0.00     0.116 C 
ENDROOT
BRANCH   1   2
ATOM      2  N   UNL A   1      44.840  21.017  23.516  1.00  0.00    -0.353 N 
ATOM      3  C   UNL A   1      44.710  19.814  24.138  1.00  0.00     0.244 C 
ATOM      4  O   UNL A   1      45.012  18.770  23.571  1.00  0.00    -0.270 OA
ATOM      5  H   UNL A   1      44.906  21.000  22.534  1.00  0.00     0.163 HD
BRANCH   3   6
ATOM      6  C   UNL A   1      44.187  19.788  25.517  1.00  0.00     0.077 C 
ATOM      7  C   UNL A   1      42.866  19.606  25.671  1.00  0.00     0.077 C 
BRANCH   7   8
ATOM      8  C   UNL A   1      42.295  19.272  26.979  1.00  0.00     0.249 C 
ATOM      9  N   UNL A   1      41.405  20.104  27.597  1.00  0.00    -0.313 N 
ATOM     10  H   UNL A   1      41.145  19.809  28.500  1.00  0.00     0.171 HD
ATOM     11  O   UNL A   1      42.655  18.232  27.530  1.00  0.00    -0.270 OA
BRANCH   9  12
ATOM     12  C   UNL A   1      40.797  21.286  27.196  1.00  0.00     0.111 A 
ATOM     13  C   UNL A   1      41.185  22.571  27.546  1.00  0.00     0.102 A 
ATOM     14  C   UNL A   1      40.165  23.535  27.169  1.00  0.00     0.012 A 
ATOM     15  S   UNL A   1      39.487  21.325  26.131  1.00  0.00    -0.122 S 
ATOM     16  C   UNL A   1      39.117  22.942  26.486  1.00  0.00     0.012 A 
ATOM     17  C   UNL A   1      37.812  23.483  25.995  1.00  0.00     0.057 C 
BRANCH  13  18
ATOM     18  C   UNL A   1      42.450  22.833  28.223  1.00  0.00     0.341 C 
ATOM     19  O   UNL A   1      42.522  22.964  29.440  1.00  0.00    -0.246 OA
BRANCH  18  20
ATOM     20  O   UNL A   1      43.513  22.924  27.380  1.00  0.00    -0.462 OA
BRANCH  20  21
ATOM     21  C   UNL A   1      44.132  24.214  27.279  1.00  0.00     0.230 C 
ATOM     22  C   UNL A   1      45.334  24.374  28.194  1.00  0.00     0.049 C 
ENDBRANCH  20  21
ENDBRANCH  18  20
ENDBRANCH  13  18
BRANCH  14  23
ATOM     23  C   UNL A   1      40.207  24.973  27.376  1.00  0.00    -0.016 A 
ATOM     24  C   UNL A   1      40.754  25.785  26.384  1.00  0.00     0.009 A 
ATOM     25  C   UNL A   1      39.708  25.546  28.550  1.00  0.00     0.012 A 
ATOM     26  C   UNL A   1      40.814  27.162  26.570  1.00  0.00     0.004 A 
ATOM     27  C   UNL A   1      39.746  26.938  28.743  1.00  0.00    -0.048 A 
ATOM     28  C   UNL A   1      40.313  27.754  27.742  1.00  0.00    -0.048 A 
ATOM     29  C   UNL A   1      39.175  27.509  30.010  1.00  0.00     0.044 C 
ATOM     30  C   UNL A   1      40.437  29.246  27.869  1.00  0.00     0.044 C 
ENDBRANCH  14  23
ENDBRANCH   9  12
ENDBRANCH   7   8
ENDBRANCH   3   6
ENDBRANCH   1   2
BRANCH   1  31
ATOM     31  C   UNL A   1      46.258  22.546  24.784  1.00  0.00     0.023 C 
BRANCH  31  32
ATOM     32  C   UNL A   1      47.030  23.716  24.176  1.00  0.00     0.023 C 
BRANCH  32  33
ATOM     33  C   UNL A   1      47.026  24.987  25.018  1.00  0.00     0.116 C 
BRANCH  33  34
ATOM     34  N   UNL A   1      47.250  26.192  24.229  1.00  0.00    -0.352 N 
ATOM     35  C   UNL A   1      46.861  27.480  24.505  1.00  0.00     0.251 C 
ATOM     36  H   UNL A   1      47.745  26.067  23.387  1.00  0.00     0.163 HD
ATOM     37  O   UNL A   1      47.040  28.376  23.688  1.00  0.00    -0.269 OA
BRANCH  35  38
ATOM     38  C   UNL A   1      46.184  27.741  25.785  1.00  0.00     0.039 A 
ATOM     39  C   UNL A   1      46.938  28.216  26.859  1.00  0.00     0.014 A 
ATOM     40  C   UNL A   1      44.793  27.627  25.872  1.00  0.00     0.014 A 
ATOM     41  C   UNL A   1      46.282  28.663  28.004  1.00  0.00     0.010 A 
ATOM     42  C   UNL A   1      44.141  28.135  26.988  1.00  0.00     0.010 A 
ATOM     43  C   UNL A   1      44.877  28.674  28.055  1.00  0.00    -0.014 A 
BRANCH  43  44
ATOM     44  C   UNL A   1      44.154  29.277  29.201  1.00  0.00     0.031 A 
ATOM     45  C   UNL A   1      43.792  30.733  29.169  1.00  0.00     0.074 A 
ATOM     46  C   UNL A   1      43.907  28.530  30.296  1.00  0.00     0.049 A 
ATOM     47  N   UNL A   1      43.264  31.473  30.109  1.00  0.00    -0.248 NA
ATOM     48  C   UNL A   1      44.092  31.457  27.925  1.00  0.00     0.031 C 
ATOM     49  C   UNL A   1      44.254  27.114  30.449  1.00  0.00     0.029 A 
ATOM     50  N   UNL A   1      43.325  28.859  31.493  1.00  0.00    -0.354 N 
ATOM     51  C   UNL A   1      43.181  32.755  29.576  1.00  0.00     0.074 A 
ATOM     52  C   UNL A   1      43.764  32.699  28.252  1.00  0.00     0.031 C 
ATOM     53  C   UNL A   1      43.864  26.696  31.664  1.00  0.00     0.029 A 
ATOM     54  C   UNL A   1      43.289  27.820  32.395  1.00  0.00     0.049 A 
ATOM     55  H   UNL A   1      42.967  29.754  31.690  1.00  0.00     0.167 HD
ATOM     56  C   UNL A   1      42.647  33.868  30.135  1.00  0.00     0.034 A 
ATOM     57  C   UNL A   1      42.862  27.785  33.672  1.00  0.00     0.034 A 
ATOM     58  C   UNL A   1      42.064  33.899  31.453  1.00  0.00     0.049 A 
ATOM     59  C   UNL A   1      42.306  29.046  34.284  1.00  0.00     0.074 A 
ATOM     60  C   UNL A   1      41.436  34.952  32.093  1.00  0.00     0.029 A 
ATOM     61  N   UNL A   1      42.046  32.829  32.341  1.00  0.00    -0.354 N 
ATOM     62  N   UNL A   1      42.179  30.237  33.747  1.00  0.00    -0.248 NA
ATOM     63  C   UNL A   1      41.833  28.956  35.671  1.00  0.00     0.031 C 
ATOM     64  C   UNL A   1      41.104  34.543  33.390  1.00  0.00     0.029 A 
ATOM     65  C   UNL A   1      41.455  33.210  33.535  1.00  0.00     0.049 A 
ATOM     66  H   UNL A   1      42.401  31.931  32.149  1.00  0.00     0.167 HD
ATOM     67  C   UNL A   1      41.590  31.034  34.725  1.00  0.00     0.074 A 
ATOM     68  C   UNL A   1      41.368  30.180  35.875  1.00  0.00     0.031 C 
ATOM     69  C   UNL A   1      41.260  32.349  34.679  1.00  0.00     0.034 A 
BRANCH  56  70
ATOM     70  C   UNL A   1      42.702  35.144  29.330  1.00  0.00     0.023 A 
ATOM     71  C   UNL A   1      43.871  35.922  29.257  1.00  0.00     0.031 A 
ATOM     72  C   UNL A   1      41.564  35.600  28.643  1.00  0.00     0.131 A 
ATOM     73  C   UNL A   1      43.854  37.150  28.578  1.00  0.00     0.055 A 
ATOM     74  C   UNL A   1      41.577  36.784  27.902  1.00  0.00     0.041 A 
ATOM     75  F   UNL A   1      40.413  34.912  28.693  1.00  0.00    -0.206 F 
ATOM     76  C   UNL A   1      42.722  37.574  27.879  1.00  0.00     0.022 A 
BRANCH  73  77
ATOM     77  S   UNL A   1      45.288  38.248  28.741  1.00  0.00     0.124 S 
ATOM     78  O   UNL A   1      46.251  37.379  29.412  1.00  0.00    -0.237 OA
ATOM     79  O   UNL A   1      45.588  38.582  27.353  1.00  0.00    -0.237 OA
ATOM     80  O   UNL A   1      44.784  39.353  29.554  1.00  0.00    -0.744 OA
ENDBRANCH  73  77
ENDBRANCH  56  70
BRANCH  57  81
ATOM     81  C   UNL A   1      42.964  26.530  34.472  1.00  0.00     0.023 A 
ATOM     82  C   UNL A   1      44.213  26.009  34.844  1.00  0.00     0.031 A 
ATOM     83  C   UNL A   1      41.814  25.805  34.835  1.00  0.00     0.131 A 
ATOM     84  C   UNL A   1      44.287  24.776  35.513  1.00  0.00     0.055 A 
ATOM     85  C   UNL A   1      41.890  24.609  35.548  1.00  0.00     0.041 A 
ATOM     86  F   UNL A   1      40.594  26.261  34.508  1.00  0.00    -0.206 F 
ATOM     87  C   UNL A   1      43.133  24.080  35.880  1.00  0.00     0.022 A 
BRANCH  84  88
ATOM     88  S   UNL A   1      45.921  24.052  35.820  1.00  0.00     0.124 S 
ATOM     89  O   UNL A   1      46.213  23.423  34.536  1.00  0.00    -0.237 OA
ATOM     90  O   UNL A   1      46.716  25.228  36.153  1.00  0.00    -0.237 OA
ATOM     91  O   UNL A   1      45.682  23.129  36.927  1.00  0.00    -0.744 OA
ENDBRANCH  84  88
ENDBRANCH  57  81
BRANCH  69  92
ATOM     92  C   UNL A   1      40.597  32.930  35.904  1.00  0.00     0.023 A 
ATOM     93  C   UNL A   1      41.343  33.551  36.920  1.00  0.00     0.031 A 
ATOM     94  C   UNL A   1      39.202  32.849  36.059  1.00  0.00     0.131 A 
ATOM     95  C   UNL A   1      40.697  34.021  38.073  1.00  0.00     0.055 A 
ATOM     96  C   UNL A   1      38.557  33.374  37.181  1.00  0.00     0.041 A 
ATOM     97  F   UNL A   1      38.442  32.263  35.121  1.00  0.00    -0.206 F 
ATOM     98  C   UNL A   1      39.307  33.953  38.201  1.00  0.00     0.022 A 
BRANCH  95  99
ATOM     99  S   UNL A   1      41.706  34.647  39.444  1.00  0.00     0.124 S 
ATOM    100  O   UNL A   1      40.893  35.755  39.935  1.00  0.00    -0.237 OA
ATOM    101  O   UNL A   1      41.799  33.486  40.321  1.00  0.00    -0.237 OA
ATOM    102  O   UNL A   1      42.958  35.037  38.797  1.00  0.00    -0.744 OA
ENDBRANCH  95  99
ENDBRANCH  69  92
ENDBRANCH  43  44
ENDBRANCH  35  38
ENDBRANCH  33  34
ENDBRANCH  32  33
ENDBRANCH  31  32
ENDBRANCH   1  31
TORSDOF 20
ENDMDL
MODEL 2
REMARK VINA RESULT:      -9.0      7.300     14.905
REMARK SMILES CCOC(=O)c1c(NC(=O)/C=C/C(=O)NCCCCNC(=O)c2ccc(-c3c4nc(c(-c5cc(S(=O)(=O)[O-])ccc5F)c5ccc([nH]5)c(-c5cc(S(=O)(=O)[O-])ccc5F)c5nc(c(-c6cc(S(=O)(=O)[O-])ccc6F)c6ccc3[nH]6)C=C5)C=C4)cc2)sc(C)c1-c1ccc(C)c(C)c1
REMARK SMILES IDX 16 1 15 2 13 3 14 4 12 6 11 7 9 8 8 9 10 11 7 12 6 13 89 14
REMARK SMILES IDX 86 15 87 16 88 17 4 18 5 19 3 20 2 21 1 22 90 23 91 24 97 25
REMARK SMILES IDX 92 26 95 27 93 28 96 29 94 30 17 31 18 32 19 33 20 34 21 35
REMARK SMILES IDX 22 37 23 38 24 39 85 40 25 41 84 42 26 43 27 44 28 45 78 46
REMARK SMILES IDX 29 47 83 48 77 49 79 50 30 51 82 52 76 53 75 54 31 56 63 57
REMARK SMILES IDX 43 58 62 59 44 60 47 61 61 62 80 63 45 64 46 65 60 67 81 68
REMARK SMILES IDX 48 69 32 70 33 71 41 72 34 73 40 74 42 75 39 76 35 77 36 78
REMARK SMILES IDX 37 79 38 80 64 81 65 82 73 83 66 84 72 85 74 86 71 87 67 88
REMARK SMILES IDX 68 89 69 90 70 91 49 92 50 93 58 94 51 95 57 96 59 97 56 98
REMARK SMILES IDX 52 99 53 100 54 101 55 102
REMARK H PARENT 15 5 8 10 20 36 79 55 47 66
REMARK Flexibility Score: inf
ROOT
ATOM      1  C   UNL A   1      47.327  42.130  26.822  1.00  0.00     0.116 C 
ENDROOT
BRANCH   1   2
ATOM      2  N   UNL A   1      47.396  43.454  26.241  1.00  0.00    -0.353 N 
ATOM      3  C   UNL A   1      47.318  43.770  24.920  1.00  0.00     0.244 C 
ATOM      4  O   UNL A   1      47.718  44.850  24.500  1.00  0.00    -0.270 OA
ATOM      5  H   UNL A   1      47.511  44.205  26.867  1.00  0.00     0.163 HD
BRANCH   3   6
ATOM      6  C   UNL A   1      46.731  42.782  23.995  1.00  0.00     0.077 C 
ATOM      7  C   UNL A   1      46.982  42.939  22.686  1.00  0.00     0.077 C 
BRANCH   7   8
ATOM      8  C   UNL A   1      46.701  41.868  21.726  1.00  0.00     0.249 C 
ATOM      9  N   UNL A   1      46.312  42.146  20.447  1.00  0.00    -0.313 N 
ATOM     10  H   UNL A   1      46.085  41.347  19.917  1.00  0.00     0.171 HD
ATOM     11  O   UNL A   1      46.796  40.700  22.103  1.00  0.00    -0.270 OA
BRANCH   9  12
ATOM     12  C   UNL A   1      46.176  43.339  19.750  1.00  0.00     0.111 A 
ATOM     13  C   UNL A   1      44.986  43.981  19.441  1.00  0.00     0.102 A 
ATOM     14  C   UNL A   1      45.212  45.047  18.479  1.00  0.00     0.012 A 
ATOM     15  S   UNL A   1      47.500  44.243  19.218  1.00  0.00    -0.122 S 
ATOM     16  C   UNL A   1      46.557  45.205  18.187  1.00  0.00     0.012 A 
ATOM     17  C   UNL A   1      47.268  46.076  17.201  1.00  0.00     0.057 C 
BRANCH  13  18
ATOM     18  C   UNL A   1      43.716  43.564  20.024  1.00  0.00     0.341 C 
ATOM     19  O   UNL A   1      42.761  43.230  19.332  1.00  0.00    -0.246 OA
BRANCH  18  20
ATOM     20  O   UNL A   1      43.702  43.595  21.384  1.00  0.00    -0.462 OA
BRANCH  20  21
ATOM     21  C   UNL A   1      42.848  42.641  22.030  1.00  0.00     0.230 C 
ATOM     22  C   UNL A   1      41.709  43.285  22.802  1.00  0.00     0.049 C 
ENDBRANCH  20  21
ENDBRANCH  18  20
ENDBRANCH  13  18
BRANCH  14  23
ATOM     23  C   UNL A   1      44.213  45.935  17.912  1.00  0.00    -0.016 A 
ATOM     24  C   UNL A   1      43.321  45.435  16.964  1.00  0.00     0.009 A 
ATOM     25  C   UNL A   1      44.136  47.275  18.303  1.00  0.00     0.012 A 
ATOM     26  C   UNL A   1      42.366  46.274  16.400  1.00  0.00     0.004 A 
ATOM     27  C   UNL A   1      43.163  48.129  17.754  1.00  0.00    -0.048 A 
ATOM     28  C   UNL A   1      42.272  47.622  16.786  1.00  0.00    -0.048 A 
ATOM     29  C   UNL A   1      43.104  49.555  18.224  1.00  0.00     0.044 C 
ATOM     30  C   UNL A   1      41.225  48.462  16.111  1.00  0.00     0.044 C 
ENDBRANCH  14  23
ENDBRANCH   9  12
ENDBRANCH   7   8
ENDBRANCH   3   6
ENDBRANCH   1   2
BRANCH   1  31
ATOM     31  C   UNL A   1      46.101  42.009  27.722  1.00  0.00     0.023 C 
BRANCH  31  32
ATOM     32  C   UNL A   1      44.803  42.457  27.053  1.00  0.00     0.023 C 
BRANCH  32  33
ATOM     33  C   UNL A   1      44.121  41.386  26.209  1.00  0.00     0.116 C 
BRANCH  33  34
ATOM     34  N   UNL A   1      42.667  41.495  26.219  1.00  0.00    -0.352 N 
ATOM     35  C   UNL A   1      41.742  40.562  26.618  1.00  0.00     0.251 C 
ATOM     36  H   UNL A   1      42.300  42.349  25.898  1.00  0.00     0.163 HD
ATOM     37  O   UNL A   1      40.542  40.768  26.472  1.00  0.00    -0.269 OA
BRANCH  35  38
ATOM     38  C   UNL A   1      42.233  39.293  27.179  1.00  0.00     0.039 A 
ATOM     39  C   UNL A   1      42.541  39.234  28.538  1.00  0.00     0.014 A 
ATOM     40  C   UNL A   1      42.269  38.147  26.379  1.00  0.00     0.014 A 
ATOM     41  C   UNL A   1      42.804  37.997  29.122  1.00  0.00     0.010 A 
ATOM     42  C   UNL A   1      42.467  36.909  26.978  1.00  0.00     0.010 A 
ATOM     43  C   UNL A   1      42.718  36.821  28.357  1.00  0.00    -0.014 A 
BRANCH  43  44
ATOM     44  C   UNL A   1      42.851  35.484  28.983  1.00  0.00     0.031 A 
ATOM     45  C   UNL A   1      41.623  34.743  29.424  1.00  0.00     0.074 A 
ATOM     46  C   UNL A   1      44.080  34.987  29.229  1.00  0.00     0.049 A 
ATOM     47  N   UNL A   1      41.530  33.621  30.089  1.00  0.00    -0.248 NA
ATOM     48  C   UNL A   1      40.330  35.362  29.098  1.00  0.00     0.031 C 
ATOM     49  C   UNL A   1      45.343  35.644  28.880  1.00  0.00     0.029 A 
ATOM     50  N   UNL A   1      44.471  33.827  29.846  1.00  0.00    -0.354 N 
ATOM     51  C   UNL A   1      40.168  33.406  30.275  1.00  0.00     0.074 A 
ATOM     52  C   UNL A   1      39.481  34.543  29.700  1.00  0.00     0.031 C 
ATOM     53  C   UNL A   1      46.365  34.868  29.275  1.00  0.00     0.029 A 
ATOM     54  C   UNL A   1      45.836  33.688  29.950  1.00  0.00     0.049 A 
ATOM     55  H   UNL A   1      43.836  33.155  30.183  1.00  0.00     0.167 HD
ATOM     56  C   UNL A   1      39.553  32.346  30.855  1.00  0.00     0.034 A 
ATOM     57  C   UNL A   1      46.576  32.729  30.542  1.00  0.00     0.034 A 
ATOM     58  C   UNL A   1      40.259  31.220  31.413  1.00  0.00     0.049 A 
ATOM     59  C   UNL A   1      45.868  31.579  31.212  1.00  0.00     0.074 A 
ATOM     60  C   UNL A   1      39.738  30.064  31.964  1.00  0.00     0.029 A 
ATOM     61  N   UNL A   1      41.642  31.113  31.504  1.00  0.00    -0.354 N 
ATOM     62  N   UNL A   1      44.578  31.359  31.328  1.00  0.00    -0.248 NA
ATOM     63  C   UNL A   1      46.713  30.548  31.825  1.00  0.00     0.031 C 
ATOM     64  C   UNL A   1      40.799  29.292  32.452  1.00  0.00     0.029 A 
ATOM     65  C   UNL A   1      41.988  29.930  32.138  1.00  0.00     0.049 A 
ATOM     66  H   UNL A   1      42.283  31.781  31.167  1.00  0.00     0.167 HD
ATOM     67  C   UNL A   1      44.459  30.151  32.009  1.00  0.00     0.074 A 
ATOM     68  C   UNL A   1      45.807  29.682  32.257  1.00  0.00     0.031 C 
ATOM     69  C   UNL A   1      43.340  29.488  32.394  1.00  0.00     0.034 A 
BRANCH  56  70
ATOM     70  C   UNL A   1      38.046  32.378  30.935  1.00  0.00     0.023 A 
ATOM     71  C   UNL A   1      37.375  33.092  31.944  1.00  0.00     0.031 A 
ATOM     72  C   UNL A   1      37.269  31.667  30.005  1.00  0.00     0.131 A 
ATOM     73  C   UNL A   1      35.977  33.018  32.043  1.00  0.00     0.055 A 
ATOM     74  C   UNL A   1      35.874  31.663  30.061  1.00  0.00     0.041 A 
ATOM     75  F   UNL A   1      37.853  30.950  29.032  1.00  0.00    -0.206 F 
ATOM     76  C   UNL A   1      35.221  32.329  31.093  1.00  0.00     0.022 A 
BRANCH  73  77
ATOM     77  S   UNL A   1      35.176  33.720  33.510  1.00  0.00     0.124 S 
ATOM     78  O   UNL A   1      35.831  32.980  34.587  1.00  0.00    -0.237 OA
ATOM     79  O   UNL A   1      35.515  35.135  33.409  1.00  0.00    -0.237 OA
ATOM     80  O   UNL A   1      33.763  33.400  33.316  1.00  0.00    -0.744 OA
ENDBRANCH  73  77
ENDBRANCH  56  70
BRANCH  57  81
ATOM     81  C   UNL A   1      48.065  32.821  30.558  1.00  0.00     0.023 A 
ATOM     82  C   UNL A   1      48.736  33.505  31.584  1.00  0.00     0.031 A 
ATOM     83  C   UNL A   1      48.837  32.269  29.521  1.00  0.00     0.131 A 
ATOM     84  C   UNL A   1      50.130  33.662  31.526  1.00  0.00     0.055 A 
ATOM     85  C   UNL A   1      50.228  32.378  29.496  1.00  0.00     0.041 A 
ATOM     86  F   UNL A   1      48.246  31.601  28.516  1.00  0.00    -0.206 F 
ATOM     87  C   UNL A   1      50.882  33.090  30.496  1.00  0.00     0.022 A 
BRANCH  84  88
ATOM     88  S   UNL A   1      50.940  34.699  32.774  1.00  0.00     0.124 S 
ATOM     89  O   UNL A   1      49.850  35.581  33.179  1.00  0.00    -0.237 OA
ATOM     90  O   UNL A   1      51.367  33.712  33.758  1.00  0.00    -0.237 OA
ATOM     91  O   UNL A   1      52.021  35.344  32.031  1.00  0.00    -0.744 OA
ENDBRANCH  84  88
ENDBRANCH  57  81
BRANCH  69  92
ATOM     92  C   UNL A   1      43.537  28.168  33.098  1.00  0.00     0.023 A 
ATOM     93  C   UNL A   1      43.510  28.070  34.500  1.00  0.00     0.031 A 
ATOM     94  C   UNL A   1      43.765  26.996  32.356  1.00  0.00     0.131 A 
ATOM     95  C   UNL A   1      43.762  26.837  35.119  1.00  0.00     0.055 A 
ATOM     96  C   UNL A   1      43.953  25.760  32.975  1.00  0.00     0.041 A 
ATOM     97  F   UNL A   1      43.804  27.033  31.014  1.00  0.00    -0.206 F 
ATOM     98  C   UNL A   1      43.965  25.678  34.365  1.00  0.00     0.022 A 
BRANCH  95  99
ATOM     99  S   UNL A   1      43.904  26.782  36.927  1.00  0.00     0.124 S 
ATOM    100  O   UNL A   1      43.148  25.577  37.252  1.00  0.00    -0.237 OA
ATOM    101  O   UNL A   1      45.347  26.703  37.125  1.00  0.00    -0.237 OA
ATOM    102  O   UNL A   1      43.288  28.036  37.357  1.00  0.00    -0.744 OA
ENDBRANCH  95  99
ENDBRANCH  69  92
ENDBRANCH  43  44
ENDBRANCH  35  38
ENDBRANCH  33  34
ENDBRANCH  32  33
ENDBRANCH  31  32
ENDBRANCH   1  31
TORSDOF 20
ENDMDL
MODEL 3
REMARK VINA RESULT:      -8.9      3.213     12.464
REMARK SMILES CCOC(=O)c1c(NC(=O)/C=C/C(=O)NCCCCNC(=O)c2ccc(-c3c4nc(c(-c5cc(S(=O)(=O)[O-])ccc5F)c5ccc([nH]5)c(-c5cc(S(=O)(=O)[O-])ccc5F)c5nc(c(-c6cc(S(=O)(=O)[O-])ccc6F)c6ccc3[nH]6)C=C5)C=C4)cc2)sc(C)c1-c1ccc(C)c(C)c1
REMARK SMILES IDX 16 1 15 2 13 3 14 4 12 6 11 7 9 8 8 9 10 11 7 12 6 13 89 14
REMARK SMILES IDX 86 15 87 16 88 17 4 18 5 19 3 20 2 21 1 22 90 23 91 24 97 25
REMARK SMILES IDX 92 26 95 27 93 28 96 29 94 30 17 31 18 32 19 33 20 34 21 35
REMARK SMILES IDX 22 37 23 38 24 39 85 40 25 41 84 42 26 43 27 44 28 45 78 46
REMARK SMILES IDX 29 47 83 48 77 49 79 50 30 51 82 52 76 53 75 54 31 56 63 57
REMARK SMILES IDX 43 58 62 59 44 60 47 61 61 62 80 63 45 64 46 65 60 67 81 68
REMARK SMILES IDX 48 69 32 70 33 71 41 72 34 73 40 74 42 75 39 76 35 77 36 78
REMARK SMILES IDX 37 79 38 80 64 81 65 82 73 83 66 84 72 85 74 86 71 87 67 88
REMARK SMILES IDX 68 89 69 90 70 91 49 92 50 93 58 94 51 95 57 96 59 97 56 98
REMARK SMILES IDX 52 99 53 100 54 101 55 102
REMARK H PARENT 15 5 8 10 20 36 79 55 47 66
REMARK Flexibility Score: inf
ROOT
ATOM      1  C   UNL A   1      39.070  33.490  38.176  1.00  0.00     0.116 C 
ENDROOT
BRANCH   1   2
ATOM      2  N   UNL A   1      38.769  32.142  37.739  1.00  0.00    -0.353 N 
ATOM      3  C   UNL A   1      38.321  31.764  36.512  1.00  0.00     0.244 C 
ATOM      4  O   UNL A   1      37.780  30.677  36.340  1.00  0.00    -0.270 OA
ATOM      5  H   UNL A   1      38.905  31.424  38.399  1.00  0.00     0.163 HD
BRANCH   3   6
ATOM      6  C   UNL A   1      38.504  32.692  35.380  1.00  0.00     0.077 C 
ATOM      7  C   UNL A   1      37.552  32.705  34.434  1.00  0.00     0.077 C 
BRANCH   7   8
ATOM      8  C   UNL A   1      37.487  33.779  33.439  1.00  0.00     0.249 C 
ATOM      9  N   UNL A   1      37.397  33.504  32.104  1.00  0.00    -0.313 N 
ATOM     10  H   UNL A   1      37.432  34.304  31.530  1.00  0.00     0.171 HD
ATOM     11  O   UNL A   1      37.543  34.945  33.828  1.00  0.00    -0.270 OA
BRANCH   9  12
ATOM     12  C   UNL A   1      37.268  32.314  31.402  1.00  0.00     0.111 A 
ATOM     13  C   UNL A   1      38.297  31.463  31.027  1.00  0.00     0.102 A 
ATOM     14  C   UNL A   1      37.822  30.468  30.080  1.00  0.00     0.012 A 
ATOM     15  S   UNL A   1      35.771  31.679  30.945  1.00  0.00    -0.122 S 
ATOM     16  C   UNL A   1      36.458  30.568  29.863  1.00  0.00     0.012 A 
ATOM     17  C   UNL A   1      35.543  29.856  28.920  1.00  0.00     0.057 C 
BRANCH  13  18
ATOM     18  C   UNL A   1      39.653  31.628  31.538  1.00  0.00     0.341 C 
ATOM     19  O   UNL A   1      39.998  31.179  32.625  1.00  0.00    -0.246 OA
BRANCH  18  20
ATOM     20  O   UNL A   1      40.471  32.326  30.705  1.00  0.00    -0.462 OA
BRANCH  20  21
ATOM     21  C   UNL A   1      40.446  33.753  30.841  1.00  0.00     0.230 C 
ATOM     22  C   UNL A   1      40.081  34.470  29.553  1.00  0.00     0.049 C 
ENDBRANCH  20  21
ENDBRANCH  18  20
ENDBRANCH  13  18
BRANCH  14  23
ATOM     23  C   UNL A   1      38.604  29.414  29.458  1.00  0.00    -0.016 A 
ATOM     24  C   UNL A   1      38.568  28.131  30.003  1.00  0.00     0.009 A 
ATOM     25  C   UNL A   1      39.388  29.670  28.329  1.00  0.00     0.012 A 
ATOM     26  C   UNL A   1      39.321  27.112  29.428  1.00  0.00     0.004 A 
ATOM     27  C   UNL A   1      40.139  28.645  27.728  1.00  0.00    -0.048 A 
ATOM     28  C   UNL A   1      40.109  27.352  28.290  1.00  0.00    -0.048 A 
ATOM     29  C   UNL A   1      40.946  28.963  26.500  1.00  0.00     0.044 C 
ATOM     30  C   UNL A   1      40.906  26.199  27.747  1.00  0.00     0.044 C 
ENDBRANCH  14  23
ENDBRANCH   9  12
ENDBRANCH   7   8
ENDBRANCH   3   6
ENDBRANCH   1   2
BRANCH   1  31
ATOM     31  C   UNL A   1      40.573  33.658  38.380  1.00  0.00     0.023 C 
BRANCH  31  32
ATOM     32  C   UNL A   1      40.981  35.071  38.794  1.00  0.00     0.023 C 
BRANCH  32  33
ATOM     33  C   UNL A   1      42.433  35.426  38.498  1.00  0.00     0.116 C 
BRANCH  33  34
ATOM     34  N   UNL A   1      42.569  36.559  37.591  1.00  0.00    -0.352 N 
ATOM     35  C   UNL A   1      42.855  36.552  36.249  1.00  0.00     0.251 C 
ATOM     36  H   UNL A   1      42.437  37.447  37.994  1.00  0.00     0.163 HD
ATOM     37  O   UNL A   1      43.034  37.601  35.641  1.00  0.00    -0.269 OA
BRANCH  35  38
ATOM     38  C   UNL A   1      42.987  35.250  35.574  1.00  0.00     0.039 A 
ATOM     39  C   UNL A   1      41.868  34.702  34.947  1.00  0.00     0.014 A 
ATOM     40  C   UNL A   1      44.243  34.646  35.468  1.00  0.00     0.014 A 
ATOM     41  C   UNL A   1      42.025  33.582  34.133  1.00  0.00     0.010 A 
ATOM     42  C   UNL A   1      44.407  33.571  34.604  1.00  0.00     0.010 A 
ATOM     43  C   UNL A   1      43.304  33.041  33.915  1.00  0.00    -0.014 A 
BRANCH  43  44
ATOM     44  C   UNL A   1      43.519  31.943  32.943  1.00  0.00     0.031 A 
ATOM     45  C   UNL A   1      43.505  30.518  33.414  1.00  0.00     0.074 A 
ATOM     46  C   UNL A   1      43.811  32.241  31.661  1.00  0.00     0.049 A 
ATOM     47  N   UNL A   1      43.782  29.426  32.750  1.00  0.00    -0.248 NA
ATOM     48  C   UNL A   1      43.163  30.296  34.827  1.00  0.00     0.031 C 
ATOM     49  C   UNL A   1      43.893  33.595  31.105  1.00  0.00     0.029 A 
ATOM     50  N   UNL A   1      44.114  31.429  30.598  1.00  0.00    -0.354 N 
ATOM     51  C   UNL A   1      43.662  28.387  33.667  1.00  0.00     0.074 A 
ATOM     52  C   UNL A   1      43.342  28.989  34.944  1.00  0.00     0.031 C 
ATOM     53  C   UNL A   1      44.208  33.516  29.802  1.00  0.00     0.029 A 
ATOM     54  C   UNL A   1      44.402  32.116  29.441  1.00  0.00     0.049 A 
ATOM     55  H   UNL A   1      44.124  30.446  30.656  1.00  0.00     0.167 HD
ATOM     56  C   UNL A   1      43.788  27.055  33.454  1.00  0.00     0.034 A 
ATOM     57  C   UNL A   1      44.801  31.669  28.234  1.00  0.00     0.034 A 
ATOM     58  C   UNL A   1      44.100  26.477  32.170  1.00  0.00     0.049 A 
ATOM     59  C   UNL A   1      44.969  30.184  28.032  1.00  0.00     0.074 A 
ATOM     60  C   UNL A   1      44.186  25.141  31.825  1.00  0.00     0.029 A 
ATOM     61  N   UNL A   1      44.388  27.202  31.020  1.00  0.00    -0.354 N 
ATOM     62  N   UNL A   1      44.794  29.209  28.894  1.00  0.00    -0.248 NA
ATOM     63  C   UNL A   1      45.384  29.741  26.696  1.00  0.00     0.031 C 
ATOM     64  C   UNL A   1      44.596  25.057  30.490  1.00  0.00     0.029 A 
ATOM     65  C   UNL A   1      44.692  26.341  29.977  1.00  0.00     0.049 A 
ATOM     66  H   UNL A   1      44.378  28.185  30.955  1.00  0.00     0.167 HD
ATOM     67  C   UNL A   1      45.056  28.034  28.195  1.00  0.00     0.074 A 
ATOM     68  C   UNL A   1      45.379  28.423  26.838  1.00  0.00     0.031 C 
ATOM     69  C   UNL A   1      45.032  26.749  28.633  1.00  0.00     0.034 A 
BRANCH  56  70
ATOM     70  C   UNL A   1      43.617  26.143  34.645  1.00  0.00     0.023 A 
ATOM     71  C   UNL A   1      44.722  25.576  35.305  1.00  0.00     0.031 A 
ATOM     72  C   UNL A   1      42.333  25.817  35.112  1.00  0.00     0.131 A 
ATOM     73  C   UNL A   1      44.519  24.657  36.347  1.00  0.00     0.055 A 
ATOM     74  C   UNL A   1      42.140  24.963  36.201  1.00  0.00     0.041 A 
ATOM     75  F   UNL A   1      41.240  26.309  34.508  1.00  0.00    -0.206 F 
ATOM     76  C   UNL A   1      43.236  24.367  36.815  1.00  0.00     0.022 A 
BRANCH  73  77
ATOM     77  S   UNL A   1      45.950  23.743  36.984  1.00  0.00     0.124 S 
ATOM     78  O   UNL A   1      46.142  24.368  38.290  1.00  0.00    -0.237 OA
ATOM     79  O   UNL A   1      45.463  22.368  37.000  1.00  0.00    -0.237 OA
ATOM     80  O   UNL A   1      46.999  24.023  36.007  1.00  0.00    -0.744 OA
ENDBRANCH  73  77
ENDBRANCH  56  70
BRANCH  57  81
ATOM     81  C   UNL A   1      45.096  32.627  27.129  1.00  0.00     0.023 A 
ATOM     82  C   UNL A   1      46.272  33.393  27.132  1.00  0.00     0.031 A 
ATOM     83  C   UNL A   1      44.182  32.827  26.079  1.00  0.00     0.131 A 
ATOM     84  C   UNL A   1      46.482  34.358  26.133  1.00  0.00     0.055 A 
ATOM     85  C   UNL A   1      44.420  33.748  25.058  1.00  0.00     0.041 A 
ATOM     86  F   UNL A   1      43.043  32.118  26.026  1.00  0.00    -0.206 F 
ATOM     87  C   UNL A   1      45.571  34.530  25.088  1.00  0.00     0.022 A 
BRANCH  84  88
ATOM     88  S   UNL A   1      47.926  35.447  26.268  1.00  0.00     0.124 S 
ATOM     89  O   UNL A   1      48.591  35.217  24.990  1.00  0.00    -0.237 OA
ATOM     90  O   UNL A   1      47.303  36.754  26.442  1.00  0.00    -0.237 OA
ATOM     91  O   UNL A   1      48.632  34.933  27.440  1.00  0.00    -0.744 OA
ENDBRANCH  84  88
ENDBRANCH  57  81
BRANCH  69  92
ATOM     92  C   UNL A   1      45.336  25.676  27.618  1.00  0.00     0.023 A 
ATOM     93  C   UNL A   1      44.314  24.924  27.013  1.00  0.00     0.031 A 
ATOM     94  C   UNL A   1      46.666  25.396  27.260  1.00  0.00     0.131 A 
ATOM     95  C   UNL A   1      44.641  23.891  26.122  1.00  0.00     0.055 A 
ATOM     96  C   UNL A   1      46.983  24.408  26.326  1.00  0.00     0.041 A 
ATOM     97  F   UNL A   1      47.681  26.081  27.810  1.00  0.00    -0.206 F 
ATOM     98  C   UNL A   1      45.968  23.641  25.760  1.00  0.00     0.022 A 
BRANCH  95  99
ATOM     99  S   UNL A   1      43.314  22.821  25.503  1.00  0.00     0.124 S 
ATOM    100  O   UNL A   1      43.711  21.516  26.022  1.00  0.00    -0.237 OA
ATOM    101  O   UNL A   1      42.126  23.413  26.109  1.00  0.00    -0.237 OA
ATOM    102  O   UNL A   1      43.406  22.965  24.051  1.00  0.00    -0.744 OA
ENDBRANCH  95  99
ENDBRANCH  69  92
ENDBRANCH  43  44
ENDBRANCH  35  38
ENDBRANCH  33  34
ENDBRANCH  32  33
ENDBRANCH  31  32
ENDBRANCH   1  31
TORSDOF 20
ENDMDL
