MODEL 1
REMARK VINA RESULT:     -11.5      0.000      0.000
REMARK SMILES O=C(Cn1nc(-c2ccco2)ccc1=O)NCCCCNC(=O)c1ccc(-c2c3nc(c(-c4cc(S(=O)(=O)[O-])ccc4F)c4ccc([nH]4)c(-c4cc(S(=O)(=O)[O-])ccc4F)c4nc(c(-c5cc(S(=O)(=O)[O-])ccc5F)c5ccc2[nH]5)C=C4)C=C3)cc1
REMARK SMILES IDX 19 1 18 2 17 3 16 4 1 5 2 6 3 8 4 9 5 10 14 11 6 12 13 13
REMARK SMILES IDX 15 14 12 15 7 16 8 17 11 18 9 19 10 20 20 21 21 22 22 23
REMARK SMILES IDX 23 25 24 26 25 27 86 28 26 29 85 30 27 31 28 32 29 33 79 34
REMARK SMILES IDX 30 35 84 36 78 37 80 38 31 39 83 40 77 41 76 42 32 44 64 45
REMARK SMILES IDX 44 46 63 47 45 48 48 49 62 50 81 51 46 52 47 53 61 55 82 56
REMARK SMILES IDX 49 57 33 58 34 59 42 60 35 61 41 62 43 63 40 64 36 65 37 66
REMARK SMILES IDX 38 67 39 68 65 69 66 70 74 71 67 72 73 73 75 74 72 75 68 76
REMARK SMILES IDX 69 77 70 78 71 79 50 80 51 81 59 82 52 83 58 84 60 85 57 86
REMARK SMILES IDX 53 87 54 88 55 89 56 90
REMARK H PARENT 16 7 21 24 80 43 48 54
REMARK Flexibility Score: inf
ROOT
ATOM      1  C   UNL A   1      31.405  32.202  26.875  1.00  0.00     0.023 C 
ENDROOT
BRANCH   1   2
ATOM      2  C   UNL A   1      31.612  30.828  26.237  1.00  0.00     0.023 C 
BRANCH   2   3
ATOM      3  C   UNL A   1      32.529  29.883  27.009  1.00  0.00     0.116 C 
BRANCH   3   4
ATOM      4  N   UNL A   1      32.584  28.543  26.463  1.00  0.00    -0.354 N 
ATOM      5  O   UNL A   1      31.154  27.617  27.990  1.00  0.00    -0.273 OA
ATOM      6  C   UNL A   1      31.772  27.530  26.929  1.00  0.00     0.241 C 
ATOM      7  H   UNL A   1      33.222  28.350  25.738  1.00  0.00     0.163 HD
BRANCH   6   8
ATOM      8  C   UNL A   1      31.786  26.226  26.120  1.00  0.00     0.248 C 
BRANCH   8   9
ATOM      9  N   UNL A   1      31.580  26.404  24.683  1.00  0.00    -0.220 N 
ATOM     10  N   UNL A   1      30.635  27.342  24.302  1.00  0.00    -0.166 NA
ATOM     11  C   UNL A   1      32.484  25.829  23.797  1.00  0.00     0.267 A 
ATOM     12  C   UNL A   1      30.469  27.558  23.031  1.00  0.00     0.126 A 
ATOM     13  C   UNL A   1      32.195  26.028  22.363  1.00  0.00     0.076 A 
ATOM     14  O   UNL A   1      33.449  25.144  24.124  1.00  0.00    -0.268 OA
ATOM     15  C   UNL A   1      31.208  26.834  21.973  1.00  0.00     0.040 A 
BRANCH  12  16
ATOM     16  C   UNL A   1      29.549  28.580  22.599  1.00  0.00     0.154 A 
ATOM     17  C   UNL A   1      28.236  28.839  22.942  1.00  0.00     0.052 A 
ATOM     18  O   UNL A   1      29.981  29.520  21.702  1.00  0.00    -0.463 OA
ATOM     19  C   UNL A   1      27.846  29.990  22.215  1.00  0.00     0.043 A 
ATOM     20  C   UNL A   1      28.932  30.344  21.451  1.00  0.00     0.196 A 
ENDBRANCH  12  16
ENDBRANCH   8   9
ENDBRANCH   6   8
ENDBRANCH   3   4
ENDBRANCH   2   3
ENDBRANCH   1   2
BRANCH   1  21
ATOM     21  C   UNL A   1      32.614  33.133  26.863  1.00  0.00     0.116 C 
BRANCH  21  22
ATOM     22  N   UNL A   1      32.512  34.247  27.793  1.00  0.00    -0.352 N 
ATOM     23  C   UNL A   1      33.320  34.561  28.867  1.00  0.00     0.251 C 
ATOM     24  H   UNL A   1      31.761  34.865  27.634  1.00  0.00     0.163 HD
ATOM     25  O   UNL A   1      33.028  35.502  29.599  1.00  0.00    -0.269 OA
BRANCH  23  26
ATOM     26  C   UNL A   1      34.508  33.725  29.163  1.00  0.00     0.039 A 
ATOM     27  C   UNL A   1      34.377  32.503  29.826  1.00  0.00     0.014 A 
ATOM     28  C   UNL A   1      35.777  34.199  28.818  1.00  0.00     0.014 A 
ATOM     29  C   UNL A   1      35.511  31.861  30.314  1.00  0.00     0.010 A 
ATOM     30  C   UNL A   1      36.918  33.503  29.235  1.00  0.00     0.010 A 
ATOM     31  C   UNL A   1      36.795  32.363  30.044  1.00  0.00    -0.014 A 
BRANCH  31  32
ATOM     32  C   UNL A   1      37.984  31.692  30.637  1.00  0.00     0.031 A 
ATOM     33  C   UNL A   1      38.405  31.977  32.056  1.00  0.00     0.074 A 
ATOM     34  C   UNL A   1      38.652  30.771  29.915  1.00  0.00     0.049 A 
ATOM     35  N   UNL A   1      39.375  31.439  32.751  1.00  0.00    -0.248 NA
ATOM     36  C   UNL A   1      37.641  32.998  32.792  1.00  0.00     0.031 C 
ATOM     37  C   UNL A   1      38.337  30.409  28.533  1.00  0.00     0.029 A 
ATOM     38  N   UNL A   1      39.709  29.956  30.241  1.00  0.00    -0.354 N 
ATOM     39  C   UNL A   1      39.349  32.061  33.995  1.00  0.00     0.074 A 
ATOM     40  C   UNL A   1      38.291  33.045  33.949  1.00  0.00     0.031 C 
ATOM     41  C   UNL A   1      39.144  29.410  28.148  1.00  0.00     0.029 A 
ATOM     42  C   UNL A   1      40.078  29.102  29.228  1.00  0.00     0.049 A 
ATOM     43  H   UNL A   1      40.159  29.983  31.116  1.00  0.00     0.167 HD
ATOM     44  C   UNL A   1      40.123  31.821  35.081  1.00  0.00     0.034 A 
ATOM     45  C   UNL A   1      41.059  28.177  29.167  1.00  0.00     0.034 A 
ATOM     46  C   UNL A   1      41.161  30.821  35.124  1.00  0.00     0.049 A 
ATOM     47  C   UNL A   1      41.924  27.947  30.378  1.00  0.00     0.074 A 
ATOM     48  C   UNL A   1      41.973  30.482  36.192  1.00  0.00     0.029 A 
ATOM     49  N   UNL A   1      41.529  30.002  34.067  1.00  0.00    -0.354 N 
ATOM     50  N   UNL A   1      41.849  28.507  31.562  1.00  0.00    -0.248 NA
ATOM     51  C   UNL A   1      43.008  26.963  30.252  1.00  0.00     0.031 C 
ATOM     52  C   UNL A   1      42.868  29.500  35.766  1.00  0.00     0.029 A 
ATOM     53  C   UNL A   1      42.574  29.177  34.451  1.00  0.00     0.049 A 
ATOM     54  H   UNL A   1      41.110  30.006  33.176  1.00  0.00     0.167 HD
ATOM     55  C   UNL A   1      42.862  27.934  32.326  1.00  0.00     0.074 A 
ATOM     56  C   UNL A   1      43.518  26.961  31.478  1.00  0.00     0.031 C 
ATOM     57  C   UNL A   1      43.218  28.198  33.608  1.00  0.00     0.034 A 
BRANCH  44  58
ATOM     58  C   UNL A   1      39.885  32.629  36.333  1.00  0.00     0.023 A 
ATOM     59  C   UNL A   1      38.923  32.210  37.272  1.00  0.00     0.031 A 
ATOM     60  C   UNL A   1      40.511  33.873  36.530  1.00  0.00     0.131 A 
ATOM     61  C   UNL A   1      38.593  33.044  38.348  1.00  0.00     0.055 A 
ATOM     62  C   UNL A   1      40.204  34.682  37.625  1.00  0.00     0.041 A 
ATOM     63  F   UNL A   1      41.433  34.318  35.662  1.00  0.00    -0.206 F 
ATOM     64  C   UNL A   1      39.231  34.275  38.533  1.00  0.00     0.022 A 
BRANCH  61  65
ATOM     65  S   UNL A   1      37.275  32.597  39.512  1.00  0.00     0.124 S 
ATOM     66  O   UNL A   1      37.653  31.235  39.884  1.00  0.00    -0.237 OA
ATOM     67  O   UNL A   1      37.442  33.598  40.562  1.00  0.00    -0.237 OA
ATOM     68  O   UNL A   1      36.055  32.709  38.722  1.00  0.00    -0.744 OA
ENDBRANCH  61  65
ENDBRANCH  44  58
BRANCH  45  69
ATOM     69  C   UNL A   1      41.223  27.379  27.917  1.00  0.00     0.023 A 
ATOM     70  C   UNL A   1      40.854  26.021  27.873  1.00  0.00     0.031 A 
ATOM     71  C   UNL A   1      41.861  27.927  26.791  1.00  0.00     0.131 A 
ATOM     72  C   UNL A   1      41.198  25.241  26.763  1.00  0.00     0.055 A 
ATOM     73  C   UNL A   1      42.132  27.162  25.655  1.00  0.00     0.041 A 
ATOM     74  F   UNL A   1      42.242  29.213  26.789  1.00  0.00    -0.206 F 
ATOM     75  C   UNL A   1      41.820  25.806  25.646  1.00  0.00     0.022 A 
BRANCH  72  76
ATOM     76  S   UNL A   1      40.991  23.438  26.797  1.00  0.00     0.124 S 
ATOM     77  O   UNL A   1      41.398  23.112  28.160  1.00  0.00    -0.237 OA
ATOM     78  O   UNL A   1      39.566  23.296  26.511  1.00  0.00    -0.237 OA
ATOM     79  O   UNL A   1      41.883  22.970  25.741  1.00  0.00    -0.744 OA
ENDBRANCH  72  76
ENDBRANCH  45  69
BRANCH  57  80
ATOM     80  C   UNL A   1      44.375  27.437  34.207  1.00  0.00     0.023 A 
ATOM     81  C   UNL A   1      44.177  26.142  34.722  1.00  0.00     0.031 A 
ATOM     82  C   UNL A   1      45.624  28.050  34.410  1.00  0.00     0.131 A 
ATOM     83  C   UNL A   1      45.196  25.518  35.452  1.00  0.00     0.055 A 
ATOM     84  C   UNL A   1      46.652  27.406  35.099  1.00  0.00     0.041 A 
ATOM     85  F   UNL A   1      45.859  29.288  33.946  1.00  0.00    -0.206 F 
ATOM     86  C   UNL A   1      46.436  26.139  35.637  1.00  0.00     0.022 A 
BRANCH  83  87
ATOM     87  S   UNL A   1      44.924  23.917  36.262  1.00  0.00     0.124 S 
ATOM     88  O   UNL A   1      46.079  23.147  35.805  1.00  0.00    -0.237 OA
ATOM     89  O   UNL A   1      44.937  24.281  37.676  1.00  0.00    -0.237 OA
ATOM     90  O   UNL A   1      43.637  23.473  35.741  1.00  0.00    -0.744 OA
ENDBRANCH  83  87
ENDBRANCH  57  80
ENDBRANCH  31  32
ENDBRANCH  23  26
ENDBRANCH  21  22
ENDBRANCH   1  21
TORSDOF 16
ENDMDL
MODEL 2
REMARK VINA RESULT:     -11.4      1.682      3.141
REMARK SMILES O=C(Cn1nc(-c2ccco2)ccc1=O)NCCCCNC(=O)c1ccc(-c2c3nc(c(-c4cc(S(=O)(=O)[O-])ccc4F)c4ccc([nH]4)c(-c4cc(S(=O)(=O)[O-])ccc4F)c4nc(c(-c5cc(S(=O)(=O)[O-])ccc5F)c5ccc2[nH]5)C=C4)C=C3)cc1
REMARK SMILES IDX 19 1 18 2 17 3 16 4 1 5 2 6 3 8 4 9 5 10 14 11 6 12 13 13
REMARK SMILES IDX 15 14 12 15 7 16 8 17 11 18 9 19 10 20 20 21 21 22 22 23
REMARK SMILES IDX 23 25 24 26 25 27 86 28 26 29 85 30 27 31 28 32 29 33 79 34
REMARK SMILES IDX 30 35 84 36 78 37 80 38 31 39 83 40 77 41 76 42 32 44 64 45
REMARK SMILES IDX 44 46 63 47 45 48 48 49 62 50 81 51 46 52 47 53 61 55 82 56
REMARK SMILES IDX 49 57 33 58 34 59 42 60 35 61 41 62 43 63 40 64 36 65 37 66
REMARK SMILES IDX 38 67 39 68 65 69 66 70 74 71 67 72 73 73 75 74 72 75 68 76
REMARK SMILES IDX 69 77 70 78 71 79 50 80 51 81 59 82 52 83 58 84 60 85 57 86
REMARK SMILES IDX 53 87 54 88 55 89 56 90
REMARK H PARENT 16 7 21 24 80 43 48 54
REMARK Flexibility Score: inf
ROOT
ATOM      1  C   UNL A   1      31.897  30.271  25.490  1.00  0.00     0.023 C 
ENDROOT
BRANCH   1   2
ATOM      2  C   UNL A   1      32.962  29.367  24.869  1.00  0.00     0.023 C 
BRANCH   2   3
ATOM      3  C   UNL A   1      32.471  28.457  23.747  1.00  0.00     0.116 C 
BRANCH   3   4
ATOM      4  N   UNL A   1      31.708  27.315  24.209  1.00  0.00    -0.354 N 
ATOM      5  O   UNL A   1      30.707  26.883  22.198  1.00  0.00    -0.273 OA
ATOM      6  C   UNL A   1      30.977  26.526  23.345  1.00  0.00     0.241 C 
ATOM      7  H   UNL A   1      31.712  27.097  25.170  1.00  0.00     0.163 HD
BRANCH   6   8
ATOM      8  C   UNL A   1      30.395  25.235  23.937  1.00  0.00     0.248 C 
BRANCH   8   9
ATOM      9  N   UNL A   1      31.313  24.503  24.808  1.00  0.00    -0.220 N 
ATOM     10  N   UNL A   1      32.582  24.258  24.309  1.00  0.00    -0.166 NA
ATOM     11  C   UNL A   1      30.969  24.315  26.142  1.00  0.00     0.267 A 
ATOM     12  C   UNL A   1      33.435  23.655  25.084  1.00  0.00     0.126 A 
ATOM     13  C   UNL A   1      31.932  23.543  26.953  1.00  0.00     0.076 A 
ATOM     14  O   UNL A   1      29.922  24.695  26.658  1.00  0.00    -0.268 OA
ATOM     15  C   UNL A   1      33.114  23.189  26.451  1.00  0.00     0.040 A 
BRANCH  12  16
ATOM     16  C   UNL A   1      34.787  23.451  24.627  1.00  0.00     0.154 A 
ATOM     17  C   UNL A   1      35.291  22.976  23.431  1.00  0.00     0.052 A 
ATOM     18  O   UNL A   1      35.822  23.782  25.459  1.00  0.00    -0.463 OA
ATOM     19  C   UNL A   1      36.702  23.014  23.541  1.00  0.00     0.043 A 
ATOM     20  C   UNL A   1      36.973  23.480  24.806  1.00  0.00     0.196 A 
ENDBRANCH  12  16
ENDBRANCH   8   9
ENDBRANCH   6   8
ENDBRANCH   3   4
ENDBRANCH   2   3
ENDBRANCH   1   2
BRANCH   1  21
ATOM     21  C   UNL A   1      32.150  30.711  26.928  1.00  0.00     0.116 C 
BRANCH  21  22
ATOM     22  N   UNL A   1      32.176  32.154  27.110  1.00  0.00    -0.352 N 
ATOM     23  C   UNL A   1      33.192  32.950  27.600  1.00  0.00     0.251 C 
ATOM     24  H   UNL A   1      31.356  32.630  26.845  1.00  0.00     0.163 HD
ATOM     25  O   UNL A   1      33.002  34.152  27.764  1.00  0.00    -0.269 OA
BRANCH  23  26
ATOM     26  C   UNL A   1      34.488  32.340  27.979  1.00  0.00     0.039 A 
ATOM     27  C   UNL A   1      34.568  30.995  28.342  1.00  0.00     0.014 A 
ATOM     28  C   UNL A   1      35.632  33.143  28.020  1.00  0.00     0.014 A 
ATOM     29  C   UNL A   1      35.732  30.509  28.931  1.00  0.00     0.010 A 
ATOM     30  C   UNL A   1      36.828  32.626  28.532  1.00  0.00     0.010 A 
ATOM     31  C   UNL A   1      36.871  31.324  29.053  1.00  0.00    -0.014 A 
BRANCH  31  32
ATOM     32  C   UNL A   1      38.077  30.797  29.748  1.00  0.00     0.031 A 
ATOM     33  C   UNL A   1      38.366  31.165  31.181  1.00  0.00     0.074 A 
ATOM     34  C   UNL A   1      38.885  29.931  29.105  1.00  0.00     0.049 A 
ATOM     35  N   UNL A   1      39.334  30.750  31.958  1.00  0.00    -0.248 NA
ATOM     36  C   UNL A   1      37.452  32.121  31.828  1.00  0.00     0.031 C 
ATOM     37  C   UNL A   1      38.707  29.500  27.719  1.00  0.00     0.029 A 
ATOM     38  N   UNL A   1      39.994  29.241  29.531  1.00  0.00    -0.354 N 
ATOM     39  C   UNL A   1      39.157  31.401  33.175  1.00  0.00     0.074 A 
ATOM     40  C   UNL A   1      38.009  32.268  33.023  1.00  0.00     0.031 C 
ATOM     41  C   UNL A   1      39.637  28.580  27.425  1.00  0.00     0.029 A 
ATOM     42  C   UNL A   1      40.519  28.401  28.575  1.00  0.00     0.049 A 
ATOM     43  H   UNL A   1      40.376  29.339  30.432  1.00  0.00     0.167 HD
ATOM     44  C   UNL A   1      39.872  31.273  34.318  1.00  0.00     0.034 A 
ATOM     45  C   UNL A   1      41.591  27.583  28.612  1.00  0.00     0.034 A 
ATOM     46  C   UNL A   1      41.001  30.389  34.466  1.00  0.00     0.049 A 
ATOM     47  C   UNL A   1      42.388  27.478  29.886  1.00  0.00     0.074 A 
ATOM     48  C   UNL A   1      41.767  30.166  35.598  1.00  0.00     0.029 A 
ATOM     49  N   UNL A   1      41.525  29.584  33.466  1.00  0.00    -0.354 N 
ATOM     50  N   UNL A   1      42.172  28.061  31.043  1.00  0.00    -0.248 NA
ATOM     51  C   UNL A   1      43.572  26.609  29.868  1.00  0.00     0.031 C 
ATOM     52  C   UNL A   1      42.786  29.271  35.268  1.00  0.00     0.029 A 
ATOM     53  C   UNL A   1      42.619  28.883  33.948  1.00  0.00     0.049 A 
ATOM     54  H   UNL A   1      41.172  29.519  32.549  1.00  0.00     0.167 HD
ATOM     55  C   UNL A   1      43.182  27.617  31.892  1.00  0.00     0.074 A 
ATOM     56  C   UNL A   1      43.992  26.695  31.125  1.00  0.00     0.031 C 
ATOM     57  C   UNL A   1      43.418  27.953  33.185  1.00  0.00     0.034 A 
BRANCH  44  58
ATOM     58  C   UNL A   1      39.466  32.087  35.523  1.00  0.00     0.023 A 
ATOM     59  C   UNL A   1      38.684  31.503  36.538  1.00  0.00     0.031 A 
ATOM     60  C   UNL A   1      39.737  33.464  35.600  1.00  0.00     0.131 A 
ATOM     61  C   UNL A   1      38.175  32.302  37.570  1.00  0.00     0.055 A 
ATOM     62  C   UNL A   1      39.259  34.248  36.651  1.00  0.00     0.041 A 
ATOM     63  F   UNL A   1      40.477  34.068  34.655  1.00  0.00    -0.206 F 
ATOM     64  C   UNL A   1      38.463  33.670  37.635  1.00  0.00     0.022 A 
BRANCH  61  65
ATOM     65  S   UNL A   1      37.067  31.615  38.831  1.00  0.00     0.124 S 
ATOM     66  O   UNL A   1      37.885  31.718  40.037  1.00  0.00    -0.237 OA
ATOM     67  O   UNL A   1      35.930  32.528  38.769  1.00  0.00    -0.237 OA
ATOM     68  O   UNL A   1      36.809  30.255  38.369  1.00  0.00    -0.744 OA
ENDBRANCH  61  65
ENDBRANCH  44  58
BRANCH  45  69
ATOM     69  C   UNL A   1      41.923  26.772  27.405  1.00  0.00     0.023 A 
ATOM     70  C   UNL A   1      41.593  25.405  27.340  1.00  0.00     0.031 A 
ATOM     71  C   UNL A   1      42.682  27.319  26.356  1.00  0.00     0.131 A 
ATOM     72  C   UNL A   1      42.086  24.617  26.293  1.00  0.00     0.055 A 
ATOM     73  C   UNL A   1      43.106  26.545  25.274  1.00  0.00     0.041 A 
ATOM     74  F   UNL A   1      43.032  28.614  26.379  1.00  0.00    -0.206 F 
ATOM     75  C   UNL A   1      42.827  25.182  25.250  1.00  0.00     0.022 A 
BRANCH  72  76
ATOM     76  S   UNL A   1      41.916  22.811  26.331  1.00  0.00     0.124 S 
ATOM     77  O   UNL A   1      42.500  22.424  25.051  1.00  0.00    -0.237 OA
ATOM     78  O   UNL A   1      42.698  22.463  27.515  1.00  0.00    -0.237 OA
ATOM     79  O   UNL A   1      40.477  22.604  26.459  1.00  0.00    -0.744 OA
ENDBRANCH  72  76
ENDBRANCH  45  69
BRANCH  57  80
ATOM     80  C   UNL A   1      44.601  27.334  33.887  1.00  0.00     0.023 A 
ATOM     81  C   UNL A   1      44.433  26.168  34.659  1.00  0.00     0.031 A 
ATOM     82  C   UNL A   1      45.849  27.981  33.922  1.00  0.00     0.131 A 
ATOM     83  C   UNL A   1      45.482  25.709  35.466  1.00  0.00     0.055 A 
ATOM     84  C   UNL A   1      46.905  27.493  34.693  1.00  0.00     0.041 A 
ATOM     85  F   UNL A   1      46.056  29.101  33.210  1.00  0.00    -0.206 F 
ATOM     86  C   UNL A   1      46.720  26.361  35.481  1.00  0.00     0.022 A 
BRANCH  83  87
ATOM     87  S   UNL A   1      45.252  24.303  36.590  1.00  0.00     0.124 S 
ATOM     88  O   UNL A   1      44.865  24.970  37.831  1.00  0.00    -0.237 OA
ATOM     89  O   UNL A   1      44.190  23.551  35.929  1.00  0.00    -0.237 OA
ATOM     90  O   UNL A   1      46.558  23.654  36.615  1.00  0.00    -0.744 OA
ENDBRANCH  83  87
ENDBRANCH  57  80
ENDBRANCH  31  32
ENDBRANCH  23  26
ENDBRANCH  21  22
ENDBRANCH   1  21
TORSDOF 16
ENDMDL
MODEL 3
REMARK VINA RESULT:     -11.4      2.978      4.211
REMARK SMILES O=C(Cn1nc(-c2ccco2)ccc1=O)NCCCCNC(=O)c1ccc(-c2c3nc(c(-c4cc(S(=O)(=O)[O-])ccc4F)c4ccc([nH]4)c(-c4cc(S(=O)(=O)[O-])ccc4F)c4nc(c(-c5cc(S(=O)(=O)[O-])ccc5F)c5ccc2[nH]5)C=C4)C=C3)cc1
REMARK SMILES IDX 19 1 18 2 17 3 16 4 1 5 2 6 3 8 4 9 5 10 14 11 6 12 13 13
REMARK SMILES IDX 15 14 12 15 7 16 8 17 11 18 9 19 10 20 20 21 21 22 22 23
REMARK SMILES IDX 23 25 24 26 25 27 86 28 26 29 85 30 27 31 28 32 29 33 79 34
REMARK SMILES IDX 30 35 84 36 78 37 80 38 31 39 83 40 77 41 76 42 32 44 64 45
REMARK SMILES IDX 44 46 63 47 45 48 48 49 62 50 81 51 46 52 47 53 61 55 82 56
REMARK SMILES IDX 49 57 33 58 34 59 42 60 35 61 41 62 43 63 40 64 36 65 37 66
REMARK SMILES IDX 38 67 39 68 65 69 66 70 74 71 67 72 73 73 75 74 72 75 68 76
REMARK SMILES IDX 69 77 70 78 71 79 50 80 51 81 59 82 52 83 58 84 60 85 57 86
REMARK SMILES IDX 53 87 54 88 55 89 56 90
REMARK H PARENT 16 7 21 24 80 43 48 54
REMARK Flexibility Score: inf
ROOT
ATOM      1  C   UNL A   1      31.773  28.869  27.121  1.00  0.00     0.023 C 
ENDROOT
BRANCH   1   2
ATOM      2  C   UNL A   1      32.059  27.402  26.802  1.00  0.00     0.023 C 
BRANCH   2   3
ATOM      3  C   UNL A   1      30.830  26.549  26.497  1.00  0.00     0.116 C 
BRANCH   3   4
ATOM      4  N   UNL A   1      31.096  25.431  25.616  1.00  0.00    -0.354 N 
ATOM      5  O   UNL A   1      31.031  23.833  27.251  1.00  0.00    -0.273 OA
ATOM      6  C   UNL A   1      31.040  24.125  26.055  1.00  0.00     0.241 C 
ATOM      7  H   UNL A   1      31.323  25.610  24.674  1.00  0.00     0.163 HD
BRANCH   6   8
ATOM      8  C   UNL A   1      31.133  23.042  24.971  1.00  0.00     0.248 C 
BRANCH   8   9
ATOM      9  N   UNL A   1      32.365  22.255  25.007  1.00  0.00    -0.220 N 
ATOM     10  N   UNL A   1      32.224  20.878  24.963  1.00  0.00    -0.166 NA
ATOM     11  C   UNL A   1      33.583  22.904  24.834  1.00  0.00     0.267 A 
ATOM     12  C   UNL A   1      33.306  20.157  24.940  1.00  0.00     0.126 A 
ATOM     13  C   UNL A   1      34.783  22.048  24.910  1.00  0.00     0.076 A 
ATOM     14  O   UNL A   1      33.718  24.114  24.679  1.00  0.00    -0.268 OA
ATOM     15  C   UNL A   1      34.671  20.723  24.992  1.00  0.00     0.040 A 
BRANCH  12  16
ATOM     16  C   UNL A   1      33.200  18.724  24.818  1.00  0.00     0.154 A 
ATOM     17  C   UNL A   1      33.720  17.840  23.893  1.00  0.00     0.052 A 
ATOM     18  O   UNL A   1      32.490  18.032  25.762  1.00  0.00    -0.463 OA
ATOM     19  C   UNL A   1      33.303  16.546  24.288  1.00  0.00     0.043 A 
ATOM     20  C   UNL A   1      32.529  16.721  25.411  1.00  0.00     0.196 A 
ENDBRANCH  12  16
ENDBRANCH   8   9
ENDBRANCH   6   8
ENDBRANCH   3   4
ENDBRANCH   2   3
ENDBRANCH   1   2
BRANCH   1  21
ATOM     21  C   UNL A   1      32.459  29.893  26.223  1.00  0.00     0.116 C 
BRANCH  21  22
ATOM     22  N   UNL A   1      32.224  31.275  26.614  1.00  0.00    -0.352 N 
ATOM     23  C   UNL A   1      33.048  32.132  27.315  1.00  0.00     0.251 C 
ATOM     24  H   UNL A   1      31.357  31.652  26.339  1.00  0.00     0.163 HD
ATOM     25  O   UNL A   1      32.644  33.247  27.631  1.00  0.00    -0.269 OA
BRANCH  23  26
ATOM     26  C   UNL A   1      34.397  31.681  27.731  1.00  0.00     0.039 A 
ATOM     27  C   UNL A   1      34.669  30.326  27.931  1.00  0.00     0.014 A 
ATOM     28  C   UNL A   1      35.389  32.636  27.975  1.00  0.00     0.014 A 
ATOM     29  C   UNL A   1      35.853  29.948  28.558  1.00  0.00     0.010 A 
ATOM     30  C   UNL A   1      36.614  32.242  28.526  1.00  0.00     0.010 A 
ATOM     31  C   UNL A   1      36.832  30.902  28.883  1.00  0.00    -0.014 A 
BRANCH  31  32
ATOM     32  C   UNL A   1      38.057  30.475  29.614  1.00  0.00     0.031 A 
ATOM     33  C   UNL A   1      38.294  30.902  31.040  1.00  0.00     0.074 A 
ATOM     34  C   UNL A   1      38.931  29.645  29.011  1.00  0.00     0.049 A 
ATOM     35  N   UNL A   1      39.273  30.574  31.845  1.00  0.00    -0.248 NA
ATOM     36  C   UNL A   1      37.308  31.815  31.642  1.00  0.00     0.031 C 
ATOM     37  C   UNL A   1      38.808  29.164  27.636  1.00  0.00     0.029 A 
ATOM     38  N   UNL A   1      40.074  29.042  29.475  1.00  0.00    -0.354 N 
ATOM     39  C   UNL A   1      39.031  31.247  33.038  1.00  0.00     0.074 A 
ATOM     40  C   UNL A   1      37.833  32.032  32.841  1.00  0.00     0.031 C 
ATOM     41  C   UNL A   1      39.800  28.298  27.385  1.00  0.00     0.029 A 
ATOM     42  C   UNL A   1      40.670  28.211  28.555  1.00  0.00     0.049 A 
ATOM     43  H   UNL A   1      40.432  29.190  30.379  1.00  0.00     0.167 HD
ATOM     44  C   UNL A   1      39.732  31.199  34.197  1.00  0.00     0.034 A 
ATOM     45  C   UNL A   1      41.792  27.465  28.634  1.00  0.00     0.034 A 
ATOM     46  C   UNL A   1      40.912  30.395  34.391  1.00  0.00     0.049 A 
ATOM     47  C   UNL A   1      42.570  27.450  29.924  1.00  0.00     0.074 A 
ATOM     48  C   UNL A   1      41.669  30.256  35.542  1.00  0.00     0.029 A 
ATOM     49  N   UNL A   1      41.506  29.597  33.424  1.00  0.00    -0.354 N 
ATOM     50  N   UNL A   1      42.295  28.050  31.059  1.00  0.00    -0.248 NA
ATOM     51  C   UNL A   1      43.808  26.660  29.953  1.00  0.00     0.031 C 
ATOM     52  C   UNL A   1      42.750  29.419  35.255  1.00  0.00     0.029 A 
ATOM     53  C   UNL A   1      42.633  28.983  33.945  1.00  0.00     0.049 A 
ATOM     54  H   UNL A   1      41.175  29.483  32.504  1.00  0.00     0.167 HD
ATOM     55  C   UNL A   1      43.315  27.698  31.938  1.00  0.00     0.074 A 
ATOM     56  C   UNL A   1      44.198  26.808  31.213  1.00  0.00     0.031 C 
ATOM     57  C   UNL A   1      43.505  28.086  33.224  1.00  0.00     0.034 A 
BRANCH  44  58
ATOM     58  C   UNL A   1      39.251  32.019  35.369  1.00  0.00     0.023 A 
ATOM     59  C   UNL A   1      39.690  33.347  35.530  1.00  0.00     0.031 A 
ATOM     60  C   UNL A   1      38.471  31.448  36.391  1.00  0.00     0.131 A 
ATOM     61  C   UNL A   1      39.371  34.048  36.700  1.00  0.00     0.055 A 
ATOM     62  C   UNL A   1      38.126  32.165  37.537  1.00  0.00     0.041 A 
ATOM     63  F   UNL A   1      38.029  30.184  36.286  1.00  0.00    -0.206 F 
ATOM     64  C   UNL A   1      38.587  33.467  37.702  1.00  0.00     0.022 A 
BRANCH  61  65
ATOM     65  S   UNL A   1      40.016  35.718  36.999  1.00  0.00     0.124 S 
ATOM     66  O   UNL A   1      39.295  36.104  38.210  1.00  0.00    -0.237 OA
ATOM     67  O   UNL A   1      41.443  35.467  37.178  1.00  0.00    -0.237 OA
ATOM     68  O   UNL A   1      39.650  36.457  35.796  1.00  0.00    -0.744 OA
ENDBRANCH  61  65
ENDBRANCH  44  58
BRANCH  45  69
ATOM     69  C   UNL A   1      42.199  26.643  27.458  1.00  0.00     0.023 A 
ATOM     70  C   UNL A   1      41.802  25.297  27.346  1.00  0.00     0.031 A 
ATOM     71  C   UNL A   1      43.087  27.153  26.495  1.00  0.00     0.131 A 
ATOM     72  C   UNL A   1      42.355  24.488  26.345  1.00  0.00     0.055 A 
ATOM     73  C   UNL A   1      43.575  26.362  25.453  1.00  0.00     0.041 A 
ATOM     74  F   UNL A   1      43.503  28.426  26.567  1.00  0.00    -0.206 F 
ATOM     75  C   UNL A   1      43.225  25.017  25.388  1.00  0.00     0.022 A 
BRANCH  72  76
ATOM     76  S   UNL A   1      42.083  22.694  26.348  1.00  0.00     0.124 S 
ATOM     77  O   UNL A   1      42.657  22.298  25.065  1.00  0.00    -0.237 OA
ATOM     78  O   UNL A   1      42.835  22.281  27.531  1.00  0.00    -0.237 OA
ATOM     79  O   UNL A   1      40.634  22.566  26.460  1.00  0.00    -0.744 OA
ENDBRANCH  72  76
ENDBRANCH  45  69
BRANCH  57  80
ATOM     80  C   UNL A   1      44.712  27.566  33.965  1.00  0.00     0.023 A 
ATOM     81  C   UNL A   1      44.620  26.382  34.722  1.00  0.00     0.031 A 
ATOM     82  C   UNL A   1      45.897  28.319  34.049  1.00  0.00     0.131 A 
ATOM     83  C   UNL A   1      45.676  26.009  35.563  1.00  0.00     0.055 A 
ATOM     84  C   UNL A   1      46.963  27.918  34.854  1.00  0.00     0.041 A 
ATOM     85  F   UNL A   1      46.029  29.460  33.353  1.00  0.00    -0.206 F 
ATOM     86  C   UNL A   1      46.850  26.766  35.628  1.00  0.00     0.022 A 
BRANCH  83  87
ATOM     87  S   UNL A   1      45.531  24.577  36.669  1.00  0.00     0.124 S 
ATOM     88  O   UNL A   1      44.104  24.273  36.582  1.00  0.00    -0.237 OA
ATOM     89  O   UNL A   1      46.415  23.606  36.032  1.00  0.00    -0.237 OA
ATOM     90  O   UNL A   1      45.979  25.082  37.961  1.00  0.00    -0.744 OA
ENDBRANCH  83  87
ENDBRANCH  57  80
ENDBRANCH  31  32
ENDBRANCH  23  26
ENDBRANCH  21  22
ENDBRANCH   1  21
TORSDOF 16
ENDMDL
