MODEL 1
REMARK VINA RESULT:     -13.1      0.000      0.000
REMARK SMILES Cc1cc(C(=O)N[C@@H]2C(=O)N3C(C(=O)NCCCCNC(=O)c4ccc(-c5c6nc(c(-c7cc(S(=O)(=O)[O-])ccc7F)c7ccc([nH]7)c(-c7cc(S(=O)(=O)[O-])ccc7F)c7nc(c(-c8cc(S(=O)(=O)[O-])ccc8F)c8ccc5[nH]8)C=C7)C=C6)cc4)=C(CSc4nnc(C)s4)CS[C@H]23)n(C)n1
REMARK SMILES IDX 17 1 16 2 15 3 13 4 14 5 12 7 8 8 9 9 97 10 10 11 11 12
REMARK SMILES IDX 96 13 95 14 86 15 7 16 5 17 6 18 4 20 1 21 2 22 3 23 100 24
REMARK SMILES IDX 98 25 99 26 87 27 88 28 89 29 90 30 94 31 91 32 92 33 93 34
REMARK SMILES IDX 18 35 19 36 20 37 21 38 22 40 23 41 24 42 85 43 25 44 84 45
REMARK SMILES IDX 26 46 27 47 28 48 78 49 29 50 83 51 77 52 79 53 30 54 82 55
REMARK SMILES IDX 76 56 75 57 31 59 63 60 43 61 62 62 44 63 47 64 61 65 80 66
REMARK SMILES IDX 45 67 46 68 60 70 81 71 48 72 32 73 33 74 41 75 34 76 40 77
REMARK SMILES IDX 42 78 39 79 35 80 36 81 37 82 38 83 64 84 65 85 73 86 66 87
REMARK SMILES IDX 72 88 74 89 71 90 67 91 68 92 69 93 70 94 49 95 50 96 58 97
REMARK SMILES IDX 51 98 57 99 59 100 56 101 52 102 53 103 54 104 55 105
REMARK H PARENT 15 6 7 19 20 39 79 58 47 69
REMARK Flexibility Score: inf
ROOT
ATOM      1  C   UNL A   1      31.461  31.063  25.852  1.00  0.00     0.023 C 
ENDROOT
BRANCH   1   2
ATOM      2  C   UNL A   1      32.614  30.064  26.002  1.00  0.00     0.116 C 
BRANCH   2   3
ATOM      3  N   UNL A   1      33.152  29.706  24.708  1.00  0.00    -0.351 N 
ATOM      4  C   UNL A   1      32.991  28.714  23.801  1.00  0.00     0.268 C 
ATOM      5  O   UNL A   1      33.541  28.967  22.720  1.00  0.00    -0.268 OA
ATOM      6  H   UNL A   1      33.818  30.364  24.404  1.00  0.00     0.163 HD
BRANCH   4   7
ATOM      7  C   UNL A   1      32.079  27.478  23.909  1.00  0.00     0.111 C 
ATOM      8  C   UNL A   1      33.341  24.759  25.615  1.00  0.00     0.206 C 
ATOM      9  C   UNL A   1      33.430  26.309  25.666  1.00  0.00     0.253 C 
ATOM     10  C   UNL A   1      32.237  25.045  24.559  1.00  0.00     0.181 C 
ATOM     11  O   UNL A   1      33.819  27.104  26.503  1.00  0.00    -0.272 OA
ATOM     12  N   UNL A   1      32.748  26.400  24.480  1.00  0.00    -0.290 N 
ATOM     13  S   UNL A   1      30.517  25.086  25.158  1.00  0.00    -0.129 SA
ATOM     14  C   UNL A   1      30.040  25.988  23.683  1.00  0.00     0.106 C 
ATOM     15  C   UNL A   1      30.731  27.339  23.696  1.00  0.00    -0.020 C 
BRANCH   8  16
ATOM     16  N   UNL A   1      33.008  24.037  26.875  1.00  0.00    -0.336 N 
ATOM     17  C   UNL A   1      32.974  22.680  27.133  1.00  0.00     0.270 C 
ATOM     18  O   UNL A   1      32.699  22.323  28.278  1.00  0.00    -0.268 OA
ATOM     19  H   UNL A   1      32.778  24.614  27.638  1.00  0.00     0.164 HD
BRANCH  17  20
ATOM     20  C   UNL A   1      33.181  21.751  26.044  1.00  0.00     0.126 A 
ATOM     21  C   UNL A   1      32.448  18.661  24.270  1.00  0.00     0.069 C 
ATOM     22  C   UNL A   1      32.993  19.947  24.770  1.00  0.00     0.060 A 
ATOM     23  C   UNL A   1      32.279  21.072  25.237  1.00  0.00     0.059 A 
ATOM     24  N   UNL A   1      34.305  20.108  24.939  1.00  0.00    -0.178 NA
ATOM     25  N   UNL A   1      34.405  21.263  25.638  1.00  0.00    -0.263 N 
ATOM     26  C   UNL A   1      35.731  21.757  25.922  1.00  0.00     0.174 C 
ENDBRANCH  17  20
ENDBRANCH   8  16
BRANCH  15  27
ATOM     27  C   UNL A   1      29.696  28.431  23.837  1.00  0.00     0.111 C 
BRANCH  27  28
ATOM     28  S   UNL A   1      28.938  28.634  22.223  1.00  0.00    -0.089 SA
BRANCH  28  29
ATOM     29  C   UNL A   1      27.987  30.063  22.336  1.00  0.00     0.174 A 
ATOM     30  N   UNL A   1      27.250  30.343  23.388  1.00  0.00    -0.132 NA
ATOM     31  S   UNL A   1      28.429  31.433  21.408  1.00  0.00    -0.091 S 
ATOM     32  N   UNL A   1      27.375  31.685  23.715  1.00  0.00    -0.143 NA
ATOM     33  C   UNL A   1      28.161  32.309  22.859  1.00  0.00     0.115 A 
ATOM     34  C   UNL A   1      28.917  33.555  23.119  1.00  0.00     0.081 C 
ENDBRANCH  28  29
ENDBRANCH  27  28
ENDBRANCH  15  27
ENDBRANCH   4   7
ENDBRANCH   2   3
ENDBRANCH   1   2
BRANCH   1  35
ATOM     35  C   UNL A   1      31.375  32.176  26.875  1.00  0.00     0.023 C 
BRANCH  35  36
ATOM     36  C   UNL A   1      32.673  32.911  27.110  1.00  0.00     0.116 C 
BRANCH  36  37
ATOM     37  N   UNL A   1      32.531  34.178  27.819  1.00  0.00    -0.352 N 
ATOM     38  C   UNL A   1      33.370  34.684  28.790  1.00  0.00     0.251 C 
ATOM     39  H   UNL A   1      31.753  34.730  27.579  1.00  0.00     0.163 HD
ATOM     40  O   UNL A   1      33.112  35.738  29.359  1.00  0.00    -0.269 OA
BRANCH  38  41
ATOM     41  C   UNL A   1      34.552  33.876  29.158  1.00  0.00     0.039 A 
ATOM     42  C   UNL A   1      35.826  34.411  28.962  1.00  0.00     0.014 A 
ATOM     43  C   UNL A   1      34.374  32.695  29.882  1.00  0.00     0.014 A 
ATOM     44  C   UNL A   1      36.918  33.806  29.585  1.00  0.00     0.010 A 
ATOM     45  C   UNL A   1      35.440  32.179  30.603  1.00  0.00     0.010 A 
ATOM     46  C   UNL A   1      36.727  32.723  30.460  1.00  0.00    -0.014 A 
BRANCH  46  47
ATOM     47  C   UNL A   1      37.856  32.126  31.222  1.00  0.00     0.031 A 
ATOM     48  C   UNL A   1      38.650  31.004  30.607  1.00  0.00     0.074 A 
ATOM     49  C   UNL A   1      38.120  32.536  32.480  1.00  0.00     0.049 A 
ATOM     50  N   UNL A   1      39.611  30.286  31.127  1.00  0.00    -0.248 NA
ATOM     51  C   UNL A   1      38.281  30.608  29.238  1.00  0.00     0.031 C 
ATOM     52  C   UNL A   1      37.385  33.574  33.208  1.00  0.00     0.029 A 
ATOM     53  N   UNL A   1      39.081  32.130  33.373  1.00  0.00    -0.354 N 
ATOM     54  C   UNL A   1      39.944  29.345  30.156  1.00  0.00     0.074 A 
ATOM     55  C   UNL A   1      39.022  29.528  29.059  1.00  0.00     0.031 C 
ATOM     56  C   UNL A   1      37.948  33.750  34.415  1.00  0.00     0.029 A 
ATOM     57  C   UNL A   1      39.049  32.806  34.572  1.00  0.00     0.049 A 
ATOM     58  H   UNL A   1      39.734  31.420  33.175  1.00  0.00     0.167 HD
ATOM     59  C   UNL A   1      40.950  28.438  30.164  1.00  0.00     0.034 A 
ATOM     60  C   UNL A   1      39.816  32.676  35.674  1.00  0.00     0.034 A 
ATOM     61  C   UNL A   1      41.877  28.289  31.257  1.00  0.00     0.049 A 
ATOM     62  C   UNL A   1      40.922  31.648  35.668  1.00  0.00     0.074 A 
ATOM     63  C   UNL A   1      42.968  27.445  31.352  1.00  0.00     0.029 A 
ATOM     64  N   UNL A   1      41.817  28.998  32.450  1.00  0.00    -0.354 N 
ATOM     65  N   UNL A   1      41.260  30.805  34.718  1.00  0.00    -0.248 NA
ATOM     66  C   UNL A   1      41.756  31.562  36.873  1.00  0.00     0.031 C 
ATOM     67  C   UNL A   1      43.524  27.590  32.626  1.00  0.00     0.029 A 
ATOM     68  C   UNL A   1      42.835  28.589  33.298  1.00  0.00     0.049 A 
ATOM     69  H   UNL A   1      41.150  29.690  32.664  1.00  0.00     0.167 HD
ATOM     70  C   UNL A   1      42.370  30.115  35.201  1.00  0.00     0.074 A 
ATOM     71  C   UNL A   1      42.649  30.651  36.517  1.00  0.00     0.031 C 
ATOM     72  C   UNL A   1      43.096  29.133  34.610  1.00  0.00     0.034 A 
BRANCH  59  73
ATOM     73  C   UNL A   1      41.080  27.535  28.959  1.00  0.00     0.023 A 
ATOM     74  C   UNL A   1      42.079  27.737  27.989  1.00  0.00     0.031 A 
ATOM     75  C   UNL A   1      40.171  26.483  28.755  1.00  0.00     0.131 A 
ATOM     76  C   UNL A   1      42.091  26.960  26.822  1.00  0.00     0.055 A 
ATOM     77  C   UNL A   1      40.247  25.653  27.635  1.00  0.00     0.041 A 
ATOM     78  F   UNL A   1      39.179  26.256  29.631  1.00  0.00    -0.206 F 
ATOM     79  C   UNL A   1      41.200  25.899  26.651  1.00  0.00     0.022 A 
BRANCH  76  80
ATOM     80  S   UNL A   1      43.182  27.460  25.462  1.00  0.00     0.124 S 
ATOM     81  O   UNL A   1      43.646  26.165  24.967  1.00  0.00    -0.237 OA
ATOM     82  O   UNL A   1      42.278  28.192  24.583  1.00  0.00    -0.237 OA
ATOM     83  O   UNL A   1      44.204  28.268  26.123  1.00  0.00    -0.744 OA
ENDBRANCH  76  80
ENDBRANCH  59  73
BRANCH  60  84
ATOM     84  C   UNL A   1      39.576  33.528  36.877  1.00  0.00     0.023 A 
ATOM     85  C   UNL A   1      38.921  33.016  38.009  1.00  0.00     0.031 A 
ATOM     86  C   UNL A   1      39.955  34.882  36.895  1.00  0.00     0.131 A 
ATOM     87  C   UNL A   1      38.618  33.863  39.088  1.00  0.00     0.055 A 
ATOM     88  C   UNL A   1      39.704  35.706  37.994  1.00  0.00     0.041 A 
ATOM     89  F   UNL A   1      40.588  35.424  35.842  1.00  0.00    -0.206 F 
ATOM     90  C   UNL A   1      39.017  35.201  39.094  1.00  0.00     0.022 A 
BRANCH  87  91
ATOM     91  S   UNL A   1      37.606  33.213  40.446  1.00  0.00     0.124 S 
ATOM     92  O   UNL A   1      38.532  32.290  41.091  1.00  0.00    -0.237 OA
ATOM     93  O   UNL A   1      37.285  34.426  41.190  1.00  0.00    -0.237 OA
ATOM     94  O   UNL A   1      36.477  32.589  39.760  1.00  0.00    -0.744 OA
ENDBRANCH  87  91
ENDBRANCH  60  84
BRANCH  72  95
ATOM     95  C   UNL A   1      44.298  28.615  35.362  1.00  0.00     0.023 A 
ATOM     96  C   UNL A   1      44.193  27.585  36.312  1.00  0.00     0.031 A 
ATOM     97  C   UNL A   1      45.571  29.164  35.119  1.00  0.00     0.131 A 
ATOM     98  C   UNL A   1      45.330  27.176  37.025  1.00  0.00     0.055 A 
ATOM     99  C   UNL A   1      46.708  28.706  35.783  1.00  0.00     0.041 A 
ATOM    100  F   UNL A   1      45.728  30.153  34.223  1.00  0.00    -0.206 F 
ATOM    101  C   UNL A   1      46.589  27.716  36.753  1.00  0.00     0.022 A 
BRANCH  98 102
ATOM    102  S   UNL A   1      45.124  25.993  38.384  1.00  0.00     0.124 S 
ATOM    103  O   UNL A   1      44.788  24.766  37.671  1.00  0.00    -0.237 OA
ATOM    104  O   UNL A   1      46.437  26.019  39.022  1.00  0.00    -0.237 OA
ATOM    105  O   UNL A   1      44.039  26.568  39.178  1.00  0.00    -0.744 OA
ENDBRANCH  98 102
ENDBRANCH  72  95
ENDBRANCH  46  47
ENDBRANCH  38  41
ENDBRANCH  36  37
ENDBRANCH  35  36
ENDBRANCH   1  35
TORSDOF 19
ENDMDL
MODEL 2
REMARK VINA RESULT:     -12.7      1.643      7.315
REMARK SMILES Cc1cc(C(=O)N[C@@H]2C(=O)N3C(C(=O)NCCCCNC(=O)c4ccc(-c5c6nc(c(-c7cc(S(=O)(=O)[O-])ccc7F)c7ccc([nH]7)c(-c7cc(S(=O)(=O)[O-])ccc7F)c7nc(c(-c8cc(S(=O)(=O)[O-])ccc8F)c8ccc5[nH]8)C=C7)C=C6)cc4)=C(CSc4nnc(C)s4)CS[C@H]23)n(C)n1
REMARK SMILES IDX 17 1 16 2 15 3 13 4 14 5 12 7 8 8 9 9 97 10 10 11 11 12
REMARK SMILES IDX 96 13 95 14 86 15 7 16 5 17 6 18 4 20 1 21 2 22 3 23 100 24
REMARK SMILES IDX 98 25 99 26 87 27 88 28 89 29 90 30 94 31 91 32 92 33 93 34
REMARK SMILES IDX 18 35 19 36 20 37 21 38 22 40 23 41 24 42 85 43 25 44 84 45
REMARK SMILES IDX 26 46 27 47 28 48 78 49 29 50 83 51 77 52 79 53 30 54 82 55
REMARK SMILES IDX 76 56 75 57 31 59 63 60 43 61 62 62 44 63 47 64 61 65 80 66
REMARK SMILES IDX 45 67 46 68 60 70 81 71 48 72 32 73 33 74 41 75 34 76 40 77
REMARK SMILES IDX 42 78 39 79 35 80 36 81 37 82 38 83 64 84 65 85 73 86 66 87
REMARK SMILES IDX 72 88 74 89 71 90 67 91 68 92 69 93 70 94 49 95 50 96 58 97
REMARK SMILES IDX 51 98 57 99 59 100 56 101 52 102 53 103 54 104 55 105
REMARK H PARENT 15 6 7 19 20 39 79 58 47 69
REMARK Flexibility Score: inf
ROOT
ATOM      1  C   UNL A   1      31.620  31.199  26.571  1.00  0.00     0.023 C 
ENDROOT
BRANCH   1   2
ATOM      2  C   UNL A   1      31.370  30.228  25.412  1.00  0.00     0.116 C 
BRANCH   2   3
ATOM      3  N   UNL A   1      32.609  29.903  24.741  1.00  0.00    -0.351 N 
ATOM      4  C   UNL A   1      33.105  28.883  24.001  1.00  0.00     0.268 C 
ATOM      5  O   UNL A   1      34.181  29.170  23.459  1.00  0.00    -0.268 OA
ATOM      6  H   UNL A   1      33.274  30.620  24.851  1.00  0.00     0.163 HD
BRANCH   4   7
ATOM      7  C   UNL A   1      32.406  27.562  23.630  1.00  0.00     0.111 C 
ATOM      8  C   UNL A   1      32.558  25.017  25.953  1.00  0.00     0.206 C 
ATOM      9  C   UNL A   1      32.487  26.568  25.928  1.00  0.00     0.253 C 
ATOM     10  C   UNL A   1      32.307  25.170  24.426  1.00  0.00     0.181 C 
ATOM     11  O   UNL A   1      32.229  27.414  26.767  1.00  0.00    -0.272 OA
ATOM     12  N   UNL A   1      32.664  26.568  24.569  1.00  0.00    -0.290 N 
ATOM     13  S   UNL A   1      30.580  25.045  23.859  1.00  0.00    -0.129 SA
ATOM     14  C   UNL A   1      31.037  25.868  22.333  1.00  0.00     0.106 C 
ATOM     15  C   UNL A   1      31.480  27.282  22.657  1.00  0.00    -0.020 C 
BRANCH   8  16
ATOM     16  N   UNL A   1      31.579  24.287  26.806  1.00  0.00    -0.336 N 
ATOM     17  C   UNL A   1      31.379  22.927  26.957  1.00  0.00     0.270 C 
ATOM     18  O   UNL A   1      30.520  22.561  27.758  1.00  0.00    -0.268 OA
ATOM     19  H   UNL A   1      30.985  24.859  27.342  1.00  0.00     0.164 HD
BRANCH  17  20
ATOM     20  C   UNL A   1      32.123  22.010  26.121  1.00  0.00     0.126 A 
ATOM     21  C   UNL A   1      32.366  19.047  24.025  1.00  0.00     0.069 C 
ATOM     22  C   UNL A   1      32.598  20.263  24.842  1.00  0.00     0.060 A 
ATOM     23  C   UNL A   1      31.817  21.439  24.894  1.00  0.00     0.059 A 
ATOM     24  N   UNL A   1      33.575  20.297  25.749  1.00  0.00    -0.178 NA
ATOM     25  N   UNL A   1      33.321  21.419  26.461  1.00  0.00    -0.263 N 
ATOM     26  C   UNL A   1      34.263  21.779  27.494  1.00  0.00     0.174 C 
ENDBRANCH  17  20
ENDBRANCH   8  16
BRANCH  15  27
ATOM     27  C   UNL A   1      30.499  28.265  22.061  1.00  0.00     0.111 C 
BRANCH  27  28
ATOM     28  S   UNL A   1      29.093  28.331  23.176  1.00  0.00    -0.089 SA
BRANCH  28  29
ATOM     29  C   UNL A   1      28.189  29.712  22.696  1.00  0.00     0.174 A 
ATOM     30  N   UNL A   1      27.152  30.152  23.374  1.00  0.00    -0.132 NA
ATOM     31  S   UNL A   1      28.940  30.902  21.720  1.00  0.00    -0.091 S 
ATOM     32  N   UNL A   1      27.190  31.535  23.461  1.00  0.00    -0.143 NA
ATOM     33  C   UNL A   1      28.227  32.022  22.807  1.00  0.00     0.115 A 
ATOM     34  C   UNL A   1      28.880  33.326  23.057  1.00  0.00     0.081 C 
ENDBRANCH  28  29
ENDBRANCH  27  28
ENDBRANCH  15  27
ENDBRANCH   4   7
ENDBRANCH   2   3
ENDBRANCH   1   2
BRANCH   1  35
ATOM     35  C   UNL A   1      32.901  31.020  27.357  1.00  0.00     0.023 C 
BRANCH  35  36
ATOM     36  C   UNL A   1      33.795  32.236  27.382  1.00  0.00     0.116 C 
BRANCH  36  37
ATOM     37  N   UNL A   1      33.147  33.453  27.858  1.00  0.00    -0.352 N 
ATOM     38  C   UNL A   1      33.494  34.198  28.967  1.00  0.00     0.251 C 
ATOM     39  H   UNL A   1      32.381  33.778  27.333  1.00  0.00     0.163 HD
ATOM     40  O   UNL A   1      32.833  35.174  29.303  1.00  0.00    -0.269 OA
BRANCH  38  41
ATOM     41  C   UNL A   1      34.649  33.736  29.765  1.00  0.00     0.039 A 
ATOM     42  C   UNL A   1      34.465  32.708  30.690  1.00  0.00     0.014 A 
ATOM     43  C   UNL A   1      35.931  34.181  29.434  1.00  0.00     0.014 A 
ATOM     44  C   UNL A   1      35.584  32.056  31.211  1.00  0.00     0.010 A 
ATOM     45  C   UNL A   1      37.029  33.445  29.851  1.00  0.00     0.010 A 
ATOM     46  C   UNL A   1      36.873  32.377  30.749  1.00  0.00    -0.014 A 
BRANCH  46  47
ATOM     47  C   UNL A   1      38.074  31.628  31.203  1.00  0.00     0.031 A 
ATOM     48  C   UNL A   1      38.688  31.958  32.537  1.00  0.00     0.074 A 
ATOM     49  C   UNL A   1      38.650  30.712  30.397  1.00  0.00     0.049 A 
ATOM     50  N   UNL A   1      39.780  31.493  33.086  1.00  0.00    -0.248 NA
ATOM     51  C   UNL A   1      38.005  32.983  33.343  1.00  0.00     0.031 C 
ATOM     52  C   UNL A   1      38.183  30.345  29.056  1.00  0.00     0.029 A 
ATOM     53  N   UNL A   1      39.756  29.920  30.585  1.00  0.00    -0.354 N 
ATOM     54  C   UNL A   1      39.922  32.183  34.286  1.00  0.00     0.074 A 
ATOM     55  C   UNL A   1      38.856  33.157  34.340  1.00  0.00     0.031 C 
ATOM     56  C   UNL A   1      38.970  29.374  28.565  1.00  0.00     0.029 A 
ATOM     57  C   UNL A   1      40.028  29.082  29.526  1.00  0.00     0.049 A 
ATOM     58  H   UNL A   1      40.305  29.948  31.402  1.00  0.00     0.167 HD
ATOM     59  C   UNL A   1      40.833  31.994  35.271  1.00  0.00     0.034 A 
ATOM     60  C   UNL A   1      41.020  28.186  29.349  1.00  0.00     0.034 A 
ATOM     61  C   UNL A   1      41.872  30.999  35.211  1.00  0.00     0.049 A 
ATOM     62  C   UNL A   1      42.034  28.003  30.452  1.00  0.00     0.074 A 
ATOM     63  C   UNL A   1      42.815  30.680  36.172  1.00  0.00     0.029 A 
ATOM     64  N   UNL A   1      42.110  30.164  34.127  1.00  0.00    -0.354 N 
ATOM     65  N   UNL A   1      42.119  28.624  31.608  1.00  0.00    -0.248 NA
ATOM     66  C   UNL A   1      43.077  26.993  30.235  1.00  0.00     0.031 C 
ATOM     67  C   UNL A   1      43.666  29.705  35.642  1.00  0.00     0.029 A 
ATOM     68  C   UNL A   1      43.203  29.351  34.383  1.00  0.00     0.049 A 
ATOM     69  H   UNL A   1      41.581  30.151  33.297  1.00  0.00     0.167 HD
ATOM     70  C   UNL A   1      43.204  28.051  32.268  1.00  0.00     0.074 A 
ATOM     71  C   UNL A   1      43.730  27.028  31.387  1.00  0.00     0.031 C 
ATOM     72  C   UNL A   1      43.716  28.337  33.491  1.00  0.00     0.034 A 
BRANCH  59  73
ATOM     73  C   UNL A   1      40.746  32.898  36.479  1.00  0.00     0.023 A 
ATOM     74  C   UNL A   1      39.927  32.583  37.579  1.00  0.00     0.031 A 
ATOM     75  C   UNL A   1      41.458  34.108  36.518  1.00  0.00     0.131 A 
ATOM     76  C   UNL A   1      39.772  33.503  38.626  1.00  0.00     0.055 A 
ATOM     77  C   UNL A   1      41.372  34.978  37.607  1.00  0.00     0.041 A 
ATOM     78  F   UNL A   1      42.235  34.478  35.488  1.00  0.00    -0.206 F 
ATOM     79  C   UNL A   1      40.512  34.686  38.662  1.00  0.00     0.022 A 
BRANCH  76  80
ATOM     80  S   UNL A   1      38.471  33.205  39.854  1.00  0.00     0.124 S 
ATOM     81  O   UNL A   1      39.042  32.102  40.624  1.00  0.00    -0.237 OA
ATOM     82  O   UNL A   1      38.386  34.488  40.542  1.00  0.00    -0.237 OA
ATOM     83  O   UNL A   1      37.309  32.852  39.042  1.00  0.00    -0.744 OA
ENDBRANCH  76  80
ENDBRANCH  59  73
BRANCH  60  84
ATOM     84  C   UNL A   1      41.116  27.391  28.088  1.00  0.00     0.023 A 
ATOM     85  C   UNL A   1      40.796  26.024  28.067  1.00  0.00     0.031 A 
ATOM     86  C   UNL A   1      41.575  27.976  26.895  1.00  0.00     0.131 A 
ATOM     87  C   UNL A   1      40.988  25.276  26.894  1.00  0.00     0.055 A 
ATOM     88  C   UNL A   1      41.710  27.241  25.715  1.00  0.00     0.041 A 
ATOM     89  F   UNL A   1      41.893  29.280  26.855  1.00  0.00    -0.206 F 
ATOM     90  C   UNL A   1      41.430  25.878  25.714  1.00  0.00     0.022 A 
BRANCH  87  91
ATOM     91  S   UNL A   1      40.745  23.479  26.959  1.00  0.00     0.124 S 
ATOM     92  O   UNL A   1      41.048  23.189  28.356  1.00  0.00    -0.237 OA
ATOM     93  O   UNL A   1      39.346  23.350  26.564  1.00  0.00    -0.237 OA
ATOM     94  O   UNL A   1      41.713  22.970  25.990  1.00  0.00    -0.744 OA
ENDBRANCH  87  91
ENDBRANCH  60  84
BRANCH  72  95
ATOM     95  C   UNL A   1      44.872  27.493  33.971  1.00  0.00     0.023 A 
ATOM     96  C   UNL A   1      44.674  26.294  34.676  1.00  0.00     0.031 A 
ATOM     97  C   UNL A   1      46.194  27.899  33.713  1.00  0.00     0.131 A 
ATOM     98  C   UNL A   1      45.781  25.573  35.148  1.00  0.00     0.055 A 
ATOM     99  C   UNL A   1      47.290  27.142  34.128  1.00  0.00     0.041 A 
ATOM    100  F   UNL A   1      46.441  29.038  33.046  1.00  0.00    -0.206 F 
ATOM    101  C   UNL A   1      47.086  25.979  34.862  1.00  0.00     0.022 A 
BRANCH  98 102
ATOM    102  S   UNL A   1      45.491  24.144  36.228  1.00  0.00     0.124 S 
ATOM    103  O   UNL A   1      46.845  23.648  36.444  1.00  0.00    -0.237 OA
ATOM    104  O   UNL A   1      44.843  24.754  37.385  1.00  0.00    -0.237 OA
ATOM    105  O   UNL A   1      44.632  23.276  35.424  1.00  0.00    -0.744 OA
ENDBRANCH  98 102
ENDBRANCH  72  95
ENDBRANCH  46  47
ENDBRANCH  38  41
ENDBRANCH  36  37
ENDBRANCH  35  36
ENDBRANCH   1  35
TORSDOF 19
ENDMDL
MODEL 3
REMARK VINA RESULT:     -12.5      1.523      7.549
REMARK SMILES Cc1cc(C(=O)N[C@@H]2C(=O)N3C(C(=O)NCCCCNC(=O)c4ccc(-c5c6nc(c(-c7cc(S(=O)(=O)[O-])ccc7F)c7ccc([nH]7)c(-c7cc(S(=O)(=O)[O-])ccc7F)c7nc(c(-c8cc(S(=O)(=O)[O-])ccc8F)c8ccc5[nH]8)C=C7)C=C6)cc4)=C(CSc4nnc(C)s4)CS[C@H]23)n(C)n1
REMARK SMILES IDX 17 1 16 2 15 3 13 4 14 5 12 7 8 8 9 9 97 10 10 11 11 12
REMARK SMILES IDX 96 13 95 14 86 15 7 16 5 17 6 18 4 20 1 21 2 22 3 23 100 24
REMARK SMILES IDX 98 25 99 26 87 27 88 28 89 29 90 30 94 31 91 32 92 33 93 34
REMARK SMILES IDX 18 35 19 36 20 37 21 38 22 40 23 41 24 42 85 43 25 44 84 45
REMARK SMILES IDX 26 46 27 47 28 48 78 49 29 50 83 51 77 52 79 53 30 54 82 55
REMARK SMILES IDX 76 56 75 57 31 59 63 60 43 61 62 62 44 63 47 64 61 65 80 66
REMARK SMILES IDX 45 67 46 68 60 70 81 71 48 72 32 73 33 74 41 75 34 76 40 77
REMARK SMILES IDX 42 78 39 79 35 80 36 81 37 82 38 83 64 84 65 85 73 86 66 87
REMARK SMILES IDX 72 88 74 89 71 90 67 91 68 92 69 93 70 94 49 95 50 96 58 97
REMARK SMILES IDX 51 98 57 99 59 100 56 101 52 102 53 103 54 104 55 105
REMARK H PARENT 15 6 7 19 20 39 79 58 47 69
REMARK Flexibility Score: inf
ROOT
ATOM      1  C   UNL A   1      34.905  30.577  28.127  1.00  0.00     0.023 C 
ENDROOT
BRANCH   1   2
ATOM      2  C   UNL A   1      34.745  29.167  27.546  1.00  0.00     0.116 C 
BRANCH   2   3
ATOM      3  N   UNL A   1      33.372  28.724  27.649  1.00  0.00    -0.351 N 
ATOM      4  C   UNL A   1      32.412  28.253  26.820  1.00  0.00     0.268 C 
ATOM      5  O   UNL A   1      31.435  27.802  27.433  1.00  0.00    -0.268 OA
ATOM      6  H   UNL A   1      33.047  28.779  28.577  1.00  0.00     0.163 HD
BRANCH   4   7
ATOM      7  C   UNL A   1      32.499  28.053  25.295  1.00  0.00     0.111 C 
ATOM      8  C   UNL A   1      33.757  25.036  24.195  1.00  0.00     0.206 C 
ATOM      9  C   UNL A   1      32.917  25.584  25.381  1.00  0.00     0.253 C 
ATOM     10  C   UNL A   1      33.565  26.475  23.640  1.00  0.00     0.181 C 
ATOM     11  O   UNL A   1      32.213  25.062  26.227  1.00  0.00    -0.272 OA
ATOM     12  N   UNL A   1      33.159  26.871  24.974  1.00  0.00    -0.290 N 
ATOM     13  S   UNL A   1      32.178  26.735  22.488  1.00  0.00    -0.129 SA
ATOM     14  C   UNL A   1      32.258  28.497  22.811  1.00  0.00     0.106 C 
ATOM     15  C   UNL A   1      31.907  28.740  24.266  1.00  0.00    -0.020 C 
BRANCH   8  16
ATOM     16  N   UNL A   1      33.225  23.864  23.445  1.00  0.00    -0.336 N 
ATOM     17  C   UNL A   1      33.594  22.533  23.505  1.00  0.00     0.270 C 
ATOM     18  O   UNL A   1      32.975  21.735  22.803  1.00  0.00    -0.268 OA
ATOM     19  H   UNL A   1      32.501  24.068  22.811  1.00  0.00     0.164 HD
BRANCH  17  20
ATOM     20  C   UNL A   1      34.728  22.155  24.320  1.00  0.00     0.126 A 
ATOM     21  C   UNL A   1      37.824  20.326  24.870  1.00  0.00     0.069 C 
ATOM     22  C   UNL A   1      36.595  21.151  24.967  1.00  0.00     0.060 A 
ATOM     23  C   UNL A   1      36.079  22.061  24.019  1.00  0.00     0.059 A 
ATOM     24  N   UNL A   1      35.754  20.998  25.991  1.00  0.00    -0.178 NA
ATOM     25  N   UNL A   1      34.656  21.695  25.617  1.00  0.00    -0.263 N 
ATOM     26  C   UNL A   1      33.570  21.783  26.565  1.00  0.00     0.174 C 
ENDBRANCH  17  20
ENDBRANCH   8  16
BRANCH  15  27
ATOM     27  C   UNL A   1      30.607  29.506  24.348  1.00  0.00     0.111 C 
BRANCH  27  28
ATOM     28  S   UNL A   1      29.460  28.697  23.228  1.00  0.00    -0.089 SA
BRANCH  28  29
ATOM     29  C   UNL A   1      28.329  29.908  22.770  1.00  0.00     0.174 A 
ATOM     30  N   UNL A   1      27.311  30.250  23.528  1.00  0.00    -0.132 NA
ATOM     31  S   UNL A   1      28.809  31.118  21.657  1.00  0.00    -0.091 S 
ATOM     32  N   UNL A   1      27.163  31.629  23.534  1.00  0.00    -0.143 NA
ATOM     33  C   UNL A   1      28.053  32.205  22.750  1.00  0.00     0.115 A 
ATOM     34  C   UNL A   1      28.539  33.598  22.858  1.00  0.00     0.081 C 
ENDBRANCH  28  29
ENDBRANCH  27  28
ENDBRANCH  15  27
ENDBRANCH   4   7
ENDBRANCH   2   3
ENDBRANCH   1   2
BRANCH   1  35
ATOM     35  C   UNL A   1      33.834  31.590  27.782  1.00  0.00     0.023 C 
BRANCH  35  36
ATOM     36  C   UNL A   1      34.311  33.022  27.765  1.00  0.00     0.116 C 
BRANCH  36  37
ATOM     37  N   UNL A   1      33.414  33.966  28.423  1.00  0.00    -0.352 N 
ATOM     38  C   UNL A   1      33.508  34.434  29.718  1.00  0.00     0.251 C 
ATOM     39  H   UNL A   1      32.662  34.304  27.886  1.00  0.00     0.163 HD
ATOM     40  O   UNL A   1      32.655  35.182  30.180  1.00  0.00    -0.269 OA
BRANCH  38  41
ATOM     41  C   UNL A   1      34.637  33.948  30.538  1.00  0.00     0.039 A 
ATOM     42  C   UNL A   1      34.434  32.868  31.398  1.00  0.00     0.014 A 
ATOM     43  C   UNL A   1      35.922  34.433  30.287  1.00  0.00     0.014 A 
ATOM     44  C   UNL A   1      35.542  32.208  31.930  1.00  0.00     0.010 A 
ATOM     45  C   UNL A   1      37.016  33.693  30.711  1.00  0.00     0.010 A 
ATOM     46  C   UNL A   1      36.843  32.575  31.542  1.00  0.00    -0.014 A 
BRANCH  46  47
ATOM     47  C   UNL A   1      38.038  31.823  32.006  1.00  0.00     0.031 A 
ATOM     48  C   UNL A   1      38.672  32.185  33.323  1.00  0.00     0.074 A 
ATOM     49  C   UNL A   1      38.591  30.874  31.223  1.00  0.00     0.049 A 
ATOM     50  N   UNL A   1      39.764  31.721  33.873  1.00  0.00    -0.248 NA
ATOM     51  C   UNL A   1      38.013  33.245  34.104  1.00  0.00     0.031 C 
ATOM     52  C   UNL A   1      38.104  30.473  29.900  1.00  0.00     0.029 A 
ATOM     53  N   UNL A   1      39.688  30.071  31.423  1.00  0.00    -0.354 N 
ATOM     54  C   UNL A   1      39.929  32.446  35.050  1.00  0.00     0.074 A 
ATOM     55  C   UNL A   1      38.878  33.437  35.085  1.00  0.00     0.031 C 
ATOM     56  C   UNL A   1      38.871  29.475  29.430  1.00  0.00     0.029 A 
ATOM     57  C   UNL A   1      39.935  29.197  30.388  1.00  0.00     0.049 A 
ATOM     58  H   UNL A   1      40.246  30.117  32.233  1.00  0.00     0.167 HD
ATOM     59  C   UNL A   1      40.849  32.275  36.030  1.00  0.00     0.034 A 
ATOM     60  C   UNL A   1      40.912  28.281  30.229  1.00  0.00     0.034 A 
ATOM     61  C   UNL A   1      41.873  31.262  35.990  1.00  0.00     0.049 A 
ATOM     62  C   UNL A   1      41.936  28.117  31.326  1.00  0.00     0.074 A 
ATOM     63  C   UNL A   1      42.822  30.959  36.950  1.00  0.00     0.029 A 
ATOM     64  N   UNL A   1      42.086  30.390  34.930  1.00  0.00    -0.354 N 
ATOM     65  N   UNL A   1      42.044  28.773  32.460  1.00  0.00    -0.248 NA
ATOM     66  C   UNL A   1      42.962  27.085  31.129  1.00  0.00     0.031 C 
ATOM     67  C   UNL A   1      43.652  29.955  36.442  1.00  0.00     0.029 A 
ATOM     68  C   UNL A   1      43.170  29.569  35.200  1.00  0.00     0.049 A 
ATOM     69  H   UNL A   1      41.547  30.359  34.106  1.00  0.00     0.167 HD
ATOM     70  C   UNL A   1      43.127  28.204  33.126  1.00  0.00     0.074 A 
ATOM     71  C   UNL A   1      43.628  27.147  32.271  1.00  0.00     0.031 C 
ATOM     72  C   UNL A   1      43.657  28.521  34.334  1.00  0.00     0.034 A 
BRANCH  59  73
ATOM     73  C   UNL A   1      40.788  33.216  37.210  1.00  0.00     0.023 A 
ATOM     74  C   UNL A   1      40.074  32.891  38.378  1.00  0.00     0.031 A 
ATOM     75  C   UNL A   1      41.418  34.471  37.155  1.00  0.00     0.131 A 
ATOM     76  C   UNL A   1      39.934  33.840  39.402  1.00  0.00     0.055 A 
ATOM     77  C   UNL A   1      41.352  35.375  38.217  1.00  0.00     0.041 A 
ATOM     78  F   UNL A   1      42.092  34.850  36.057  1.00  0.00    -0.206 F 
ATOM     79  C   UNL A   1      40.593  35.069  39.343  1.00  0.00     0.022 A 
BRANCH  76  80
ATOM     80  S   UNL A   1      38.749  33.505  40.734  1.00  0.00     0.124 S 
ATOM     81  O   UNL A   1      39.314  32.298  41.333  1.00  0.00    -0.237 OA
ATOM     82  O   UNL A   1      38.830  34.717  41.541  1.00  0.00    -0.237 OA
ATOM     83  O   UNL A   1      37.486  33.308  40.026  1.00  0.00    -0.744 OA
ENDBRANCH  76  80
ENDBRANCH  59  73
BRANCH  60  84
ATOM     84  C   UNL A   1      40.982  27.446  28.992  1.00  0.00     0.023 A 
ATOM     85  C   UNL A   1      41.976  27.665  28.025  1.00  0.00     0.031 A 
ATOM     86  C   UNL A   1      40.025  26.449  28.735  1.00  0.00     0.131 A 
ATOM     87  C   UNL A   1      41.962  26.935  26.825  1.00  0.00     0.055 A 
ATOM     88  C   UNL A   1      40.049  25.685  27.566  1.00  0.00     0.041 A 
ATOM     89  F   UNL A   1      39.053  26.193  29.625  1.00  0.00    -0.206 F 
ATOM     90  C   UNL A   1      41.013  25.937  26.595  1.00  0.00     0.022 A 
BRANCH  87  91
ATOM     91  S   UNL A   1      43.147  27.378  25.524  1.00  0.00     0.124 S 
ATOM     92  O   UNL A   1      42.321  28.185  24.633  1.00  0.00    -0.237 OA
ATOM     93  O   UNL A   1      44.169  28.095  26.278  1.00  0.00    -0.237 OA
ATOM     94  O   UNL A   1      43.563  26.083  24.989  1.00  0.00    -0.744 OA
ENDBRANCH  87  91
ENDBRANCH  60  84
BRANCH  72  95
ATOM     95  C   UNL A   1      44.807  27.675  34.827  1.00  0.00     0.023 A 
ATOM     96  C   UNL A   1      44.602  26.539  35.629  1.00  0.00     0.031 A 
ATOM     97  C   UNL A   1      46.128  28.015  34.484  1.00  0.00     0.131 A 
ATOM     98  C   UNL A   1      45.705  25.817  36.107  1.00  0.00     0.055 A 
ATOM     99  C   UNL A   1      47.216  27.253  34.908  1.00  0.00     0.041 A 
ATOM    100  F   UNL A   1      46.381  29.092  33.722  1.00  0.00    -0.206 F 
ATOM    101  C   UNL A   1      47.009  26.155  35.737  1.00  0.00     0.022 A 
BRANCH  98 102
ATOM    102  S   UNL A   1      45.419  24.484  37.303  1.00  0.00     0.124 S 
ATOM    103  O   UNL A   1      44.123  24.852  37.863  1.00  0.00    -0.237 OA
ATOM    104  O   UNL A   1      45.432  23.296  36.455  1.00  0.00    -0.237 OA
ATOM    105  O   UNL A   1      46.549  24.600  38.224  1.00  0.00    -0.744 OA
ENDBRANCH  98 102
ENDBRANCH  72  95
ENDBRANCH  46  47
ENDBRANCH  38  41
ENDBRANCH  36  37
ENDBRANCH  35  36
ENDBRANCH   1  35
TORSDOF 19
ENDMDL
