MODEL 1
REMARK VINA RESULT:     -11.8      0.000      0.000
REMARK SMILES COc1cc(/C=C2\SC(=S)N(CC(=O)NCCCCNC(=O)c3ccc(-c4c5nc(c(-c6cc(S(=O)(=O)[O-])ccc6F)c6ccc([nH]6)c(-c6cc(S(=O)(=O)[O-])ccc6F)c6nc(c(-c7cc(S(=O)(=O)[O-])ccc7F)c7ccc4[nH]7)C=C6)C=C5)cc3)C2=O)cc2c1OCO2
REMARK SMILES IDX 17 1 16 2 15 3 13 4 14 5 12 7 11 8 6 9 7 10 8 11 86 12 9 13
REMARK SMILES IDX 87 14 10 15 5 16 3 17 4 18 90 19 89 20 91 21 88 22 93 23
REMARK SMILES IDX 92 24 2 25 1 26 18 27 19 28 20 29 21 30 22 32 23 33 24 34
REMARK SMILES IDX 85 35 25 36 84 37 26 38 27 39 28 40 78 41 29 42 83 43 77 44
REMARK SMILES IDX 79 45 30 46 82 47 76 48 75 49 31 51 63 52 43 53 62 54 44 55
REMARK SMILES IDX 47 56 61 57 80 58 45 59 46 60 60 62 81 63 48 64 32 65 33 66
REMARK SMILES IDX 41 67 34 68 40 69 42 70 39 71 35 72 36 73 37 74 38 75 64 76
REMARK SMILES IDX 65 77 73 78 66 79 72 80 74 81 71 82 67 83 68 84 69 85 70 86
REMARK SMILES IDX 49 87 50 88 58 89 51 90 57 91 59 92 56 93 52 94 53 95 54 96
REMARK SMILES IDX 55 97
REMARK H PARENT 15 6 20 31 79 50 47 61
REMARK Flexibility Score: inf
ROOT
ATOM      1  C   UNL A   1      36.368  21.148  25.072  1.00  0.00     0.023 C 
ENDROOT
BRANCH   1   2
ATOM      2  C   UNL A   1      36.325  22.535  25.709  1.00  0.00     0.116 C 
BRANCH   2   3
ATOM      3  N   UNL A   1      35.424  22.591  26.839  1.00  0.00    -0.355 N 
ATOM      4  C   UNL A   1      34.064  22.496  26.886  1.00  0.00     0.240 C 
ATOM      5  O   UNL A   1      33.550  22.300  27.990  1.00  0.00    -0.273 OA
ATOM      6  H   UNL A   1      35.861  22.718  27.712  1.00  0.00     0.163 HD
BRANCH   4   7
ATOM      7  C   UNL A   1      33.211  22.437  25.613  1.00  0.00     0.227 C 
BRANCH   7   8
ATOM      8  N   UNL A   1      32.377  23.613  25.375  1.00  0.00    -0.283 N 
ATOM      9  C   UNL A   1      32.310  26.969  24.020  1.00  0.00     0.029 C 
ATOM     10  C   UNL A   1      31.990  25.809  24.610  1.00  0.00     0.081 C 
ATOM     11  S   UNL A   1      30.485  25.352  25.301  1.00  0.00    -0.054 SA
ATOM     12  C   UNL A   1      32.968  24.699  24.747  1.00  0.00     0.266 C 
ATOM     13  C   UNL A   1      31.105  23.810  25.867  1.00  0.00     0.148 C 
ATOM     14  O   UNL A   1      34.130  24.773  24.384  1.00  0.00    -0.268 OA
ATOM     15  S   UNL A   1      30.212  22.827  26.876  1.00  0.00    -0.052 S 
BRANCH   9  16
ATOM     16  C   UNL A   1      31.407  28.113  23.852  1.00  0.00    -0.017 A 
ATOM     17  C   UNL A   1      30.684  30.334  24.591  1.00  0.00     0.165 A 
ATOM     18  C   UNL A   1      31.508  29.208  24.733  1.00  0.00     0.058 A 
ATOM     19  C   UNL A   1      29.793  30.348  23.533  1.00  0.00     0.207 A 
ATOM     20  C   UNL A   1      29.685  29.270  22.682  1.00  0.00     0.170 A 
ATOM     21  O   UNL A   1      28.960  31.359  23.157  1.00  0.00    -0.450 OA
ATOM     22  C   UNL A   1      30.452  28.133  22.829  1.00  0.00     0.059 A 
ATOM     23  O   UNL A   1      28.775  29.466  21.689  1.00  0.00    -0.453 OA
ATOM     24  C   UNL A   1      28.401  30.832  21.940  1.00  0.00     0.468 C 
BRANCH  17  25
ATOM     25  O   UNL A   1      30.900  31.335  25.492  1.00  0.00    -0.493 OA
ATOM     26  C   UNL A   1      31.725  30.989  26.600  1.00  0.00     0.278 C 
ENDBRANCH  17  25
ENDBRANCH   9  16
ENDBRANCH   7   8
ENDBRANCH   4   7
ENDBRANCH   2   3
ENDBRANCH   1   2
BRANCH   1  27
ATOM     27  C   UNL A   1      37.780  20.620  24.810  1.00  0.00     0.023 C 
BRANCH  27  28
ATOM     28  C   UNL A   1      38.746  20.729  25.985  1.00  0.00     0.116 C 
BRANCH  28  29
ATOM     29  N   UNL A   1      39.723  19.652  26.023  1.00  0.00    -0.352 N 
ATOM     30  C   UNL A   1      41.086  19.732  26.189  1.00  0.00     0.251 C 
ATOM     31  H   UNL A   1      39.360  18.744  25.916  1.00  0.00     0.163 HD
ATOM     32  O   UNL A   1      41.777  18.729  26.050  1.00  0.00    -0.269 OA
BRANCH  30  33
ATOM     33  C   UNL A   1      41.708  21.040  26.494  1.00  0.00     0.039 A 
ATOM     34  C   UNL A   1      41.941  21.937  25.449  1.00  0.00     0.014 A 
ATOM     35  C   UNL A   1      42.024  21.392  27.808  1.00  0.00     0.014 A 
ATOM     36  C   UNL A   1      42.425  23.215  25.733  1.00  0.00     0.010 A 
ATOM     37  C   UNL A   1      42.426  22.693  28.096  1.00  0.00     0.010 A 
ATOM     38  C   UNL A   1      42.632  23.620  27.062  1.00  0.00    -0.014 A 
BRANCH  38  39
ATOM     39  C   UNL A   1      43.054  25.008  27.387  1.00  0.00     0.031 A 
ATOM     40  C   UNL A   1      42.089  25.963  28.031  1.00  0.00     0.074 A 
ATOM     41  C   UNL A   1      44.286  25.428  27.039  1.00  0.00     0.049 A 
ATOM     42  N   UNL A   1      42.248  27.227  28.332  1.00  0.00    -0.248 NA
ATOM     43  C   UNL A   1      40.754  25.433  28.342  1.00  0.00     0.031 C 
ATOM     44  C   UNL A   1      45.294  24.612  26.357  1.00  0.00     0.029 A 
ATOM     45  N   UNL A   1      44.898  26.648  27.196  1.00  0.00    -0.354 N 
ATOM     46  C   UNL A   1      41.030  27.647  28.859  1.00  0.00     0.074 A 
ATOM     47  C   UNL A   1      40.125  26.521  28.758  1.00  0.00     0.031 C 
ATOM     48  C   UNL A   1      46.403  25.346  26.175  1.00  0.00     0.029 A 
ATOM     49  C   UNL A   1      46.171  26.696  26.679  1.00  0.00     0.049 A 
ATOM     50  H   UNL A   1      44.465  27.414  27.637  1.00  0.00     0.167 HD
ATOM     51  C   UNL A   1      40.707  28.849  29.400  1.00  0.00     0.034 A 
ATOM     52  C   UNL A   1      47.049  27.717  26.598  1.00  0.00     0.034 A 
ATOM     53  C   UNL A   1      41.625  29.960  29.482  1.00  0.00     0.049 A 
ATOM     54  C   UNL A   1      46.666  29.054  27.175  1.00  0.00     0.074 A 
ATOM     55  C   UNL A   1      41.428  31.201  30.062  1.00  0.00     0.029 A 
ATOM     56  N   UNL A   1      42.909  29.975  28.948  1.00  0.00    -0.354 N 
ATOM     57  N   UNL A   1      45.536  29.418  27.737  1.00  0.00    -0.248 NA
ATOM     58  C   UNL A   1      47.680  30.112  27.118  1.00  0.00     0.031 C 
ATOM     59  C   UNL A   1      42.554  31.991  29.803  1.00  0.00     0.029 A 
ATOM     60  C   UNL A   1      43.497  31.216  29.146  1.00  0.00     0.049 A 
ATOM     61  H   UNL A   1      43.340  29.213  28.495  1.00  0.00     0.167 HD
ATOM     62  C   UNL A   1      45.711  30.744  28.121  1.00  0.00     0.074 A 
ATOM     63  C   UNL A   1      47.063  31.107  27.741  1.00  0.00     0.031 C 
ATOM     64  C   UNL A   1      44.837  31.581  28.739  1.00  0.00     0.034 A 
BRANCH  51  65
ATOM     65  C   UNL A   1      39.289  29.019  29.902  1.00  0.00     0.023 A 
ATOM     66  C   UNL A   1      38.314  29.699  29.148  1.00  0.00     0.031 A 
ATOM     67  C   UNL A   1      38.920  28.558  31.178  1.00  0.00     0.131 A 
ATOM     68  C   UNL A   1      37.069  30.002  29.718  1.00  0.00     0.055 A 
ATOM     69  C   UNL A   1      37.642  28.770  31.699  1.00  0.00     0.041 A 
ATOM     70  F   UNL A   1      39.806  27.919  31.958  1.00  0.00    -0.206 F 
ATOM     71  C   UNL A   1      36.715  29.517  30.978  1.00  0.00     0.022 A 
BRANCH  68  72
ATOM     72  S   UNL A   1      36.007  31.210  28.878  1.00  0.00     0.124 S 
ATOM     73  O   UNL A   1      35.164  30.342  28.059  1.00  0.00    -0.237 OA
ATOM     74  O   UNL A   1      35.345  31.877  29.992  1.00  0.00    -0.237 OA
ATOM     75  O   UNL A   1      36.952  32.033  28.127  1.00  0.00    -0.744 OA
ENDBRANCH  68  72
ENDBRANCH  51  65
BRANCH  52  76
ATOM     76  C   UNL A   1      48.363  27.509  25.926  1.00  0.00     0.023 A 
ATOM     77  C   UNL A   1      48.495  27.594  24.531  1.00  0.00     0.031 A 
ATOM     78  C   UNL A   1      49.516  27.231  26.683  1.00  0.00     0.131 A 
ATOM     79  C   UNL A   1      49.748  27.379  23.935  1.00  0.00     0.055 A 
ATOM     80  C   UNL A   1      50.769  27.067  26.089  1.00  0.00     0.041 A 
ATOM     81  F   UNL A   1      49.445  27.146  28.021  1.00  0.00    -0.206 F 
ATOM     82  C   UNL A   1      50.888  27.134  24.706  1.00  0.00     0.022 A 
BRANCH  79  83
ATOM     83  S   UNL A   1      49.864  27.378  22.124  1.00  0.00     0.124 S 
ATOM     84  O   UNL A   1      49.588  28.774  21.808  1.00  0.00    -0.237 OA
ATOM     85  O   UNL A   1      51.235  26.929  21.907  1.00  0.00    -0.237 OA
ATOM     86  O   UNL A   1      48.830  26.428  21.717  1.00  0.00    -0.744 OA
ENDBRANCH  79  83
ENDBRANCH  52  76
BRANCH  64  87
ATOM     87  C   UNL A   1      45.333  32.969  29.075  1.00  0.00     0.023 A 
ATOM     88  C   UNL A   1      45.189  34.046  28.182  1.00  0.00     0.031 A 
ATOM     89  C   UNL A   1      45.966  33.215  30.307  1.00  0.00     0.131 A 
ATOM     90  C   UNL A   1      45.721  35.304  28.511  1.00  0.00     0.055 A 
ATOM     91  C   UNL A   1      46.430  34.483  30.658  1.00  0.00     0.041 A 
ATOM     92  F   UNL A   1      46.137  32.224  31.197  1.00  0.00    -0.206 F 
ATOM     93  C   UNL A   1      46.322  35.533  29.752  1.00  0.00     0.022 A 
BRANCH  90  94
ATOM     94  S   UNL A   1      45.715  36.611  27.253  1.00  0.00     0.124 S 
ATOM     95  O   UNL A   1      46.100  35.876  26.052  1.00  0.00    -0.237 OA
ATOM     96  O   UNL A   1      44.334  37.080  27.298  1.00  0.00    -0.237 OA
ATOM     97  O   UNL A   1      46.709  37.564  27.742  1.00  0.00    -0.744 OA
ENDBRANCH  90  94
ENDBRANCH  64  87
ENDBRANCH  38  39
ENDBRANCH  30  33
ENDBRANCH  28  29
ENDBRANCH  27  28
ENDBRANCH   1  27
TORSDOF 17
ENDMDL
MODEL 2
REMARK VINA RESULT:     -11.4      1.456      2.144
REMARK SMILES COc1cc(/C=C2\SC(=S)N(CC(=O)NCCCCNC(=O)c3ccc(-c4c5nc(c(-c6cc(S(=O)(=O)[O-])ccc6F)c6ccc([nH]6)c(-c6cc(S(=O)(=O)[O-])ccc6F)c6nc(c(-c7cc(S(=O)(=O)[O-])ccc7F)c7ccc4[nH]7)C=C6)C=C5)cc3)C2=O)cc2c1OCO2
REMARK SMILES IDX 17 1 16 2 15 3 13 4 14 5 12 7 11 8 6 9 7 10 8 11 86 12 9 13
REMARK SMILES IDX 87 14 10 15 5 16 3 17 4 18 90 19 89 20 91 21 88 22 93 23
REMARK SMILES IDX 92 24 2 25 1 26 18 27 19 28 20 29 21 30 22 32 23 33 24 34
REMARK SMILES IDX 85 35 25 36 84 37 26 38 27 39 28 40 78 41 29 42 83 43 77 44
REMARK SMILES IDX 79 45 30 46 82 47 76 48 75 49 31 51 63 52 43 53 62 54 44 55
REMARK SMILES IDX 47 56 61 57 80 58 45 59 46 60 60 62 81 63 48 64 32 65 33 66
REMARK SMILES IDX 41 67 34 68 40 69 42 70 39 71 35 72 36 73 37 74 38 75 64 76
REMARK SMILES IDX 65 77 73 78 66 79 72 80 74 81 71 82 67 83 68 84 69 85 70 86
REMARK SMILES IDX 49 87 50 88 58 89 51 90 57 91 59 92 56 93 52 94 53 95 54 96
REMARK SMILES IDX 55 97
REMARK H PARENT 15 6 20 31 79 50 47 61
REMARK Flexibility Score: inf
ROOT
ATOM      1  C   UNL A   1      37.284  20.906  24.615  1.00  0.00     0.023 C 
ENDROOT
BRANCH   1   2
ATOM      2  C   UNL A   1      35.776  20.751  24.791  1.00  0.00     0.116 C 
BRANCH   2   3
ATOM      3  N   UNL A   1      35.335  21.149  26.109  1.00  0.00    -0.355 N 
ATOM      4  C   UNL A   1      34.110  21.568  26.538  1.00  0.00     0.240 C 
ATOM      5  O   UNL A   1      33.915  21.589  27.757  1.00  0.00    -0.273 OA
ATOM      6  H   UNL A   1      36.028  21.113  26.807  1.00  0.00     0.163 HD
BRANCH   4   7
ATOM      7  C   UNL A   1      32.952  21.819  25.564  1.00  0.00     0.227 C 
BRANCH   7   8
ATOM      8  N   UNL A   1      32.408  23.174  25.590  1.00  0.00    -0.283 N 
ATOM      9  C   UNL A   1      33.112  26.658  24.906  1.00  0.00     0.029 C 
ATOM     10  C   UNL A   1      32.534  25.508  25.276  1.00  0.00     0.081 C 
ATOM     11  S   UNL A   1      30.961  25.273  25.926  1.00  0.00    -0.054 SA
ATOM     12  C   UNL A   1      33.233  24.202  25.158  1.00  0.00     0.266 C 
ATOM     13  C   UNL A   1      31.212  23.551  26.161  1.00  0.00     0.148 C 
ATOM     14  O   UNL A   1      34.383  24.084  24.769  1.00  0.00    -0.268 OA
ATOM     15  S   UNL A   1      30.114  22.615  26.998  1.00  0.00    -0.052 S 
BRANCH   9  16
ATOM     16  C   UNL A   1      32.493  27.986  24.996  1.00  0.00    -0.017 A 
ATOM     17  C   UNL A   1      30.825  29.577  24.166  1.00  0.00     0.165 A 
ATOM     18  C   UNL A   1      31.463  28.330  24.098  1.00  0.00     0.058 A 
ATOM     19  C   UNL A   1      31.217  30.444  25.170  1.00  0.00     0.207 A 
ATOM     20  C   UNL A   1      32.236  30.112  26.037  1.00  0.00     0.170 A 
ATOM     21  O   UNL A   1      30.688  31.663  25.475  1.00  0.00    -0.450 OA
ATOM     22  C   UNL A   1      32.909  28.911  25.960  1.00  0.00     0.059 A 
ATOM     23  O   UNL A   1      32.473  31.073  26.971  1.00  0.00    -0.453 OA
ATOM     24  C   UNL A   1      31.417  32.002  26.669  1.00  0.00     0.468 C 
BRANCH  17  25
ATOM     25  O   UNL A   1      29.826  29.775  23.258  1.00  0.00    -0.493 OA
ATOM     26  C   UNL A   1      29.033  28.630  22.967  1.00  0.00     0.278 C 
ENDBRANCH  17  25
ENDBRANCH   9  16
ENDBRANCH   7   8
ENDBRANCH   4   7
ENDBRANCH   2   3
ENDBRANCH   1   2
BRANCH   1  27
ATOM     27  C   UNL A   1      38.091  19.652  24.964  1.00  0.00     0.023 C 
BRANCH  27  28
ATOM     28  C   UNL A   1      39.029  19.794  26.158  1.00  0.00     0.116 C 
BRANCH  28  29
ATOM     29  N   UNL A   1      40.267  19.046  26.002  1.00  0.00    -0.352 N 
ATOM     30  C   UNL A   1      41.563  19.504  26.062  1.00  0.00     0.251 C 
ATOM     31  H   UNL A   1      40.163  18.082  25.832  1.00  0.00     0.163 HD
ATOM     32  O   UNL A   1      42.488  18.757  25.762  1.00  0.00    -0.269 OA
BRANCH  30  33
ATOM     33  C   UNL A   1      41.822  20.908  26.448  1.00  0.00     0.039 A 
ATOM     34  C   UNL A   1      42.261  21.182  27.746  1.00  0.00     0.014 A 
ATOM     35  C   UNL A   1      41.669  21.945  25.523  1.00  0.00     0.014 A 
ATOM     36  C   UNL A   1      42.615  22.487  28.093  1.00  0.00     0.010 A 
ATOM     37  C   UNL A   1      42.101  23.228  25.847  1.00  0.00     0.010 A 
ATOM     38  C   UNL A   1      42.579  23.514  27.135  1.00  0.00    -0.014 A 
BRANCH  38  39
ATOM     39  C   UNL A   1      43.044  24.888  27.462  1.00  0.00     0.031 A 
ATOM     40  C   UNL A   1      42.111  25.868  28.117  1.00  0.00     0.074 A 
ATOM     41  C   UNL A   1      44.285  25.274  27.107  1.00  0.00     0.049 A 
ATOM     42  N   UNL A   1      42.309  27.125  28.423  1.00  0.00    -0.248 NA
ATOM     43  C   UNL A   1      40.764  25.375  28.437  1.00  0.00     0.031 C 
ATOM     44  C   UNL A   1      45.263  24.432  26.414  1.00  0.00     0.029 A 
ATOM     45  N   UNL A   1      44.933  26.474  27.264  1.00  0.00    -0.354 N 
ATOM     46  C   UNL A   1      41.109  27.578  28.961  1.00  0.00     0.074 A 
ATOM     47  C   UNL A   1      40.170  26.480  28.862  1.00  0.00     0.031 C 
ATOM     48  C   UNL A   1      46.392  25.134  26.226  1.00  0.00     0.029 A 
ATOM     49  C   UNL A   1      46.203  26.488  26.738  1.00  0.00     0.049 A 
ATOM     50  H   UNL A   1      44.526  27.250  27.712  1.00  0.00     0.167 HD
ATOM     51  C   UNL A   1      40.825  28.787  29.509  1.00  0.00     0.034 A 
ATOM     52  C   UNL A   1      47.110  27.482  26.654  1.00  0.00     0.034 A 
ATOM     53  C   UNL A   1      41.776  29.870  29.589  1.00  0.00     0.049 A 
ATOM     54  C   UNL A   1      46.770  28.828  27.240  1.00  0.00     0.074 A 
ATOM     55  C   UNL A   1      41.619  31.114  30.176  1.00  0.00     0.029 A 
ATOM     56  N   UNL A   1      43.055  29.850  29.045  1.00  0.00    -0.354 N 
ATOM     57  N   UNL A   1      45.656  29.222  27.812  1.00  0.00    -0.248 NA
ATOM     58  C   UNL A   1      47.814  29.857  27.180  1.00  0.00     0.031 C 
ATOM     59  C   UNL A   1      42.766  31.871  29.912  1.00  0.00     0.029 A 
ATOM     60  C   UNL A   1      43.681  31.072  29.245  1.00  0.00     0.049 A 
ATOM     61  H   UNL A   1      43.460  29.078  28.586  1.00  0.00     0.167 HD
ATOM     62  C   UNL A   1      45.872  30.541  28.201  1.00  0.00     0.074 A 
ATOM     63  C   UNL A   1      47.231  30.866  27.812  1.00  0.00     0.031 C 
ATOM     64  C   UNL A   1      45.028  31.400  28.828  1.00  0.00     0.034 A 
BRANCH  51  65
ATOM     65  C   UNL A   1      39.416  28.995  30.023  1.00  0.00     0.023 A 
ATOM     66  C   UNL A   1      38.458  29.713  29.282  1.00  0.00     0.031 A 
ATOM     67  C   UNL A   1      39.042  28.534  31.297  1.00  0.00     0.131 A 
ATOM     68  C   UNL A   1      37.226  30.048  29.864  1.00  0.00     0.055 A 
ATOM     69  C   UNL A   1      37.774  28.780  31.829  1.00  0.00     0.041 A 
ATOM     70  F   UNL A   1      39.913  27.860  32.064  1.00  0.00    -0.206 F 
ATOM     71  C   UNL A   1      36.866  29.563  31.122  1.00  0.00     0.022 A 
BRANCH  68  72
ATOM     72  S   UNL A   1      36.197  31.297  29.043  1.00  0.00     0.124 S 
ATOM     73  O   UNL A   1      35.357  30.467  28.181  1.00  0.00    -0.237 OA
ATOM     74  O   UNL A   1      35.523  31.938  30.165  1.00  0.00    -0.237 OA
ATOM     75  O   UNL A   1      37.167  32.130  28.336  1.00  0.00    -0.744 OA
ENDBRANCH  68  72
ENDBRANCH  51  65
BRANCH  52  76
ATOM     76  C   UNL A   1      48.412  27.240  25.971  1.00  0.00     0.023 A 
ATOM     77  C   UNL A   1      49.523  26.737  26.667  1.00  0.00     0.031 A 
ATOM     78  C   UNL A   1      48.557  27.502  24.596  1.00  0.00     0.131 A 
ATOM     79  C   UNL A   1      50.736  26.534  25.989  1.00  0.00     0.055 A 
ATOM     80  C   UNL A   1      49.750  27.253  23.918  1.00  0.00     0.041 A 
ATOM     81  F   UNL A   1      47.522  27.978  23.884  1.00  0.00    -0.206 F 
ATOM     82  C   UNL A   1      50.852  26.772  24.617  1.00  0.00     0.022 A 
BRANCH  79  83
ATOM     83  S   UNL A   1      52.186  25.997  26.939  1.00  0.00     0.124 S 
ATOM     84  O   UNL A   1      52.578  24.788  26.224  1.00  0.00    -0.237 OA
ATOM     85  O   UNL A   1      53.080  27.141  26.803  1.00  0.00    -0.237 OA
ATOM     86  O   UNL A   1      51.653  25.783  28.283  1.00  0.00    -0.744 OA
ENDBRANCH  79  83
ENDBRANCH  52  76
BRANCH  64  87
ATOM     87  C   UNL A   1      45.566  32.772  29.167  1.00  0.00     0.023 A 
ATOM     88  C   UNL A   1      45.472  33.850  28.268  1.00  0.00     0.031 A 
ATOM     89  C   UNL A   1      46.190  33.000  30.406  1.00  0.00     0.131 A 
ATOM     90  C   UNL A   1      46.043  35.089  28.600  1.00  0.00     0.055 A 
ATOM     91  C   UNL A   1      46.693  34.253  30.759  1.00  0.00     0.041 A 
ATOM     92  F   UNL A   1      46.315  32.008  31.302  1.00  0.00    -0.206 F 
ATOM     93  C   UNL A   1      46.634  35.303  29.848  1.00  0.00     0.022 A 
BRANCH  90  94
ATOM     94  S   UNL A   1      46.098  36.391  27.337  1.00  0.00     0.124 S 
ATOM     95  O   UNL A   1      44.785  37.010  27.485  1.00  0.00    -0.237 OA
ATOM     96  O   UNL A   1      47.236  37.196  27.770  1.00  0.00    -0.237 OA
ATOM     97  O   UNL A   1      46.299  35.653  26.092  1.00  0.00    -0.744 OA
ENDBRANCH  90  94
ENDBRANCH  64  87
ENDBRANCH  38  39
ENDBRANCH  30  33
ENDBRANCH  28  29
ENDBRANCH  27  28
ENDBRANCH   1  27
TORSDOF 17
ENDMDL
MODEL 3
REMARK VINA RESULT:     -11.3      1.960      2.383
REMARK SMILES COc1cc(/C=C2\SC(=S)N(CC(=O)NCCCCNC(=O)c3ccc(-c4c5nc(c(-c6cc(S(=O)(=O)[O-])ccc6F)c6ccc([nH]6)c(-c6cc(S(=O)(=O)[O-])ccc6F)c6nc(c(-c7cc(S(=O)(=O)[O-])ccc7F)c7ccc4[nH]7)C=C6)C=C5)cc3)C2=O)cc2c1OCO2
REMARK SMILES IDX 17 1 16 2 15 3 13 4 14 5 12 7 11 8 6 9 7 10 8 11 86 12 9 13
REMARK SMILES IDX 87 14 10 15 5 16 3 17 4 18 90 19 89 20 91 21 88 22 93 23
REMARK SMILES IDX 92 24 2 25 1 26 18 27 19 28 20 29 21 30 22 32 23 33 24 34
REMARK SMILES IDX 85 35 25 36 84 37 26 38 27 39 28 40 78 41 29 42 83 43 77 44
REMARK SMILES IDX 79 45 30 46 82 47 76 48 75 49 31 51 63 52 43 53 62 54 44 55
REMARK SMILES IDX 47 56 61 57 80 58 45 59 46 60 60 62 81 63 48 64 32 65 33 66
REMARK SMILES IDX 41 67 34 68 40 69 42 70 39 71 35 72 36 73 37 74 38 75 64 76
REMARK SMILES IDX 65 77 73 78 66 79 72 80 74 81 71 82 67 83 68 84 69 85 70 86
REMARK SMILES IDX 49 87 50 88 58 89 51 90 57 91 59 92 56 93 52 94 53 95 54 96
REMARK SMILES IDX 55 97
REMARK H PARENT 15 6 20 31 79 50 47 61
REMARK Flexibility Score: inf
ROOT
ATOM      1  C   UNL A   1      37.107  21.837  25.020  1.00  0.00     0.023 C 
ENDROOT
BRANCH   1   2
ATOM      2  C   UNL A   1      35.708  21.435  25.477  1.00  0.00     0.116 C 
BRANCH   2   3
ATOM      3  N   UNL A   1      35.334  20.121  25.002  1.00  0.00    -0.355 N 
ATOM      4  C   UNL A   1      34.109  19.523  24.944  1.00  0.00     0.240 C 
ATOM      5  O   UNL A   1      34.010  18.508  24.249  1.00  0.00    -0.273 OA
ATOM      6  H   UNL A   1      36.079  19.573  24.667  1.00  0.00     0.163 HD
BRANCH   4   7
ATOM      7  C   UNL A   1      32.859  20.173  25.550  1.00  0.00     0.227 C 
BRANCH   7   8
ATOM      8  N   UNL A   1      32.468  21.442  24.941  1.00  0.00    -0.283 N 
ATOM      9  C   UNL A   1      31.481  24.861  25.604  1.00  0.00     0.029 C 
ATOM     10  C   UNL A   1      31.786  23.698  25.013  1.00  0.00     0.081 C 
ATOM     11  S   UNL A   1      31.785  23.329  23.335  1.00  0.00    -0.054 SA
ATOM     12  C   UNL A   1      32.192  22.500  25.794  1.00  0.00     0.266 C 
ATOM     13  C   UNL A   1      32.183  21.641  23.608  1.00  0.00     0.148 C 
ATOM     14  O   UNL A   1      32.230  22.470  27.012  1.00  0.00    -0.268 OA
ATOM     15  S   UNL A   1      32.153  20.525  22.368  1.00  0.00    -0.052 S 
BRANCH   9  16
ATOM     16  C   UNL A   1      31.067  26.084  24.906  1.00  0.00    -0.017 A 
ATOM     17  C   UNL A   1      31.692  28.204  23.850  1.00  0.00     0.165 A 
ATOM     18  C   UNL A   1      32.041  27.035  24.542  1.00  0.00     0.058 A 
ATOM     19  C   UNL A   1      30.364  28.374  23.505  1.00  0.00     0.207 A 
ATOM     20  C   UNL A   1      29.411  27.450  23.876  1.00  0.00     0.170 A 
ATOM     21  O   UNL A   1      29.814  29.381  22.769  1.00  0.00    -0.450 OA
ATOM     22  C   UNL A   1      29.722  26.316  24.596  1.00  0.00     0.059 A 
ATOM     23  O   UNL A   1      28.163  27.767  23.435  1.00  0.00    -0.453 OA
ATOM     24  C   UNL A   1      28.451  28.936  22.647  1.00  0.00     0.468 C 
BRANCH  17  25
ATOM     25  O   UNL A   1      32.732  29.029  23.533  1.00  0.00    -0.493 OA
ATOM     26  C   UNL A   1      34.029  28.476  23.730  1.00  0.00     0.278 C 
ENDBRANCH  17  25
ENDBRANCH   9  16
ENDBRANCH   7   8
ENDBRANCH   4   7
ENDBRANCH   2   3
ENDBRANCH   1   2
BRANCH   1  27
ATOM     27  C   UNL A   1      38.132  20.701  25.054  1.00  0.00     0.023 C 
BRANCH  27  28
ATOM     28  C   UNL A   1      39.280  20.889  26.040  1.00  0.00     0.116 C 
BRANCH  28  29
ATOM     29  N   UNL A   1      40.191  19.755  26.078  1.00  0.00    -0.352 N 
ATOM     30  C   UNL A   1      41.561  19.755  26.203  1.00  0.00     0.251 C 
ATOM     31  H   UNL A   1      39.770  18.869  26.003  1.00  0.00     0.163 HD
ATOM     32  O   UNL A   1      42.186  18.708  26.071  1.00  0.00    -0.269 OA
BRANCH  30  33
ATOM     33  C   UNL A   1      42.270  21.029  26.458  1.00  0.00     0.039 A 
ATOM     34  C   UNL A   1      42.592  21.850  25.375  1.00  0.00     0.014 A 
ATOM     35  C   UNL A   1      42.580  21.427  27.760  1.00  0.00     0.014 A 
ATOM     36  C   UNL A   1      43.162  23.103  25.606  1.00  0.00     0.010 A 
ATOM     37  C   UNL A   1      43.070  22.709  27.992  1.00  0.00     0.010 A 
ATOM     38  C   UNL A   1      43.367  23.562  26.918  1.00  0.00    -0.014 A 
BRANCH  38  39
ATOM     39  C   UNL A   1      43.882  24.931  27.182  1.00  0.00     0.031 A 
ATOM     40  C   UNL A   1      42.975  25.986  27.751  1.00  0.00     0.074 A 
ATOM     41  C   UNL A   1      45.149  25.243  26.845  1.00  0.00     0.049 A 
ATOM     42  N   UNL A   1      43.219  27.250  27.992  1.00  0.00    -0.248 NA
ATOM     43  C   UNL A   1      41.598  25.570  28.055  1.00  0.00     0.031 C 
ATOM     44  C   UNL A   1      46.109  24.323  26.232  1.00  0.00     0.029 A 
ATOM     45  N   UNL A   1      45.844  26.422  26.956  1.00  0.00    -0.354 N 
ATOM     46  C   UNL A   1      42.024  27.783  28.465  1.00  0.00     0.074 A 
ATOM     47  C   UNL A   1      41.042  26.721  28.398  1.00  0.00     0.031 C 
ATOM     48  C   UNL A   1      47.273  24.965  26.041  1.00  0.00     0.029 A 
ATOM     49  C   UNL A   1      47.129  26.352  26.470  1.00  0.00     0.049 A 
ATOM     50  H   UNL A   1      45.459  27.240  27.346  1.00  0.00     0.167 HD
ATOM     51  C   UNL A   1      41.778  29.032  28.935  1.00  0.00     0.034 A 
ATOM     52  C   UNL A   1      48.081  27.301  26.360  1.00  0.00     0.034 A 
ATOM     53  C   UNL A   1      42.773  30.077  28.985  1.00  0.00     0.049 A 
ATOM     54  C   UNL A   1      47.784  28.691  26.857  1.00  0.00     0.074 A 
ATOM     55  C   UNL A   1      42.654  31.358  29.496  1.00  0.00     0.029 A 
ATOM     56  N   UNL A   1      44.066  29.971  28.484  1.00  0.00    -0.354 N 
ATOM     57  N   UNL A   1      46.671  29.164  27.371  1.00  0.00    -0.248 NA
ATOM     58  C   UNL A   1      48.873  29.670  26.774  1.00  0.00     0.031 C 
ATOM     59  C   UNL A   1      43.840  32.050  29.226  1.00  0.00     0.029 A 
ATOM     60  C   UNL A   1      44.738  31.176  28.634  1.00  0.00     0.049 A 
ATOM     61  H   UNL A   1      44.449  29.158  28.082  1.00  0.00     0.167 HD
ATOM     62  C   UNL A   1      46.934  30.493  27.692  1.00  0.00     0.074 A 
ATOM     63  C   UNL A   1      48.317  30.738  27.329  1.00  0.00     0.031 C 
ATOM     64  C   UNL A   1      46.110  31.422  28.243  1.00  0.00     0.034 A 
BRANCH  51  65
ATOM     65  C   UNL A   1      40.365  29.329  29.391  1.00  0.00     0.023 A 
ATOM     66  C   UNL A   1      40.042  29.469  30.754  1.00  0.00     0.031 A 
ATOM     67  C   UNL A   1      39.313  29.406  28.462  1.00  0.00     0.131 A 
ATOM     68  C   UNL A   1      38.700  29.556  31.153  1.00  0.00     0.055 A 
ATOM     69  C   UNL A   1      37.988  29.601  28.860  1.00  0.00     0.041 A 
ATOM     70  F   UNL A   1      39.548  29.262  27.148  1.00  0.00    -0.206 F 
ATOM     71  C   UNL A   1      37.672  29.652  30.214  1.00  0.00     0.022 A 
BRANCH  68  72
ATOM     72  S   UNL A   1      38.308  29.331  32.911  1.00  0.00     0.124 S 
ATOM     73  O   UNL A   1      37.401  28.185  32.866  1.00  0.00    -0.237 OA
ATOM     74  O   UNL A   1      39.620  29.084  33.498  1.00  0.00    -0.237 OA
ATOM     75  O   UNL A   1      37.681  30.596  33.287  1.00  0.00    -0.744 OA
ENDBRANCH  68  72
ENDBRANCH  51  65
BRANCH  52  76
ATOM     76  C   UNL A   1      49.391  26.965  25.733  1.00  0.00     0.023 A 
ATOM     77  C   UNL A   1      49.658  27.263  24.388  1.00  0.00     0.031 A 
ATOM     78  C   UNL A   1      50.403  26.343  26.487  1.00  0.00     0.131 A 
ATOM     79  C   UNL A   1      50.901  26.919  23.831  1.00  0.00     0.055 A 
ATOM     80  C   UNL A   1      51.654  26.047  25.942  1.00  0.00     0.041 A 
ATOM     81  F   UNL A   1      50.200  26.042  27.779  1.00  0.00    -0.206 F 
ATOM     82  C   UNL A   1      51.905  26.329  24.604  1.00  0.00     0.022 A 
BRANCH  79  83
ATOM     83  S   UNL A   1      51.174  27.209  22.062  1.00  0.00     0.124 S 
ATOM     84  O   UNL A   1      49.915  26.749  21.487  1.00  0.00    -0.237 OA
ATOM     85  O   UNL A   1      51.412  28.647  22.022  1.00  0.00    -0.237 OA
ATOM     86  O   UNL A   1      52.340  26.380  21.757  1.00  0.00    -0.744 OA
ENDBRANCH  79  83
ENDBRANCH  52  76
BRANCH  64  87
ATOM     87  C   UNL A   1      46.698  32.787  28.521  1.00  0.00     0.023 A 
ATOM     88  C   UNL A   1      46.731  33.795  27.541  1.00  0.00     0.031 A 
ATOM     89  C   UNL A   1      47.241  33.079  29.785  1.00  0.00     0.131 A 
ATOM     90  C   UNL A   1      47.344  35.027  27.825  1.00  0.00     0.055 A 
ATOM     91  C   UNL A   1      47.786  34.328  30.083  1.00  0.00     0.041 A 
ATOM     92  F   UNL A   1      47.244  32.153  30.758  1.00  0.00    -0.206 F 
ATOM     93  C   UNL A   1      47.853  35.306  29.096  1.00  0.00     0.022 A 
BRANCH  90  94
ATOM     94  S   UNL A   1      47.565  36.223  26.479  1.00  0.00     0.124 S 
ATOM     95  O   UNL A   1      48.738  36.966  26.926  1.00  0.00    -0.237 OA
ATOM     96  O   UNL A   1      47.762  35.356  25.321  1.00  0.00    -0.237 OA
ATOM     97  O   UNL A   1      46.314  36.978  26.481  1.00  0.00    -0.744 OA
ENDBRANCH  90  94
ENDBRANCH  64  87
ENDBRANCH  38  39
ENDBRANCH  30  33
ENDBRANCH  28  29
ENDBRANCH  27  28
ENDBRANCH   1  27
TORSDOF 17
ENDMDL
