MODEL 1
REMARK VINA RESULT:     -12.1      0.000      0.000
REMARK SMILES Cn1ncc(C(=O)NCCCCNC(=O)c2ccc(-c3c4nc(c(-c5cc(S(=O)(=O)[O-])ccc5F)c5ccc([nH]5)c(-c5cc(S(=O)(=O)[O-])ccc5F)c5nc(c(-c6cc(S(=O)(=O)[O-])ccc6F)c6ccc3[nH]6)C=C5)C=C4)cc2)c1C(=O)Nc1ccccn1
REMARK SMILES IDX 11 1 10 2 9 3 8 4 6 5 7 6 5 8 1 9 2 10 3 11 79 12 4 13 80 14
REMARK SMILES IDX 81 15 82 16 83 18 84 19 88 20 85 21 87 22 86 23 12 24 13 25
REMARK SMILES IDX 14 26 15 28 16 29 17 30 78 31 18 32 77 33 19 34 20 35 21 36
REMARK SMILES IDX 71 37 22 38 76 39 70 40 72 41 23 42 75 43 69 44 68 45 24 47
REMARK SMILES IDX 56 48 36 49 55 50 37 51 40 52 54 53 73 54 38 55 39 56 53 58
REMARK SMILES IDX 74 59 41 60 25 61 26 62 34 63 27 64 33 65 35 66 32 67 28 68
REMARK SMILES IDX 29 69 30 70 31 71 57 72 58 73 66 74 59 75 65 76 67 77 64 78
REMARK SMILES IDX 60 79 61 80 62 81 63 82 42 83 43 84 51 85 44 86 50 87 52 88
REMARK SMILES IDX 49 89 45 90 46 91 47 92 48 93
REMARK H PARENT 8 7 82 17 13 27 72 46 40 57
REMARK Flexibility Score: inf
ROOT
ATOM      1  C   UNL A   1      35.777  20.479  25.082  1.00  0.00     0.023 C 
ENDROOT
BRANCH   1   2
ATOM      2  C   UNL A   1      34.646  21.461  24.788  1.00  0.00     0.023 C 
BRANCH   2   3
ATOM      3  C   UNL A   1      33.237  21.001  25.144  1.00  0.00     0.116 C 
BRANCH   3   4
ATOM      4  N   UNL A   1      32.634  21.740  26.230  1.00  0.00    -0.352 N 
ATOM      5  C   UNL A   1      32.064  22.984  26.277  1.00  0.00     0.255 C 
ATOM      6  O   UNL A   1      31.682  23.370  27.384  1.00  0.00    -0.269 OA
ATOM      7  H   UNL A   1      32.632  21.261  27.090  1.00  0.00     0.163 HD
BRANCH   5   8
ATOM      8  C   UNL A   1      31.954  23.873  25.126  1.00  0.00     0.090 A 
ATOM      9  C   UNL A   1      32.879  25.833  22.248  1.00  0.00     0.174 C 
ATOM     10  N   UNL A   1      32.257  25.160  23.366  1.00  0.00    -0.262 N 
ATOM     11  N   UNL A   1      31.062  24.587  23.138  1.00  0.00    -0.180 NA
ATOM     12  C   UNL A   1      32.776  24.885  24.615  1.00  0.00     0.139 A 
ATOM     13  C   UNL A   1      30.928  23.743  24.157  1.00  0.00     0.149 A 
BRANCH  12  14
ATOM     14  C   UNL A   1      34.041  25.336  25.132  1.00  0.00     0.275 C 
ATOM     15  O   UNL A   1      35.078  24.715  24.896  1.00  0.00    -0.267 OA
ATOM     16  N   UNL A   1      34.172  26.441  25.937  1.00  0.00    -0.305 N 
ATOM     17  H   UNL A   1      34.955  26.422  26.534  1.00  0.00     0.171 HD
BRANCH  16  18
ATOM     18  C   UNL A   1      33.389  27.579  26.052  1.00  0.00     0.132 A 
ATOM     19  C   UNL A   1      32.557  27.882  27.118  1.00  0.00     0.047 A 
ATOM     20  N   UNL A   1      33.477  28.352  24.951  1.00  0.00    -0.239 NA
ATOM     21  C   UNL A   1      31.724  28.999  26.999  1.00  0.00     0.005 A 
ATOM     22  C   UNL A   1      32.638  29.398  24.843  1.00  0.00     0.113 A 
ATOM     23  C   UNL A   1      31.742  29.754  25.829  1.00  0.00     0.020 A 
ENDBRANCH  16  18
ENDBRANCH  12  14
ENDBRANCH   5   8
ENDBRANCH   3   4
ENDBRANCH   2   3
ENDBRANCH   1   2
BRANCH   1  24
ATOM     24  C   UNL A   1      37.189  21.054  25.114  1.00  0.00     0.116 C 
BRANCH  24  25
ATOM     25  N   UNL A   1      38.226  20.058  25.346  1.00  0.00    -0.352 N 
ATOM     26  C   UNL A   1      39.473  20.198  25.913  1.00  0.00     0.251 C 
ATOM     27  H   UNL A   1      38.001  19.146  25.052  1.00  0.00     0.163 HD
ATOM     28  O   UNL A   1      40.243  19.240  25.936  1.00  0.00    -0.269 OA
BRANCH  26  29
ATOM     29  C   UNL A   1      39.899  21.511  26.445  1.00  0.00     0.039 A 
ATOM     30  C   UNL A   1      40.909  21.556  27.409  1.00  0.00     0.014 A 
ATOM     31  C   UNL A   1      39.340  22.695  25.960  1.00  0.00     0.014 A 
ATOM     32  C   UNL A   1      41.433  22.790  27.805  1.00  0.00     0.010 A 
ATOM     33  C   UNL A   1      39.922  23.917  26.288  1.00  0.00     0.010 A 
ATOM     34  C   UNL A   1      40.983  23.977  27.206  1.00  0.00    -0.014 A 
BRANCH  34  35
ATOM     35  C   UNL A   1      41.613  25.290  27.511  1.00  0.00     0.031 A 
ATOM     36  C   UNL A   1      40.845  26.336  28.272  1.00  0.00     0.074 A 
ATOM     37  C   UNL A   1      42.841  25.572  27.030  1.00  0.00     0.049 A 
ATOM     38  N   UNL A   1      41.175  27.572  28.547  1.00  0.00    -0.248 NA
ATOM     39  C   UNL A   1      39.512  25.949  28.754  1.00  0.00     0.031 C 
ATOM     40  C   UNL A   1      43.666  24.664  26.228  1.00  0.00     0.029 A 
ATOM     41  N   UNL A   1      43.607  26.707  27.129  1.00  0.00    -0.354 N 
ATOM     42  C   UNL A   1      40.084  28.115  29.218  1.00  0.00     0.074 A 
ATOM     43  C   UNL A   1      39.059  27.092  29.240  1.00  0.00     0.031 C 
ATOM     44  C   UNL A   1      44.827  25.267  25.932  1.00  0.00     0.029 A 
ATOM     45  C   UNL A   1      44.817  26.620  26.479  1.00  0.00     0.049 A 
ATOM     46  H   UNL A   1      43.317  27.510  27.620  1.00  0.00     0.167 HD
ATOM     47  C   UNL A   1      39.958  29.341  29.786  1.00  0.00     0.034 A 
ATOM     48  C   UNL A   1      45.800  27.529  26.328  1.00  0.00     0.034 A 
ATOM     49  C   UNL A   1      40.996  30.343  29.765  1.00  0.00     0.049 A 
ATOM     50  C   UNL A   1      45.637  28.889  26.957  1.00  0.00     0.074 A 
ATOM     51  C   UNL A   1      40.998  31.595  30.356  1.00  0.00     0.029 A 
ATOM     52  N   UNL A   1      42.215  30.211  29.112  1.00  0.00    -0.354 N 
ATOM     53  N   UNL A   1      44.621  29.369  27.635  1.00  0.00    -0.248 NA
ATOM     54  C   UNL A   1      46.760  29.825  26.812  1.00  0.00     0.031 C 
ATOM     55  C   UNL A   1      42.190  32.243  30.007  1.00  0.00     0.029 A 
ATOM     56  C   UNL A   1      42.966  31.368  29.262  1.00  0.00     0.049 A 
ATOM     57  H   UNL A   1      42.505  29.413  28.615  1.00  0.00     0.167 HD
ATOM     58  C   UNL A   1      44.994  30.653  28.021  1.00  0.00     0.074 A 
ATOM     59  C   UNL A   1      46.333  30.866  27.512  1.00  0.00     0.031 C 
ATOM     60  C   UNL A   1      44.296  31.571  28.737  1.00  0.00     0.034 A 
BRANCH  47  61
ATOM     61  C   UNL A   1      38.640  29.658  30.455  1.00  0.00     0.023 A 
ATOM     62  C   UNL A   1      37.642  30.401  29.800  1.00  0.00     0.031 A 
ATOM     63  C   UNL A   1      38.394  29.256  31.780  1.00  0.00     0.131 A 
ATOM     64  C   UNL A   1      36.493  30.802  30.497  1.00  0.00     0.055 A 
ATOM     65  C   UNL A   1      37.206  29.580  32.439  1.00  0.00     0.041 A 
ATOM     66  F   UNL A   1      39.315  28.560  32.466  1.00  0.00    -0.206 F 
ATOM     67  C   UNL A   1      36.256  30.375  31.805  1.00  0.00     0.022 A 
BRANCH  64  68
ATOM     68  S   UNL A   1      35.399  32.027  29.727  1.00  0.00     0.124 S 
ATOM     69  O   UNL A   1      34.797  31.245  28.648  1.00  0.00    -0.237 OA
ATOM     70  O   UNL A   1      34.509  32.390  30.823  1.00  0.00    -0.237 OA
ATOM     71  O   UNL A   1      36.314  33.078  29.289  1.00  0.00    -0.744 OA
ENDBRANCH  64  68
ENDBRANCH  47  61
BRANCH  48  72
ATOM     72  C   UNL A   1      47.024  27.192  25.544  1.00  0.00     0.023 A 
ATOM     73  C   UNL A   1      47.173  27.620  24.215  1.00  0.00     0.031 A 
ATOM     74  C   UNL A   1      48.050  26.411  26.105  1.00  0.00     0.131 A 
ATOM     75  C   UNL A   1      48.302  27.231  23.477  1.00  0.00     0.055 A 
ATOM     76  C   UNL A   1      49.194  26.068  25.384  1.00  0.00     0.041 A 
ATOM     77  F   UNL A   1      47.960  25.983  27.374  1.00  0.00    -0.206 F 
ATOM     78  C   UNL A   1      49.319  26.469  24.057  1.00  0.00     0.022 A 
BRANCH  75  79
ATOM     79  S   UNL A   1      48.392  27.681  21.723  1.00  0.00     0.124 S 
ATOM     80  O   UNL A   1      47.076  28.269  21.500  1.00  0.00    -0.237 OA
ATOM     81  O   UNL A   1      49.520  28.607  21.705  1.00  0.00    -0.237 OA
ATOM     82  O   UNL A   1      48.627  26.404  21.055  1.00  0.00    -0.744 OA
ENDBRANCH  75  79
ENDBRANCH  48  72
BRANCH  60  83
ATOM     83  C   UNL A   1      44.993  32.874  29.046  1.00  0.00     0.023 A 
ATOM     84  C   UNL A   1      44.943  33.970  28.167  1.00  0.00     0.031 A 
ATOM     85  C   UNL A   1      45.727  33.015  30.237  1.00  0.00     0.131 A 
ATOM     86  C   UNL A   1      45.658  35.139  28.468  1.00  0.00     0.055 A 
ATOM     87  C   UNL A   1      46.387  34.201  30.559  1.00  0.00     0.041 A 
ATOM     88  F   UNL A   1      45.811  31.998  31.112  1.00  0.00    -0.206 F 
ATOM     89  C   UNL A   1      46.366  35.267  29.666  1.00  0.00     0.022 A 
BRANCH  86  90
ATOM     90  S   UNL A   1      45.725  36.464  27.229  1.00  0.00     0.124 S 
ATOM     91  O   UNL A   1      46.817  37.291  27.729  1.00  0.00    -0.237 OA
ATOM     92  O   UNL A   1      45.996  35.726  25.999  1.00  0.00    -0.237 OA
ATOM     93  O   UNL A   1      44.399  37.073  27.306  1.00  0.00    -0.744 OA
ENDBRANCH  86  90
ENDBRANCH  60  83
ENDBRANCH  34  35
ENDBRANCH  26  29
ENDBRANCH  24  25
ENDBRANCH   1  24
TORSDOF 16
ENDMDL
MODEL 2
REMARK VINA RESULT:     -12.0      4.967      7.895
REMARK SMILES Cn1ncc(C(=O)NCCCCNC(=O)c2ccc(-c3c4nc(c(-c5cc(S(=O)(=O)[O-])ccc5F)c5ccc([nH]5)c(-c5cc(S(=O)(=O)[O-])ccc5F)c5nc(c(-c6cc(S(=O)(=O)[O-])ccc6F)c6ccc3[nH]6)C=C5)C=C4)cc2)c1C(=O)Nc1ccccn1
REMARK SMILES IDX 11 1 10 2 9 3 8 4 6 5 7 6 5 8 1 9 2 10 3 11 79 12 4 13 80 14
REMARK SMILES IDX 81 15 82 16 83 18 84 19 88 20 85 21 87 22 86 23 12 24 13 25
REMARK SMILES IDX 14 26 15 28 16 29 17 30 78 31 18 32 77 33 19 34 20 35 21 36
REMARK SMILES IDX 71 37 22 38 76 39 70 40 72 41 23 42 75 43 69 44 68 45 24 47
REMARK SMILES IDX 56 48 36 49 55 50 37 51 40 52 54 53 73 54 38 55 39 56 53 58
REMARK SMILES IDX 74 59 41 60 25 61 26 62 34 63 27 64 33 65 35 66 32 67 28 68
REMARK SMILES IDX 29 69 30 70 31 71 57 72 58 73 66 74 59 75 65 76 67 77 64 78
REMARK SMILES IDX 60 79 61 80 62 81 63 82 42 83 43 84 51 85 44 86 50 87 52 88
REMARK SMILES IDX 49 89 45 90 46 91 47 92 48 93
REMARK H PARENT 8 7 82 17 13 27 72 46 40 57
REMARK Flexibility Score: inf
ROOT
ATOM      1  C   UNL A   1      32.946  29.673  25.448  1.00  0.00     0.023 C 
ENDROOT
BRANCH   1   2
ATOM      2  C   UNL A   1      31.931  28.837  24.672  1.00  0.00     0.023 C 
BRANCH   2   3
ATOM      3  C   UNL A   1      32.048  27.324  24.812  1.00  0.00     0.116 C 
BRANCH   3   4
ATOM      4  N   UNL A   1      31.021  26.728  25.636  1.00  0.00    -0.352 N 
ATOM      5  C   UNL A   1      30.619  25.428  25.789  1.00  0.00     0.255 C 
ATOM      6  O   UNL A   1      29.658  25.237  26.538  1.00  0.00    -0.269 OA
ATOM      7  H   UNL A   1      30.522  27.374  26.187  1.00  0.00     0.163 HD
BRANCH   5   8
ATOM      8  C   UNL A   1      31.214  24.302  25.078  1.00  0.00     0.090 A 
ATOM      9  C   UNL A   1      32.484  20.999  24.404  1.00  0.00     0.174 C 
ATOM     10  N   UNL A   1      32.068  22.384  24.420  1.00  0.00    -0.262 N 
ATOM     11  N   UNL A   1      31.420  22.832  23.330  1.00  0.00    -0.180 NA
ATOM     12  C   UNL A   1      32.106  23.292  25.457  1.00  0.00     0.139 A 
ATOM     13  C   UNL A   1      30.830  23.943  23.762  1.00  0.00     0.149 A 
BRANCH  12  14
ATOM     14  C   UNL A   1      32.705  23.088  26.750  1.00  0.00     0.275 C 
ATOM     15  O   UNL A   1      32.007  22.892  27.746  1.00  0.00    -0.267 OA
ATOM     16  N   UNL A   1      34.060  23.136  26.965  1.00  0.00    -0.305 N 
ATOM     17  H   UNL A   1      34.321  23.383  27.882  1.00  0.00     0.171 HD
BRANCH  16  18
ATOM     18  C   UNL A   1      35.125  22.893  26.110  1.00  0.00     0.132 A 
ATOM     19  C   UNL A   1      35.684  23.813  25.238  1.00  0.00     0.047 A 
ATOM     20  N   UNL A   1      35.527  21.608  26.175  1.00  0.00    -0.239 NA
ATOM     21  C   UNL A   1      36.654  23.354  24.340  1.00  0.00     0.005 A 
ATOM     22  C   UNL A   1      36.433  21.182  25.276  1.00  0.00     0.113 A 
ATOM     23  C   UNL A   1      37.013  22.009  24.337  1.00  0.00     0.020 A 
ENDBRANCH  16  18
ENDBRANCH  12  14
ENDBRANCH   5   8
ENDBRANCH   3   4
ENDBRANCH   2   3
ENDBRANCH   1   2
BRANCH   1  24
ATOM     24  C   UNL A   1      32.545  30.097  26.857  1.00  0.00     0.116 C 
BRANCH  24  25
ATOM     25  N   UNL A   1      32.628  31.533  27.086  1.00  0.00    -0.352 N 
ATOM     26  C   UNL A   1      33.646  32.282  27.631  1.00  0.00     0.251 C 
ATOM     27  H   UNL A   1      31.835  32.046  26.808  1.00  0.00     0.163 HD
ATOM     28  O   UNL A   1      33.482  33.486  27.821  1.00  0.00    -0.269 OA
BRANCH  26  29
ATOM     29  C   UNL A   1      34.911  31.629  28.031  1.00  0.00     0.039 A 
ATOM     30  C   UNL A   1      36.087  32.383  28.052  1.00  0.00     0.014 A 
ATOM     31  C   UNL A   1      34.929  30.292  28.434  1.00  0.00     0.014 A 
ATOM     32  C   UNL A   1      37.256  31.827  28.578  1.00  0.00     0.010 A 
ATOM     33  C   UNL A   1      36.070  29.770  29.039  1.00  0.00     0.010 A 
ATOM     34  C   UNL A   1      37.243  30.536  29.128  1.00  0.00    -0.014 A 
BRANCH  34  35
ATOM     35  C   UNL A   1      38.437  29.970  29.813  1.00  0.00     0.031 A 
ATOM     36  C   UNL A   1      38.835  30.474  31.174  1.00  0.00     0.074 A 
ATOM     37  C   UNL A   1      39.209  29.066  29.176  1.00  0.00     0.049 A 
ATOM     38  N   UNL A   1      39.892  30.186  31.889  1.00  0.00    -0.248 NA
ATOM     39  C   UNL A   1      37.941  31.463  31.792  1.00  0.00     0.031 C 
ATOM     40  C   UNL A   1      38.963  28.539  27.831  1.00  0.00     0.029 A 
ATOM     41  N   UNL A   1      40.367  28.439  29.566  1.00  0.00    -0.354 N 
ATOM     42  C   UNL A   1      39.800  30.972  33.033  1.00  0.00     0.074 A 
ATOM     43  C   UNL A   1      38.621  31.798  32.876  1.00  0.00     0.031 C 
ATOM     44  C   UNL A   1      39.923  27.655  27.520  1.00  0.00     0.029 A 
ATOM     45  C   UNL A   1      40.881  27.583  28.619  1.00  0.00     0.049 A 
ATOM     46  H   UNL A   1      40.792  28.590  30.442  1.00  0.00     0.167 HD
ATOM     47  C   UNL A   1      40.606  30.984  34.125  1.00  0.00     0.034 A 
ATOM     48  C   UNL A   1      42.002  26.834  28.628  1.00  0.00     0.034 A 
ATOM     49  C   UNL A   1      41.770  30.143  34.269  1.00  0.00     0.049 A 
ATOM     50  C   UNL A   1      42.890  26.869  29.845  1.00  0.00     0.074 A 
ATOM     51  C   UNL A   1      42.625  30.031  35.351  1.00  0.00     0.029 A 
ATOM     52  N   UNL A   1      42.249  29.275  33.295  1.00  0.00    -0.354 N 
ATOM     53  N   UNL A   1      42.760  27.577  30.942  1.00  0.00    -0.248 NA
ATOM     54  C   UNL A   1      44.070  25.994  29.829  1.00  0.00     0.031 C 
ATOM     55  C   UNL A   1      43.654  29.144  35.009  1.00  0.00     0.029 A 
ATOM     56  C   UNL A   1      43.402  28.644  33.741  1.00  0.00     0.049 A 
ATOM     57  H   UNL A   1      41.831  29.127  32.416  1.00  0.00     0.167 HD
ATOM     58  C   UNL A   1      43.827  27.211  31.759  1.00  0.00     0.074 A 
ATOM     59  C   UNL A   1      44.581  26.210  31.032  1.00  0.00     0.031 C 
ATOM     60  C   UNL A   1      44.150  27.657  33.000  1.00  0.00     0.034 A 
BRANCH  47  61
ATOM     61  C   UNL A   1      40.256  31.954  35.228  1.00  0.00     0.023 A 
ATOM     62  C   UNL A   1      39.335  31.622  36.237  1.00  0.00     0.031 A 
ATOM     63  C   UNL A   1      40.811  33.247  35.248  1.00  0.00     0.131 A 
ATOM     64  C   UNL A   1      38.922  32.594  37.161  1.00  0.00     0.055 A 
ATOM     65  C   UNL A   1      40.464  34.182  36.227  1.00  0.00     0.041 A 
ATOM     66  F   UNL A   1      41.683  33.632  34.303  1.00  0.00    -0.206 F 
ATOM     67  C   UNL A   1      39.500  33.865  37.178  1.00  0.00     0.022 A 
BRANCH  64  68
ATOM     68  S   UNL A   1      37.501  32.225  38.225  1.00  0.00     0.124 S 
ATOM     69  O   UNL A   1      37.998  32.644  39.534  1.00  0.00    -0.237 OA
ATOM     70  O   UNL A   1      36.450  33.052  37.647  1.00  0.00    -0.237 OA
ATOM     71  O   UNL A   1      37.320  30.783  38.069  1.00  0.00    -0.744 OA
ENDBRANCH  64  68
ENDBRANCH  47  61
BRANCH  48  72
ATOM     72  C   UNL A   1      42.355  25.993  27.448  1.00  0.00     0.023 A 
ATOM     73  C   UNL A   1      41.959  24.648  27.374  1.00  0.00     0.031 A 
ATOM     74  C   UNL A   1      43.121  26.514  26.390  1.00  0.00     0.131 A 
ATOM     75  C   UNL A   1      42.363  23.858  26.286  1.00  0.00     0.055 A 
ATOM     76  C   UNL A   1      43.478  25.739  25.287  1.00  0.00     0.041 A 
ATOM     77  F   UNL A   1      43.518  27.796  26.409  1.00  0.00    -0.206 F 
ATOM     78  C   UNL A   1      43.109  24.398  25.236  1.00  0.00     0.022 A 
BRANCH  75  79
ATOM     79  S   UNL A   1      41.955  22.090  26.295  1.00  0.00     0.124 S 
ATOM     80  O   UNL A   1      42.803  21.585  25.221  1.00  0.00    -0.237 OA
ATOM     81  O   UNL A   1      42.334  21.699  27.649  1.00  0.00    -0.237 OA
ATOM     82  O   UNL A   1      40.521  22.071  26.021  1.00  0.00    -0.744 OA
ENDBRANCH  75  79
ENDBRANCH  48  72
BRANCH  60  83
ATOM     83  C   UNL A   1      45.351  27.026  33.663  1.00  0.00     0.023 A 
ATOM     84  C   UNL A   1      45.238  25.873  34.459  1.00  0.00     0.031 A 
ATOM     85  C   UNL A   1      46.626  27.595  33.500  1.00  0.00     0.131 A 
ATOM     86  C   UNL A   1      46.372  25.358  35.106  1.00  0.00     0.055 A 
ATOM     87  C   UNL A   1      47.760  27.044  34.098  1.00  0.00     0.041 A 
ATOM     88  F   UNL A   1      46.791  28.699  32.752  1.00  0.00    -0.206 F 
ATOM     89  C   UNL A   1      47.635  25.927  34.917  1.00  0.00     0.022 A 
BRANCH  86  90
ATOM     90  S   UNL A   1      46.162  23.983  36.273  1.00  0.00     0.124 S 
ATOM     91  O   UNL A   1      47.442  23.292  36.160  1.00  0.00    -0.237 OA
ATOM     92  O   UNL A   1      45.922  24.679  37.533  1.00  0.00    -0.237 OA
ATOM     93  O   UNL A   1      45.014  23.253  35.739  1.00  0.00    -0.744 OA
ENDBRANCH  86  90
ENDBRANCH  60  83
ENDBRANCH  34  35
ENDBRANCH  26  29
ENDBRANCH  24  25
ENDBRANCH   1  24
TORSDOF 16
ENDMDL
MODEL 3
REMARK VINA RESULT:     -12.0      1.549      7.719
REMARK SMILES Cn1ncc(C(=O)NCCCCNC(=O)c2ccc(-c3c4nc(c(-c5cc(S(=O)(=O)[O-])ccc5F)c5ccc([nH]5)c(-c5cc(S(=O)(=O)[O-])ccc5F)c5nc(c(-c6cc(S(=O)(=O)[O-])ccc6F)c6ccc3[nH]6)C=C5)C=C4)cc2)c1C(=O)Nc1ccccn1
REMARK SMILES IDX 11 1 10 2 9 3 8 4 6 5 7 6 5 8 1 9 2 10 3 11 79 12 4 13 80 14
REMARK SMILES IDX 81 15 82 16 83 18 84 19 88 20 85 21 87 22 86 23 12 24 13 25
REMARK SMILES IDX 14 26 15 28 16 29 17 30 78 31 18 32 77 33 19 34 20 35 21 36
REMARK SMILES IDX 71 37 22 38 76 39 70 40 72 41 23 42 75 43 69 44 68 45 24 47
REMARK SMILES IDX 56 48 36 49 55 50 37 51 40 52 54 53 73 54 38 55 39 56 53 58
REMARK SMILES IDX 74 59 41 60 25 61 26 62 34 63 27 64 33 65 35 66 32 67 28 68
REMARK SMILES IDX 29 69 30 70 31 71 57 72 58 73 66 74 59 75 65 76 67 77 64 78
REMARK SMILES IDX 60 79 61 80 62 81 63 82 42 83 43 84 51 85 44 86 50 87 52 88
REMARK SMILES IDX 49 89 45 90 46 91 47 92 48 93
REMARK H PARENT 8 7 82 17 13 27 72 46 40 57
REMARK Flexibility Score: inf
ROOT
ATOM      1  C   UNL A   1      36.263  21.681  24.990  1.00  0.00     0.023 C 
ENDROOT
BRANCH   1   2
ATOM      2  C   UNL A   1      35.420  22.604  25.866  1.00  0.00     0.023 C 
BRANCH   2   3
ATOM      3  C   UNL A   1      34.222  23.268  25.198  1.00  0.00     0.116 C 
BRANCH   3   4
ATOM      4  N   UNL A   1      34.198  23.129  23.760  1.00  0.00    -0.352 N 
ATOM      5  C   UNL A   1      33.410  23.712  22.803  1.00  0.00     0.255 C 
ATOM      6  O   UNL A   1      33.595  23.341  21.642  1.00  0.00    -0.269 OA
ATOM      7  H   UNL A   1      34.869  22.503  23.405  1.00  0.00     0.163 HD
BRANCH   5   8
ATOM      8  C   UNL A   1      32.351  24.671  23.094  1.00  0.00     0.090 A 
ATOM      9  C   UNL A   1      30.273  27.606  22.872  1.00  0.00     0.174 C 
ATOM     10  N   UNL A   1      30.956  26.371  23.187  1.00  0.00    -0.262 N 
ATOM     11  N   UNL A   1      30.183  25.309  23.477  1.00  0.00    -0.180 NA
ATOM     12  C   UNL A   1      32.299  26.070  23.092  1.00  0.00     0.139 A 
ATOM     13  C   UNL A   1      31.010  24.279  23.328  1.00  0.00     0.149 A 
BRANCH  12  14
ATOM     14  C   UNL A   1      33.359  26.990  22.772  1.00  0.00     0.275 C 
ATOM     15  O   UNL A   1      33.807  27.064  21.626  1.00  0.00    -0.267 OA
ATOM     16  N   UNL A   1      33.958  27.800  23.705  1.00  0.00    -0.305 N 
ATOM     17  H   UNL A   1      34.881  28.063  23.486  1.00  0.00     0.171 HD
BRANCH  16  18
ATOM     18  C   UNL A   1      33.482  28.312  24.902  1.00  0.00     0.132 A 
ATOM     19  C   UNL A   1      33.651  27.733  26.150  1.00  0.00     0.047 A 
ATOM     20  N   UNL A   1      32.760  29.433  24.707  1.00  0.00    -0.239 NA
ATOM     21  C   UNL A   1      32.974  28.306  27.232  1.00  0.00     0.005 A 
ATOM     22  C   UNL A   1      32.087  29.943  25.755  1.00  0.00     0.113 A 
ATOM     23  C   UNL A   1      32.153  29.412  27.027  1.00  0.00     0.020 A 
ENDBRANCH  16  18
ENDBRANCH  12  14
ENDBRANCH   5   8
ENDBRANCH   3   4
ENDBRANCH   2   3
ENDBRANCH   1   2
BRANCH   1  24
ATOM     24  C   UNL A   1      37.744  22.023  24.866  1.00  0.00     0.116 C 
BRANCH  24  25
ATOM     25  N   UNL A   1      38.628  21.049  25.491  1.00  0.00    -0.352 N 
ATOM     26  C   UNL A   1      39.652  21.238  26.391  1.00  0.00     0.251 C 
ATOM     27  H   UNL A   1      38.469  20.113  25.230  1.00  0.00     0.163 HD
ATOM     28  O   UNL A   1      40.345  20.283  26.734  1.00  0.00    -0.269 OA
BRANCH  26  29
ATOM     29  C   UNL A   1      39.947  22.595  26.901  1.00  0.00     0.039 A 
ATOM     30  C   UNL A   1      40.885  22.746  27.925  1.00  0.00     0.014 A 
ATOM     31  C   UNL A   1      39.338  23.718  26.338  1.00  0.00     0.014 A 
ATOM     32  C   UNL A   1      41.291  24.027  28.308  1.00  0.00     0.010 A 
ATOM     33  C   UNL A   1      39.808  24.990  26.658  1.00  0.00     0.010 A 
ATOM     34  C   UNL A   1      40.798  25.158  27.639  1.00  0.00    -0.014 A 
BRANCH  34  35
ATOM     35  C   UNL A   1      41.311  26.523  27.935  1.00  0.00     0.031 A 
ATOM     36  C   UNL A   1      42.725  26.891  27.576  1.00  0.00     0.074 A 
ATOM     37  C   UNL A   1      40.533  27.401  28.601  1.00  0.00     0.049 A 
ATOM     38  N   UNL A   1      43.390  27.986  27.842  1.00  0.00    -0.248 NA
ATOM     39  C   UNL A   1      43.505  25.873  26.859  1.00  0.00     0.031 C 
ATOM     40  C   UNL A   1      39.164  27.145  29.055  1.00  0.00     0.029 A 
ATOM     41  N   UNL A   1      40.786  28.682  29.028  1.00  0.00    -0.354 N 
ATOM     42  C   UNL A   1      44.671  27.782  27.339  1.00  0.00     0.074 A 
ATOM     43  C   UNL A   1      44.704  26.430  26.821  1.00  0.00     0.031 C 
ATOM     44  C   UNL A   1      38.691  28.240  29.671  1.00  0.00     0.029 A 
ATOM     45  C   UNL A   1      39.735  29.260  29.702  1.00  0.00     0.049 A 
ATOM     46  H   UNL A   1      41.641  29.144  28.867  1.00  0.00     0.167 HD
ATOM     47  C   UNL A   1      45.714  28.649  27.288  1.00  0.00     0.034 A 
ATOM     48  C   UNL A   1      39.626  30.468  30.290  1.00  0.00     0.034 A 
ATOM     49  C   UNL A   1      45.659  29.998  27.799  1.00  0.00     0.049 A 
ATOM     50  C   UNL A   1      40.799  31.413  30.233  1.00  0.00     0.074 A 
ATOM     51  C   UNL A   1      46.634  30.979  27.751  1.00  0.00     0.029 A 
ATOM     52  N   UNL A   1      44.570  30.553  28.460  1.00  0.00    -0.354 N 
ATOM     53  N   UNL A   1      41.986  31.224  29.705  1.00  0.00    -0.248 NA
ATOM     54  C   UNL A   1      40.612  32.737  30.839  1.00  0.00     0.031 C 
ATOM     55  C   UNL A   1      46.159  32.104  28.436  1.00  0.00     0.029 A 
ATOM     56  C   UNL A   1      44.859  31.854  28.848  1.00  0.00     0.049 A 
ATOM     57  H   UNL A   1      43.717  30.092  28.628  1.00  0.00     0.167 HD
ATOM     58  C   UNL A   1      42.678  32.418  29.892  1.00  0.00     0.074 A 
ATOM     59  C   UNL A   1      41.770  33.322  30.568  1.00  0.00     0.031 C 
ATOM     60  C   UNL A   1      43.947  32.740  29.533  1.00  0.00     0.034 A 
BRANCH  47  61
ATOM     61  C   UNL A   1      47.000  28.144  26.678  1.00  0.00     0.023 A 
ATOM     62  C   UNL A   1      47.237  28.217  25.293  1.00  0.00     0.031 A 
ATOM     63  C   UNL A   1      47.984  27.535  27.479  1.00  0.00     0.131 A 
ATOM     64  C   UNL A   1      48.374  27.608  24.741  1.00  0.00     0.055 A 
ATOM     65  C   UNL A   1      49.159  27.012  26.932  1.00  0.00     0.041 A 
ATOM     66  F   UNL A   1      47.810  27.418  28.805  1.00  0.00    -0.206 F 
ATOM     67  C   UNL A   1      49.349  27.028  25.554  1.00  0.00     0.022 A 
BRANCH  64  68
ATOM     68  S   UNL A   1      48.472  27.438  22.938  1.00  0.00     0.124 S 
ATOM     69  O   UNL A   1      49.775  28.037  22.657  1.00  0.00    -0.237 OA
ATOM     70  O   UNL A   1      48.381  25.995  22.752  1.00  0.00    -0.237 OA
ATOM     71  O   UNL A   1      47.325  28.204  22.457  1.00  0.00    -0.744 OA
ENDBRANCH  64  68
ENDBRANCH  47  61
BRANCH  48  72
ATOM     72  C   UNL A   1      38.367  30.855  30.989  1.00  0.00     0.023 A 
ATOM     73  C   UNL A   1      37.335  31.519  30.307  1.00  0.00     0.031 A 
ATOM     74  C   UNL A   1      38.190  30.592  32.359  1.00  0.00     0.131 A 
ATOM     75  C   UNL A   1      36.189  31.935  31.004  1.00  0.00     0.055 A 
ATOM     76  C   UNL A   1      37.028  30.963  33.037  1.00  0.00     0.041 A 
ATOM     77  F   UNL A   1      39.142  29.953  33.056  1.00  0.00    -0.206 F 
ATOM     78  C   UNL A   1      36.024  31.650  32.360  1.00  0.00     0.022 A 
BRANCH  75  79
ATOM     79  S   UNL A   1      34.944  32.915  30.123  1.00  0.00     0.124 S 
ATOM     80  O   UNL A   1      34.028  33.270  31.202  1.00  0.00    -0.237 OA
ATOM     81  O   UNL A   1      35.746  34.006  29.578  1.00  0.00    -0.237 OA
ATOM     82  O   UNL A   1      34.412  31.982  29.134  1.00  0.00    -0.744 OA
ENDBRANCH  75  79
ENDBRANCH  48  72
BRANCH  60  83
ATOM     83  C   UNL A   1      44.406  34.147  29.827  1.00  0.00     0.023 A 
ATOM     84  C   UNL A   1      44.210  35.198  28.913  1.00  0.00     0.031 A 
ATOM     85  C   UNL A   1      45.058  34.438  31.038  1.00  0.00     0.131 A 
ATOM     86  C   UNL A   1      44.709  36.477  29.203  1.00  0.00     0.055 A 
ATOM     87  C   UNL A   1      45.499  35.725  31.347  1.00  0.00     0.041 A 
ATOM     88  F   UNL A   1      45.275  33.471  31.946  1.00  0.00    -0.206 F 
ATOM     89  C   UNL A   1      45.338  36.751  30.421  1.00  0.00     0.022 A 
BRANCH  86  90
ATOM     90  S   UNL A   1      44.605  37.764  27.927  1.00  0.00     0.124 S 
ATOM     91  O   UNL A   1      45.009  37.035  26.729  1.00  0.00    -0.237 OA
ATOM     92  O   UNL A   1      43.200  38.155  27.992  1.00  0.00    -0.237 OA
ATOM     93  O   UNL A   1      45.552  38.778  28.385  1.00  0.00    -0.744 OA
ENDBRANCH  86  90
ENDBRANCH  60  83
ENDBRANCH  34  35
ENDBRANCH  26  29
ENDBRANCH  24  25
ENDBRANCH   1  24
TORSDOF 16
ENDMDL
