MODEL 1
REMARK VINA RESULT:     -12.5      0.000      0.000
REMARK SMILES Cc1c(Br)c(C)c2c(c1Br)O[C@H](C(F)(F)F)C(C(=O)NCCCCNC(=O)c1ccc(-c3c4nc(c(-c5cc(S(=O)(=O)[O-])ccc5F)c5ccc([nH]5)c(-c5cc(S(=O)(=O)[O-])ccc5F)c5nc(c(-c6cc(S(=O)(=O)[O-])ccc6F)c6ccc3[nH]6)C=C5)C=C4)cc1)=C2
REMARK SMILES IDX 23 1 22 2 21 3 20 4 18 5 19 6 17 8 1 9 2 10 3 11 9 12 4 13
REMARK SMILES IDX 5 14 8 15 10 16 6 17 7 18 11 19 91 20 12 21 13 22 14 23
REMARK SMILES IDX 15 24 16 25 24 26 25 27 26 28 27 30 28 31 29 32 90 33 30 34
REMARK SMILES IDX 89 35 31 36 32 37 33 38 83 39 34 40 88 41 82 42 84 43 35 44
REMARK SMILES IDX 87 45 81 46 80 47 36 49 68 50 48 51 67 52 49 53 52 54 66 55
REMARK SMILES IDX 85 56 50 57 51 58 65 60 86 61 53 62 37 63 38 64 46 65 39 66
REMARK SMILES IDX 45 67 47 68 44 69 40 70 41 71 42 72 43 73 69 74 70 75 78 76
REMARK SMILES IDX 71 77 77 78 79 79 76 80 72 81 73 82 74 83 75 84 54 85 55 86
REMARK SMILES IDX 63 87 56 88 62 89 64 90 61 91 57 92 58 93 59 94 60 95
REMARK H PARENT 20 7 25 29 84 48 52 59
REMARK Flexibility Score: inf
ROOT
ATOM      1  C   UNL A   1      31.979  31.383  26.881  1.00  0.00     0.023 C 
ENDROOT
BRANCH   1   2
ATOM      2  C   UNL A   1      32.278  29.902  27.129  1.00  0.00     0.023 C 
BRANCH   2   3
ATOM      3  C   UNL A   1      33.685  29.474  26.719  1.00  0.00     0.116 C 
BRANCH   3   4
ATOM      4  N   UNL A   1      33.802  29.315  25.281  1.00  0.00    -0.352 N 
ATOM      5  C   UNL A   1      33.651  28.312  24.386  1.00  0.00     0.251 C 
ATOM      6  O   UNL A   1      33.877  28.614  23.210  1.00  0.00    -0.270 OA
ATOM      7  H   UNL A   1      34.058  30.158  24.841  1.00  0.00     0.163 HD
BRANCH   5   8
ATOM      8  C   UNL A   1      33.238  26.915  24.717  1.00  0.00     0.067 C 
ATOM      9  C   UNL A   1      32.867  20.519  26.139  1.00  0.00     0.047 C 
ATOM     10  C   UNL A   1      33.258  21.934  25.784  1.00  0.00    -0.019 A 
ATOM     11  C   UNL A   1      34.563  22.261  25.335  1.00  0.00     0.025 A 
ATOM     12  C   UNL A   1      32.298  22.965  25.833  1.00  0.00     0.064 A 
ATOM     13  Br  UNL A   1      35.859  20.855  25.144  1.00  0.00    -0.050 Br
ATOM     14  C   UNL A   1      34.925  23.595  25.007  1.00  0.00    -0.026 A 
ATOM     15  C   UNL A   1      32.642  24.285  25.508  1.00  0.00     0.142 A 
ATOM     16  Br  UNL A   1      30.475  22.598  26.300  1.00  0.00    -0.046 Br
ATOM     17  C   UNL A   1      36.317  23.975  24.552  1.00  0.00     0.046 C 
ATOM     18  C   UNL A   1      33.945  24.613  25.118  1.00  0.00     0.022 A 
ATOM     19  O   UNL A   1      31.672  25.245  25.640  1.00  0.00    -0.474 OA
ATOM     20  C   UNL A   1      34.241  26.028  24.857  1.00  0.00     0.026 C 
ATOM     21  C   UNL A   1      31.822  26.452  24.850  1.00  0.00     0.314 C 
BRANCH  21  22
ATOM     22  C   UNL A   1      31.114  26.282  23.494  1.00  0.00     0.429 C 
ATOM     23  F   UNL A   1      32.004  25.936  22.532  1.00  0.00    -0.167 F 
ATOM     24  F   UNL A   1      30.176  25.306  23.520  1.00  0.00    -0.167 F 
ATOM     25  F   UNL A   1      30.496  27.414  23.086  1.00  0.00    -0.167 F 
ENDBRANCH  21  22
ENDBRANCH   5   8
ENDBRANCH   3   4
ENDBRANCH   2   3
ENDBRANCH   1   2
BRANCH   1  26
ATOM     26  C   UNL A   1      33.107  32.350  27.240  1.00  0.00     0.116 C 
BRANCH  26  27
ATOM     27  N   UNL A   1      32.647  33.698  27.544  1.00  0.00    -0.352 N 
ATOM     28  C   UNL A   1      33.117  34.555  28.510  1.00  0.00     0.251 C 
ATOM     29  H   UNL A   1      31.909  34.036  26.988  1.00  0.00     0.163 HD
ATOM     30  O   UNL A   1      32.568  35.636  28.699  1.00  0.00    -0.269 OA
BRANCH  28  31
ATOM     31  C   UNL A   1      34.257  34.126  29.340  1.00  0.00     0.039 A 
ATOM     32  C   UNL A   1      34.003  33.436  30.526  1.00  0.00     0.014 A 
ATOM     33  C   UNL A   1      35.566  34.342  28.902  1.00  0.00     0.014 A 
ATOM     34  C   UNL A   1      35.069  32.899  31.244  1.00  0.00     0.010 A 
ATOM     35  C   UNL A   1      36.623  33.755  29.588  1.00  0.00     0.010 A 
ATOM     36  C   UNL A   1      36.383  33.026  30.762  1.00  0.00    -0.014 A 
BRANCH  36  37
ATOM     37  C   UNL A   1      37.518  32.413  31.491  1.00  0.00     0.031 A 
ATOM     38  C   UNL A   1      38.278  31.278  30.866  1.00  0.00     0.074 A 
ATOM     39  C   UNL A   1      37.842  32.860  32.720  1.00  0.00     0.049 A 
ATOM     40  N   UNL A   1      39.277  30.588  31.350  1.00  0.00    -0.248 NA
ATOM     41  C   UNL A   1      37.835  30.847  29.531  1.00  0.00     0.031 C 
ATOM     42  C   UNL A   1      37.152  33.933  33.440  1.00  0.00     0.029 A 
ATOM     43  N   UNL A   1      38.838  32.471  33.578  1.00  0.00    -0.354 N 
ATOM     44  C   UNL A   1      39.581  29.639  30.382  1.00  0.00     0.074 A 
ATOM     45  C   UNL A   1      38.619  29.801  29.314  1.00  0.00     0.031 C 
ATOM     46  C   UNL A   1      37.774  34.145  34.612  1.00  0.00     0.029 A 
ATOM     47  C   UNL A   1      38.882  33.204  34.740  1.00  0.00     0.049 A 
ATOM     48  H   UNL A   1      39.462  31.735  33.381  1.00  0.00     0.167 HD
ATOM     49  C   UNL A   1      40.590  28.735  30.371  1.00  0.00     0.034 A 
ATOM     50  C   UNL A   1      39.725  33.127  35.788  1.00  0.00     0.034 A 
ATOM     51  C   UNL A   1      41.555  28.600  31.430  1.00  0.00     0.049 A 
ATOM     52  C   UNL A   1      40.821  32.097  35.769  1.00  0.00     0.074 A 
ATOM     53  C   UNL A   1      42.648  27.754  31.498  1.00  0.00     0.029 A 
ATOM     54  N   UNL A   1      41.542  29.332  32.609  1.00  0.00    -0.354 N 
ATOM     55  N   UNL A   1      41.105  31.216  34.838  1.00  0.00    -0.248 NA
ATOM     56  C   UNL A   1      41.705  32.046  36.940  1.00  0.00     0.031 C 
ATOM     57  C   UNL A   1      43.270  27.944  32.738  1.00  0.00     0.029 A 
ATOM     58  C   UNL A   1      42.593  28.942  33.422  1.00  0.00     0.049 A 
ATOM     59  H   UNL A   1      40.883  30.027  32.834  1.00  0.00     0.167 HD
ATOM     60  C   UNL A   1      42.208  30.512  35.308  1.00  0.00     0.074 A 
ATOM     61  C   UNL A   1      42.542  31.074  36.603  1.00  0.00     0.031 C 
ATOM     62  C   UNL A   1      42.889  29.497  34.719  1.00  0.00     0.034 A 
BRANCH  49  63
ATOM     63  C   UNL A   1      40.682  27.827  29.174  1.00  0.00     0.023 A 
ATOM     64  C   UNL A   1      41.604  28.075  28.142  1.00  0.00     0.031 A 
ATOM     65  C   UNL A   1      39.816  26.730  29.040  1.00  0.00     0.131 A 
ATOM     66  C   UNL A   1      41.589  27.280  26.989  1.00  0.00     0.055 A 
ATOM     67  C   UNL A   1      39.855  25.898  27.920  1.00  0.00     0.041 A 
ATOM     68  F   UNL A   1      38.903  26.461  29.988  1.00  0.00    -0.206 F 
ATOM     69  C   UNL A   1      40.737  26.179  26.879  1.00  0.00     0.022 A 
BRANCH  66  70
ATOM     70  S   UNL A   1      42.621  27.775  25.582  1.00  0.00     0.124 S 
ATOM     71  O   UNL A   1      42.558  26.584  24.739  1.00  0.00    -0.237 OA
ATOM     72  O   UNL A   1      41.926  28.953  25.076  1.00  0.00    -0.237 OA
ATOM     73  O   UNL A   1      43.926  28.034  26.190  1.00  0.00    -0.744 OA
ENDBRANCH  66  70
ENDBRANCH  49  63
BRANCH  50  74
ATOM     74  C   UNL A   1      39.570  34.057  36.938  1.00  0.00     0.023 A 
ATOM     75  C   UNL A   1      38.977  33.625  38.133  1.00  0.00     0.031 A 
ATOM     76  C   UNL A   1      40.020  35.385  36.857  1.00  0.00     0.131 A 
ATOM     77  C   UNL A   1      38.830  34.523  39.201  1.00  0.00     0.055 A 
ATOM     78  C   UNL A   1      39.897  36.267  37.932  1.00  0.00     0.041 A 
ATOM     79  F   UNL A   1      40.607  35.836  35.738  1.00  0.00    -0.206 F 
ATOM     80  C   UNL A   1      39.295  35.839  39.112  1.00  0.00     0.022 A 
BRANCH  77  81
ATOM     81  S   UNL A   1      38.016  33.950  40.718  1.00  0.00     0.124 S 
ATOM     82  O   UNL A   1      37.751  35.209  41.405  1.00  0.00    -0.237 OA
ATOM     83  O   UNL A   1      36.850  33.247  40.192  1.00  0.00    -0.237 OA
ATOM     84  O   UNL A   1      39.024  33.096  41.341  1.00  0.00    -0.744 OA
ENDBRANCH  77  81
ENDBRANCH  50  74
BRANCH  62  85
ATOM     85  C   UNL A   1      44.063  28.935  35.467  1.00  0.00     0.023 A 
ATOM     86  C   UNL A   1      43.904  27.884  36.385  1.00  0.00     0.031 A 
ATOM     87  C   UNL A   1      45.357  29.425  35.226  1.00  0.00     0.131 A 
ATOM     88  C   UNL A   1      45.026  27.367  37.048  1.00  0.00     0.055 A 
ATOM     89  C   UNL A   1      46.474  28.882  35.859  1.00  0.00     0.041 A 
ATOM     90  F   UNL A   1      45.555  30.426  34.354  1.00  0.00    -0.206 F 
ATOM     91  C   UNL A   1      46.311  27.848  36.779  1.00  0.00     0.022 A 
BRANCH  88  92
ATOM     92  S   UNL A   1      44.789  26.055  38.277  1.00  0.00     0.124 S 
ATOM     93  O   UNL A   1      44.527  24.894  37.430  1.00  0.00    -0.237 OA
ATOM     94  O   UNL A   1      46.063  26.049  38.989  1.00  0.00    -0.237 OA
ATOM     95  O   UNL A   1      43.647  26.521  39.060  1.00  0.00    -0.744 OA
ENDBRANCH  88  92
ENDBRANCH  62  85
ENDBRANCH  36  37
ENDBRANCH  28  31
ENDBRANCH  26  27
ENDBRANCH   1  26
TORSDOF 15
ENDMDL
MODEL 2
REMARK VINA RESULT:     -12.3      5.823     10.800
REMARK SMILES Cc1c(Br)c(C)c2c(c1Br)O[C@H](C(F)(F)F)C(C(=O)NCCCCNC(=O)c1ccc(-c3c4nc(c(-c5cc(S(=O)(=O)[O-])ccc5F)c5ccc([nH]5)c(-c5cc(S(=O)(=O)[O-])ccc5F)c5nc(c(-c6cc(S(=O)(=O)[O-])ccc6F)c6ccc3[nH]6)C=C5)C=C4)cc1)=C2
REMARK SMILES IDX 23 1 22 2 21 3 20 4 18 5 19 6 17 8 1 9 2 10 3 11 9 12 4 13
REMARK SMILES IDX 5 14 8 15 10 16 6 17 7 18 11 19 91 20 12 21 13 22 14 23
REMARK SMILES IDX 15 24 16 25 24 26 25 27 26 28 27 30 28 31 29 32 90 33 30 34
REMARK SMILES IDX 89 35 31 36 32 37 33 38 83 39 34 40 88 41 82 42 84 43 35 44
REMARK SMILES IDX 87 45 81 46 80 47 36 49 68 50 48 51 67 52 49 53 52 54 66 55
REMARK SMILES IDX 85 56 50 57 51 58 65 60 86 61 53 62 37 63 38 64 46 65 39 66
REMARK SMILES IDX 45 67 47 68 44 69 40 70 41 71 42 72 43 73 69 74 70 75 78 76
REMARK SMILES IDX 71 77 77 78 79 79 76 80 72 81 73 82 74 83 75 84 54 85 55 86
REMARK SMILES IDX 63 87 56 88 62 89 64 90 61 91 57 92 58 93 59 94 60 95
REMARK H PARENT 20 7 25 29 84 48 52 59
REMARK Flexibility Score: inf
ROOT
ATOM      1  C   UNL A   1      35.088  21.441  26.140  1.00  0.00     0.023 C 
ENDROOT
BRANCH   1   2
ATOM      2  C   UNL A   1      34.186  22.582  26.617  1.00  0.00     0.023 C 
BRANCH   2   3
ATOM      3  C   UNL A   1      33.106  22.982  25.615  1.00  0.00     0.116 C 
BRANCH   3   4
ATOM      4  N   UNL A   1      33.662  23.250  24.302  1.00  0.00    -0.352 N 
ATOM      5  C   UNL A   1      33.565  24.226  23.372  1.00  0.00     0.251 C 
ATOM      6  O   UNL A   1      34.220  24.042  22.340  1.00  0.00    -0.270 OA
ATOM      7  H   UNL A   1      34.271  22.532  24.012  1.00  0.00     0.163 HD
BRANCH   5   8
ATOM      8  C   UNL A   1      32.752  25.472  23.510  1.00  0.00     0.067 C 
ATOM      9  C   UNL A   1      30.278  31.365  24.999  1.00  0.00     0.047 C 
ATOM     10  C   UNL A   1      31.071  30.087  24.859  1.00  0.00    -0.019 A 
ATOM     11  C   UNL A   1      32.147  29.774  25.727  1.00  0.00     0.025 A 
ATOM     12  C   UNL A   1      30.709  29.136  23.885  1.00  0.00     0.064 A 
ATOM     13  Br  UNL A   1      32.586  31.001  27.141  1.00  0.00    -0.050 Br
ATOM     14  C   UNL A   1      32.892  28.573  25.587  1.00  0.00    -0.026 A 
ATOM     15  C   UNL A   1      31.434  27.943  23.739  1.00  0.00     0.142 A 
ATOM     16  Br  UNL A   1      29.187  29.407  22.752  1.00  0.00    -0.046 Br
ATOM     17  C   UNL A   1      34.062  28.228  26.483  1.00  0.00     0.046 C 
ATOM     18  C   UNL A   1      32.530  27.663  24.563  1.00  0.00     0.022 A 
ATOM     19  O   UNL A   1      31.062  27.094  22.729  1.00  0.00    -0.474 OA
ATOM     20  C   UNL A   1      33.276  26.424  24.305  1.00  0.00     0.026 C 
ATOM     21  C   UNL A   1      31.416  25.695  22.875  1.00  0.00     0.314 C 
BRANCH  21  22
ATOM     22  C   UNL A   1      30.279  24.940  23.587  1.00  0.00     0.429 C 
ATOM     23  F   UNL A   1      30.550  24.805  24.908  1.00  0.00    -0.167 F 
ATOM     24  F   UNL A   1      29.094  25.589  23.501  1.00  0.00    -0.167 F 
ATOM     25  F   UNL A   1      30.086  23.699  23.084  1.00  0.00    -0.167 F 
ENDBRANCH  21  22
ENDBRANCH   5   8
ENDBRANCH   3   4
ENDBRANCH   2   3
ENDBRANCH   1   2
BRANCH   1  26
ATOM     26  C   UNL A   1      36.456  21.865  25.607  1.00  0.00     0.116 C 
BRANCH  26  27
ATOM     27  N   UNL A   1      37.434  20.787  25.587  1.00  0.00    -0.352 N 
ATOM     28  C   UNL A   1      38.772  20.852  25.896  1.00  0.00     0.251 C 
ATOM     29  H   UNL A   1      37.096  19.902  25.319  1.00  0.00     0.163 HD
ATOM     30  O   UNL A   1      39.490  19.867  25.751  1.00  0.00    -0.269 OA
BRANCH  28  31
ATOM     31  C   UNL A   1      39.329  22.137  26.356  1.00  0.00     0.039 A 
ATOM     32  C   UNL A   1      40.411  22.124  27.235  1.00  0.00     0.014 A 
ATOM     33  C   UNL A   1      38.825  23.341  25.854  1.00  0.00     0.014 A 
ATOM     34  C   UNL A   1      41.039  23.324  27.562  1.00  0.00     0.010 A 
ATOM     35  C   UNL A   1      39.489  24.530  26.136  1.00  0.00     0.010 A 
ATOM     36  C   UNL A   1      40.603  24.530  26.989  1.00  0.00    -0.014 A 
BRANCH  36  37
ATOM     37  C   UNL A   1      41.296  25.805  27.289  1.00  0.00     0.031 A 
ATOM     38  C   UNL A   1      40.616  26.839  28.141  1.00  0.00     0.074 A 
ATOM     39  C   UNL A   1      42.517  26.040  26.771  1.00  0.00     0.049 A 
ATOM     40  N   UNL A   1      41.036  28.026  28.491  1.00  0.00    -0.248 NA
ATOM     41  C   UNL A   1      39.275  26.500  28.640  1.00  0.00     0.031 C 
ATOM     42  C   UNL A   1      43.258  25.123  25.902  1.00  0.00     0.029 A 
ATOM     43  N   UNL A   1      43.352  27.118  26.907  1.00  0.00    -0.354 N 
ATOM     44  C   UNL A   1      40.012  28.578  29.250  1.00  0.00     0.074 A 
ATOM     45  C   UNL A   1      38.925  27.622  29.253  1.00  0.00     0.031 C 
ATOM     46  C   UNL A   1      44.457  25.660  25.618  1.00  0.00     0.029 A 
ATOM     47  C   UNL A   1      44.555  26.969  26.257  1.00  0.00     0.049 A 
ATOM     48  H   UNL A   1      43.114  27.923  27.420  1.00  0.00     0.167 HD
ATOM     49  C   UNL A   1      39.990  29.761  29.910  1.00  0.00     0.034 A 
ATOM     50  C   UNL A   1      45.617  27.794  26.188  1.00  0.00     0.034 A 
ATOM     51  C   UNL A   1      41.087  30.692  29.919  1.00  0.00     0.049 A 
ATOM     52  C   UNL A   1      45.562  29.116  26.905  1.00  0.00     0.074 A 
ATOM     53  C   UNL A   1      41.192  31.895  30.595  1.00  0.00     0.029 A 
ATOM     54  N   UNL A   1      42.271  30.525  29.215  1.00  0.00    -0.354 N 
ATOM     55  N   UNL A   1      44.590  29.617  27.631  1.00  0.00    -0.248 NA
ATOM     56  C   UNL A   1      46.740  29.985  26.787  1.00  0.00     0.031 C 
ATOM     57  C   UNL A   1      42.422  32.475  30.265  1.00  0.00     0.029 A 
ATOM     58  C   UNL A   1      43.104  31.612  29.421  1.00  0.00     0.049 A 
ATOM     59  H   UNL A   1      42.488  29.747  28.652  1.00  0.00     0.167 HD
ATOM     60  C   UNL A   1      45.045  30.857  28.067  1.00  0.00     0.074 A 
ATOM     61  C   UNL A   1      46.380  31.025  27.527  1.00  0.00     0.031 C 
ATOM     62  C   UNL A   1      44.418  31.770  28.849  1.00  0.00     0.034 A 
BRANCH  49  63
ATOM     63  C   UNL A   1      38.733  30.100  30.666  1.00  0.00     0.023 A 
ATOM     64  C   UNL A   1      37.765  30.957  30.117  1.00  0.00     0.031 A 
ATOM     65  C   UNL A   1      38.518  29.597  31.959  1.00  0.00     0.131 A 
ATOM     66  C   UNL A   1      36.660  31.345  30.888  1.00  0.00     0.055 A 
ATOM     67  C   UNL A   1      37.380  29.930  32.695  1.00  0.00     0.041 A 
ATOM     68  F   UNL A   1      39.423  28.790  32.537  1.00  0.00    -0.206 F 
ATOM     69  C   UNL A   1      36.449  30.820  32.164  1.00  0.00     0.022 A 
BRANCH  66  70
ATOM     70  S   UNL A   1      35.563  32.636  30.241  1.00  0.00     0.124 S 
ATOM     71  O   UNL A   1      35.359  32.184  28.867  1.00  0.00    -0.237 OA
ATOM     72  O   UNL A   1      34.405  32.541  31.123  1.00  0.00    -0.237 OA
ATOM     73  O   UNL A   1      36.354  33.857  30.379  1.00  0.00    -0.744 OA
ENDBRANCH  66  70
ENDBRANCH  49  63
BRANCH  50  74
ATOM     74  C   UNL A   1      46.824  27.392  25.419  1.00  0.00     0.023 A 
ATOM     75  C   UNL A   1      46.980  27.775  24.079  1.00  0.00     0.031 A 
ATOM     76  C   UNL A   1      47.838  26.626  26.017  1.00  0.00     0.131 A 
ATOM     77  C   UNL A   1      48.122  27.374  23.369  1.00  0.00     0.055 A 
ATOM     78  C   UNL A   1      48.986  26.252  25.316  1.00  0.00     0.041 A 
ATOM     79  F   UNL A   1      47.737  26.249  27.302  1.00  0.00    -0.206 F 
ATOM     80  C   UNL A   1      49.130  26.623  23.982  1.00  0.00     0.022 A 
BRANCH  77  81
ATOM     81  S   UNL A   1      48.275  27.844  21.624  1.00  0.00     0.124 S 
ATOM     82  O   UNL A   1      49.535  28.579  21.624  1.00  0.00    -0.237 OA
ATOM     83  O   UNL A   1      48.288  26.546  20.957  1.00  0.00    -0.237 OA
ATOM     84  O   UNL A   1      47.080  28.650  21.384  1.00  0.00    -0.744 OA
ENDBRANCH  77  81
ENDBRANCH  50  74
BRANCH  62  85
ATOM     85  C   UNL A   1      45.172  33.028  29.171  1.00  0.00     0.023 A 
ATOM     86  C   UNL A   1      45.025  34.184  28.387  1.00  0.00     0.031 A 
ATOM     87  C   UNL A   1      46.008  33.085  30.299  1.00  0.00     0.131 A 
ATOM     88  C   UNL A   1      45.726  35.349  28.730  1.00  0.00     0.055 A 
ATOM     89  C   UNL A   1      46.672  34.257  30.658  1.00  0.00     0.041 A 
ATOM     90  F   UNL A   1      46.174  32.005  31.079  1.00  0.00    -0.206 F 
ATOM     91  C   UNL A   1      46.535  35.397  29.869  1.00  0.00     0.022 A 
BRANCH  88  92
ATOM     92  S   UNL A   1      45.573  36.809  27.665  1.00  0.00     0.124 S 
ATOM     93  O   UNL A   1      45.720  37.898  28.626  1.00  0.00    -0.237 OA
ATOM     94  O   UNL A   1      46.676  36.635  26.725  1.00  0.00    -0.237 OA
ATOM     95  O   UNL A   1      44.240  36.670  27.083  1.00  0.00    -0.744 OA
ENDBRANCH  88  92
ENDBRANCH  62  85
ENDBRANCH  36  37
ENDBRANCH  28  31
ENDBRANCH  26  27
ENDBRANCH   1  26
TORSDOF 15
ENDMDL
MODEL 3
REMARK VINA RESULT:     -12.2      0.801      7.699
REMARK SMILES Cc1c(Br)c(C)c2c(c1Br)O[C@H](C(F)(F)F)C(C(=O)NCCCCNC(=O)c1ccc(-c3c4nc(c(-c5cc(S(=O)(=O)[O-])ccc5F)c5ccc([nH]5)c(-c5cc(S(=O)(=O)[O-])ccc5F)c5nc(c(-c6cc(S(=O)(=O)[O-])ccc6F)c6ccc3[nH]6)C=C5)C=C4)cc1)=C2
REMARK SMILES IDX 23 1 22 2 21 3 20 4 18 5 19 6 17 8 1 9 2 10 3 11 9 12 4 13
REMARK SMILES IDX 5 14 8 15 10 16 6 17 7 18 11 19 91 20 12 21 13 22 14 23
REMARK SMILES IDX 15 24 16 25 24 26 25 27 26 28 27 30 28 31 29 32 90 33 30 34
REMARK SMILES IDX 89 35 31 36 32 37 33 38 83 39 34 40 88 41 82 42 84 43 35 44
REMARK SMILES IDX 87 45 81 46 80 47 36 49 68 50 48 51 67 52 49 53 52 54 66 55
REMARK SMILES IDX 85 56 50 57 51 58 65 60 86 61 53 62 37 63 38 64 46 65 39 66
REMARK SMILES IDX 45 67 47 68 44 69 40 70 41 71 42 72 43 73 69 74 70 75 78 76
REMARK SMILES IDX 71 77 77 78 79 79 76 80 72 81 73 82 74 83 75 84 54 85 55 86
REMARK SMILES IDX 63 87 56 88 62 89 64 90 61 91 57 92 58 93 59 94 60 95
REMARK H PARENT 20 7 25 29 84 48 52 59
REMARK Flexibility Score: inf
ROOT
ATOM      1  C   UNL A   1      31.884  31.567  26.613  1.00  0.00     0.023 C 
ENDROOT
BRANCH   1   2
ATOM      2  C   UNL A   1      31.856  30.054  26.850  1.00  0.00     0.023 C 
BRANCH   2   3
ATOM      3  C   UNL A   1      33.231  29.393  26.810  1.00  0.00     0.116 C 
BRANCH   3   4
ATOM      4  N   UNL A   1      33.703  29.214  25.449  1.00  0.00    -0.352 N 
ATOM      5  C   UNL A   1      33.813  28.191  24.572  1.00  0.00     0.251 C 
ATOM      6  O   UNL A   1      34.309  28.482  23.479  1.00  0.00    -0.270 OA
ATOM      7  H   UNL A   1      34.029  30.059  25.063  1.00  0.00     0.163 HD
BRANCH   5   8
ATOM      8  C   UNL A   1      33.380  26.784  24.828  1.00  0.00     0.067 C 
ATOM      9  C   UNL A   1      32.927  20.335  25.959  1.00  0.00     0.047 C 
ATOM     10  C   UNL A   1      33.337  21.762  25.678  1.00  0.00    -0.019 A 
ATOM     11  C   UNL A   1      34.657  22.098  25.285  1.00  0.00     0.025 A 
ATOM     12  C   UNL A   1      32.382  22.796  25.742  1.00  0.00     0.064 A 
ATOM     13  Br  UNL A   1      35.950  20.692  25.075  1.00  0.00    -0.050 Br
ATOM     14  C   UNL A   1      35.038  23.442  25.028  1.00  0.00    -0.026 A 
ATOM     15  C   UNL A   1      32.744  24.126  25.485  1.00  0.00     0.142 A 
ATOM     16  Br  UNL A   1      30.543  22.423  26.134  1.00  0.00    -0.046 Br
ATOM     17  C   UNL A   1      36.446  23.831  24.634  1.00  0.00     0.046 C 
ATOM     18  C   UNL A   1      34.061  24.462  25.151  1.00  0.00     0.022 A 
ATOM     19  O   UNL A   1      31.776  25.086  25.628  1.00  0.00    -0.474 OA
ATOM     20  C   UNL A   1      34.374  25.884  24.961  1.00  0.00     0.026 C 
ATOM     21  C   UNL A   1      31.958  26.326  24.897  1.00  0.00     0.314 C 
BRANCH  21  22
ATOM     22  C   UNL A   1      31.293  26.219  23.513  1.00  0.00     0.429 C 
ATOM     23  F   UNL A   1      32.220  25.965  22.557  1.00  0.00    -0.167 F 
ATOM     24  F   UNL A   1      30.388  25.214  23.450  1.00  0.00    -0.167 F 
ATOM     25  F   UNL A   1      30.648  27.354  23.159  1.00  0.00    -0.167 F 
ENDBRANCH  21  22
ENDBRANCH   5   8
ENDBRANCH   3   4
ENDBRANCH   2   3
ENDBRANCH   1   2
BRANCH   1  26
ATOM     26  C   UNL A   1      33.013  32.321  27.314  1.00  0.00     0.116 C 
BRANCH  26  27
ATOM     27  N   UNL A   1      32.654  33.675  27.710  1.00  0.00    -0.352 N 
ATOM     28  C   UNL A   1      33.234  34.455  28.681  1.00  0.00     0.251 C 
ATOM     29  H   UNL A   1      31.902  34.082  27.222  1.00  0.00     0.163 HD
ATOM     30  O   UNL A   1      32.763  35.554  28.958  1.00  0.00    -0.269 OA
BRANCH  28  31
ATOM     31  C   UNL A   1      34.399  33.922  29.411  1.00  0.00     0.039 A 
ATOM     32  C   UNL A   1      34.182  33.038  30.468  1.00  0.00     0.014 A 
ATOM     33  C   UNL A   1      35.695  34.242  28.997  1.00  0.00     0.014 A 
ATOM     34  C   UNL A   1      35.273  32.415  31.071  1.00  0.00     0.010 A 
ATOM     35  C   UNL A   1      36.777  33.576  29.561  1.00  0.00     0.010 A 
ATOM     36  C   UNL A   1      36.575  32.654  30.599  1.00  0.00    -0.014 A 
BRANCH  36  37
ATOM     37  C   UNL A   1      37.737  31.958  31.198  1.00  0.00     0.031 A 
ATOM     38  C   UNL A   1      38.212  32.347  32.569  1.00  0.00     0.074 A 
ATOM     39  C   UNL A   1      38.377  31.002  30.497  1.00  0.00     0.049 A 
ATOM     40  N   UNL A   1      39.225  31.884  33.253  1.00  0.00    -0.248 NA
ATOM     41  C   UNL A   1      37.463  33.417  33.245  1.00  0.00     0.031 C 
ATOM     42  C   UNL A   1      38.025  30.566  29.143  1.00  0.00     0.029 A 
ATOM     43  N   UNL A   1      39.452  30.219  30.829  1.00  0.00    -0.354 N 
ATOM     44  C   UNL A   1      39.237  32.607  34.439  1.00  0.00     0.074 A 
ATOM     45  C   UNL A   1      38.172  33.583  34.352  1.00  0.00     0.031 C 
ATOM     46  C   UNL A   1      38.843  29.564  28.778  1.00  0.00     0.029 A 
ATOM     47  C   UNL A   1      39.794  29.310  29.856  1.00  0.00     0.049 A 
ATOM     48  H   UNL A   1      39.935  30.301  31.683  1.00  0.00     0.167 HD
ATOM     49  C   UNL A   1      40.044  32.452  35.517  1.00  0.00     0.034 A 
ATOM     50  C   UNL A   1      40.763  28.375  29.839  1.00  0.00     0.034 A 
ATOM     51  C   UNL A   1      41.085  31.462  35.601  1.00  0.00     0.049 A 
ATOM     52  C   UNL A   1      41.667  28.238  31.034  1.00  0.00     0.074 A 
ATOM     53  C   UNL A   1      41.927  31.183  36.664  1.00  0.00     0.029 A 
ATOM     54  N   UNL A   1      41.428  30.588  34.580  1.00  0.00    -0.354 N 
ATOM     55  N   UNL A   1      41.656  28.920  32.155  1.00  0.00    -0.248 NA
ATOM     56  C   UNL A   1      42.715  27.212  30.959  1.00  0.00     0.031 C 
ATOM     57  C   UNL A   1      42.807  30.170  36.268  1.00  0.00     0.029 A 
ATOM     58  C   UNL A   1      42.484  29.784  34.977  1.00  0.00     0.049 A 
ATOM     59  H   UNL A   1      40.986  30.544  33.701  1.00  0.00     0.167 HD
ATOM     60  C   UNL A   1      42.690  28.398  32.925  1.00  0.00     0.074 A 
ATOM     61  C   UNL A   1      43.300  27.340  32.143  1.00  0.00     0.031 C 
ATOM     62  C   UNL A   1      43.093  28.756  34.170  1.00  0.00     0.034 A 
BRANCH  49  63
ATOM     63  C   UNL A   1      39.823  33.385  36.677  1.00  0.00     0.023 A 
ATOM     64  C   UNL A   1      39.227  32.935  37.868  1.00  0.00     0.031 A 
ATOM     65  C   UNL A   1      40.171  34.742  36.581  1.00  0.00     0.131 A 
ATOM     66  C   UNL A   1      38.930  33.850  38.888  1.00  0.00     0.055 A 
ATOM     67  C   UNL A   1      39.938  35.634  37.628  1.00  0.00     0.041 A 
ATOM     68  F   UNL A   1      40.725  35.226  35.458  1.00  0.00    -0.206 F 
ATOM     69  C   UNL A   1      39.302  35.192  38.786  1.00  0.00     0.022 A 
BRANCH  66  70
ATOM     70  S   UNL A   1      37.946  33.282  40.301  1.00  0.00     0.124 S 
ATOM     71  O   UNL A   1      38.024  34.436  41.194  1.00  0.00    -0.237 OA
ATOM     72  O   UNL A   1      36.642  33.027  39.700  1.00  0.00    -0.237 OA
ATOM     73  O   UNL A   1      38.664  32.095  40.762  1.00  0.00    -0.744 OA
ENDBRANCH  66  70
ENDBRANCH  49  63
BRANCH  50  74
ATOM     74  C   UNL A   1      40.923  27.491  28.654  1.00  0.00     0.023 A 
ATOM     75  C   UNL A   1      41.931  27.734  27.710  1.00  0.00     0.031 A 
ATOM     76  C   UNL A   1      40.075  26.388  28.457  1.00  0.00     0.131 A 
ATOM     77  C   UNL A   1      42.057  26.893  26.594  1.00  0.00     0.055 A 
ATOM     78  C   UNL A   1      40.221  25.538  27.359  1.00  0.00     0.041 A 
ATOM     79  F   UNL A   1      39.106  26.110  29.343  1.00  0.00    -0.206 F 
ATOM     80  C   UNL A   1      41.214  25.792  26.417  1.00  0.00     0.022 A 
BRANCH  77  81
ATOM     81  S   UNL A   1      43.339  27.260  25.364  1.00  0.00     0.124 S 
ATOM     82  O   UNL A   1      44.258  28.091  26.134  1.00  0.00    -0.237 OA
ATOM     83  O   UNL A   1      43.818  25.927  25.014  1.00  0.00    -0.237 OA
ATOM     84  O   UNL A   1      42.606  27.951  24.306  1.00  0.00    -0.744 OA
ENDBRANCH  77  81
ENDBRANCH  50  74
BRANCH  62  85
ATOM     85  C   UNL A   1      44.243  27.994  34.762  1.00  0.00     0.023 A 
ATOM     86  C   UNL A   1      44.057  26.725  35.334  1.00  0.00     0.031 A 
ATOM     87  C   UNL A   1      45.544  28.523  34.713  1.00  0.00     0.131 A 
ATOM     88  C   UNL A   1      45.157  26.030  35.856  1.00  0.00     0.055 A 
ATOM     89  C   UNL A   1      46.640  27.812  35.199  1.00  0.00     0.041 A 
ATOM     90  F   UNL A   1      45.768  29.731  34.172  1.00  0.00    -0.206 F 
ATOM     91  C   UNL A   1      46.449  26.559  35.777  1.00  0.00     0.022 A 
BRANCH  88  92
ATOM     92  S   UNL A   1      44.882  24.423  36.648  1.00  0.00     0.124 S 
ATOM     93  O   UNL A   1      46.019  23.649  36.157  1.00  0.00    -0.237 OA
ATOM     94  O   UNL A   1      44.906  24.758  38.068  1.00  0.00    -0.237 OA
ATOM     95  O   UNL A   1      43.580  24.006  36.134  1.00  0.00    -0.744 OA
ENDBRANCH  88  92
ENDBRANCH  62  85
ENDBRANCH  36  37
ENDBRANCH  28  31
ENDBRANCH  26  27
ENDBRANCH   1  26
TORSDOF 15
ENDMDL
