MODEL 1
REMARK VINA RESULT:     -11.9      0.000      0.000
REMARK SMILES CC[C@H](C)[C@H](NS(=O)(=O)c1ccc(C)cc1)C(=O)NCCCCNC(=O)c1ccc(-c2c3nc(c(-c4cc(S(=O)(=O)[O-])ccc4F)c4ccc([nH]4)c(-c4cc(S(=O)(=O)[O-])ccc4F)c4nc(c(-c5cc(S(=O)(=O)[O-])ccc5F)c5ccc2[nH]5)C=C4)C=C3)cc1
REMARK SMILES IDX 21 1 20 2 19 3 17 4 18 5 5 7 3 8 4 9 2 10 1 11 6 12 7 14
REMARK SMILES IDX 8 15 9 16 10 17 11 18 16 19 12 20 15 21 13 22 14 23 22 24
REMARK SMILES IDX 23 25 24 26 25 27 26 29 27 30 28 31 89 32 29 33 88 34 30 35
REMARK SMILES IDX 31 36 32 37 82 38 33 39 87 40 81 41 83 42 34 43 86 44 80 45
REMARK SMILES IDX 79 46 35 48 67 49 47 50 66 51 48 52 51 53 65 54 84 55 49 56
REMARK SMILES IDX 50 57 64 59 85 60 52 61 36 62 37 63 45 64 38 65 44 66 46 67
REMARK SMILES IDX 43 68 39 69 40 70 41 71 42 72 68 73 69 74 77 75 70 76 76 77
REMARK SMILES IDX 78 78 75 79 71 80 72 81 73 82 74 83 53 84 54 85 62 86 55 87
REMARK SMILES IDX 61 88 63 89 60 90 56 91 57 92 58 93 59 94
REMARK H PARENT 19 6 6 13 24 28 83 47 51 58
REMARK Flexibility Score: inf
ROOT
ATOM      1  C   UNL A   1      31.955  29.736  26.095  1.00  0.00     0.023 C 
ENDROOT
BRANCH   1   2
ATOM      2  C   UNL A   1      32.321  28.298  26.461  1.00  0.00     0.116 C 
BRANCH   2   3
ATOM      3  N   UNL A   1      31.222  27.349  26.308  1.00  0.00    -0.355 N 
ATOM      4  C   UNL A   1      31.030  26.384  25.355  1.00  0.00     0.238 C 
ATOM      5  O   UNL A   1      30.092  25.596  25.522  1.00  0.00    -0.273 OA
ATOM      6  H   UNL A   1      30.515  27.410  26.991  1.00  0.00     0.163 HD
BRANCH   4   7
ATOM      7  C   UNL A   1      31.887  26.318  24.061  1.00  0.00     0.161 C 
BRANCH   7   8
ATOM      8  C   UNL A   1      31.457  27.345  22.984  1.00  0.00     0.013 C 
ATOM      9  C   UNL A   1      29.999  27.786  23.052  1.00  0.00     0.010 C 
BRANCH   8  10
ATOM     10  C   UNL A   1      32.394  28.534  22.723  1.00  0.00     0.002 C 
ATOM     11  C   UNL A   1      33.857  28.256  23.052  1.00  0.00     0.004 C 
ENDBRANCH   8  10
ENDBRANCH   7   8
BRANCH   7  12
ATOM     12  N   UNL A   1      32.199  24.892  23.849  1.00  0.00    -0.198 NA
ATOM     13  H   UNL A   1      31.281  24.475  23.695  1.00  0.00     0.142 HD
BRANCH  12  14
ATOM     14  S   UNL A   1      33.161  24.079  22.788  1.00  0.00     0.241 S 
ATOM     15  O   UNL A   1      32.587  22.763  22.697  1.00  0.00    -0.207 OA
ATOM     16  O   UNL A   1      33.355  24.904  21.611  1.00  0.00    -0.207 OA
BRANCH  14  17
ATOM     17  C   UNL A   1      34.732  23.876  23.570  1.00  0.00     0.082 A 
ATOM     18  C   UNL A   1      35.712  23.048  23.019  1.00  0.00     0.022 A 
ATOM     19  C   UNL A   1      34.905  24.450  24.833  1.00  0.00     0.022 A 
ATOM     20  C   UNL A   1      36.821  22.704  23.795  1.00  0.00     0.005 A 
ATOM     21  C   UNL A   1      36.020  24.115  25.593  1.00  0.00     0.005 A 
ATOM     22  C   UNL A   1      36.953  23.192  25.103  1.00  0.00    -0.051 A 
ATOM     23  C   UNL A   1      38.071  22.727  25.987  1.00  0.00     0.044 C 
ENDBRANCH  14  17
ENDBRANCH  12  14
ENDBRANCH   7  12
ENDBRANCH   4   7
ENDBRANCH   2   3
ENDBRANCH   1   2
BRANCH   1  24
ATOM     24  C   UNL A   1      32.530  30.812  27.012  1.00  0.00     0.023 C 
BRANCH  24  25
ATOM     25  C   UNL A   1      33.920  30.518  27.566  1.00  0.00     0.116 C 
BRANCH  25  26
ATOM     26  N   UNL A   1      34.442  31.485  28.515  1.00  0.00    -0.352 N 
ATOM     27  C   UNL A   1      35.524  31.367  29.373  1.00  0.00     0.251 C 
ATOM     28  H   UNL A   1      33.961  32.344  28.554  1.00  0.00     0.163 HD
ATOM     29  O   UNL A   1      35.706  32.207  30.253  1.00  0.00    -0.269 OA
BRANCH  27  30
ATOM     30  C   UNL A   1      36.525  30.282  29.180  1.00  0.00     0.039 A 
ATOM     31  C   UNL A   1      36.722  29.370  30.228  1.00  0.00     0.014 A 
ATOM     32  C   UNL A   1      37.372  30.244  28.076  1.00  0.00     0.014 A 
ATOM     33  C   UNL A   1      37.881  28.589  30.264  1.00  0.00     0.010 A 
ATOM     34  C   UNL A   1      38.565  29.557  28.159  1.00  0.00     0.010 A 
ATOM     35  C   UNL A   1      38.845  28.766  29.275  1.00  0.00    -0.014 A 
BRANCH  35  36
ATOM     36  C   UNL A   1      40.213  28.268  29.351  1.00  0.00     0.031 A 
ATOM     37  C   UNL A   1      40.569  26.936  28.821  1.00  0.00     0.074 A 
ATOM     38  C   UNL A   1      41.189  29.094  29.785  1.00  0.00     0.049 A 
ATOM     39  N   UNL A   1      41.657  26.307  29.112  1.00  0.00    -0.248 NA
ATOM     40  C   UNL A   1      39.694  26.182  27.931  1.00  0.00     0.031 C 
ATOM     41  C   UNL A   1      42.631  28.930  29.636  1.00  0.00     0.029 A 
ATOM     42  N   UNL A   1      41.052  30.137  30.693  1.00  0.00    -0.354 N 
ATOM     43  C   UNL A   1      41.752  25.214  28.285  1.00  0.00     0.074 A 
ATOM     44  C   UNL A   1      40.484  25.159  27.594  1.00  0.00     0.031 C 
ATOM     45  C   UNL A   1      43.249  29.639  30.593  1.00  0.00     0.029 A 
ATOM     46  C   UNL A   1      42.221  30.157  31.478  1.00  0.00     0.049 A 
ATOM     47  H   UNL A   1      40.283  30.746  30.772  1.00  0.00     0.167 HD
ATOM     48  C   UNL A   1      42.933  24.537  28.201  1.00  0.00     0.034 A 
ATOM     49  C   UNL A   1      42.146  29.947  32.827  1.00  0.00     0.034 A 
ATOM     50  C   UNL A   1      43.935  25.076  29.118  1.00  0.00     0.049 A 
ATOM     51  C   UNL A   1      42.886  28.711  33.299  1.00  0.00     0.074 A 
ATOM     52  C   UNL A   1      44.998  25.955  28.990  1.00  0.00     0.029 A 
ATOM     53  N   UNL A   1      43.744  24.904  30.475  1.00  0.00    -0.354 N 
ATOM     54  N   UNL A   1      43.490  27.866  32.508  1.00  0.00    -0.248 NA
ATOM     55  C   UNL A   1      42.926  28.283  34.698  1.00  0.00     0.031 C 
ATOM     56  C   UNL A   1      45.406  26.344  30.300  1.00  0.00     0.029 A 
ATOM     57  C   UNL A   1      44.609  25.681  31.216  1.00  0.00     0.049 A 
ATOM     58  H   UNL A   1      43.070  24.300  30.865  1.00  0.00     0.167 HD
ATOM     59  C   UNL A   1      43.910  26.784  33.233  1.00  0.00     0.074 A 
ATOM     60  C   UNL A   1      43.546  27.096  34.604  1.00  0.00     0.031 C 
ATOM     61  C   UNL A   1      44.478  25.683  32.663  1.00  0.00     0.034 A 
BRANCH  48  62
ATOM     62  C   UNL A   1      43.260  23.510  27.147  1.00  0.00     0.023 A 
ATOM     63  C   UNL A   1      42.566  22.282  27.157  1.00  0.00     0.031 A 
ATOM     64  C   UNL A   1      44.223  23.655  26.131  1.00  0.00     0.131 A 
ATOM     65  C   UNL A   1      42.895  21.246  26.265  1.00  0.00     0.055 A 
ATOM     66  C   UNL A   1      44.595  22.602  25.284  1.00  0.00     0.041 A 
ATOM     67  F   UNL A   1      44.806  24.833  25.874  1.00  0.00    -0.206 F 
ATOM     68  C   UNL A   1      43.937  21.385  25.355  1.00  0.00     0.022 A 
BRANCH  65  69
ATOM     69  S   UNL A   1      41.924  19.715  26.305  1.00  0.00     0.124 S 
ATOM     70  O   UNL A   1      42.230  19.188  27.630  1.00  0.00    -0.237 OA
ATOM     71  O   UNL A   1      40.567  20.208  26.100  1.00  0.00    -0.237 OA
ATOM     72  O   UNL A   1      42.471  18.940  25.192  1.00  0.00    -0.744 OA
ENDBRANCH  65  69
ENDBRANCH  48  62
BRANCH  49  73
ATOM     73  C   UNL A   1      40.876  30.484  33.410  1.00  0.00     0.023 A 
ATOM     74  C   UNL A   1      40.806  31.885  33.573  1.00  0.00     0.031 A 
ATOM     75  C   UNL A   1      39.672  29.769  33.373  1.00  0.00     0.131 A 
ATOM     76  C   UNL A   1      39.576  32.542  33.443  1.00  0.00     0.055 A 
ATOM     77  C   UNL A   1      38.435  30.429  33.377  1.00  0.00     0.041 A 
ATOM     78  F   UNL A   1      39.665  28.440  33.193  1.00  0.00    -0.206 F 
ATOM     79  C   UNL A   1      38.385  31.823  33.354  1.00  0.00     0.022 A 
BRANCH  76  80
ATOM     80  S   UNL A   1      39.615  34.310  33.015  1.00  0.00     0.124 S 
ATOM     81  O   UNL A   1      40.965  34.461  32.483  1.00  0.00    -0.237 OA
ATOM     82  O   UNL A   1      38.522  34.410  32.049  1.00  0.00    -0.237 OA
ATOM     83  O   UNL A   1      39.357  34.982  34.286  1.00  0.00    -0.744 OA
ENDBRANCH  76  80
ENDBRANCH  49  73
BRANCH  61  84
ATOM     84  C   UNL A   1      44.927  24.499  33.469  1.00  0.00     0.023 A 
ATOM     85  C   UNL A   1      46.270  24.337  33.840  1.00  0.00     0.031 A 
ATOM     86  C   UNL A   1      44.040  23.462  33.828  1.00  0.00     0.131 A 
ATOM     87  C   UNL A   1      46.673  23.220  34.590  1.00  0.00     0.055 A 
ATOM     88  C   UNL A   1      44.462  22.309  34.493  1.00  0.00     0.041 A 
ATOM     89  F   UNL A   1      42.722  23.552  33.592  1.00  0.00    -0.206 F 
ATOM     90  C   UNL A   1      45.785  22.188  34.890  1.00  0.00     0.022 A 
BRANCH  87  91
ATOM     91  S   UNL A   1      48.357  23.191  35.252  1.00  0.00     0.124 S 
ATOM     92  O   UNL A   1      48.544  24.561  35.716  1.00  0.00    -0.237 OA
ATOM     93  O   UNL A   1      48.245  22.177  36.296  1.00  0.00    -0.237 OA
ATOM     94  O   UNL A   1      49.173  22.806  34.101  1.00  0.00    -0.744 OA
ENDBRANCH  87  91
ENDBRANCH  61  84
ENDBRANCH  35  36
ENDBRANCH  27  30
ENDBRANCH  25  26
ENDBRANCH  24  25
ENDBRANCH   1  24
TORSDOF 19
ENDMDL
MODEL 2
REMARK VINA RESULT:     -11.7      3.889     10.175
REMARK SMILES CC[C@H](C)[C@H](NS(=O)(=O)c1ccc(C)cc1)C(=O)NCCCCNC(=O)c1ccc(-c2c3nc(c(-c4cc(S(=O)(=O)[O-])ccc4F)c4ccc([nH]4)c(-c4cc(S(=O)(=O)[O-])ccc4F)c4nc(c(-c5cc(S(=O)(=O)[O-])ccc5F)c5ccc2[nH]5)C=C4)C=C3)cc1
REMARK SMILES IDX 21 1 20 2 19 3 17 4 18 5 5 7 3 8 4 9 2 10 1 11 6 12 7 14
REMARK SMILES IDX 8 15 9 16 10 17 11 18 16 19 12 20 15 21 13 22 14 23 22 24
REMARK SMILES IDX 23 25 24 26 25 27 26 29 27 30 28 31 89 32 29 33 88 34 30 35
REMARK SMILES IDX 31 36 32 37 82 38 33 39 87 40 81 41 83 42 34 43 86 44 80 45
REMARK SMILES IDX 79 46 35 48 67 49 47 50 66 51 48 52 51 53 65 54 84 55 49 56
REMARK SMILES IDX 50 57 64 59 85 60 52 61 36 62 37 63 45 64 38 65 44 66 46 67
REMARK SMILES IDX 43 68 39 69 40 70 41 71 42 72 68 73 69 74 77 75 70 76 76 77
REMARK SMILES IDX 78 78 75 79 71 80 72 81 73 82 74 83 53 84 54 85 62 86 55 87
REMARK SMILES IDX 61 88 63 89 60 90 56 91 57 92 58 93 59 94
REMARK H PARENT 19 6 6 13 24 28 83 47 51 58
REMARK Flexibility Score: inf
ROOT
ATOM      1  C   UNL A   1      36.336  22.560  23.880  1.00  0.00     0.023 C 
ENDROOT
BRANCH   1   2
ATOM      2  C   UNL A   1      34.959  22.543  24.543  1.00  0.00     0.116 C 
BRANCH   2   3
ATOM      3  N   UNL A   1      33.938  21.842  23.769  1.00  0.00    -0.355 N 
ATOM      4  C   UNL A   1      32.741  22.301  23.290  1.00  0.00     0.238 C 
ATOM      5  O   UNL A   1      32.110  21.561  22.525  1.00  0.00    -0.273 OA
ATOM      6  H   UNL A   1      34.141  20.901  23.561  1.00  0.00     0.163 HD
BRANCH   4   7
ATOM      7  C   UNL A   1      32.133  23.658  23.743  1.00  0.00     0.161 C 
BRANCH   7   8
ATOM      8  C   UNL A   1      31.219  23.538  24.987  1.00  0.00     0.013 C 
ATOM      9  C   UNL A   1      31.256  22.187  25.694  1.00  0.00     0.010 C 
BRANCH   8  10
ATOM     10  C   UNL A   1      31.233  24.700  25.992  1.00  0.00     0.002 C 
ATOM     11  C   UNL A   1      29.904  25.440  26.105  1.00  0.00     0.004 C 
ENDBRANCH   8  10
ENDBRANCH   7   8
BRANCH   7  12
ATOM     12  N   UNL A   1      31.852  24.413  22.507  1.00  0.00    -0.198 NA
ATOM     13  H   UNL A   1      30.839  24.533  22.535  1.00  0.00     0.142 HD
BRANCH  12  14
ATOM     14  S   UNL A   1      32.381  25.851  21.904  1.00  0.00     0.241 S 
ATOM     15  O   UNL A   1      33.758  25.624  21.554  1.00  0.00    -0.207 OA
ATOM     16  O   UNL A   1      31.419  26.328  20.928  1.00  0.00    -0.207 OA
BRANCH  14  17
ATOM     17  C   UNL A   1      32.399  26.997  23.248  1.00  0.00     0.082 A 
ATOM     18  C   UNL A   1      33.462  27.033  24.152  1.00  0.00     0.022 A 
ATOM     19  C   UNL A   1      31.248  27.761  23.463  1.00  0.00     0.022 A 
ATOM     20  C   UNL A   1      33.316  27.754  25.340  1.00  0.00     0.005 A 
ATOM     21  C   UNL A   1      31.116  28.489  24.641  1.00  0.00     0.005 A 
ATOM     22  C   UNL A   1      32.124  28.440  25.613  1.00  0.00    -0.051 A 
ATOM     23  C   UNL A   1      31.908  29.107  26.938  1.00  0.00     0.044 C 
ENDBRANCH  14  17
ENDBRANCH  12  14
ENDBRANCH   7  12
ENDBRANCH   4   7
ENDBRANCH   2   3
ENDBRANCH   1   2
BRANCH   1  24
ATOM     24  C   UNL A   1      37.479  22.005  24.727  1.00  0.00     0.023 C 
BRANCH  24  25
ATOM     25  C   UNL A   1      38.048  22.969  25.763  1.00  0.00     0.116 C 
BRANCH  25  26
ATOM     26  N   UNL A   1      39.411  22.709  26.189  1.00  0.00    -0.352 N 
ATOM     27  C   UNL A   1      40.365  23.602  26.650  1.00  0.00     0.251 C 
ATOM     28  H   UNL A   1      39.697  21.768  26.145  1.00  0.00     0.163 HD
ATOM     29  O   UNL A   1      41.533  23.242  26.778  1.00  0.00    -0.269 OA
BRANCH  27  30
ATOM     30  C   UNL A   1      39.969  24.971  27.083  1.00  0.00     0.039 A 
ATOM     31  C   UNL A   1      40.421  26.061  26.323  1.00  0.00     0.014 A 
ATOM     32  C   UNL A   1      39.315  25.206  28.289  1.00  0.00     0.014 A 
ATOM     33  C   UNL A   1      40.412  27.346  26.873  1.00  0.00     0.010 A 
ATOM     34  C   UNL A   1      39.401  26.450  28.877  1.00  0.00     0.010 A 
ATOM     35  C   UNL A   1      39.994  27.512  28.191  1.00  0.00    -0.014 A 
BRANCH  35  36
ATOM     36  C   UNL A   1      40.222  28.711  28.989  1.00  0.00     0.031 A 
ATOM     37  C   UNL A   1      39.182  29.753  29.114  1.00  0.00     0.074 A 
ATOM     38  C   UNL A   1      41.346  28.800  29.733  1.00  0.00     0.049 A 
ATOM     39  N   UNL A   1      39.405  30.951  29.535  1.00  0.00    -0.248 NA
ATOM     40  C   UNL A   1      37.793  29.528  28.736  1.00  0.00     0.031 C 
ATOM     41  C   UNL A   1      41.622  29.722  30.829  1.00  0.00     0.029 A 
ATOM     42  N   UNL A   1      42.576  28.220  29.450  1.00  0.00    -0.354 N 
ATOM     43  C   UNL A   1      38.192  31.569  29.722  1.00  0.00     0.074 A 
ATOM     44  C   UNL A   1      37.219  30.653  29.172  1.00  0.00     0.031 C 
ATOM     45  C   UNL A   1      42.951  29.850  30.963  1.00  0.00     0.029 A 
ATOM     46  C   UNL A   1      43.567  29.134  29.861  1.00  0.00     0.049 A 
ATOM     47  H   UNL A   1      42.728  27.337  29.041  1.00  0.00     0.167 HD
ATOM     48  C   UNL A   1      38.136  32.742  30.415  1.00  0.00     0.034 A 
ATOM     49  C   UNL A   1      44.433  29.665  28.946  1.00  0.00     0.034 A 
ATOM     50  C   UNL A   1      39.465  33.211  30.799  1.00  0.00     0.049 A 
ATOM     51  C   UNL A   1      44.326  31.171  28.801  1.00  0.00     0.074 A 
ATOM     52  C   UNL A   1      40.226  33.136  31.954  1.00  0.00     0.029 A 
ATOM     53  N   UNL A   1      40.320  33.647  29.806  1.00  0.00    -0.354 N 
ATOM     54  N   UNL A   1      43.453  31.912  29.425  1.00  0.00    -0.248 NA
ATOM     55  C   UNL A   1      45.144  31.947  27.867  1.00  0.00     0.031 C 
ATOM     56  C   UNL A   1      41.568  33.490  31.620  1.00  0.00     0.029 A 
ATOM     57  C   UNL A   1      41.608  33.803  30.273  1.00  0.00     0.049 A 
ATOM     58  H   UNL A   1      40.042  33.825  28.878  1.00  0.00     0.167 HD
ATOM     59  C   UNL A   1      43.517  33.192  28.947  1.00  0.00     0.074 A 
ATOM     60  C   UNL A   1      44.602  33.171  27.981  1.00  0.00     0.031 C 
ATOM     61  C   UNL A   1      42.650  34.173  29.330  1.00  0.00     0.034 A 
BRANCH  48  62
ATOM     62  C   UNL A   1      36.868  33.376  30.928  1.00  0.00     0.023 A 
ATOM     63  C   UNL A   1      35.894  33.796  29.998  1.00  0.00     0.031 A 
ATOM     64  C   UNL A   1      36.554  33.606  32.281  1.00  0.00     0.131 A 
ATOM     65  C   UNL A   1      34.738  34.484  30.406  1.00  0.00     0.055 A 
ATOM     66  C   UNL A   1      35.435  34.346  32.684  1.00  0.00     0.041 A 
ATOM     67  F   UNL A   1      37.282  33.078  33.273  1.00  0.00    -0.206 F 
ATOM     68  C   UNL A   1      34.523  34.800  31.744  1.00  0.00     0.022 A 
BRANCH  65  69
ATOM     69  S   UNL A   1      33.507  34.947  29.158  1.00  0.00     0.124 S 
ATOM     70  O   UNL A   1      34.140  36.091  28.508  1.00  0.00    -0.237 OA
ATOM     71  O   UNL A   1      33.401  33.728  28.365  1.00  0.00    -0.237 OA
ATOM     72  O   UNL A   1      32.323  35.269  29.954  1.00  0.00    -0.744 OA
ENDBRANCH  65  69
ENDBRANCH  48  62
BRANCH  49  73
ATOM     73  C   UNL A   1      44.753  28.699  27.848  1.00  0.00     0.023 A 
ATOM     74  C   UNL A   1      45.626  27.640  28.181  1.00  0.00     0.031 A 
ATOM     75  C   UNL A   1      43.931  28.540  26.724  1.00  0.00     0.131 A 
ATOM     76  C   UNL A   1      45.479  26.393  27.560  1.00  0.00     0.055 A 
ATOM     77  C   UNL A   1      43.886  27.327  26.023  1.00  0.00     0.041 A 
ATOM     78  F   UNL A   1      43.059  29.495  26.368  1.00  0.00    -0.206 F 
ATOM     79  C   UNL A   1      44.619  26.229  26.475  1.00  0.00     0.022 A 
BRANCH  76  80
ATOM     80  S   UNL A   1      46.137  24.941  28.437  1.00  0.00     0.124 S 
ATOM     81  O   UNL A   1      45.197  23.899  28.042  1.00  0.00    -0.237 OA
ATOM     82  O   UNL A   1      47.487  24.842  27.882  1.00  0.00    -0.237 OA
ATOM     83  O   UNL A   1      46.093  25.334  29.843  1.00  0.00    -0.744 OA
ENDBRANCH  76  80
ENDBRANCH  49  73
BRANCH  61  84
ATOM     84  C   UNL A   1      42.727  35.572  28.792  1.00  0.00     0.023 A 
ATOM     85  C   UNL A   1      43.184  36.634  29.587  1.00  0.00     0.031 A 
ATOM     86  C   UNL A   1      42.279  35.898  27.494  1.00  0.00     0.131 A 
ATOM     87  C   UNL A   1      43.245  37.938  29.067  1.00  0.00     0.055 A 
ATOM     88  C   UNL A   1      42.253  37.208  27.015  1.00  0.00     0.041 A 
ATOM     89  F   UNL A   1      41.895  34.950  26.625  1.00  0.00    -0.206 F 
ATOM     90  C   UNL A   1      42.750  38.239  27.799  1.00  0.00     0.022 A 
BRANCH  87  91
ATOM     91  S   UNL A   1      44.074  39.215  30.046  1.00  0.00     0.124 S 
ATOM     92  O   UNL A   1      44.462  38.494  31.253  1.00  0.00    -0.237 OA
ATOM     93  O   UNL A   1      45.167  39.601  29.158  1.00  0.00    -0.237 OA
ATOM     94  O   UNL A   1      43.040  40.232  30.232  1.00  0.00    -0.744 OA
ENDBRANCH  87  91
ENDBRANCH  61  84
ENDBRANCH  35  36
ENDBRANCH  27  30
ENDBRANCH  25  26
ENDBRANCH  24  25
ENDBRANCH   1  24
TORSDOF 19
ENDMDL
MODEL 3
REMARK VINA RESULT:     -11.6      3.964     10.243
REMARK SMILES CC[C@H](C)[C@H](NS(=O)(=O)c1ccc(C)cc1)C(=O)NCCCCNC(=O)c1ccc(-c2c3nc(c(-c4cc(S(=O)(=O)[O-])ccc4F)c4ccc([nH]4)c(-c4cc(S(=O)(=O)[O-])ccc4F)c4nc(c(-c5cc(S(=O)(=O)[O-])ccc5F)c5ccc2[nH]5)C=C4)C=C3)cc1
REMARK SMILES IDX 21 1 20 2 19 3 17 4 18 5 5 7 3 8 4 9 2 10 1 11 6 12 7 14
REMARK SMILES IDX 8 15 9 16 10 17 11 18 16 19 12 20 15 21 13 22 14 23 22 24
REMARK SMILES IDX 23 25 24 26 25 27 26 29 27 30 28 31 89 32 29 33 88 34 30 35
REMARK SMILES IDX 31 36 32 37 82 38 33 39 87 40 81 41 83 42 34 43 86 44 80 45
REMARK SMILES IDX 79 46 35 48 67 49 47 50 66 51 48 52 51 53 65 54 84 55 49 56
REMARK SMILES IDX 50 57 64 59 85 60 52 61 36 62 37 63 45 64 38 65 44 66 46 67
REMARK SMILES IDX 43 68 39 69 40 70 41 71 42 72 68 73 69 74 77 75 70 76 76 77
REMARK SMILES IDX 78 78 75 79 71 80 72 81 73 82 74 83 53 84 54 85 62 86 55 87
REMARK SMILES IDX 61 88 63 89 60 90 56 91 57 92 58 93 59 94
REMARK H PARENT 19 6 6 13 24 28 83 47 51 58
REMARK Flexibility Score: inf
ROOT
ATOM      1  C   UNL A   1      37.443  23.600  25.855  1.00  0.00     0.023 C 
ENDROOT
BRANCH   1   2
ATOM      2  C   UNL A   1      35.961  23.355  25.571  1.00  0.00     0.116 C 
BRANCH   2   3
ATOM      3  N   UNL A   1      35.212  22.857  26.722  1.00  0.00    -0.355 N 
ATOM      4  C   UNL A   1      33.893  22.499  26.814  1.00  0.00     0.238 C 
ATOM      5  O   UNL A   1      33.522  21.958  27.863  1.00  0.00    -0.273 OA
ATOM      6  H   UNL A   1      35.732  22.763  27.553  1.00  0.00     0.163 HD
BRANCH   4   7
ATOM      7  C   UNL A   1      32.866  22.830  25.697  1.00  0.00     0.161 C 
BRANCH   7   8
ATOM      8  C   UNL A   1      32.903  21.835  24.511  1.00  0.00     0.013 C 
ATOM      9  C   UNL A   1      33.202  22.455  23.151  1.00  0.00     0.010 C 
BRANCH   8  10
ATOM     10  C   UNL A   1      33.673  20.520  24.712  1.00  0.00     0.002 C 
ATOM     11  C   UNL A   1      32.820  19.379  25.258  1.00  0.00     0.004 C 
ENDBRANCH   8  10
ENDBRANCH   7   8
BRANCH   7  12
ATOM     12  N   UNL A   1      32.810  24.302  25.615  1.00  0.00    -0.198 NA
ATOM     13  H   UNL A   1      33.221  24.499  24.704  1.00  0.00     0.142 HD
BRANCH  12  14
ATOM     14  S   UNL A   1      31.591  25.405  25.721  1.00  0.00     0.241 S 
ATOM     15  O   UNL A   1      31.275  25.743  24.358  1.00  0.00    -0.207 OA
ATOM     16  O   UNL A   1      30.582  24.897  26.630  1.00  0.00    -0.207 OA
BRANCH  14  17
ATOM     17  C   UNL A   1      32.281  26.865  26.440  1.00  0.00     0.082 A 
ATOM     18  C   UNL A   1      31.479  27.782  27.120  1.00  0.00     0.022 A 
ATOM     19  C   UNL A   1      33.624  27.144  26.175  1.00  0.00     0.022 A 
ATOM     20  C   UNL A   1      32.005  29.038  27.433  1.00  0.00     0.005 A 
ATOM     21  C   UNL A   1      34.145  28.391  26.504  1.00  0.00     0.005 A 
ATOM     22  C   UNL A   1      33.321  29.366  27.079  1.00  0.00    -0.051 A 
ATOM     23  C   UNL A   1      33.852  30.752  27.293  1.00  0.00     0.044 C 
ENDBRANCH  14  17
ENDBRANCH  12  14
ENDBRANCH   7  12
ENDBRANCH   4   7
ENDBRANCH   2   3
ENDBRANCH   1   2
BRANCH   1  24
ATOM     24  C   UNL A   1      38.372  22.429  25.542  1.00  0.00     0.023 C 
BRANCH  24  25
ATOM     25  C   UNL A   1      39.436  22.145  26.598  1.00  0.00     0.116 C 
BRANCH  25  26
ATOM     26  N   UNL A   1      40.807  22.405  26.201  1.00  0.00    -0.352 N 
ATOM     27  C   UNL A   1      41.458  23.620  26.061  1.00  0.00     0.251 C 
ATOM     28  H   UNL A   1      41.351  21.608  26.003  1.00  0.00     0.163 HD
ATOM     29  O   UNL A   1      42.562  23.669  25.522  1.00  0.00    -0.269 OA
BRANCH  27  30
ATOM     30  C   UNL A   1      40.874  24.860  26.643  1.00  0.00     0.039 A 
ATOM     31  C   UNL A   1      40.953  26.043  25.894  1.00  0.00     0.014 A 
ATOM     32  C   UNL A   1      40.407  24.913  27.953  1.00  0.00     0.014 A 
ATOM     33  C   UNL A   1      40.779  27.280  26.522  1.00  0.00     0.010 A 
ATOM     34  C   UNL A   1      40.339  26.129  28.601  1.00  0.00     0.010 A 
ATOM     35  C   UNL A   1      40.573  27.314  27.899  1.00  0.00    -0.014 A 
BRANCH  35  36
ATOM     36  C   UNL A   1      40.688  28.509  28.727  1.00  0.00     0.031 A 
ATOM     37  C   UNL A   1      39.590  29.494  28.799  1.00  0.00     0.074 A 
ATOM     38  C   UNL A   1      41.756  28.641  29.543  1.00  0.00     0.049 A 
ATOM     39  N   UNL A   1      39.723  30.695  29.250  1.00  0.00    -0.248 NA
ATOM     40  C   UNL A   1      38.241  29.206  28.329  1.00  0.00     0.031 C 
ATOM     41  C   UNL A   1      41.914  29.557  30.667  1.00  0.00     0.029 A 
ATOM     42  N   UNL A   1      43.030  28.129  29.332  1.00  0.00    -0.354 N 
ATOM     43  C   UNL A   1      38.470  31.247  29.367  1.00  0.00     0.074 A 
ATOM     44  C   UNL A   1      37.583  30.293  28.743  1.00  0.00     0.031 C 
ATOM     45  C   UNL A   1      43.223  29.750  30.888  1.00  0.00     0.029 A 
ATOM     46  C   UNL A   1      43.944  29.085  29.818  1.00  0.00     0.049 A 
ATOM     47  H   UNL A   1      43.253  27.262  28.921  1.00  0.00     0.167 HD
ATOM     48  C   UNL A   1      38.310  32.404  30.071  1.00  0.00     0.034 A 
ATOM     49  C   UNL A   1      44.838  29.674  28.968  1.00  0.00     0.034 A 
ATOM     50  C   UNL A   1      39.587  32.932  30.546  1.00  0.00     0.049 A 
ATOM     51  C   UNL A   1      44.664  31.175  28.837  1.00  0.00     0.074 A 
ATOM     52  C   UNL A   1      40.276  32.877  31.747  1.00  0.00     0.029 A 
ATOM     53  N   UNL A   1      40.479  33.429  29.617  1.00  0.00    -0.354 N 
ATOM     54  N   UNL A   1      43.715  31.860  29.414  1.00  0.00    -0.248 NA
ATOM     55  C   UNL A   1      45.498  32.008  27.969  1.00  0.00     0.031 C 
ATOM     56  C   UNL A   1      41.615  33.304  31.505  1.00  0.00     0.029 A 
ATOM     57  C   UNL A   1      41.725  33.641  30.167  1.00  0.00     0.049 A 
ATOM     58  H   UNL A   1      40.252  33.608  28.675  1.00  0.00     0.167 HD
ATOM     59  C   UNL A   1      43.744  33.150  28.959  1.00  0.00     0.074 A 
ATOM     60  C   UNL A   1      44.887  33.200  28.065  1.00  0.00     0.031 C 
ATOM     61  C   UNL A   1      42.805  34.080  29.298  1.00  0.00     0.034 A 
BRANCH  48  62
ATOM     62  C   UNL A   1      36.981  32.964  30.511  1.00  0.00     0.023 A 
ATOM     63  C   UNL A   1      36.132  33.538  29.541  1.00  0.00     0.031 A 
ATOM     64  C   UNL A   1      36.493  32.981  31.830  1.00  0.00     0.131 A 
ATOM     65  C   UNL A   1      34.927  34.166  29.900  1.00  0.00     0.055 A 
ATOM     66  C   UNL A   1      35.325  33.662  32.198  1.00  0.00     0.041 A 
ATOM     67  F   UNL A   1      37.091  32.294  32.812  1.00  0.00    -0.206 F 
ATOM     68  C   UNL A   1      34.539  34.269  31.232  1.00  0.00     0.022 A 
BRANCH  65  69
ATOM     69  S   UNL A   1      33.864  34.836  28.593  1.00  0.00     0.124 S 
ATOM     70  O   UNL A   1      34.608  34.497  27.384  1.00  0.00    -0.237 OA
ATOM     71  O   UNL A   1      32.617  34.112  28.810  1.00  0.00    -0.237 OA
ATOM     72  O   UNL A   1      33.808  36.264  28.902  1.00  0.00    -0.744 OA
ENDBRANCH  65  69
ENDBRANCH  48  62
BRANCH  49  73
ATOM     73  C   UNL A   1      45.277  28.745  27.879  1.00  0.00     0.023 A 
ATOM     74  C   UNL A   1      46.212  27.751  28.244  1.00  0.00     0.031 A 
ATOM     75  C   UNL A   1      44.517  28.534  26.721  1.00  0.00     0.131 A 
ATOM     76  C   UNL A   1      46.187  26.503  27.611  1.00  0.00     0.055 A 
ATOM     77  C   UNL A   1      44.594  27.327  26.012  1.00  0.00     0.041 A 
ATOM     78  F   UNL A   1      43.592  29.424  26.332  1.00  0.00    -0.206 F 
ATOM     79  C   UNL A   1      45.388  26.283  26.489  1.00  0.00     0.022 A 
BRANCH  76  80
ATOM     80  S   UNL A   1      46.915  25.097  28.508  1.00  0.00     0.124 S 
ATOM     81  O   UNL A   1      45.754  24.239  28.717  1.00  0.00    -0.237 OA
ATOM     82  O   UNL A   1      47.914  24.617  27.553  1.00  0.00    -0.237 OA
ATOM     83  O   UNL A   1      47.478  25.706  29.710  1.00  0.00    -0.744 OA
ENDBRANCH  76  80
ENDBRANCH  49  73
BRANCH  61  84
ATOM     84  C   UNL A   1      42.843  35.490  28.786  1.00  0.00     0.023 A 
ATOM     85  C   UNL A   1      43.196  36.559  29.623  1.00  0.00     0.031 A 
ATOM     86  C   UNL A   1      42.460  35.814  27.468  1.00  0.00     0.131 A 
ATOM     87  C   UNL A   1      43.223  37.873  29.127  1.00  0.00     0.055 A 
ATOM     88  C   UNL A   1      42.398  37.130  27.006  1.00  0.00     0.041 A 
ATOM     89  F   UNL A   1      42.179  34.864  26.563  1.00  0.00    -0.206 F 
ATOM     90  C   UNL A   1      42.793  38.171  27.834  1.00  0.00     0.022 A 
BRANCH  87  91
ATOM     91  S   UNL A   1      43.924  39.173  30.172  1.00  0.00     0.124 S 
ATOM     92  O   UNL A   1      42.871  40.180  30.184  1.00  0.00    -0.237 OA
ATOM     93  O   UNL A   1      44.134  38.458  31.429  1.00  0.00    -0.237 OA
ATOM     94  O   UNL A   1      45.147  39.558  29.469  1.00  0.00    -0.744 OA
ENDBRANCH  87  91
ENDBRANCH  61  84
ENDBRANCH  35  36
ENDBRANCH  27  30
ENDBRANCH  25  26
ENDBRANCH  24  25
ENDBRANCH   1  24
TORSDOF 19
ENDMDL
