MODEL 1
REMARK VINA RESULT:     -12.2      0.000      0.000
REMARK SMILES O=C(N[C@@H]1C=C[C@@H](C(=O)NCCCCNC(=O)c2ccc(-c3c4nc(c(-c5cc(S(=O)(=O)[O-])ccc5F)c5ccc([nH]5)c(-c5cc(S(=O)(=O)[O-])ccc5F)c5nc(c(-c6cc(S(=O)(=O)[O-])ccc6F)c6ccc3[nH]6)C=C5)C=C4)cc2)C1)Oc1ccccc1
REMARK SMILES IDX 12 1 11 2 10 3 8 4 9 5 7 7 4 8 5 9 81 10 6 11 3 12 1 13 2 14
REMARK SMILES IDX 82 16 83 17 84 18 88 19 85 20 87 21 86 22 13 23 14 24 15 25
REMARK SMILES IDX 16 26 17 28 18 29 19 30 80 31 20 32 79 33 21 34 22 35 23 36
REMARK SMILES IDX 73 37 24 38 78 39 72 40 74 41 25 42 77 43 71 44 70 45 26 47
REMARK SMILES IDX 58 48 38 49 57 50 39 51 42 52 56 53 75 54 40 55 41 56 55 58
REMARK SMILES IDX 76 59 43 60 27 61 28 62 36 63 29 64 35 65 37 66 34 67 30 68
REMARK SMILES IDX 31 69 32 70 33 71 59 72 60 73 68 74 61 75 67 76 69 77 66 78
REMARK SMILES IDX 62 79 63 80 64 81 65 82 44 83 45 84 53 85 46 86 52 87 54 88
REMARK SMILES IDX 51 89 47 90 48 91 49 92 50 93
REMARK H PARENT 10 6 3 15 15 27 74 46 42 57
REMARK Flexibility Score: inf
ROOT
ATOM      1  C   UNL A   1      31.860  30.346  26.722  1.00  0.00     0.023 C 
ENDROOT
BRANCH   1   2
ATOM      2  C   UNL A   1      32.825  29.863  25.640  1.00  0.00     0.116 C 
BRANCH   2   3
ATOM      3  N   UNL A   1      32.158  29.679  24.370  1.00  0.00    -0.356 N 
ATOM      4  C   UNL A   1      31.659  28.580  23.750  1.00  0.00     0.227 C 
ATOM      5  O   UNL A   1      31.098  28.774  22.664  1.00  0.00    -0.274 OA
ATOM      6  H   UNL A   1      32.045  30.510  23.855  1.00  0.00     0.163 HD
BRANCH   4   7
ATOM      7  C   UNL A   1      31.675  27.163  24.337  1.00  0.00     0.103 C 
ATOM      8  C   UNL A   1      29.791  25.923  25.341  1.00  0.00     0.109 C 
ATOM      9  C   UNL A   1      30.107  25.464  23.953  1.00  0.00    -0.006 C 
ATOM     10  C   UNL A   1      30.964  26.871  25.666  1.00  0.00     0.047 C 
ATOM     11  C   UNL A   1      31.101  26.158  23.394  1.00  0.00    -0.016 C 
BRANCH   8  12
ATOM     12  N   UNL A   1      29.704  24.765  26.191  1.00  0.00    -0.315 N 
ATOM     13  O   UNL A   1      30.312  23.040  27.476  1.00  0.00    -0.224 OA
ATOM     14  C   UNL A   1      30.670  23.981  26.767  1.00  0.00     0.413 C 
ATOM     15  H   UNL A   1      28.784  24.486  26.397  1.00  0.00     0.167 HD
BRANCH  14  16
ATOM     16  O   UNL A   1      32.050  24.200  26.543  1.00  0.00    -0.410 OA
BRANCH  16  17
ATOM     17  C   UNL A   1      32.944  23.783  25.524  1.00  0.00     0.132 A 
ATOM     18  C   UNL A   1      32.597  22.665  24.770  1.00  0.00     0.047 A 
ATOM     19  C   UNL A   1      34.139  24.462  25.311  1.00  0.00     0.047 A 
ATOM     20  C   UNL A   1      33.419  22.284  23.709  1.00  0.00     0.004 A 
ATOM     21  C   UNL A   1      34.933  24.105  24.222  1.00  0.00     0.004 A 
ATOM     22  C   UNL A   1      34.569  23.024  23.417  1.00  0.00     0.000 A 
ENDBRANCH  16  17
ENDBRANCH  14  16
ENDBRANCH   8  12
ENDBRANCH   4   7
ENDBRANCH   2   3
ENDBRANCH   1   2
BRANCH   1  23
ATOM     23  C   UNL A   1      31.701  31.867  26.789  1.00  0.00     0.023 C 
BRANCH  23  24
ATOM     24  C   UNL A   1      32.891  32.619  27.377  1.00  0.00     0.116 C 
BRANCH  24  25
ATOM     25  N   UNL A   1      32.583  34.007  27.682  1.00  0.00    -0.352 N 
ATOM     26  C   UNL A   1      33.129  34.824  28.646  1.00  0.00     0.251 C 
ATOM     27  H   UNL A   1      31.887  34.420  27.122  1.00  0.00     0.163 HD
ATOM     28  O   UNL A   1      32.631  35.921  28.862  1.00  0.00    -0.269 OA
BRANCH  26  29
ATOM     29  C   UNL A   1      34.291  34.351  29.436  1.00  0.00     0.039 A 
ATOM     30  C   UNL A   1      34.065  33.731  30.667  1.00  0.00     0.014 A 
ATOM     31  C   UNL A   1      35.595  34.500  28.956  1.00  0.00     0.014 A 
ATOM     32  C   UNL A   1      35.143  33.197  31.380  1.00  0.00     0.010 A 
ATOM     33  C   UNL A   1      36.656  33.898  29.630  1.00  0.00     0.010 A 
ATOM     34  C   UNL A   1      36.443  33.239  30.850  1.00  0.00    -0.014 A 
BRANCH  34  35
ATOM     35  C   UNL A   1      37.586  32.598  31.556  1.00  0.00     0.031 A 
ATOM     36  C   UNL A   1      38.321  31.448  30.919  1.00  0.00     0.074 A 
ATOM     37  C   UNL A   1      37.928  33.012  32.793  1.00  0.00     0.049 A 
ATOM     38  N   UNL A   1      39.296  30.720  31.401  1.00  0.00    -0.248 NA
ATOM     39  C   UNL A   1      37.883  31.049  29.574  1.00  0.00     0.031 C 
ATOM     40  C   UNL A   1      37.271  34.093  33.532  1.00  0.00     0.029 A 
ATOM     41  N   UNL A   1      38.908  32.577  33.650  1.00  0.00    -0.354 N 
ATOM     42  C   UNL A   1      39.582  29.773  30.423  1.00  0.00     0.074 A 
ATOM     43  C   UNL A   1      38.631  29.980  29.351  1.00  0.00     0.031 C 
ATOM     44  C   UNL A   1      37.886  34.256  34.714  1.00  0.00     0.029 A 
ATOM     45  C   UNL A   1      38.947  33.261  34.844  1.00  0.00     0.049 A 
ATOM     46  H   UNL A   1      39.527  31.842  33.431  1.00  0.00     0.167 HD
ATOM     47  C   UNL A   1      40.562  28.835  30.409  1.00  0.00     0.034 A 
ATOM     48  C   UNL A   1      39.736  33.099  35.925  1.00  0.00     0.034 A 
ATOM     49  C   UNL A   1      41.508  28.644  31.482  1.00  0.00     0.049 A 
ATOM     50  C   UNL A   1      40.792  32.021  35.902  1.00  0.00     0.074 A 
ATOM     51  C   UNL A   1      42.567  27.755  31.549  1.00  0.00     0.029 A 
ATOM     52  N   UNL A   1      41.505  29.346  32.681  1.00  0.00    -0.354 N 
ATOM     53  N   UNL A   1      41.078  31.164  34.949  1.00  0.00    -0.248 NA
ATOM     54  C   UNL A   1      41.637  31.897  37.097  1.00  0.00     0.031 C 
ATOM     55  C   UNL A   1      43.155  27.865  32.814  1.00  0.00     0.029 A 
ATOM     56  C   UNL A   1      42.522  28.885  33.506  1.00  0.00     0.049 A 
ATOM     57  H   UNL A   1      40.875  30.065  32.912  1.00  0.00     0.167 HD
ATOM     58  C   UNL A   1      42.160  30.423  35.419  1.00  0.00     0.074 A 
ATOM     59  C   UNL A   1      42.483  30.947  36.729  1.00  0.00     0.031 C 
ATOM     60  C   UNL A   1      42.831  29.407  34.816  1.00  0.00     0.034 A 
BRANCH  47  61
ATOM     61  C   UNL A   1      40.642  27.929  29.201  1.00  0.00     0.023 A 
ATOM     62  C   UNL A   1      41.598  28.130  28.189  1.00  0.00     0.031 A 
ATOM     63  C   UNL A   1      39.738  26.863  29.047  1.00  0.00     0.131 A 
ATOM     64  C   UNL A   1      41.580  27.327  27.037  1.00  0.00     0.055 A 
ATOM     65  C   UNL A   1      39.782  26.012  27.940  1.00  0.00     0.041 A 
ATOM     66  F   UNL A   1      38.788  26.634  29.967  1.00  0.00    -0.206 F 
ATOM     67  C   UNL A   1      40.696  26.252  26.919  1.00  0.00     0.022 A 
BRANCH  64  68
ATOM     68  S   UNL A   1      42.627  27.803  25.636  1.00  0.00     0.124 S 
ATOM     69  O   UNL A   1      43.869  28.177  26.309  1.00  0.00    -0.237 OA
ATOM     70  O   UNL A   1      42.670  26.580  24.844  1.00  0.00    -0.237 OA
ATOM     71  O   UNL A   1      41.899  28.915  25.027  1.00  0.00    -0.744 OA
ENDBRANCH  64  68
ENDBRANCH  47  61
BRANCH  48  72
ATOM     72  C   UNL A   1      39.564  33.966  37.128  1.00  0.00     0.023 A 
ATOM     73  C   UNL A   1      38.963  33.470  38.296  1.00  0.00     0.031 A 
ATOM     74  C   UNL A   1      39.948  35.318  37.110  1.00  0.00     0.131 A 
ATOM     75  C   UNL A   1      38.715  34.331  39.376  1.00  0.00     0.055 A 
ATOM     76  C   UNL A   1      39.754  36.157  38.210  1.00  0.00     0.041 A 
ATOM     77  F   UNL A   1      40.529  35.845  36.020  1.00  0.00    -0.206 F 
ATOM     78  C   UNL A   1      39.120  35.667  39.347  1.00  0.00     0.022 A 
BRANCH  75  79
ATOM     79  S   UNL A   1      37.762  33.702  40.787  1.00  0.00     0.124 S 
ATOM     80  O   UNL A   1      37.467  34.929  41.516  1.00  0.00    -0.237 OA
ATOM     81  O   UNL A   1      36.631  33.060  40.126  1.00  0.00    -0.237 OA
ATOM     82  O   UNL A   1      38.695  32.791  41.446  1.00  0.00    -0.744 OA
ENDBRANCH  75  79
ENDBRANCH  48  72
BRANCH  60  83
ATOM     83  C   UNL A   1      44.015  28.830  35.556  1.00  0.00     0.023 A 
ATOM     84  C   UNL A   1      43.888  27.730  36.423  1.00  0.00     0.031 A 
ATOM     85  C   UNL A   1      45.291  29.402  35.398  1.00  0.00     0.131 A 
ATOM     86  C   UNL A   1      45.003  27.277  37.146  1.00  0.00     0.055 A 
ATOM     87  C   UNL A   1      46.409  28.903  36.067  1.00  0.00     0.041 A 
ATOM     88  F   UNL A   1      45.473  30.456  34.587  1.00  0.00    -0.206 F 
ATOM     89  C   UNL A   1      46.265  27.844  36.959  1.00  0.00     0.022 A 
BRANCH  86  90
ATOM     90  S   UNL A   1      44.758  26.004  38.414  1.00  0.00     0.124 S 
ATOM     91  O   UNL A   1      44.150  26.769  39.498  1.00  0.00    -0.237 OA
ATOM     92  O   UNL A   1      43.884  25.052  37.737  1.00  0.00    -0.237 OA
ATOM     93  O   UNL A   1      46.112  25.521  38.680  1.00  0.00    -0.744 OA
ENDBRANCH  86  90
ENDBRANCH  60  83
ENDBRANCH  34  35
ENDBRANCH  26  29
ENDBRANCH  24  25
ENDBRANCH  23  24
ENDBRANCH   1  23
TORSDOF 17
ENDMDL
MODEL 2
REMARK VINA RESULT:     -12.0      6.374     10.875
REMARK SMILES O=C(N[C@@H]1C=C[C@@H](C(=O)NCCCCNC(=O)c2ccc(-c3c4nc(c(-c5cc(S(=O)(=O)[O-])ccc5F)c5ccc([nH]5)c(-c5cc(S(=O)(=O)[O-])ccc5F)c5nc(c(-c6cc(S(=O)(=O)[O-])ccc6F)c6ccc3[nH]6)C=C5)C=C4)cc2)C1)Oc1ccccc1
REMARK SMILES IDX 12 1 11 2 10 3 8 4 9 5 7 7 4 8 5 9 81 10 6 11 3 12 1 13 2 14
REMARK SMILES IDX 82 16 83 17 84 18 88 19 85 20 87 21 86 22 13 23 14 24 15 25
REMARK SMILES IDX 16 26 17 28 18 29 19 30 80 31 20 32 79 33 21 34 22 35 23 36
REMARK SMILES IDX 73 37 24 38 78 39 72 40 74 41 25 42 77 43 71 44 70 45 26 47
REMARK SMILES IDX 58 48 38 49 57 50 39 51 42 52 56 53 75 54 40 55 41 56 55 58
REMARK SMILES IDX 76 59 43 60 27 61 28 62 36 63 29 64 35 65 37 66 34 67 30 68
REMARK SMILES IDX 31 69 32 70 33 71 59 72 60 73 68 74 61 75 67 76 69 77 66 78
REMARK SMILES IDX 62 79 63 80 64 81 65 82 44 83 45 84 53 85 46 86 52 87 54 88
REMARK SMILES IDX 51 89 47 90 48 91 49 92 50 93
REMARK H PARENT 10 6 3 15 15 27 74 46 42 57
REMARK Flexibility Score: inf
ROOT
ATOM      1  C   UNL A   1      41.567  19.896  27.677  1.00  0.00     0.023 C 
ENDROOT
BRANCH   1   2
ATOM      2  C   UNL A   1      41.677  19.120  26.366  1.00  0.00     0.116 C 
BRANCH   2   3
ATOM      3  N   UNL A   1      42.900  18.350  26.300  1.00  0.00    -0.356 N 
ATOM      4  C   UNL A   1      44.071  18.549  25.645  1.00  0.00     0.227 C 
ATOM      5  O   UNL A   1      44.954  17.704  25.837  1.00  0.00    -0.274 OA
ATOM      6  H   UNL A   1      42.878  17.522  26.832  1.00  0.00     0.163 HD
BRANCH   4   7
ATOM      7  C   UNL A   1      44.386  19.769  24.770  1.00  0.00     0.103 C 
ATOM      8  C   UNL A   1      45.865  21.671  25.308  1.00  0.00     0.109 C 
ATOM      9  C   UNL A   1      46.499  20.699  24.364  1.00  0.00    -0.006 C 
ATOM     10  C   UNL A   1      44.406  21.175  25.386  1.00  0.00     0.047 C 
ATOM     11  C   UNL A   1      45.716  19.651  24.101  1.00  0.00    -0.016 C 
BRANCH   8  12
ATOM     12  N   UNL A   1      46.018  22.995  24.765  1.00  0.00    -0.315 N 
ATOM     13  O   UNL A   1      46.577  25.152  24.589  1.00  0.00    -0.224 OA
ATOM     14  C   UNL A   1      46.561  24.140  25.289  1.00  0.00     0.413 C 
ATOM     15  H   UNL A   1      45.672  23.097  23.850  1.00  0.00     0.167 HD
BRANCH  14  16
ATOM     16  O   UNL A   1      47.064  24.197  26.610  1.00  0.00    -0.410 OA
BRANCH  16  17
ATOM     17  C   UNL A   1      46.450  24.389  27.874  1.00  0.00     0.132 A 
ATOM     18  C   UNL A   1      47.071  25.249  28.776  1.00  0.00     0.047 A 
ATOM     19  C   UNL A   1      45.277  23.716  28.200  1.00  0.00     0.047 A 
ATOM     20  C   UNL A   1      46.444  25.519  29.993  1.00  0.00     0.004 A 
ATOM     21  C   UNL A   1      44.633  24.024  29.397  1.00  0.00     0.004 A 
ATOM     22  C   UNL A   1      45.210  24.931  30.288  1.00  0.00     0.000 A 
ENDBRANCH  16  17
ENDBRANCH  14  16
ENDBRANCH   8  12
ENDBRANCH   4   7
ENDBRANCH   2   3
ENDBRANCH   1   2
BRANCH   1  23
ATOM     23  C   UNL A   1      41.192  21.371  27.505  1.00  0.00     0.023 C 
BRANCH  23  24
ATOM     24  C   UNL A   1      40.885  21.800  26.075  1.00  0.00     0.116 C 
BRANCH  24  25
ATOM     25  N   UNL A   1      39.461  21.983  25.837  1.00  0.00    -0.352 N 
ATOM     26  C   UNL A   1      38.653  23.040  26.189  1.00  0.00     0.251 C 
ATOM     27  H   UNL A   1      39.013  21.248  25.359  1.00  0.00     0.163 HD
ATOM     28  O   UNL A   1      37.441  22.949  26.045  1.00  0.00    -0.269 OA
BRANCH  26  29
ATOM     29  C   UNL A   1      39.257  24.264  26.770  1.00  0.00     0.039 A 
ATOM     30  C   UNL A   1      39.960  25.134  25.934  1.00  0.00     0.014 A 
ATOM     31  C   UNL A   1      39.112  24.561  28.128  1.00  0.00     0.014 A 
ATOM     32  C   UNL A   1      40.455  26.336  26.447  1.00  0.00     0.010 A 
ATOM     33  C   UNL A   1      39.538  25.794  28.618  1.00  0.00     0.010 A 
ATOM     34  C   UNL A   1      40.214  26.697  27.783  1.00  0.00    -0.014 A 
BRANCH  34  35
ATOM     35  C   UNL A   1      40.658  28.012  28.320  1.00  0.00     0.031 A 
ATOM     36  C   UNL A   1      42.127  28.315  28.463  1.00  0.00     0.074 A 
ATOM     37  C   UNL A   1      39.743  28.913  28.731  1.00  0.00     0.049 A 
ATOM     38  N   UNL A   1      42.709  29.373  28.967  1.00  0.00    -0.248 NA
ATOM     39  C   UNL A   1      43.062  27.279  28.003  1.00  0.00     0.031 C 
ATOM     40  C   UNL A   1      38.291  28.726  28.677  1.00  0.00     0.029 A 
ATOM     41  N   UNL A   1      39.892  30.165  29.276  1.00  0.00    -0.354 N 
ATOM     42  C   UNL A   1      44.076  29.127  28.893  1.00  0.00     0.074 A 
ATOM     43  C   UNL A   1      44.230  27.791  28.356  1.00  0.00     0.031 C 
ATOM     44  C   UNL A   1      37.686  29.832  29.138  1.00  0.00     0.029 A 
ATOM     45  C   UNL A   1      38.700  30.789  29.569  1.00  0.00     0.049 A 
ATOM     46  H   UNL A   1      40.771  30.578  29.441  1.00  0.00     0.167 HD
ATOM     47  C   UNL A   1      45.107  29.948  29.217  1.00  0.00     0.034 A 
ATOM     48  C   UNL A   1      38.451  31.989  30.132  1.00  0.00     0.034 A 
ATOM     49  C   UNL A   1      44.937  31.280  29.745  1.00  0.00     0.049 A 
ATOM     50  C   UNL A   1      39.615  32.866  30.523  1.00  0.00     0.074 A 
ATOM     51  C   UNL A   1      45.912  32.210  30.062  1.00  0.00     0.029 A 
ATOM     52  N   UNL A   1      43.716  31.871  30.043  1.00  0.00    -0.354 N 
ATOM     53  N   UNL A   1      40.902  32.635  30.402  1.00  0.00    -0.248 NA
ATOM     54  C   UNL A   1      39.290  34.170  31.116  1.00  0.00     0.031 C 
ATOM     55  C   UNL A   1      45.286  33.330  30.622  1.00  0.00     0.029 A 
ATOM     56  C   UNL A   1      43.915  33.138  30.572  1.00  0.00     0.049 A 
ATOM     57  H   UNL A   1      42.837  31.453  29.898  1.00  0.00     0.167 HD
ATOM     58  C   UNL A   1      41.538  33.782  30.872  1.00  0.00     0.074 A 
ATOM     59  C   UNL A   1      40.493  34.705  31.261  1.00  0.00     0.031 C 
ATOM     60  C   UNL A   1      42.866  34.049  30.967  1.00  0.00     0.034 A 
BRANCH  47  61
ATOM     61  C   UNL A   1      46.508  29.413  29.029  1.00  0.00     0.023 A 
ATOM     62  C   UNL A   1      47.064  29.230  27.750  1.00  0.00     0.031 A 
ATOM     63  C   UNL A   1      47.293  29.063  30.142  1.00  0.00     0.131 A 
ATOM     64  C   UNL A   1      48.331  28.642  27.613  1.00  0.00     0.055 A 
ATOM     65  C   UNL A   1      48.589  28.560  30.001  1.00  0.00     0.041 A 
ATOM     66  F   UNL A   1      46.811  29.193  31.388  1.00  0.00    -0.206 F 
ATOM     67  C   UNL A   1      49.109  28.332  28.731  1.00  0.00     0.022 A 
BRANCH  64  68
ATOM     68  S   UNL A   1      48.882  28.152  25.957  1.00  0.00     0.124 S 
ATOM     69  O   UNL A   1      49.165  26.731  26.149  1.00  0.00    -0.237 OA
ATOM     70  O   UNL A   1      47.723  28.468  25.132  1.00  0.00    -0.237 OA
ATOM     71  O   UNL A   1      50.059  28.988  25.726  1.00  0.00    -0.744 OA
ENDBRANCH  64  68
ENDBRANCH  47  61
BRANCH  48  72
ATOM     72  C   UNL A   1      37.048  32.438  30.372  1.00  0.00     0.023 A 
ATOM     73  C   UNL A   1      36.271  32.969  29.330  1.00  0.00     0.031 A 
ATOM     74  C   UNL A   1      36.481  32.393  31.657  1.00  0.00     0.131 A 
ATOM     75  C   UNL A   1      34.993  33.482  29.600  1.00  0.00     0.055 A 
ATOM     76  C   UNL A   1      35.186  32.850  31.910  1.00  0.00     0.041 A 
ATOM     77  F   UNL A   1      37.179  31.894  32.691  1.00  0.00    -0.206 F 
ATOM     78  C   UNL A   1      34.439  33.412  30.880  1.00  0.00     0.022 A 
BRANCH  75  79
ATOM     79  S   UNL A   1      34.100  34.334  28.270  1.00  0.00     0.124 S 
ATOM     80  O   UNL A   1      33.670  35.556  28.938  1.00  0.00    -0.237 OA
ATOM     81  O   UNL A   1      35.140  34.488  27.258  1.00  0.00    -0.237 OA
ATOM     82  O   UNL A   1      33.031  33.400  27.926  1.00  0.00    -0.744 OA
ENDBRANCH  75  79
ENDBRANCH  48  72
BRANCH  60  83
ATOM     83  C   UNL A   1      43.259  35.419  31.467  1.00  0.00     0.023 A 
ATOM     84  C   UNL A   1      43.512  36.489  30.590  1.00  0.00     0.031 A 
ATOM     85  C   UNL A   1      43.396  35.653  32.848  1.00  0.00     0.131 A 
ATOM     86  C   UNL A   1      43.947  37.723  31.098  1.00  0.00     0.055 A 
ATOM     87  C   UNL A   1      43.763  36.902  33.351  1.00  0.00     0.041 A 
ATOM     88  F   UNL A   1      43.172  34.669  33.734  1.00  0.00    -0.206 F 
ATOM     89  C   UNL A   1      44.056  37.941  32.473  1.00  0.00     0.022 A 
BRANCH  86  90
ATOM     90  S   UNL A   1      44.472  39.008  29.930  1.00  0.00     0.124 S 
ATOM     91  O   UNL A   1      45.824  39.304  30.394  1.00  0.00    -0.237 OA
ATOM     92  O   UNL A   1      44.376  38.322  28.646  1.00  0.00    -0.237 OA
ATOM     93  O   UNL A   1      43.497  40.077  30.136  1.00  0.00    -0.744 OA
ENDBRANCH  86  90
ENDBRANCH  60  83
ENDBRANCH  34  35
ENDBRANCH  26  29
ENDBRANCH  24  25
ENDBRANCH  23  24
ENDBRANCH   1  23
TORSDOF 17
ENDMDL
MODEL 3
REMARK VINA RESULT:     -11.8      5.659      8.702
REMARK SMILES O=C(N[C@@H]1C=C[C@@H](C(=O)NCCCCNC(=O)c2ccc(-c3c4nc(c(-c5cc(S(=O)(=O)[O-])ccc5F)c5ccc([nH]5)c(-c5cc(S(=O)(=O)[O-])ccc5F)c5nc(c(-c6cc(S(=O)(=O)[O-])ccc6F)c6ccc3[nH]6)C=C5)C=C4)cc2)C1)Oc1ccccc1
REMARK SMILES IDX 12 1 11 2 10 3 8 4 9 5 7 7 4 8 5 9 81 10 6 11 3 12 1 13 2 14
REMARK SMILES IDX 82 16 83 17 84 18 88 19 85 20 87 21 86 22 13 23 14 24 15 25
REMARK SMILES IDX 16 26 17 28 18 29 19 30 80 31 20 32 79 33 21 34 22 35 23 36
REMARK SMILES IDX 73 37 24 38 78 39 72 40 74 41 25 42 77 43 71 44 70 45 26 47
REMARK SMILES IDX 58 48 38 49 57 50 39 51 42 52 56 53 75 54 40 55 41 56 55 58
REMARK SMILES IDX 76 59 43 60 27 61 28 62 36 63 29 64 35 65 37 66 34 67 30 68
REMARK SMILES IDX 31 69 32 70 33 71 59 72 60 73 68 74 61 75 67 76 69 77 66 78
REMARK SMILES IDX 62 79 63 80 64 81 65 82 44 83 45 84 53 85 46 86 52 87 54 88
REMARK SMILES IDX 51 89 47 90 48 91 49 92 50 93
REMARK H PARENT 10 6 3 15 15 27 74 46 42 57
REMARK Flexibility Score: inf
ROOT
ATOM      1  C   UNL A   1      34.676  22.984  26.791  1.00  0.00     0.023 C 
ENDROOT
BRANCH   1   2
ATOM      2  C   UNL A   1      33.157  22.841  26.718  1.00  0.00     0.116 C 
BRANCH   2   3
ATOM      3  N   UNL A   1      32.764  21.531  26.247  1.00  0.00    -0.356 N 
ATOM      4  C   UNL A   1      32.280  21.095  25.057  1.00  0.00     0.227 C 
ATOM      5  O   UNL A   1      32.080  19.877  24.963  1.00  0.00    -0.274 OA
ATOM      6  H   UNL A   1      32.866  20.819  26.919  1.00  0.00     0.163 HD
BRANCH   4   7
ATOM      7  C   UNL A   1      32.050  21.983  23.829  1.00  0.00     0.103 C 
ATOM      8  C   UNL A   1      32.278  24.436  23.674  1.00  0.00     0.109 C 
ATOM      9  C   UNL A   1      33.436  23.712  23.064  1.00  0.00    -0.006 C 
ATOM     10  C   UNL A   1      31.275  23.301  23.963  1.00  0.00     0.047 C 
ATOM     11  C   UNL A   1      33.333  22.386  23.179  1.00  0.00    -0.016 C 
BRANCH   8  12
ATOM     12  N   UNL A   1      31.814  25.420  22.732  1.00  0.00    -0.315 N 
ATOM     13  O   UNL A   1      30.830  27.247  21.902  1.00  0.00    -0.224 OA
ATOM     14  C   UNL A   1      31.082  26.568  22.897  1.00  0.00     0.413 C 
ATOM     15  H   UNL A   1      32.068  25.236  21.800  1.00  0.00     0.167 HD
BRANCH  14  16
ATOM     16  O   UNL A   1      30.586  26.969  24.160  1.00  0.00    -0.410 OA
BRANCH  16  17
ATOM     17  C   UNL A   1      31.098  27.813  25.178  1.00  0.00     0.132 A 
ATOM     18  C   UNL A   1      31.409  29.128  24.839  1.00  0.00     0.047 A 
ATOM     19  C   UNL A   1      31.303  27.326  26.464  1.00  0.00     0.047 A 
ATOM     20  C   UNL A   1      31.836  30.000  25.841  1.00  0.00     0.004 A 
ATOM     21  C   UNL A   1      31.686  28.213  27.469  1.00  0.00     0.004 A 
ATOM     22  C   UNL A   1      31.943  29.550  27.160  1.00  0.00     0.000 A 
ENDBRANCH  16  17
ENDBRANCH  14  16
ENDBRANCH   8  12
ENDBRANCH   4   7
ENDBRANCH   2   3
ENDBRANCH   1   2
BRANCH   1  23
ATOM     23  C   UNL A   1      35.447  21.886  26.053  1.00  0.00     0.023 C 
BRANCH  23  24
ATOM     24  C   UNL A   1      36.806  22.305  25.502  1.00  0.00     0.116 C 
BRANCH  24  25
ATOM     25  N   UNL A   1      37.833  21.296  25.713  1.00  0.00    -0.352 N 
ATOM     26  C   UNL A   1      39.116  21.453  26.186  1.00  0.00     0.251 C 
ATOM     27  H   UNL A   1      37.574  20.374  25.486  1.00  0.00     0.163 HD
ATOM     28  O   UNL A   1      39.894  20.509  26.147  1.00  0.00    -0.269 OA
BRANCH  26  29
ATOM     29  C   UNL A   1      39.552  22.772  26.704  1.00  0.00     0.039 A 
ATOM     30  C   UNL A   1      40.612  22.826  27.611  1.00  0.00     0.014 A 
ATOM     31  C   UNL A   1      38.931  23.951  26.281  1.00  0.00     0.014 A 
ATOM     32  C   UNL A   1      41.095  24.067  28.037  1.00  0.00     0.010 A 
ATOM     33  C   UNL A   1      39.464  25.186  26.645  1.00  0.00     0.010 A 
ATOM     34  C   UNL A   1      40.553  25.259  27.527  1.00  0.00    -0.014 A 
BRANCH  34  35
ATOM     35  C   UNL A   1      41.114  26.585  27.904  1.00  0.00     0.031 A 
ATOM     36  C   UNL A   1      42.550  26.916  27.592  1.00  0.00     0.074 A 
ATOM     37  C   UNL A   1      40.350  27.471  28.575  1.00  0.00     0.049 A 
ATOM     38  N   UNL A   1      43.238  27.988  27.896  1.00  0.00    -0.248 NA
ATOM     39  C   UNL A   1      43.320  25.895  26.868  1.00  0.00     0.031 C 
ATOM     40  C   UNL A   1      38.955  27.255  28.966  1.00  0.00     0.029 A 
ATOM     41  N   UNL A   1      40.634  28.727  29.049  1.00  0.00    -0.354 N 
ATOM     42  C   UNL A   1      44.521  27.767  27.408  1.00  0.00     0.074 A 
ATOM     43  C   UNL A   1      44.531  26.432  26.848  1.00  0.00     0.031 C 
ATOM     44  C   UNL A   1      38.498  28.352  29.591  1.00  0.00     0.029 A 
ATOM     45  C   UNL A   1      39.576  29.331  29.693  1.00  0.00     0.049 A 
ATOM     46  H   UNL A   1      41.513  29.158  28.940  1.00  0.00     0.167 HD
ATOM     47  C   UNL A   1      45.586  28.609  27.403  1.00  0.00     0.034 A 
ATOM     48  C   UNL A   1      39.488  30.528  30.306  1.00  0.00     0.034 A 
ATOM     49  C   UNL A   1      45.560  29.940  27.959  1.00  0.00     0.049 A 
ATOM     50  C   UNL A   1      40.698  31.429  30.325  1.00  0.00     0.074 A 
ATOM     51  C   UNL A   1      46.566  30.890  27.965  1.00  0.00     0.029 A 
ATOM     52  N   UNL A   1      44.476  30.509  28.615  1.00  0.00    -0.354 N 
ATOM     53  N   UNL A   1      41.891  31.222  29.816  1.00  0.00    -0.248 NA
ATOM     54  C   UNL A   1      40.544  32.730  30.990  1.00  0.00     0.031 C 
ATOM     55  C   UNL A   1      46.119  32.001  28.690  1.00  0.00     0.029 A 
ATOM     56  C   UNL A   1      44.802  31.782  29.060  1.00  0.00     0.049 A 
ATOM     57  H   UNL A   1      43.603  30.074  28.745  1.00  0.00     0.167 HD
ATOM     58  C   UNL A   1      42.618  32.383  30.071  1.00  0.00     0.074 A 
ATOM     59  C   UNL A   1      41.724  33.288  30.761  1.00  0.00     0.031 C 
ATOM     60  C   UNL A   1      43.906  32.676  29.756  1.00  0.00     0.034 A 
BRANCH  47  61
ATOM     61  C   UNL A   1      46.873  28.099  26.796  1.00  0.00     0.023 A 
ATOM     62  C   UNL A   1      47.107  28.148  25.410  1.00  0.00     0.031 A 
ATOM     63  C   UNL A   1      47.873  27.540  27.611  1.00  0.00     0.131 A 
ATOM     64  C   UNL A   1      48.273  27.579  24.874  1.00  0.00     0.055 A 
ATOM     65  C   UNL A   1      49.071  27.055  27.080  1.00  0.00     0.041 A 
ATOM     66  F   UNL A   1      47.701  27.444  28.938  1.00  0.00    -0.206 F 
ATOM     67  C   UNL A   1      49.270  27.058  25.703  1.00  0.00     0.022 A 
BRANCH  64  68
ATOM     68  S   UNL A   1      48.397  27.395  23.075  1.00  0.00     0.124 S 
ATOM     69  O   UNL A   1      49.743  27.906  22.819  1.00  0.00    -0.237 OA
ATOM     70  O   UNL A   1      48.211  25.961  22.890  1.00  0.00    -0.237 OA
ATOM     71  O   UNL A   1      47.314  28.236  22.569  1.00  0.00    -0.744 OA
ENDBRANCH  64  68
ENDBRANCH  47  61
BRANCH  48  72
ATOM     72  C   UNL A   1      38.216  30.952  30.963  1.00  0.00     0.023 A 
ATOM     73  C   UNL A   1      37.216  31.621  30.238  1.00  0.00     0.031 A 
ATOM     74  C   UNL A   1      38.004  30.743  32.336  1.00  0.00     0.131 A 
ATOM     75  C   UNL A   1      36.076  32.103  30.899  1.00  0.00     0.055 A 
ATOM     76  C   UNL A   1      36.840  31.172  32.978  1.00  0.00     0.041 A 
ATOM     77  F   UNL A   1      38.925  30.107  33.078  1.00  0.00    -0.206 F 
ATOM     78  C   UNL A   1      35.873  31.870  32.261  1.00  0.00     0.022 A 
BRANCH  75  79
ATOM     79  S   UNL A   1      34.903  33.130  29.970  1.00  0.00     0.124 S 
ATOM     80  O   UNL A   1      34.092  33.695  31.040  1.00  0.00    -0.237 OA
ATOM     81  O   UNL A   1      35.794  34.057  29.280  1.00  0.00    -0.237 OA
ATOM     82  O   UNL A   1      34.220  32.168  29.108  1.00  0.00    -0.744 OA
ENDBRANCH  75  79
ENDBRANCH  48  72
BRANCH  60  83
ATOM     83  C   UNL A   1      44.406  34.055  30.115  1.00  0.00     0.023 A 
ATOM     84  C   UNL A   1      44.292  35.142  29.229  1.00  0.00     0.031 A 
ATOM     85  C   UNL A   1      45.020  34.282  31.360  1.00  0.00     0.131 A 
ATOM     86  C   UNL A   1      44.839  36.387  29.576  1.00  0.00     0.055 A 
ATOM     87  C   UNL A   1      45.500  35.539  31.727  1.00  0.00     0.041 A 
ATOM     88  F   UNL A   1      45.161  33.282  32.246  1.00  0.00    -0.206 F 
ATOM     89  C   UNL A   1      45.425  36.597  30.826  1.00  0.00     0.022 A 
BRANCH  86  90
ATOM     90  S   UNL A   1      44.869  37.703  28.327  1.00  0.00     0.124 S 
ATOM     91  O   UNL A   1      45.330  36.986  27.143  1.00  0.00    -0.237 OA
ATOM     92  O   UNL A   1      43.478  38.143  28.304  1.00  0.00    -0.237 OA
ATOM     93  O   UNL A   1      45.817  38.673  28.874  1.00  0.00    -0.744 OA
ENDBRANCH  86  90
ENDBRANCH  60  83
ENDBRANCH  34  35
ENDBRANCH  26  29
ENDBRANCH  24  25
ENDBRANCH  23  24
ENDBRANCH   1  23
TORSDOF 17
ENDMDL
