MODEL 1
REMARK VINA RESULT:     -12.3      0.000      0.000
REMARK SMILES Cc1cc2c(c(C)c1Cl)C=C(C(=O)NCCCCNC(=O)c1ccc(-c3c4nc(c(-c5cc(S(=O)(=O)[O-])ccc5F)c5ccc([nH]5)c(-c5cc(S(=O)(=O)[O-])ccc5F)c5nc(c(-c6cc(S(=O)(=O)[O-])ccc6F)c6ccc3[nH]6)C=C5)C=C4)cc1)[C@@H](C(F)(F)F)O2
REMARK SMILES IDX 17 1 16 2 15 3 14 4 12 5 13 6 11 8 1 9 2 10 3 11 8 12 4 13
REMARK SMILES IDX 6 14 9 15 5 16 90 17 7 18 10 19 85 20 86 21 87 22 88 23
REMARK SMILES IDX 89 24 18 25 19 26 20 27 21 29 22 30 23 31 84 32 24 33 83 34
REMARK SMILES IDX 25 35 26 36 27 37 77 38 28 39 82 40 76 41 78 42 29 43 81 44
REMARK SMILES IDX 75 45 74 46 30 48 62 49 42 50 61 51 43 52 46 53 60 54 79 55
REMARK SMILES IDX 44 56 45 57 59 59 80 60 47 61 31 62 32 63 40 64 33 65 39 66
REMARK SMILES IDX 41 67 38 68 34 69 35 70 36 71 37 72 63 73 64 74 72 75 65 76
REMARK SMILES IDX 71 77 73 78 70 79 66 80 67 81 68 82 69 83 48 84 49 85 57 86
REMARK SMILES IDX 50 87 56 88 58 89 55 90 51 91 52 92 53 93 54 94
REMARK H PARENT 14 7 19 28 78 47 46 58
REMARK Flexibility Score: inf
ROOT
ATOM      1  C   UNL A   1      32.248  31.010  26.649  1.00  0.00     0.023 C 
ENDROOT
BRANCH   1   2
ATOM      2  C   UNL A   1      32.141  29.603  27.244  1.00  0.00     0.023 C 
BRANCH   2   3
ATOM      3  C   UNL A   1      33.335  28.703  26.937  1.00  0.00     0.116 C 
BRANCH   3   4
ATOM      4  N   UNL A   1      33.791  28.855  25.568  1.00  0.00    -0.352 N 
ATOM      5  C   UNL A   1      33.884  28.077  24.466  1.00  0.00     0.251 C 
ATOM      6  O   UNL A   1      34.361  28.630  23.468  1.00  0.00    -0.270 OA
ATOM      7  H   UNL A   1      34.120  29.767  25.395  1.00  0.00     0.163 HD
BRANCH   5   8
ATOM      8  C   UNL A   1      33.460  26.647  24.377  1.00  0.00     0.067 C 
ATOM      9  C   UNL A   1      32.812  20.173  24.570  1.00  0.00     0.046 C 
ATOM     10  C   UNL A   1      33.328  21.587  24.578  1.00  0.00    -0.028 A 
ATOM     11  C   UNL A   1      32.379  22.606  24.431  1.00  0.00     0.052 A 
ATOM     12  C   UNL A   1      34.679  21.942  24.763  1.00  0.00     0.047 A 
ATOM     13  C   UNL A   1      32.761  23.943  24.452  1.00  0.00     0.128 A 
ATOM     14  C   UNL A   1      35.083  23.302  24.774  1.00  0.00    -0.021 A 
ATOM     15  Cl  UNL A   1      35.854  20.684  25.007  1.00  0.00    -0.084 Cl
ATOM     16  C   UNL A   1      34.097  24.309  24.636  1.00  0.00     0.022 A 
ATOM     17  O   UNL A   1      31.746  24.849  24.333  1.00  0.00    -0.475 OA
ATOM     18  C   UNL A   1      36.530  23.702  24.957  1.00  0.00     0.047 C 
ATOM     19  C   UNL A   1      34.393  25.742  24.726  1.00  0.00     0.026 C 
ATOM     20  C   UNL A   1      32.116  26.185  23.896  1.00  0.00     0.314 C 
BRANCH  20  21
ATOM     21  C   UNL A   1      31.964  26.284  22.368  1.00  0.00     0.429 C 
ATOM     22  F   UNL A   1      31.379  27.459  22.025  1.00  0.00    -0.167 F 
ATOM     23  F   UNL A   1      33.153  26.243  21.723  1.00  0.00    -0.167 F 
ATOM     24  F   UNL A   1      31.203  25.290  21.855  1.00  0.00    -0.167 F 
ENDBRANCH  20  21
ENDBRANCH   5   8
ENDBRANCH   3   4
ENDBRANCH   2   3
ENDBRANCH   1   2
BRANCH   1  25
ATOM     25  C   UNL A   1      33.242  31.943  27.338  1.00  0.00     0.116 C 
BRANCH  25  26
ATOM     26  N   UNL A   1      32.743  33.298  27.526  1.00  0.00    -0.352 N 
ATOM     27  C   UNL A   1      33.177  34.238  28.433  1.00  0.00     0.251 C 
ATOM     28  H   UNL A   1      32.007  33.575  26.934  1.00  0.00     0.163 HD
ATOM     29  O   UNL A   1      32.618  35.326  28.520  1.00  0.00    -0.269 OA
BRANCH  27  30
ATOM     30  C   UNL A   1      34.294  33.883  29.326  1.00  0.00     0.039 A 
ATOM     31  C   UNL A   1      34.028  33.103  30.453  1.00  0.00     0.014 A 
ATOM     32  C   UNL A   1      35.604  34.225  28.979  1.00  0.00     0.014 A 
ATOM     33  C   UNL A   1      35.093  32.591  31.192  1.00  0.00     0.010 A 
ATOM     34  C   UNL A   1      36.664  33.667  29.684  1.00  0.00     0.010 A 
ATOM     35  C   UNL A   1      36.416  32.832  30.786  1.00  0.00    -0.014 A 
BRANCH  35  36
ATOM     36  C   UNL A   1      37.552  32.201  31.499  1.00  0.00     0.031 A 
ATOM     37  C   UNL A   1      38.308  31.076  30.858  1.00  0.00     0.074 A 
ATOM     38  C   UNL A   1      37.872  32.621  32.738  1.00  0.00     0.049 A 
ATOM     39  N   UNL A   1      39.309  30.380  31.330  1.00  0.00    -0.248 NA
ATOM     40  C   UNL A   1      37.863  30.663  29.518  1.00  0.00     0.031 C 
ATOM     41  C   UNL A   1      37.182  33.682  33.477  1.00  0.00     0.029 A 
ATOM     42  N   UNL A   1      38.866  32.216  33.590  1.00  0.00    -0.354 N 
ATOM     43  C   UNL A   1      39.615  29.448  30.346  1.00  0.00     0.074 A 
ATOM     44  C   UNL A   1      38.652  29.626  29.281  1.00  0.00     0.031 C 
ATOM     45  C   UNL A   1      37.804  33.874  34.652  1.00  0.00     0.029 A 
ATOM     46  C   UNL A   1      38.913  32.933  34.762  1.00  0.00     0.049 A 
ATOM     47  H   UNL A   1      39.486  31.480  33.384  1.00  0.00     0.167 HD
ATOM     48  C   UNL A   1      40.628  28.546  30.320  1.00  0.00     0.034 A 
ATOM     49  C   UNL A   1      39.762  32.846  35.804  1.00  0.00     0.034 A 
ATOM     50  C   UNL A   1      41.588  28.386  31.381  1.00  0.00     0.049 A 
ATOM     51  C   UNL A   1      40.862  31.821  35.767  1.00  0.00     0.074 A 
ATOM     52  C   UNL A   1      42.670  27.526  31.444  1.00  0.00     0.029 A 
ATOM     53  N   UNL A   1      41.584  29.107  32.567  1.00  0.00    -0.354 N 
ATOM     54  N   UNL A   1      41.141  30.949  34.827  1.00  0.00    -0.248 NA
ATOM     55  C   UNL A   1      41.757  31.766  36.930  1.00  0.00     0.031 C 
ATOM     56  C   UNL A   1      43.295  27.699  32.685  1.00  0.00     0.029 A 
ATOM     57  C   UNL A   1      42.631  28.701  33.375  1.00  0.00     0.049 A 
ATOM     58  H   UNL A   1      40.929  29.806  32.800  1.00  0.00     0.167 HD
ATOM     59  C   UNL A   1      42.255  30.251  35.279  1.00  0.00     0.074 A 
ATOM     60  C   UNL A   1      42.597  30.803  36.575  1.00  0.00     0.031 C 
ATOM     61  C   UNL A   1      42.939  29.250  34.672  1.00  0.00     0.034 A 
BRANCH  48  62
ATOM     62  C   UNL A   1      40.723  27.666  29.103  1.00  0.00     0.023 A 
ATOM     63  C   UNL A   1      41.650  27.940  28.081  1.00  0.00     0.031 A 
ATOM     64  C   UNL A   1      39.855  26.575  28.936  1.00  0.00     0.131 A 
ATOM     65  C   UNL A   1      41.636  27.179  26.905  1.00  0.00     0.055 A 
ATOM     66  C   UNL A   1      39.896  25.775  27.792  1.00  0.00     0.041 A 
ATOM     67  F   UNL A   1      38.938  26.282  29.872  1.00  0.00    -0.206 F 
ATOM     68  C   UNL A   1      40.781  26.083  26.762  1.00  0.00     0.022 A 
BRANCH  65  69
ATOM     69  S   UNL A   1      42.669  27.714  25.515  1.00  0.00     0.124 S 
ATOM     70  O   UNL A   1      41.903  28.847  25.001  1.00  0.00    -0.237 OA
ATOM     71  O   UNL A   1      43.933  28.041  26.164  1.00  0.00    -0.237 OA
ATOM     72  O   UNL A   1      42.702  26.543  24.641  1.00  0.00    -0.744 OA
ENDBRANCH  65  69
ENDBRANCH  48  62
BRANCH  49  73
ATOM     73  C   UNL A   1      39.617  33.767  36.960  1.00  0.00     0.023 A 
ATOM     74  C   UNL A   1      38.991  33.339  38.141  1.00  0.00     0.031 A 
ATOM     75  C   UNL A   1      40.109  35.082  36.904  1.00  0.00     0.131 A 
ATOM     76  C   UNL A   1      38.856  34.228  39.218  1.00  0.00     0.055 A 
ATOM     77  C   UNL A   1      39.995  35.954  37.988  1.00  0.00     0.041 A 
ATOM     78  F   UNL A   1      40.729  35.527  35.800  1.00  0.00    -0.206 F 
ATOM     79  C   UNL A   1      39.362  35.530  39.153  1.00  0.00     0.022 A 
BRANCH  76  80
ATOM     80  S   UNL A   1      38.005  33.660  40.715  1.00  0.00     0.124 S 
ATOM     81  O   UNL A   1      38.998  32.764  41.299  1.00  0.00    -0.237 OA
ATOM     82  O   UNL A   1      37.770  34.912  41.428  1.00  0.00    -0.237 OA
ATOM     83  O   UNL A   1      36.804  33.010  40.196  1.00  0.00    -0.744 OA
ENDBRANCH  76  80
ENDBRANCH  49  73
BRANCH  61  84
ATOM     84  C   UNL A   1      44.136  28.702  35.398  1.00  0.00     0.023 A 
ATOM     85  C   UNL A   1      44.003  27.692  36.364  1.00  0.00     0.031 A 
ATOM     86  C   UNL A   1      45.424  29.173  35.089  1.00  0.00     0.131 A 
ATOM     87  C   UNL A   1      45.146  27.198  37.010  1.00  0.00     0.055 A 
ATOM     88  C   UNL A   1      46.559  28.652  35.709  1.00  0.00     0.041 A 
ATOM     89  F   UNL A   1      45.595  30.137  34.169  1.00  0.00    -0.206 F 
ATOM     90  C   UNL A   1      46.422  27.662  36.678  1.00  0.00     0.022 A 
BRANCH  87  91
ATOM     91  S   UNL A   1      44.946  25.942  38.303  1.00  0.00     0.124 S 
ATOM     92  O   UNL A   1      43.939  25.064  37.715  1.00  0.00    -0.237 OA
ATOM     93  O   UNL A   1      46.289  25.384  38.417  1.00  0.00    -0.237 OA
ATOM     94  O   UNL A   1      44.497  26.713  39.461  1.00  0.00    -0.744 OA
ENDBRANCH  87  91
ENDBRANCH  61  84
ENDBRANCH  35  36
ENDBRANCH  27  30
ENDBRANCH  25  26
ENDBRANCH   1  25
TORSDOF 15
ENDMDL
MODEL 2
REMARK VINA RESULT:     -12.3      1.488      7.886
REMARK SMILES Cc1cc2c(c(C)c1Cl)C=C(C(=O)NCCCCNC(=O)c1ccc(-c3c4nc(c(-c5cc(S(=O)(=O)[O-])ccc5F)c5ccc([nH]5)c(-c5cc(S(=O)(=O)[O-])ccc5F)c5nc(c(-c6cc(S(=O)(=O)[O-])ccc6F)c6ccc3[nH]6)C=C5)C=C4)cc1)[C@@H](C(F)(F)F)O2
REMARK SMILES IDX 17 1 16 2 15 3 14 4 12 5 13 6 11 8 1 9 2 10 3 11 8 12 4 13
REMARK SMILES IDX 6 14 9 15 5 16 90 17 7 18 10 19 85 20 86 21 87 22 88 23
REMARK SMILES IDX 89 24 18 25 19 26 20 27 21 29 22 30 23 31 84 32 24 33 83 34
REMARK SMILES IDX 25 35 26 36 27 37 77 38 28 39 82 40 76 41 78 42 29 43 81 44
REMARK SMILES IDX 75 45 74 46 30 48 62 49 42 50 61 51 43 52 46 53 60 54 79 55
REMARK SMILES IDX 44 56 45 57 59 59 80 60 47 61 31 62 32 63 40 64 33 65 39 66
REMARK SMILES IDX 41 67 38 68 34 69 35 70 36 71 37 72 63 73 64 74 72 75 65 76
REMARK SMILES IDX 71 77 73 78 70 79 66 80 67 81 68 82 69 83 48 84 49 85 57 86
REMARK SMILES IDX 50 87 56 88 58 89 55 90 51 91 52 92 53 93 54 94
REMARK H PARENT 14 7 19 28 78 47 46 58
REMARK Flexibility Score: inf
ROOT
ATOM      1  C   UNL A   1      33.692  31.802  27.901  1.00  0.00     0.023 C 
ENDROOT
BRANCH   1   2
ATOM      2  C   UNL A   1      34.897  30.858  27.915  1.00  0.00     0.023 C 
BRANCH   2   3
ATOM      3  C   UNL A   1      34.597  29.455  27.395  1.00  0.00     0.116 C 
BRANCH   3   4
ATOM      4  N   UNL A   1      33.328  28.954  27.887  1.00  0.00    -0.352 N 
ATOM      5  C   UNL A   1      32.360  28.116  27.448  1.00  0.00     0.251 C 
ATOM      6  O   UNL A   1      31.402  27.970  28.215  1.00  0.00    -0.270 OA
ATOM      7  H   UNL A   1      33.114  29.319  28.776  1.00  0.00     0.163 HD
BRANCH   5   8
ATOM      8  C   UNL A   1      32.375  27.381  26.148  1.00  0.00     0.067 C 
ATOM      9  C   UNL A   1      33.278  23.332  21.132  1.00  0.00     0.046 C 
ATOM     10  C   UNL A   1      33.382  24.098  22.424  1.00  0.00    -0.028 A 
ATOM     11  C   UNL A   1      32.384  25.049  22.675  1.00  0.00     0.052 A 
ATOM     12  C   UNL A   1      34.381  23.891  23.395  1.00  0.00     0.047 A 
ATOM     13  C   UNL A   1      32.385  25.786  23.854  1.00  0.00     0.128 A 
ATOM     14  C   UNL A   1      34.400  24.646  24.597  1.00  0.00    -0.021 A 
ATOM     15  Cl  UNL A   1      35.587  22.671  23.116  1.00  0.00    -0.084 Cl
ATOM     16  C   UNL A   1      33.369  25.590  24.827  1.00  0.00     0.022 A 
ATOM     17  O   UNL A   1      31.345  26.658  24.005  1.00  0.00    -0.475 OA
ATOM     18  C   UNL A   1      35.471  24.449  25.645  1.00  0.00     0.047 C 
ATOM     19  C   UNL A   1      33.243  26.354  26.072  1.00  0.00     0.026 C 
ATOM     20  C   UNL A   1      31.540  27.741  24.956  1.00  0.00     0.314 C 
BRANCH  20  21
ATOM     21  C   UNL A   1      32.065  28.983  24.214  1.00  0.00     0.429 C 
ATOM     22  F   UNL A   1      31.790  30.109  24.921  1.00  0.00    -0.167 F 
ATOM     23  F   UNL A   1      33.407  28.957  24.040  1.00  0.00    -0.167 F 
ATOM     24  F   UNL A   1      31.511  29.131  22.989  1.00  0.00    -0.167 F 
ENDBRANCH  20  21
ENDBRANCH   5   8
ENDBRANCH   3   4
ENDBRANCH   2   3
ENDBRANCH   1   2
BRANCH   1  25
ATOM     25  C   UNL A   1      34.012  33.274  27.649  1.00  0.00     0.116 C 
BRANCH  25  26
ATOM     26  N   UNL A   1      33.204  34.195  28.437  1.00  0.00    -0.352 N 
ATOM     27  C   UNL A   1      33.404  34.590  29.740  1.00  0.00     0.251 C 
ATOM     28  H   UNL A   1      32.420  34.581  27.984  1.00  0.00     0.163 HD
ATOM     29  O   UNL A   1      32.602  35.329  30.299  1.00  0.00    -0.269 OA
BRANCH  27  30
ATOM     30  C   UNL A   1      34.578  34.060  30.457  1.00  0.00     0.039 A 
ATOM     31  C   UNL A   1      34.396  33.005  31.351  1.00  0.00     0.014 A 
ATOM     32  C   UNL A   1      35.857  34.534  30.150  1.00  0.00     0.014 A 
ATOM     33  C   UNL A   1      35.514  32.363  31.881  1.00  0.00     0.010 A 
ATOM     34  C   UNL A   1      36.970  33.854  30.635  1.00  0.00     0.010 A 
ATOM     35  C   UNL A   1      36.806  32.754  31.491  1.00  0.00    -0.014 A 
BRANCH  35  36
ATOM     36  C   UNL A   1      37.996  32.005  31.961  1.00  0.00     0.031 A 
ATOM     37  C   UNL A   1      38.601  32.319  33.296  1.00  0.00     0.074 A 
ATOM     38  C   UNL A   1      38.546  31.069  31.164  1.00  0.00     0.049 A 
ATOM     39  N   UNL A   1      39.653  31.796  33.869  1.00  0.00    -0.248 NA
ATOM     40  C   UNL A   1      37.951  33.381  34.079  1.00  0.00     0.031 C 
ATOM     41  C   UNL A   1      38.067  30.705  29.827  1.00  0.00     0.029 A 
ATOM     42  N   UNL A   1      39.623  30.245  31.365  1.00  0.00    -0.354 N 
ATOM     43  C   UNL A   1      39.791  32.462  35.081  1.00  0.00     0.074 A 
ATOM     44  C   UNL A   1      38.754  33.471  35.128  1.00  0.00     0.031 C 
ATOM     45  C   UNL A   1      38.818  29.699  29.351  1.00  0.00     0.029 A 
ATOM     46  C   UNL A   1      39.848  29.369  30.330  1.00  0.00     0.049 A 
ATOM     47  H   UNL A   1      40.184  30.278  32.173  1.00  0.00     0.167 HD
ATOM     48  C   UNL A   1      40.682  32.232  36.076  1.00  0.00     0.034 A 
ATOM     49  C   UNL A   1      40.775  28.402  30.192  1.00  0.00     0.034 A 
ATOM     50  C   UNL A   1      41.702  31.217  36.023  1.00  0.00     0.049 A 
ATOM     51  C   UNL A   1      41.771  28.181  31.296  1.00  0.00     0.074 A 
ATOM     52  C   UNL A   1      42.636  30.879  36.986  1.00  0.00     0.029 A 
ATOM     53  N   UNL A   1      41.919  30.371  34.944  1.00  0.00    -0.354 N 
ATOM     54  N   UNL A   1      41.886  28.817  32.439  1.00  0.00    -0.248 NA
ATOM     55  C   UNL A   1      42.762  27.116  31.093  1.00  0.00     0.031 C 
ATOM     56  C   UNL A   1      43.444  29.857  36.474  1.00  0.00     0.029 A 
ATOM     57  C   UNL A   1      42.982  29.525  35.209  1.00  0.00     0.049 A 
ATOM     58  H   UNL A   1      41.394  30.374  34.110  1.00  0.00     0.167 HD
ATOM     59  C   UNL A   1      42.954  28.218  33.097  1.00  0.00     0.074 A 
ATOM     60  C   UNL A   1      43.449  27.171  32.226  1.00  0.00     0.031 C 
ATOM     61  C   UNL A   1      43.473  28.504  34.317  1.00  0.00     0.034 A 
BRANCH  48  62
ATOM     62  C   UNL A   1      40.583  33.112  37.293  1.00  0.00     0.023 A 
ATOM     63  C   UNL A   1      39.842  32.711  38.420  1.00  0.00     0.031 A 
ATOM     64  C   UNL A   1      41.193  34.377  37.316  1.00  0.00     0.131 A 
ATOM     65  C   UNL A   1      39.665  33.598  39.490  1.00  0.00     0.055 A 
ATOM     66  C   UNL A   1      41.073  35.227  38.417  1.00  0.00     0.041 A 
ATOM     67  F   UNL A   1      41.894  34.816  36.260  1.00  0.00    -0.206 F 
ATOM     68  C   UNL A   1      40.295  34.845  39.507  1.00  0.00     0.022 A 
BRANCH  65  69
ATOM     69  S   UNL A   1      38.504  33.146  40.805  1.00  0.00     0.124 S 
ATOM     70  O   UNL A   1      38.744  34.204  41.784  1.00  0.00    -0.237 OA
ATOM     71  O   UNL A   1      37.216  33.188  40.123  1.00  0.00    -0.237 OA
ATOM     72  O   UNL A   1      38.949  31.814  41.213  1.00  0.00    -0.744 OA
ENDBRANCH  65  69
ENDBRANCH  48  62
BRANCH  49  73
ATOM     73  C   UNL A   1      40.792  27.559  28.969  1.00  0.00     0.023 A 
ATOM     74  C   UNL A   1      41.758  27.765  27.972  1.00  0.00     0.031 A 
ATOM     75  C   UNL A   1      39.853  26.530  28.786  1.00  0.00     0.131 A 
ATOM     76  C   UNL A   1      41.751  26.963  26.820  1.00  0.00     0.055 A 
ATOM     77  C   UNL A   1      39.866  25.718  27.650  1.00  0.00     0.041 A 
ATOM     78  F   UNL A   1      38.922  26.287  29.722  1.00  0.00    -0.206 F 
ATOM     79  C   UNL A   1      40.818  25.936  26.657  1.00  0.00     0.022 A 
BRANCH  76  80
ATOM     80  S   UNL A   1      42.984  27.283  25.529  1.00  0.00     0.124 S 
ATOM     81  O   UNL A   1      44.078  27.862  26.301  1.00  0.00    -0.237 OA
ATOM     82  O   UNL A   1      43.216  25.947  24.989  1.00  0.00    -0.237 OA
ATOM     83  O   UNL A   1      42.299  28.204  24.626  1.00  0.00    -0.744 OA
ENDBRANCH  76  80
ENDBRANCH  49  73
BRANCH  61  84
ATOM     84  C   UNL A   1      44.622  27.658  34.786  1.00  0.00     0.023 A 
ATOM     85  C   UNL A   1      44.408  26.454  35.475  1.00  0.00     0.031 A 
ATOM     86  C   UNL A   1      45.943  28.046  34.504  1.00  0.00     0.131 A 
ATOM     87  C   UNL A   1      45.507  25.685  35.885  1.00  0.00     0.055 A 
ATOM     88  C   UNL A   1      47.031  27.259  34.884  1.00  0.00     0.041 A 
ATOM     89  F   UNL A   1      46.193  29.189  33.845  1.00  0.00    -0.206 F 
ATOM     90  C   UNL A   1      46.815  26.073  35.581  1.00  0.00     0.022 A 
BRANCH  87  91
ATOM     91  S   UNL A   1      45.209  24.168  36.834  1.00  0.00     0.124 S 
ATOM     92  O   UNL A   1      44.428  23.373  35.892  1.00  0.00    -0.237 OA
ATOM     93  O   UNL A   1      46.560  23.689  37.104  1.00  0.00    -0.237 OA
ATOM     94  O   UNL A   1      44.475  24.639  38.008  1.00  0.00    -0.744 OA
ENDBRANCH  87  91
ENDBRANCH  61  84
ENDBRANCH  35  36
ENDBRANCH  27  30
ENDBRANCH  25  26
ENDBRANCH   1  25
TORSDOF 15
ENDMDL
MODEL 3
REMARK VINA RESULT:     -12.3      2.219      2.917
REMARK SMILES Cc1cc2c(c(C)c1Cl)C=C(C(=O)NCCCCNC(=O)c1ccc(-c3c4nc(c(-c5cc(S(=O)(=O)[O-])ccc5F)c5ccc([nH]5)c(-c5cc(S(=O)(=O)[O-])ccc5F)c5nc(c(-c6cc(S(=O)(=O)[O-])ccc6F)c6ccc3[nH]6)C=C5)C=C4)cc1)[C@@H](C(F)(F)F)O2
REMARK SMILES IDX 17 1 16 2 15 3 14 4 12 5 13 6 11 8 1 9 2 10 3 11 8 12 4 13
REMARK SMILES IDX 6 14 9 15 5 16 90 17 7 18 10 19 85 20 86 21 87 22 88 23
REMARK SMILES IDX 89 24 18 25 19 26 20 27 21 29 22 30 23 31 84 32 24 33 83 34
REMARK SMILES IDX 25 35 26 36 27 37 77 38 28 39 82 40 76 41 78 42 29 43 81 44
REMARK SMILES IDX 75 45 74 46 30 48 62 49 42 50 61 51 43 52 46 53 60 54 79 55
REMARK SMILES IDX 44 56 45 57 59 59 80 60 47 61 31 62 32 63 40 64 33 65 39 66
REMARK SMILES IDX 41 67 38 68 34 69 35 70 36 71 37 72 63 73 64 74 72 75 65 76
REMARK SMILES IDX 71 77 73 78 70 79 66 80 67 81 68 82 69 83 48 84 49 85 57 86
REMARK SMILES IDX 50 87 56 88 58 89 55 90 51 91 52 92 53 93 54 94
REMARK H PARENT 14 7 19 28 78 47 46 58
REMARK Flexibility Score: inf
ROOT
ATOM      1  C   UNL A   1      31.768  29.363  24.742  1.00  0.00     0.023 C 
ENDROOT
BRANCH   1   2
ATOM      2  C   UNL A   1      32.451  28.580  23.616  1.00  0.00     0.023 C 
BRANCH   2   3
ATOM      3  C   UNL A   1      32.460  27.069  23.824  1.00  0.00     0.116 C 
BRANCH   3   4
ATOM      4  N   UNL A   1      31.838  26.690  25.079  1.00  0.00    -0.352 N 
ATOM      5  C   UNL A   1      31.752  25.576  25.841  1.00  0.00     0.251 C 
ATOM      6  O   UNL A   1      31.086  25.695  26.876  1.00  0.00    -0.270 OA
ATOM      7  H   UNL A   1      31.350  27.444  25.484  1.00  0.00     0.163 HD
BRANCH   5   8
ATOM      8  C   UNL A   1      32.387  24.261  25.528  1.00  0.00     0.067 C 
ATOM      9  C   UNL A   1      36.242  19.071  24.764  1.00  0.00     0.046 C 
ATOM     10  C   UNL A   1      35.680  20.448  25.001  1.00  0.00    -0.028 A 
ATOM     11  C   UNL A   1      34.287  20.579  24.949  1.00  0.00     0.052 A 
ATOM     12  C   UNL A   1      36.457  21.583  25.307  1.00  0.00     0.047 A 
ATOM     13  C   UNL A   1      33.679  21.808  25.180  1.00  0.00     0.128 A 
ATOM     14  C   UNL A   1      35.848  22.846  25.533  1.00  0.00    -0.021 A 
ATOM     15  Cl  UNL A   1      38.182  21.415  25.433  1.00  0.00    -0.084 Cl
ATOM     16  C   UNL A   1      34.436  22.941  25.486  1.00  0.00     0.022 A 
ATOM     17  O   UNL A   1      32.314  21.808  25.136  1.00  0.00    -0.475 OA
ATOM     18  C   UNL A   1      36.664  24.078  25.849  1.00  0.00     0.047 C 
ATOM     19  C   UNL A   1      33.704  24.174  25.794  1.00  0.00     0.026 C 
ATOM     20  C   UNL A   1      31.672  23.094  24.914  1.00  0.00     0.314 C 
BRANCH  20  21
ATOM     21  C   UNL A   1      31.409  23.280  23.409  1.00  0.00     0.429 C 
ATOM     22  F   UNL A   1      32.435  23.951  22.828  1.00  0.00    -0.167 F 
ATOM     23  F   UNL A   1      31.297  22.103  22.751  1.00  0.00    -0.167 F 
ATOM     24  F   UNL A   1      30.278  23.979  23.161  1.00  0.00    -0.167 F 
ENDBRANCH  20  21
ENDBRANCH   5   8
ENDBRANCH   3   4
ENDBRANCH   2   3
ENDBRANCH   1   2
BRANCH   1  25
ATOM     25  C   UNL A   1      32.697  29.888  25.835  1.00  0.00     0.116 C 
BRANCH  25  26
ATOM     26  N   UNL A   1      32.323  31.201  26.343  1.00  0.00    -0.352 N 
ATOM     27  C   UNL A   1      33.017  31.991  27.230  1.00  0.00     0.251 C 
ATOM     28  H   UNL A   1      31.471  31.567  26.013  1.00  0.00     0.163 HD
ATOM     29  O   UNL A   1      32.548  33.055  27.619  1.00  0.00    -0.269 OA
BRANCH  27  30
ATOM     30  C   UNL A   1      34.312  31.500  27.737  1.00  0.00     0.039 A 
ATOM     31  C   UNL A   1      35.321  32.427  28.001  1.00  0.00     0.014 A 
ATOM     32  C   UNL A   1      34.472  30.148  28.055  1.00  0.00     0.014 A 
ATOM     33  C   UNL A   1      36.471  32.006  28.667  1.00  0.00     0.010 A 
ATOM     34  C   UNL A   1      35.595  29.744  28.769  1.00  0.00     0.010 A 
ATOM     35  C   UNL A   1      36.595  30.674  29.095  1.00  0.00    -0.014 A 
BRANCH  35  36
ATOM     36  C   UNL A   1      37.762  30.245  29.901  1.00  0.00     0.031 A 
ATOM     37  C   UNL A   1      38.813  29.365  29.290  1.00  0.00     0.074 A 
ATOM     38  C   UNL A   1      37.850  30.621  31.190  1.00  0.00     0.049 A 
ATOM     39  N   UNL A   1      39.889  28.865  29.838  1.00  0.00    -0.248 NA
ATOM     40  C   UNL A   1      38.612  28.978  27.886  1.00  0.00     0.031 C 
ATOM     41  C   UNL A   1      36.868  31.444  31.903  1.00  0.00     0.029 A 
ATOM     42  N   UNL A   1      38.816  30.371  32.131  1.00  0.00    -0.354 N 
ATOM     43  C   UNL A   1      40.496  28.104  28.846  1.00  0.00     0.074 A 
ATOM     44  C   UNL A   1      39.632  28.158  27.686  1.00  0.00     0.031 C 
ATOM     45  C   UNL A   1      37.307  31.668  33.152  1.00  0.00     0.029 A 
ATOM     46  C   UNL A   1      38.580  30.982  33.339  1.00  0.00     0.049 A 
ATOM     47  H   UNL A   1      39.603  29.805  31.958  1.00  0.00     0.167 HD
ATOM     48  C   UNL A   1      41.681  27.447  28.888  1.00  0.00     0.034 A 
ATOM     49  C   UNL A   1      39.316  30.995  34.468  1.00  0.00     0.034 A 
ATOM     50  C   UNL A   1      42.538  27.411  30.045  1.00  0.00     0.049 A 
ATOM     51  C   UNL A   1      40.614  30.237  34.503  1.00  0.00     0.074 A 
ATOM     52  C   UNL A   1      43.772  26.801  30.187  1.00  0.00     0.029 A 
ATOM     53  N   UNL A   1      42.250  28.015  31.262  1.00  0.00    -0.354 N 
ATOM     54  N   UNL A   1      41.177  29.526  33.555  1.00  0.00    -0.248 NA
ATOM     55  C   UNL A   1      41.374  30.281  35.759  1.00  0.00     0.031 C 
ATOM     56  C   UNL A   1      44.211  27.002  31.501  1.00  0.00     0.029 A 
ATOM     57  C   UNL A   1      43.272  27.778  32.164  1.00  0.00     0.049 A 
ATOM     58  H   UNL A   1      41.436  28.535  31.454  1.00  0.00     0.167 HD
ATOM     59  C   UNL A   1      42.365  29.049  34.096  1.00  0.00     0.074 A 
ATOM     60  C   UNL A   1      42.440  29.554  35.452  1.00  0.00     0.031 C 
ATOM     61  C   UNL A   1      43.314  28.272  33.518  1.00  0.00     0.034 A 
BRANCH  48  62
ATOM     62  C   UNL A   1      42.096  26.712  27.643  1.00  0.00     0.023 A 
ATOM     63  C   UNL A   1      41.901  25.324  27.521  1.00  0.00     0.031 A 
ATOM     64  C   UNL A   1      42.731  27.388  26.588  1.00  0.00     0.131 A 
ATOM     65  C   UNL A   1      42.404  24.645  26.404  1.00  0.00     0.055 A 
ATOM     66  C   UNL A   1      43.166  26.715  25.444  1.00  0.00     0.041 A 
ATOM     67  F   UNL A   1      42.960  28.708  26.662  1.00  0.00    -0.206 F 
ATOM     68  C   UNL A   1      43.016  25.333  25.353  1.00  0.00     0.022 A 
BRANCH  65  69
ATOM     69  S   UNL A   1      42.356  22.833  26.400  1.00  0.00     0.124 S 
ATOM     70  O   UNL A   1      42.654  22.536  25.001  1.00  0.00    -0.237 OA
ATOM     71  O   UNL A   1      43.394  22.484  27.361  1.00  0.00    -0.237 OA
ATOM     72  O   UNL A   1      40.989  22.526  26.819  1.00  0.00    -0.744 OA
ENDBRANCH  65  69
ENDBRANCH  48  62
BRANCH  49  73
ATOM     73  C   UNL A   1      38.850  31.765  35.649  1.00  0.00     0.023 A 
ATOM     74  C   UNL A   1      38.153  31.129  36.688  1.00  0.00     0.031 A 
ATOM     75  C   UNL A   1      39.103  33.142  35.761  1.00  0.00     0.131 A 
ATOM     76  C   UNL A   1      37.714  31.877  37.791  1.00  0.00     0.055 A 
ATOM     77  C   UNL A   1      38.686  33.877  36.872  1.00  0.00     0.041 A 
ATOM     78  F   UNL A   1      39.780  33.787  34.798  1.00  0.00    -0.206 F 
ATOM     79  C   UNL A   1      37.983  33.244  37.894  1.00  0.00     0.022 A 
BRANCH  76  80
ATOM     80  S   UNL A   1      36.778  31.035  39.097  1.00  0.00     0.124 S 
ATOM     81  O   UNL A   1      36.563  29.719  38.507  1.00  0.00    -0.237 OA
ATOM     82  O   UNL A   1      37.705  31.092  40.223  1.00  0.00    -0.237 OA
ATOM     83  O   UNL A   1      35.580  31.860  39.241  1.00  0.00    -0.744 OA
ENDBRANCH  76  80
ENDBRANCH  49  73
BRANCH  61  84
ATOM     84  C   UNL A   1      44.521  27.937  34.348  1.00  0.00     0.023 A 
ATOM     85  C   UNL A   1      44.567  26.773  35.132  1.00  0.00     0.031 A 
ATOM     86  C   UNL A   1      45.649  28.775  34.322  1.00  0.00     0.131 A 
ATOM     87  C   UNL A   1      45.717  26.489  35.883  1.00  0.00     0.055 A 
ATOM     88  C   UNL A   1      46.803  28.468  35.043  1.00  0.00     0.041 A 
ATOM     89  F   UNL A   1      45.649  29.897  33.583  1.00  0.00    -0.206 F 
ATOM     90  C   UNL A   1      46.839  27.321  35.831  1.00  0.00     0.022 A 
BRANCH  87  91
ATOM     91  S   UNL A   1      45.728  25.016  36.942  1.00  0.00     0.124 S 
ATOM     92  O   UNL A   1      45.569  23.943  35.966  1.00  0.00    -0.237 OA
ATOM     93  O   UNL A   1      47.033  25.099  37.590  1.00  0.00    -0.237 OA
ATOM     94  O   UNL A   1      44.585  25.225  37.828  1.00  0.00    -0.744 OA
ENDBRANCH  87  91
ENDBRANCH  61  84
ENDBRANCH  35  36
ENDBRANCH  27  30
ENDBRANCH  25  26
ENDBRANCH   1  25
TORSDOF 15
ENDMDL
