MODEL 1
REMARK VINA RESULT:     -11.6      0.000      0.000
REMARK SMILES O=C(CC1(NC(=O)c2ccccc2[N+](=O)[O-])CCC1)NCCCCNC(=O)c1ccc(-c2c3nc(c(-c4cc(S(=O)(=O)[O-])ccc4F)c4ccc([nH]4)c(-c4cc(S(=O)(=O)[O-])ccc4F)c4nc(c(-c5cc(S(=O)(=O)[O-])ccc5F)c5ccc2[nH]5)C=C4)C=C3)cc1
REMARK SMILES IDX 22 1 21 2 20 3 1 4 2 5 3 7 4 8 17 9 19 10 18 11 5 12 6 13
REMARK SMILES IDX 7 15 8 16 9 17 13 18 10 19 12 20 11 21 14 22 15 23 16 24
REMARK SMILES IDX 23 25 24 26 25 27 26 28 27 30 28 31 29 32 90 33 30 34 89 35
REMARK SMILES IDX 31 36 32 37 33 38 83 39 34 40 88 41 82 42 84 43 35 44 87 45
REMARK SMILES IDX 81 46 80 47 36 49 68 50 48 51 67 52 49 53 52 54 66 55 85 56
REMARK SMILES IDX 50 57 51 58 65 60 86 61 53 62 37 63 38 64 46 65 39 66 45 67
REMARK SMILES IDX 47 68 44 69 40 70 41 71 42 72 43 73 69 74 70 75 78 76 71 77
REMARK SMILES IDX 77 78 79 79 76 80 72 81 73 82 74 83 75 84 54 85 55 86 63 87
REMARK SMILES IDX 56 88 62 89 64 90 61 91 57 92 58 93 59 94 60 95
REMARK H PARENT 20 6 5 14 25 29 84 48 52 59
REMARK Flexibility Score: inf
ROOT
ATOM      1  C   UNL A   1      31.904  30.029  26.745  1.00  0.00     0.023 C 
ENDROOT
BRANCH   1   2
ATOM      2  C   UNL A   1      32.433  29.468  25.427  1.00  0.00     0.116 C 
BRANCH   2   3
ATOM      3  N   UNL A   1      33.077  28.193  25.632  1.00  0.00    -0.356 N 
ATOM      4  O   UNL A   1      33.306  27.667  23.404  1.00  0.00    -0.275 OA
ATOM      5  C   UNL A   1      33.397  27.361  24.586  1.00  0.00     0.222 C 
ATOM      6  H   UNL A   1      33.295  27.910  26.550  1.00  0.00     0.163 HD
BRANCH   5   7
ATOM      7  C   UNL A   1      33.722  25.964  25.038  1.00  0.00     0.128 C 
BRANCH   7   8
ATOM      8  C   UNL A   1      32.624  24.904  24.980  1.00  0.00     0.049 C 
ATOM      9  C   UNL A   1      32.670  23.901  26.184  1.00  0.00     0.029 C 
ATOM     10  C   UNL A   1      31.222  25.342  25.541  1.00  0.00     0.029 C 
ATOM     11  C   UNL A   1      31.144  24.022  26.318  1.00  0.00     0.005 C 
BRANCH   8  12
ATOM     12  N   UNL A   1      32.464  24.160  23.680  1.00  0.00    -0.346 N 
ATOM     13  C   UNL A   1      32.975  23.010  23.118  1.00  0.00     0.258 C 
ATOM     14  H   UNL A   1      31.831  24.611  23.075  1.00  0.00     0.164 HD
ATOM     15  O   UNL A   1      32.589  22.645  22.012  1.00  0.00    -0.269 OA
BRANCH  13  16
ATOM     16  C   UNL A   1      34.078  22.268  23.735  1.00  0.00     0.117 A 
ATOM     17  C   UNL A   1      35.329  22.907  23.727  1.00  0.00     0.021 A 
ATOM     18  C   UNL A   1      33.927  21.059  24.414  1.00  0.00     0.282 A 
ATOM     19  C   UNL A   1      36.385  22.384  24.475  1.00  0.00     0.001 A 
ATOM     20  C   UNL A   1      34.982  20.539  25.179  1.00  0.00     0.086 A 
ATOM     21  C   UNL A   1      36.204  21.218  25.220  1.00  0.00     0.007 A 
BRANCH  18  22
ATOM     22  N   UNL A   1      32.658  20.357  24.409  1.00  0.00     0.063 N 
ATOM     23  O   UNL A   1      31.880  20.599  25.342  1.00  0.00    -0.258 OA
ATOM     24  O   UNL A   1      32.445  19.554  23.495  1.00  0.00    -0.258 OA
ENDBRANCH  18  22
ENDBRANCH  13  16
ENDBRANCH   8  12
ENDBRANCH   7   8
ENDBRANCH   5   7
ENDBRANCH   2   3
ENDBRANCH   1   2
BRANCH   1  25
ATOM     25  C   UNL A   1      31.736  31.552  26.778  1.00  0.00     0.023 C 
BRANCH  25  26
ATOM     26  C   UNL A   1      32.965  32.333  27.234  1.00  0.00     0.116 C 
BRANCH  26  27
ATOM     27  N   UNL A   1      32.658  33.711  27.571  1.00  0.00    -0.352 N 
ATOM     28  C   UNL A   1      33.200  34.519  28.543  1.00  0.00     0.251 C 
ATOM     29  H   UNL A   1      31.958  34.131  27.021  1.00  0.00     0.163 HD
ATOM     30  O   UNL A   1      32.701  35.611  28.766  1.00  0.00    -0.269 OA
BRANCH  28  31
ATOM     31  C   UNL A   1      34.356  34.043  29.338  1.00  0.00     0.039 A 
ATOM     32  C   UNL A   1      34.120  33.170  30.403  1.00  0.00     0.014 A 
ATOM     33  C   UNL A   1      35.659  34.448  29.037  1.00  0.00     0.014 A 
ATOM     34  C   UNL A   1      35.197  32.649  31.121  1.00  0.00     0.010 A 
ATOM     35  C   UNL A   1      36.735  33.871  29.708  1.00  0.00     0.010 A 
ATOM     36  C   UNL A   1      36.516  32.964  30.755  1.00  0.00    -0.014 A 
BRANCH  36  37
ATOM     37  C   UNL A   1      37.676  32.350  31.455  1.00  0.00     0.031 A 
ATOM     38  C   UNL A   1      38.423  31.208  30.822  1.00  0.00     0.074 A 
ATOM     39  C   UNL A   1      38.015  32.781  32.686  1.00  0.00     0.049 A 
ATOM     40  N   UNL A   1      39.405  30.491  31.306  1.00  0.00    -0.248 NA
ATOM     41  C   UNL A   1      37.989  30.804  29.477  1.00  0.00     0.031 C 
ATOM     42  C   UNL A   1      37.342  33.854  33.421  1.00  0.00     0.029 A 
ATOM     43  N   UNL A   1      39.005  32.365  33.543  1.00  0.00    -0.354 N 
ATOM     44  C   UNL A   1      39.700  29.544  30.330  1.00  0.00     0.074 A 
ATOM     45  C   UNL A   1      38.747  29.740  29.257  1.00  0.00     0.031 C 
ATOM     46  C   UNL A   1      37.949  34.024  34.606  1.00  0.00     0.029 A 
ATOM     47  C   UNL A   1      39.021  33.044  34.740  1.00  0.00     0.049 A 
ATOM     48  H   UNL A   1      39.642  31.648  33.322  1.00  0.00     0.167 HD
ATOM     49  C   UNL A   1      40.689  28.615  30.319  1.00  0.00     0.034 A 
ATOM     50  C   UNL A   1      39.802  32.886  35.828  1.00  0.00     0.034 A 
ATOM     51  C   UNL A   1      41.634  28.437  31.396  1.00  0.00     0.049 A 
ATOM     52  C   UNL A   1      40.874  31.826  35.807  1.00  0.00     0.074 A 
ATOM     53  C   UNL A   1      42.700  27.557  31.470  1.00  0.00     0.029 A 
ATOM     54  N   UNL A   1      41.621  29.144  32.592  1.00  0.00    -0.354 N 
ATOM     55  N   UNL A   1      41.170  30.968  34.857  1.00  0.00    -0.248 NA
ATOM     56  C   UNL A   1      41.726  31.722  36.998  1.00  0.00     0.031 C 
ATOM     57  C   UNL A   1      43.289  27.685  32.733  1.00  0.00     0.029 A 
ATOM     58  C   UNL A   1      42.642  28.701  33.420  1.00  0.00     0.049 A 
ATOM     59  H   UNL A   1      40.982  29.857  32.819  1.00  0.00     0.167 HD
ATOM     60  C   UNL A   1      42.261  30.243  35.327  1.00  0.00     0.074 A 
ATOM     61  C   UNL A   1      42.579  30.776  36.636  1.00  0.00     0.031 C 
ATOM     62  C   UNL A   1      42.943  29.232  34.730  1.00  0.00     0.034 A 
BRANCH  49  63
ATOM     63  C   UNL A   1      40.775  27.709  29.113  1.00  0.00     0.023 A 
ATOM     64  C   UNL A   1      41.725  27.922  28.098  1.00  0.00     0.031 A 
ATOM     65  C   UNL A   1      39.878  26.638  28.956  1.00  0.00     0.131 A 
ATOM     66  C   UNL A   1      41.703  27.133  26.938  1.00  0.00     0.055 A 
ATOM     67  C   UNL A   1      39.918  25.799  27.840  1.00  0.00     0.041 A 
ATOM     68  F   UNL A   1      38.935  26.394  29.881  1.00  0.00    -0.206 F 
ATOM     69  C   UNL A   1      40.823  26.055  26.814  1.00  0.00     0.022 A 
BRANCH  66  70
ATOM     70  S   UNL A   1      42.734  27.633  25.533  1.00  0.00     0.124 S 
ATOM     71  O   UNL A   1      44.019  27.876  26.184  1.00  0.00    -0.237 OA
ATOM     72  O   UNL A   1      42.669  26.466  24.662  1.00  0.00    -0.237 OA
ATOM     73  O   UNL A   1      42.065  28.830  25.026  1.00  0.00    -0.744 OA
ENDBRANCH  66  70
ENDBRANCH  49  63
BRANCH  50  74
ATOM     74  C   UNL A   1      39.592  33.735  37.036  1.00  0.00     0.023 A 
ATOM     75  C   UNL A   1      38.941  33.231  38.172  1.00  0.00     0.031 A 
ATOM     76  C   UNL A   1      40.008  35.078  37.056  1.00  0.00     0.131 A 
ATOM     77  C   UNL A   1      38.681  34.077  39.262  1.00  0.00     0.055 A 
ATOM     78  C   UNL A   1      39.798  35.901  38.164  1.00  0.00     0.041 A 
ATOM     79  F   UNL A   1      40.642  35.609  35.998  1.00  0.00    -0.206 F 
ATOM     80  C   UNL A   1      39.117  35.403  39.271  1.00  0.00     0.022 A 
BRANCH  77  81
ATOM     81  S   UNL A   1      37.689  33.439  40.640  1.00  0.00     0.124 S 
ATOM     82  O   UNL A   1      37.545  34.626  41.476  1.00  0.00    -0.237 OA
ATOM     83  O   UNL A   1      36.482  32.983  39.959  1.00  0.00    -0.237 OA
ATOM     84  O   UNL A   1      38.524  32.378  41.199  1.00  0.00    -0.744 OA
ENDBRANCH  77  81
ENDBRANCH  50  74
BRANCH  62  85
ATOM     85  C   UNL A   1      44.130  28.670  35.474  1.00  0.00     0.023 A 
ATOM     86  C   UNL A   1      43.999  27.613  36.392  1.00  0.00     0.031 A 
ATOM     87  C   UNL A   1      45.412  29.211  35.267  1.00  0.00     0.131 A 
ATOM     88  C   UNL A   1      45.119  27.168  37.110  1.00  0.00     0.055 A 
ATOM     89  C   UNL A   1      46.534  28.722  35.939  1.00  0.00     0.041 A 
ATOM     90  F   UNL A   1      45.595  30.223  34.405  1.00  0.00    -0.206 F 
ATOM     91  C   UNL A   1      46.388  27.704  36.876  1.00  0.00     0.022 A 
BRANCH  88  92
ATOM     92  S   UNL A   1      44.881  25.942  38.425  1.00  0.00     0.124 S 
ATOM     93  O   UNL A   1      44.157  24.884  37.727  1.00  0.00    -0.237 OA
ATOM     94  O   UNL A   1      46.253  25.627  38.810  1.00  0.00    -0.237 OA
ATOM     95  O   UNL A   1      44.106  26.664  39.432  1.00  0.00    -0.744 OA
ENDBRANCH  88  92
ENDBRANCH  62  85
ENDBRANCH  36  37
ENDBRANCH  28  31
ENDBRANCH  26  27
ENDBRANCH  25  26
ENDBRANCH   1  25
TORSDOF 18
ENDMDL
MODEL 2
REMARK VINA RESULT:     -11.5      2.068      7.978
REMARK SMILES O=C(CC1(NC(=O)c2ccccc2[N+](=O)[O-])CCC1)NCCCCNC(=O)c1ccc(-c2c3nc(c(-c4cc(S(=O)(=O)[O-])ccc4F)c4ccc([nH]4)c(-c4cc(S(=O)(=O)[O-])ccc4F)c4nc(c(-c5cc(S(=O)(=O)[O-])ccc5F)c5ccc2[nH]5)C=C4)C=C3)cc1
REMARK SMILES IDX 22 1 21 2 20 3 1 4 2 5 3 7 4 8 17 9 19 10 18 11 5 12 6 13
REMARK SMILES IDX 7 15 8 16 9 17 13 18 10 19 12 20 11 21 14 22 15 23 16 24
REMARK SMILES IDX 23 25 24 26 25 27 26 28 27 30 28 31 29 32 90 33 30 34 89 35
REMARK SMILES IDX 31 36 32 37 33 38 83 39 34 40 88 41 82 42 84 43 35 44 87 45
REMARK SMILES IDX 81 46 80 47 36 49 68 50 48 51 67 52 49 53 52 54 66 55 85 56
REMARK SMILES IDX 50 57 51 58 65 60 86 61 53 62 37 63 38 64 46 65 39 66 45 67
REMARK SMILES IDX 47 68 44 69 40 70 41 71 42 72 43 73 69 74 70 75 78 76 71 77
REMARK SMILES IDX 77 78 79 79 76 80 72 81 73 82 74 83 75 84 54 85 55 86 63 87
REMARK SMILES IDX 56 88 62 89 64 90 61 91 57 92 58 93 59 94 60 95
REMARK H PARENT 20 6 5 14 25 29 84 48 52 59
REMARK Flexibility Score: inf
ROOT
ATOM      1  C   UNL A   1      33.865  28.761  25.404  1.00  0.00     0.023 C 
ENDROOT
BRANCH   1   2
ATOM      2  C   UNL A   1      33.685  27.481  26.217  1.00  0.00     0.116 C 
BRANCH   2   3
ATOM      3  N   UNL A   1      32.932  26.499  25.473  1.00  0.00    -0.356 N 
ATOM      4  O   UNL A   1      31.109  26.465  26.875  1.00  0.00    -0.275 OA
ATOM      5  C   UNL A   1      31.723  26.019  25.913  1.00  0.00     0.222 C 
ATOM      6  H   UNL A   1      33.297  26.163  24.622  1.00  0.00     0.163 HD
BRANCH   5   7
ATOM      7  C   UNL A   1      31.298  24.772  25.189  1.00  0.00     0.128 C 
BRANCH   7   8
ATOM      8  C   UNL A   1      31.778  23.421  25.717  1.00  0.00     0.049 C 
ATOM      9  C   UNL A   1      33.126  23.512  26.510  1.00  0.00     0.029 C 
ATOM     10  C   UNL A   1      31.137  22.953  27.074  1.00  0.00     0.029 C 
ATOM     11  C   UNL A   1      32.536  22.581  27.581  1.00  0.00     0.005 C 
BRANCH   8  12
ATOM     12  N   UNL A   1      31.821  22.282  24.731  1.00  0.00    -0.346 N 
ATOM     13  C   UNL A   1      32.799  21.519  24.130  1.00  0.00     0.258 C 
ATOM     14  H   UNL A   1      30.919  22.014  24.443  1.00  0.00     0.164 HD
ATOM     15  O   UNL A   1      32.482  20.603  23.377  1.00  0.00    -0.269 OA
BRANCH  13  16
ATOM     16  C   UNL A   1      34.221  21.850  24.244  1.00  0.00     0.117 A 
ATOM     17  C   UNL A   1      34.987  20.996  25.054  1.00  0.00     0.021 A 
ATOM     18  C   UNL A   1      34.853  22.858  23.517  1.00  0.00     0.282 A 
ATOM     19  C   UNL A   1      36.379  21.095  25.053  1.00  0.00     0.001 A 
ATOM     20  C   UNL A   1      36.253  22.952  23.502  1.00  0.00     0.086 A 
ATOM     21  C   UNL A   1      37.011  22.053  24.259  1.00  0.00     0.007 A 
BRANCH  18  22
ATOM     22  N   UNL A   1      34.085  23.779  22.701  1.00  0.00     0.063 N 
ATOM     23  O   UNL A   1      33.649  23.345  21.625  1.00  0.00    -0.258 OA
ATOM     24  O   UNL A   1      33.935  24.933  23.117  1.00  0.00    -0.258 OA
ENDBRANCH  18  22
ENDBRANCH  13  16
ENDBRANCH   8  12
ENDBRANCH   7   8
ENDBRANCH   5   7
ENDBRANCH   2   3
ENDBRANCH   1   2
BRANCH   1  25
ATOM     25  C   UNL A   1      32.648  29.691  25.385  1.00  0.00     0.023 C 
BRANCH  25  26
ATOM     26  C   UNL A   1      32.190  30.192  26.752  1.00  0.00     0.116 C 
BRANCH  26  27
ATOM     27  N   UNL A   1      32.243  31.638  26.863  1.00  0.00    -0.352 N 
ATOM     28  C   UNL A   1      33.175  32.437  27.485  1.00  0.00     0.251 C 
ATOM     29  H   UNL A   1      31.503  32.120  26.429  1.00  0.00     0.163 HD
ATOM     30  O   UNL A   1      32.965  33.635  27.594  1.00  0.00    -0.269 OA
BRANCH  28  31
ATOM     31  C   UNL A   1      34.405  31.833  28.049  1.00  0.00     0.039 A 
ATOM     32  C   UNL A   1      35.550  32.626  28.154  1.00  0.00     0.014 A 
ATOM     33  C   UNL A   1      34.431  30.502  28.474  1.00  0.00     0.014 A 
ATOM     34  C   UNL A   1      36.700  32.105  28.749  1.00  0.00     0.010 A 
ATOM     35  C   UNL A   1      35.555  30.008  29.133  1.00  0.00     0.010 A 
ATOM     36  C   UNL A   1      36.700  30.805  29.280  1.00  0.00    -0.014 A 
BRANCH  36  37
ATOM     37  C   UNL A   1      37.889  30.266  29.993  1.00  0.00     0.031 A 
ATOM     38  C   UNL A   1      38.193  30.710  31.398  1.00  0.00     0.074 A 
ATOM     39  C   UNL A   1      38.725  29.425  29.353  1.00  0.00     0.049 A 
ATOM     40  N   UNL A   1      39.220  30.418  32.154  1.00  0.00    -0.248 NA
ATOM     41  C   UNL A   1      37.228  31.626  32.021  1.00  0.00     0.031 C 
ATOM     42  C   UNL A   1      38.558  28.951  27.977  1.00  0.00     0.029 A 
ATOM     43  N   UNL A   1      39.888  28.824  29.770  1.00  0.00    -0.354 N 
ATOM     44  C   UNL A   1      39.029  31.121  33.340  1.00  0.00     0.074 A 
ATOM     45  C   UNL A   1      37.823  31.904  33.171  1.00  0.00     0.031 C 
ATOM     46  C   UNL A   1      39.567  28.121  27.672  1.00  0.00     0.029 A 
ATOM     47  C   UNL A   1      40.479  28.038  28.807  1.00  0.00     0.049 A 
ATOM     48  H   UNL A   1      40.263  28.944  30.672  1.00  0.00     0.167 HD
ATOM     49  C   UNL A   1      39.778  31.097  34.472  1.00  0.00     0.034 A 
ATOM     50  C   UNL A   1      41.634  27.342  28.830  1.00  0.00     0.034 A 
ATOM     51  C   UNL A   1      40.976  30.306  34.625  1.00  0.00     0.049 A 
ATOM     52  C   UNL A   1      42.466  27.354  30.088  1.00  0.00     0.074 A 
ATOM     53  C   UNL A   1      41.784  30.173  35.740  1.00  0.00     0.029 A 
ATOM     54  N   UNL A   1      41.544  29.521  33.629  1.00  0.00    -0.354 N 
ATOM     55  N   UNL A   1      42.248  27.989  31.217  1.00  0.00    -0.248 NA
ATOM     56  C   UNL A   1      43.692  26.546  30.078  1.00  0.00     0.031 C 
ATOM     57  C   UNL A   1      42.874  29.364  35.399  1.00  0.00     0.029 A 
ATOM     58  C   UNL A   1      42.706  28.925  34.095  1.00  0.00     0.049 A 
ATOM     59  H   UNL A   1      41.175  29.403  32.724  1.00  0.00     0.167 HD
ATOM     60  C   UNL A   1      43.296  27.631  32.061  1.00  0.00     0.074 A 
ATOM     61  C   UNL A   1      44.134  26.714  31.315  1.00  0.00     0.031 C 
ATOM     62  C   UNL A   1      43.541  28.020  33.338  1.00  0.00     0.034 A 
BRANCH  49  63
ATOM     63  C   UNL A   1      39.328  31.972  35.619  1.00  0.00     0.023 A 
ATOM     64  C   UNL A   1      38.654  31.438  36.732  1.00  0.00     0.031 A 
ATOM     65  C   UNL A   1      39.545  33.360  35.588  1.00  0.00     0.131 A 
ATOM     66  C   UNL A   1      38.149  32.293  37.724  1.00  0.00     0.055 A 
ATOM     67  C   UNL A   1      39.118  34.197  36.622  1.00  0.00     0.041 A 
ATOM     68  F   UNL A   1      40.165  33.933  34.543  1.00  0.00    -0.206 F 
ATOM     69  C   UNL A   1      38.400  33.666  37.690  1.00  0.00     0.022 A 
BRANCH  66  70
ATOM     70  S   UNL A   1      37.029  31.602  38.972  1.00  0.00     0.124 S 
ATOM     71  O   UNL A   1      36.831  30.245  38.469  1.00  0.00    -0.237 OA
ATOM     72  O   UNL A   1      37.810  31.723  40.197  1.00  0.00    -0.237 OA
ATOM     73  O   UNL A   1      35.853  32.466  38.892  1.00  0.00    -0.744 OA
ENDBRANCH  66  70
ENDBRANCH  49  63
BRANCH  50  74
ATOM     74  C   UNL A   1      42.085  26.589  27.624  1.00  0.00     0.023 A 
ATOM     75  C   UNL A   1      41.811  25.221  27.480  1.00  0.00     0.031 A 
ATOM     76  C   UNL A   1      42.832  27.223  26.615  1.00  0.00     0.131 A 
ATOM     77  C   UNL A   1      42.321  24.519  26.376  1.00  0.00     0.055 A 
ATOM     78  C   UNL A   1      43.290  26.533  25.491  1.00  0.00     0.041 A 
ATOM     79  F   UNL A   1      43.117  28.532  26.701  1.00  0.00    -0.206 F 
ATOM     80  C   UNL A   1      43.046  25.168  25.374  1.00  0.00     0.022 A 
BRANCH  77  81
ATOM     81  S   UNL A   1      42.091  22.721  26.308  1.00  0.00     0.124 S 
ATOM     82  O   UNL A   1      42.653  22.399  25.001  1.00  0.00    -0.237 OA
ATOM     83  O   UNL A   1      42.860  22.274  27.465  1.00  0.00    -0.237 OA
ATOM     84  O   UNL A   1      40.644  22.557  26.425  1.00  0.00    -0.744 OA
ENDBRANCH  77  81
ENDBRANCH  50  74
BRANCH  62  85
ATOM     85  C   UNL A   1      44.744  27.416  34.023  1.00  0.00     0.023 A 
ATOM     86  C   UNL A   1      44.658  26.215  34.750  1.00  0.00     0.031 A 
ATOM     87  C   UNL A   1      45.992  28.060  33.955  1.00  0.00     0.131 A 
ATOM     88  C   UNL A   1      45.786  25.725  35.426  1.00  0.00     0.055 A 
ATOM     89  C   UNL A   1      47.126  27.535  34.577  1.00  0.00     0.041 A 
ATOM     90  F   UNL A   1      46.131  29.210  33.277  1.00  0.00    -0.206 F 
ATOM     91  C   UNL A   1      47.023  26.369  35.329  1.00  0.00     0.022 A 
BRANCH  88  92
ATOM     92  S   UNL A   1      45.595  24.286  36.513  1.00  0.00     0.124 S 
ATOM     93  O   UNL A   1      44.230  24.454  37.002  1.00  0.00    -0.237 OA
ATOM     94  O   UNL A   1      45.810  23.172  35.595  1.00  0.00    -0.237 OA
ATOM     95  O   UNL A   1      46.641  24.472  37.516  1.00  0.00    -0.744 OA
ENDBRANCH  88  92
ENDBRANCH  62  85
ENDBRANCH  36  37
ENDBRANCH  28  31
ENDBRANCH  26  27
ENDBRANCH  25  26
ENDBRANCH   1  25
TORSDOF 18
ENDMDL
MODEL 3
REMARK VINA RESULT:     -11.4      3.729      8.750
REMARK SMILES O=C(CC1(NC(=O)c2ccccc2[N+](=O)[O-])CCC1)NCCCCNC(=O)c1ccc(-c2c3nc(c(-c4cc(S(=O)(=O)[O-])ccc4F)c4ccc([nH]4)c(-c4cc(S(=O)(=O)[O-])ccc4F)c4nc(c(-c5cc(S(=O)(=O)[O-])ccc5F)c5ccc2[nH]5)C=C4)C=C3)cc1
REMARK SMILES IDX 22 1 21 2 20 3 1 4 2 5 3 7 4 8 17 9 19 10 18 11 5 12 6 13
REMARK SMILES IDX 7 15 8 16 9 17 13 18 10 19 12 20 11 21 14 22 15 23 16 24
REMARK SMILES IDX 23 25 24 26 25 27 26 28 27 30 28 31 29 32 90 33 30 34 89 35
REMARK SMILES IDX 31 36 32 37 33 38 83 39 34 40 88 41 82 42 84 43 35 44 87 45
REMARK SMILES IDX 81 46 80 47 36 49 68 50 48 51 67 52 49 53 52 54 66 55 85 56
REMARK SMILES IDX 50 57 51 58 65 60 86 61 53 62 37 63 38 64 46 65 39 66 45 67
REMARK SMILES IDX 47 68 44 69 40 70 41 71 42 72 43 73 69 74 70 75 78 76 71 77
REMARK SMILES IDX 77 78 79 79 76 80 72 81 73 82 74 83 75 84 54 85 55 86 63 87
REMARK SMILES IDX 56 88 62 89 64 90 61 91 57 92 58 93 59 94 60 95
REMARK H PARENT 20 6 5 14 25 29 84 48 52 59
REMARK Flexibility Score: inf
ROOT
ATOM      1  C   UNL A   1      32.739  29.288  24.701  1.00  0.00     0.023 C 
ENDROOT
BRANCH   1   2
ATOM      2  C   UNL A   1      31.250  29.065  24.949  1.00  0.00     0.116 C 
BRANCH   2   3
ATOM      3  N   UNL A   1      30.771  27.918  24.214  1.00  0.00    -0.356 N 
ATOM      4  O   UNL A   1      30.833  26.444  25.979  1.00  0.00    -0.275 OA
ATOM      5  C   UNL A   1      30.670  26.674  24.787  1.00  0.00     0.222 C 
ATOM      6  H   UNL A   1      30.507  28.032  23.272  1.00  0.00     0.163 HD
BRANCH   5   7
ATOM      7  C   UNL A   1      30.500  25.581  23.768  1.00  0.00     0.128 C 
BRANCH   7   8
ATOM      8  C   UNL A   1      31.660  25.275  22.824  1.00  0.00     0.049 C 
ATOM      9  C   UNL A   1      31.723  26.239  21.590  1.00  0.00     0.029 C 
ATOM     10  C   UNL A   1      33.051  25.883  23.232  1.00  0.00     0.029 C 
ATOM     11  C   UNL A   1      33.242  26.361  21.787  1.00  0.00     0.005 C 
BRANCH   8  12
ATOM     12  N   UNL A   1      31.819  23.843  22.382  1.00  0.00    -0.346 N 
ATOM     13  C   UNL A   1      32.507  22.733  22.823  1.00  0.00     0.258 C 
ATOM     14  H   UNL A   1      31.297  23.650  21.570  1.00  0.00     0.164 HD
ATOM     15  O   UNL A   1      32.380  21.662  22.237  1.00  0.00    -0.269 OA
BRANCH  13  16
ATOM     16  C   UNL A   1      33.504  22.811  23.894  1.00  0.00     0.117 A 
ATOM     17  C   UNL A   1      34.805  23.160  23.497  1.00  0.00     0.021 A 
ATOM     18  C   UNL A   1      33.209  22.683  25.251  1.00  0.00     0.282 A 
ATOM     19  C   UNL A   1      35.768  23.471  24.458  1.00  0.00     0.001 A 
ATOM     20  C   UNL A   1      34.170  23.009  26.220  1.00  0.00     0.086 A 
ATOM     21  C   UNL A   1      35.444  23.421  25.815  1.00  0.00     0.007 A 
BRANCH  18  22
ATOM     22  N   UNL A   1      31.884  22.287  25.690  1.00  0.00     0.063 N 
ATOM     23  O   UNL A   1      31.560  21.107  25.497  1.00  0.00    -0.258 OA
ATOM     24  O   UNL A   1      31.164  23.149  26.204  1.00  0.00    -0.258 OA
ENDBRANCH  18  22
ENDBRANCH  13  16
ENDBRANCH   8  12
ENDBRANCH   7   8
ENDBRANCH   5   7
ENDBRANCH   2   3
ENDBRANCH   1   2
BRANCH   1  25
ATOM     25  C   UNL A   1      33.670  28.635  25.729  1.00  0.00     0.023 C 
BRANCH  25  26
ATOM     26  C   UNL A   1      33.374  28.979  27.186  1.00  0.00     0.116 C 
BRANCH  26  27
ATOM     27  N   UNL A   1      33.455  30.404  27.451  1.00  0.00    -0.352 N 
ATOM     28  C   UNL A   1      34.444  31.126  28.078  1.00  0.00     0.251 C 
ATOM     29  H   UNL A   1      32.687  30.933  27.134  1.00  0.00     0.163 HD
ATOM     30  O   UNL A   1      34.257  32.305  28.334  1.00  0.00    -0.269 OA
BRANCH  28  31
ATOM     31  C   UNL A   1      35.707  30.460  28.470  1.00  0.00     0.039 A 
ATOM     32  C   UNL A   1      36.813  30.574  27.623  1.00  0.00     0.014 A 
ATOM     33  C   UNL A   1      35.806  29.733  29.659  1.00  0.00     0.014 A 
ATOM     34  C   UNL A   1      38.035  30.019  28.004  1.00  0.00     0.010 A 
ATOM     35  C   UNL A   1      37.044  29.243  30.070  1.00  0.00     0.010 A 
ATOM     36  C   UNL A   1      38.172  29.383  29.248  1.00  0.00    -0.014 A 
BRANCH  36  37
ATOM     37  C   UNL A   1      39.488  28.862  29.705  1.00  0.00     0.031 A 
ATOM     38  C   UNL A   1      40.250  29.578  30.788  1.00  0.00     0.074 A 
ATOM     39  C   UNL A   1      40.023  27.782  29.103  1.00  0.00     0.049 A 
ATOM     40  N   UNL A   1      41.442  29.328  31.264  1.00  0.00    -0.248 NA
ATOM     41  C   UNL A   1      39.592  30.745  31.392  1.00  0.00     0.031 C 
ATOM     42  C   UNL A   1      39.398  27.025  28.015  1.00  0.00     0.029 A 
ATOM     43  N   UNL A   1      41.217  27.136  29.311  1.00  0.00    -0.354 N 
ATOM     44  C   UNL A   1      41.682  30.312  32.218  1.00  0.00     0.074 A 
ATOM     45  C   UNL A   1      40.538  31.198  32.201  1.00  0.00     0.031 C 
ATOM     46  C   UNL A   1      40.203  26.009  27.666  1.00  0.00     0.029 A 
ATOM     47  C   UNL A   1      41.421  26.067  28.467  1.00  0.00     0.049 A 
ATOM     48  H   UNL A   1      41.865  27.410  29.998  1.00  0.00     0.167 HD
ATOM     49  C   UNL A   1      42.748  30.448  33.048  1.00  0.00     0.034 A 
ATOM     50  C   UNL A   1      42.476  25.237  28.343  1.00  0.00     0.034 A 
ATOM     51  C   UNL A   1      43.879  29.551  33.056  1.00  0.00     0.049 A 
ATOM     52  C   UNL A   1      43.663  25.426  29.254  1.00  0.00     0.074 A 
ATOM     53  C   UNL A   1      44.989  29.571  33.882  1.00  0.00     0.029 A 
ATOM     54  N   UNL A   1      44.051  28.479  32.189  1.00  0.00    -0.354 N 
ATOM     55  N   UNL A   1      43.855  26.334  30.182  1.00  0.00    -0.248 NA
ATOM     56  C   UNL A   1      44.768  24.470  29.109  1.00  0.00     0.031 C 
ATOM     57  C   UNL A   1      45.861  28.555  33.472  1.00  0.00     0.029 A 
ATOM     58  C   UNL A   1      45.261  27.849  32.441  1.00  0.00     0.049 A 
ATOM     59  H   UNL A   1      43.408  28.205  31.496  1.00  0.00     0.167 HD
ATOM     60  C   UNL A   1      45.091  26.039  30.751  1.00  0.00     0.074 A 
ATOM     61  C   UNL A   1      45.589  24.861  30.071  1.00  0.00     0.031 C 
ATOM     62  C   UNL A   1      45.753  26.680  31.749  1.00  0.00     0.034 A 
BRANCH  49  63
ATOM     63  C   UNL A   1      42.741  31.625  33.996  1.00  0.00     0.023 A 
ATOM     64  C   UNL A   1      42.243  31.513  35.307  1.00  0.00     0.031 A 
ATOM     65  C   UNL A   1      43.209  32.883  33.578  1.00  0.00     0.131 A 
ATOM     66  C   UNL A   1      42.146  32.652  36.121  1.00  0.00     0.055 A 
ATOM     67  C   UNL A   1      43.192  33.995  34.423  1.00  0.00     0.041 A 
ATOM     68  F   UNL A   1      43.678  33.059  32.331  1.00  0.00    -0.206 F 
ATOM     69  C   UNL A   1      42.642  33.887  35.697  1.00  0.00     0.022 A 
BRANCH  66  70
ATOM     70  S   UNL A   1      41.222  32.526  37.676  1.00  0.00     0.124 S 
ATOM     71  O   UNL A   1      42.064  31.612  38.444  1.00  0.00    -0.237 OA
ATOM     72  O   UNL A   1      41.192  33.908  38.138  1.00  0.00    -0.237 OA
ATOM     73  O   UNL A   1      39.932  31.975  37.264  1.00  0.00    -0.744 OA
ENDBRANCH  66  70
ENDBRANCH  49  63
BRANCH  50  74
ATOM     74  C   UNL A   1      42.473  24.163  27.308  1.00  0.00     0.023 A 
ATOM     75  C   UNL A   1      41.851  22.928  27.547  1.00  0.00     0.031 A 
ATOM     76  C   UNL A   1      43.127  24.345  26.076  1.00  0.00     0.131 A 
ATOM     77  C   UNL A   1      41.936  21.906  26.589  1.00  0.00     0.055 A 
ATOM     78  C   UNL A   1      43.162  23.344  25.103  1.00  0.00     0.041 A 
ATOM     79  F   UNL A   1      43.732  25.510  25.793  1.00  0.00    -0.206 F 
ATOM     80  C   UNL A   1      42.575  22.110  25.364  1.00  0.00     0.022 A 
BRANCH  77  81
ATOM     81  S   UNL A   1      41.268  20.270  27.001  1.00  0.00     0.124 S 
ATOM     82  O   UNL A   1      42.430  19.414  26.791  1.00  0.00    -0.237 OA
ATOM     83  O   UNL A   1      40.849  20.455  28.386  1.00  0.00    -0.237 OA
ATOM     84  O   UNL A   1      40.180  20.095  26.043  1.00  0.00    -0.744 OA
ENDBRANCH  77  81
ENDBRANCH  50  74
BRANCH  62  85
ATOM     85  C   UNL A   1      47.068  26.087  32.193  1.00  0.00     0.023 A 
ATOM     86  C   UNL A   1      48.267  26.340  31.502  1.00  0.00     0.031 A 
ATOM     87  C   UNL A   1      47.119  25.246  33.319  1.00  0.00     0.131 A 
ATOM     88  C   UNL A   1      49.455  25.713  31.911  1.00  0.00     0.055 A 
ATOM     89  C   UNL A   1      48.314  24.676  33.758  1.00  0.00     0.041 A 
ATOM     90  F   UNL A   1      46.004  24.969  34.014  1.00  0.00    -0.206 F 
ATOM     91  C   UNL A   1      49.489  24.897  33.045  1.00  0.00     0.022 A 
BRANCH  88  92
ATOM     92  S   UNL A   1      50.938  25.902  30.885  1.00  0.00     0.124 S 
ATOM     93  O   UNL A   1      51.989  25.429  31.781  1.00  0.00    -0.237 OA
ATOM     94  O   UNL A   1      50.641  25.042  29.744  1.00  0.00    -0.237 OA
ATOM     95  O   UNL A   1      50.972  27.333  30.590  1.00  0.00    -0.744 OA
ENDBRANCH  88  92
ENDBRANCH  62  85
ENDBRANCH  36  37
ENDBRANCH  28  31
ENDBRANCH  26  27
ENDBRANCH  25  26
ENDBRANCH   1  25
TORSDOF 18
ENDMDL
