MODEL 1
REMARK VINA RESULT:     -11.1      0.000      0.000
REMARK SMILES C[C@H]1[C@H](C(=O)NCCCCNC(=O)c2ccc(-c3c4nc(c(-c5cc(S(=O)(=O)[O-])ccc5F)c5ccc([nH]5)c(-c5cc(S(=O)(=O)[O-])ccc5F)c5nc(c(-c6cc(S(=O)(=O)[O-])ccc6F)c6ccc3[nH]6)C=C5)C=C4)cc2)CCN1C(=O)N(C)CCS(C)(=O)=O
REMARK SMILES IDX 7 1 6 2 4 3 5 4 3 6 1 7 2 8 79 9 77 10 78 11 80 12 81 13
REMARK SMILES IDX 82 14 83 15 84 16 85 17 86 18 87 19 88 20 89 21 8 22 9 23
REMARK SMILES IDX 10 24 11 25 12 26 13 28 14 29 15 30 76 31 16 32 75 33 17 34
REMARK SMILES IDX 18 35 19 36 69 37 20 38 74 39 68 40 70 41 21 42 73 43 67 44
REMARK SMILES IDX 66 45 22 47 54 48 34 49 53 50 35 51 38 52 52 53 71 54 36 55
REMARK SMILES IDX 37 56 51 58 72 59 39 60 23 61 24 62 32 63 25 64 31 65 33 66
REMARK SMILES IDX 30 67 26 68 27 69 28 70 29 71 55 72 56 73 64 74 57 75 63 76
REMARK SMILES IDX 65 77 62 78 58 79 59 80 60 81 61 82 40 83 41 84 49 85 42 86
REMARK SMILES IDX 48 87 50 88 47 89 43 90 44 91 45 92 46 93
REMARK H PARENT 6 5 11 27 70 46 38 57
REMARK Flexibility Score: inf
ROOT
ATOM      1  C   UNL A   1      32.661  29.362  27.130  1.00  0.00     0.116 C 
ENDROOT
BRANCH   1   2
ATOM      2  N   UNL A   1      31.850  28.155  27.188  1.00  0.00    -0.356 N 
ATOM      3  C   UNL A   1      31.346  27.369  26.198  1.00  0.00     0.225 C 
ATOM      4  O   UNL A   1      30.674  26.387  26.529  1.00  0.00    -0.275 OA
ATOM      5  H   UNL A   1      31.626  27.856  28.099  1.00  0.00     0.163 HD
BRANCH   3   6
ATOM      6  C   UNL A   1      31.558  27.675  24.723  1.00  0.00     0.102 C 
ATOM      7  C   UNL A   1      33.849  28.120  23.767  1.00  0.00     0.032 C 
ATOM      8  C   UNL A   1      32.853  27.038  24.194  1.00  0.00     0.096 C 
ATOM      9  N   UNL A   1      32.467  26.224  23.045  1.00  0.00    -0.321 N 
ATOM     10  C   UNL A   1      30.426  27.205  23.819  1.00  0.00     0.037 C 
ATOM     11  C   UNL A   1      31.114  26.569  22.625  1.00  0.00     0.122 C 
BRANCH   9  12
ATOM     12  C   UNL A   1      33.140  25.321  22.273  1.00  0.00     0.320 C 
ATOM     13  O   UNL A   1      33.420  25.644  21.111  1.00  0.00    -0.248 OA
BRANCH  12  14
ATOM     14  N   UNL A   1      33.471  24.051  22.696  1.00  0.00    -0.327 N 
ATOM     15  C   UNL A   1      32.740  22.793  22.599  1.00  0.00     0.148 C 
BRANCH  14  16
ATOM     16  C   UNL A   1      34.786  23.913  23.346  1.00  0.00     0.137 C 
BRANCH  16  17
ATOM     17  C   UNL A   1      35.026  22.580  24.046  1.00  0.00     0.158 C 
BRANCH  17  18
ATOM     18  S   UNL A   1      35.290  22.617  25.809  1.00  0.00     0.149 S 
ATOM     19  C   UNL A   1      33.680  22.718  26.571  1.00  0.00     0.158 C 
ATOM     20  O   UNL A   1      35.806  21.303  26.166  1.00  0.00    -0.229 OA
ATOM     21  O   UNL A   1      36.067  23.791  26.143  1.00  0.00    -0.229 OA
ENDBRANCH  17  18
ENDBRANCH  16  17
ENDBRANCH  14  16
ENDBRANCH  12  14
ENDBRANCH   9  12
ENDBRANCH   3   6
ENDBRANCH   1   2
BRANCH   1  22
ATOM     22  C   UNL A   1      32.059  30.421  26.211  1.00  0.00     0.023 C 
BRANCH  22  23
ATOM     23  C   UNL A   1      31.728  31.746  26.893  1.00  0.00     0.023 C 
BRANCH  23  24
ATOM     24  C   UNL A   1      32.932  32.528  27.403  1.00  0.00     0.116 C 
BRANCH  24  25
ATOM     25  N   UNL A   1      32.629  33.927  27.666  1.00  0.00    -0.352 N 
ATOM     26  C   UNL A   1      33.186  34.765  28.603  1.00  0.00     0.251 C 
ATOM     27  H   UNL A   1      31.933  34.326  27.096  1.00  0.00     0.163 HD
ATOM     28  O   UNL A   1      32.703  35.878  28.797  1.00  0.00    -0.269 OA
BRANCH  26  29
ATOM     29  C   UNL A   1      34.340  34.303  29.403  1.00  0.00     0.039 A 
ATOM     30  C   UNL A   1      34.104  33.649  30.613  1.00  0.00     0.014 A 
ATOM     31  C   UNL A   1      35.647  34.483  28.944  1.00  0.00     0.014 A 
ATOM     32  C   UNL A   1      35.176  33.107  31.325  1.00  0.00     0.010 A 
ATOM     33  C   UNL A   1      36.704  33.868  29.609  1.00  0.00     0.010 A 
ATOM     34  C   UNL A   1      36.480  33.172  30.807  1.00  0.00    -0.014 A 
BRANCH  34  35
ATOM     35  C   UNL A   1      37.618  32.514  31.503  1.00  0.00     0.031 A 
ATOM     36  C   UNL A   1      38.338  31.364  30.852  1.00  0.00     0.074 A 
ATOM     37  C   UNL A   1      37.964  32.916  32.743  1.00  0.00     0.049 A 
ATOM     38  N   UNL A   1      39.306  30.622  31.323  1.00  0.00    -0.248 NA
ATOM     39  C   UNL A   1      37.887  30.981  29.506  1.00  0.00     0.031 C 
ATOM     40  C   UNL A   1      37.314  33.993  33.494  1.00  0.00     0.029 A 
ATOM     41  N   UNL A   1      38.941  32.465  33.594  1.00  0.00    -0.354 N 
ATOM     42  C   UNL A   1      39.576  29.680  30.336  1.00  0.00     0.074 A 
ATOM     43  C   UNL A   1      38.621  29.903  29.272  1.00  0.00     0.031 C 
ATOM     44  C   UNL A   1      37.931  34.140  34.676  1.00  0.00     0.029 A 
ATOM     45  C   UNL A   1      38.983  33.136  34.795  1.00  0.00     0.049 A 
ATOM     46  H   UNL A   1      39.556  31.730  33.366  1.00  0.00     0.167 HD
ATOM     47  C   UNL A   1      40.546  28.732  30.310  1.00  0.00     0.034 A 
ATOM     48  C   UNL A   1      39.770  32.954  35.876  1.00  0.00     0.034 A 
ATOM     49  C   UNL A   1      41.496  28.528  31.377  1.00  0.00     0.049 A 
ATOM     50  C   UNL A   1      40.816  31.867  35.839  1.00  0.00     0.074 A 
ATOM     51  C   UNL A   1      42.550  27.634  31.432  1.00  0.00     0.029 A 
ATOM     52  N   UNL A   1      41.499  29.218  32.583  1.00  0.00    -0.354 N 
ATOM     53  N   UNL A   1      41.092  31.019  34.874  1.00  0.00    -0.248 NA
ATOM     54  C   UNL A   1      41.661  31.721  37.030  1.00  0.00     0.031 C 
ATOM     55  C   UNL A   1      43.138  27.726  32.698  1.00  0.00     0.029 A 
ATOM     56  C   UNL A   1      42.512  28.741  33.402  1.00  0.00     0.049 A 
ATOM     57  H   UNL A   1      40.873  29.939  32.823  1.00  0.00     0.167 HD
ATOM     58  C   UNL A   1      42.167  30.261  35.333  1.00  0.00     0.074 A 
ATOM     59  C   UNL A   1      42.496  30.766  36.651  1.00  0.00     0.031 C 
ATOM     60  C   UNL A   1      42.825  29.244  34.720  1.00  0.00     0.034 A 
BRANCH  47  61
ATOM     61  C   UNL A   1      40.608  27.832  29.097  1.00  0.00     0.023 A 
ATOM     62  C   UNL A   1      41.559  28.026  28.079  1.00  0.00     0.031 A 
ATOM     63  C   UNL A   1      39.690  26.777  28.945  1.00  0.00     0.131 A 
ATOM     64  C   UNL A   1      41.520  27.232  26.922  1.00  0.00     0.055 A 
ATOM     65  C   UNL A   1      39.714  25.934  27.832  1.00  0.00     0.041 A 
ATOM     66  F   UNL A   1      38.745  26.555  29.871  1.00  0.00    -0.206 F 
ATOM     67  C   UNL A   1      40.622  26.170  26.804  1.00  0.00     0.022 A 
BRANCH  64  68
ATOM     68  S   UNL A   1      42.558  27.706  25.512  1.00  0.00     0.124 S 
ATOM     69  O   UNL A   1      43.853  27.913  26.156  1.00  0.00    -0.237 OA
ATOM     70  O   UNL A   1      42.456  26.541  24.640  1.00  0.00    -0.237 OA
ATOM     71  O   UNL A   1      41.918  28.920  25.009  1.00  0.00    -0.744 OA
ENDBRANCH  64  68
ENDBRANCH  47  61
BRANCH  48  72
ATOM     72  C   UNL A   1      39.597  33.803  37.090  1.00  0.00     0.023 A 
ATOM     73  C   UNL A   1      40.453  34.888  37.346  1.00  0.00     0.031 A 
ATOM     74  C   UNL A   1      38.602  33.513  38.043  1.00  0.00     0.131 A 
ATOM     75  C   UNL A   1      40.333  35.607  38.545  1.00  0.00     0.055 A 
ATOM     76  C   UNL A   1      38.448  34.271  39.205  1.00  0.00     0.041 A 
ATOM     77  F   UNL A   1      37.755  32.490  37.850  1.00  0.00    -0.206 F 
ATOM     78  C   UNL A   1      39.327  35.316  39.469  1.00  0.00     0.022 A 
BRANCH  75  79
ATOM     79  S   UNL A   1      41.577  36.871  38.927  1.00  0.00     0.124 S 
ATOM     80  O   UNL A   1      42.268  37.003  37.649  1.00  0.00    -0.237 OA
ATOM     81  O   UNL A   1      40.747  38.001  39.330  1.00  0.00    -0.237 OA
ATOM     82  O   UNL A   1      42.361  36.262  40.000  1.00  0.00    -0.744 OA
ENDBRANCH  75  79
ENDBRANCH  48  72
BRANCH  60  83
ATOM     83  C   UNL A   1      44.001  28.643  35.453  1.00  0.00     0.023 A 
ATOM     84  C   UNL A   1      43.850  27.565  36.343  1.00  0.00     0.031 A 
ATOM     85  C   UNL A   1      45.293  29.167  35.265  1.00  0.00     0.131 A 
ATOM     86  C   UNL A   1      44.960  27.085  37.055  1.00  0.00     0.055 A 
ATOM     87  C   UNL A   1      46.405  28.640  35.923  1.00  0.00     0.041 A 
ATOM     88  F   UNL A   1      45.497  30.201  34.432  1.00  0.00    -0.206 F 
ATOM     89  C   UNL A   1      46.239  27.603  36.835  1.00  0.00     0.022 A 
BRANCH  86  90
ATOM     90  S   UNL A   1      44.694  25.844  38.350  1.00  0.00     0.124 S 
ATOM     91  O   UNL A   1      44.060  26.633  39.401  1.00  0.00    -0.237 OA
ATOM     92  O   UNL A   1      43.839  24.871  37.679  1.00  0.00    -0.237 OA
ATOM     93  O   UNL A   1      46.044  25.373  38.657  1.00  0.00    -0.744 OA
ENDBRANCH  86  90
ENDBRANCH  60  83
ENDBRANCH  34  35
ENDBRANCH  26  29
ENDBRANCH  24  25
ENDBRANCH  23  24
ENDBRANCH  22  23
ENDBRANCH   1  22
TORSDOF 19
ENDMDL
MODEL 2
REMARK VINA RESULT:     -10.9      1.685      2.223
REMARK SMILES C[C@H]1[C@H](C(=O)NCCCCNC(=O)c2ccc(-c3c4nc(c(-c5cc(S(=O)(=O)[O-])ccc5F)c5ccc([nH]5)c(-c5cc(S(=O)(=O)[O-])ccc5F)c5nc(c(-c6cc(S(=O)(=O)[O-])ccc6F)c6ccc3[nH]6)C=C5)C=C4)cc2)CCN1C(=O)N(C)CCS(C)(=O)=O
REMARK SMILES IDX 7 1 6 2 4 3 5 4 3 6 1 7 2 8 79 9 77 10 78 11 80 12 81 13
REMARK SMILES IDX 82 14 83 15 84 16 85 17 86 18 87 19 88 20 89 21 8 22 9 23
REMARK SMILES IDX 10 24 11 25 12 26 13 28 14 29 15 30 76 31 16 32 75 33 17 34
REMARK SMILES IDX 18 35 19 36 69 37 20 38 74 39 68 40 70 41 21 42 73 43 67 44
REMARK SMILES IDX 66 45 22 47 54 48 34 49 53 50 35 51 38 52 52 53 71 54 36 55
REMARK SMILES IDX 37 56 51 58 72 59 39 60 23 61 24 62 32 63 25 64 31 65 33 66
REMARK SMILES IDX 30 67 26 68 27 69 28 70 29 71 55 72 56 73 64 74 57 75 63 76
REMARK SMILES IDX 65 77 62 78 58 79 59 80 60 81 61 82 40 83 41 84 49 85 42 86
REMARK SMILES IDX 48 87 50 88 47 89 43 90 44 91 45 92 46 93
REMARK H PARENT 6 5 11 27 70 46 38 57
REMARK Flexibility Score: inf
ROOT
ATOM      1  C   UNL A   1      31.617  29.193  25.067  1.00  0.00     0.116 C 
ENDROOT
BRANCH   1   2
ATOM      2  N   UNL A   1      32.607  28.351  24.412  1.00  0.00    -0.356 N 
ATOM      3  C   UNL A   1      32.668  27.000  24.256  1.00  0.00     0.225 C 
ATOM      4  O   UNL A   1      33.639  26.535  23.651  1.00  0.00    -0.275 OA
ATOM      5  H   UNL A   1      33.362  28.842  24.014  1.00  0.00     0.163 HD
BRANCH   3   6
ATOM      6  C   UNL A   1      31.611  26.063  24.820  1.00  0.00     0.102 C 
ATOM      7  C   UNL A   1      30.444  24.348  23.384  1.00  0.00     0.032 C 
ATOM      8  C   UNL A   1      31.706  24.662  24.193  1.00  0.00     0.096 C 
ATOM      9  N   UNL A   1      31.840  23.727  25.305  1.00  0.00    -0.321 N 
ATOM     10  C   UNL A   1      31.679  25.883  26.331  1.00  0.00     0.037 C 
ATOM     11  C   UNL A   1      31.502  24.393  26.557  1.00  0.00     0.122 C 
BRANCH   9  12
ATOM     12  C   UNL A   1      32.111  22.390  25.372  1.00  0.00     0.320 C 
ATOM     13  O   UNL A   1      31.188  21.624  25.680  1.00  0.00    -0.248 OA
BRANCH  12  14
ATOM     14  N   UNL A   1      33.367  21.854  25.175  1.00  0.00    -0.327 N 
ATOM     15  C   UNL A   1      34.641  22.150  25.820  1.00  0.00     0.148 C 
BRANCH  14  16
ATOM     16  C   UNL A   1      33.460  20.793  24.158  1.00  0.00     0.137 C 
BRANCH  16  17
ATOM     17  C   UNL A   1      33.762  19.400  24.700  1.00  0.00     0.158 C 
BRANCH  17  18
ATOM     18  S   UNL A   1      32.843  18.037  24.009  1.00  0.00     0.149 S 
ATOM     19  C   UNL A   1      34.000  16.700  23.773  1.00  0.00     0.158 C 
ATOM     20  O   UNL A   1      31.939  17.588  25.060  1.00  0.00    -0.229 OA
ATOM     21  O   UNL A   1      32.291  18.441  22.734  1.00  0.00    -0.229 OA
ENDBRANCH  17  18
ENDBRANCH  16  17
ENDBRANCH  14  16
ENDBRANCH  12  14
ENDBRANCH   9  12
ENDBRANCH   3   6
ENDBRANCH   1   2
BRANCH   1  22
ATOM     22  C   UNL A   1      32.107  29.727  26.409  1.00  0.00     0.023 C 
BRANCH  22  23
ATOM     23  C   UNL A   1      31.849  31.214  26.638  1.00  0.00     0.023 C 
BRANCH  23  24
ATOM     24  C   UNL A   1      32.975  31.963  27.340  1.00  0.00     0.116 C 
BRANCH  24  25
ATOM     25  N   UNL A   1      32.698  33.382  27.501  1.00  0.00    -0.352 N 
ATOM     26  C   UNL A   1      33.256  34.272  28.388  1.00  0.00     0.251 C 
ATOM     27  H   UNL A   1      32.020  33.755  26.892  1.00  0.00     0.163 HD
ATOM     28  O   UNL A   1      32.793  35.405  28.496  1.00  0.00    -0.269 OA
BRANCH  26  29
ATOM     29  C   UNL A   1      34.386  33.844  29.240  1.00  0.00     0.039 A 
ATOM     30  C   UNL A   1      34.138  32.976  30.304  1.00  0.00     0.014 A 
ATOM     31  C   UNL A   1      35.689  34.268  28.967  1.00  0.00     0.014 A 
ATOM     32  C   UNL A   1      35.208  32.471  31.047  1.00  0.00     0.010 A 
ATOM     33  C   UNL A   1      36.759  33.698  29.652  1.00  0.00     0.010 A 
ATOM     34  C   UNL A   1      36.530  32.793  30.699  1.00  0.00    -0.014 A 
BRANCH  34  35
ATOM     35  C   UNL A   1      37.683  32.188  31.417  1.00  0.00     0.031 A 
ATOM     36  C   UNL A   1      38.491  31.098  30.765  1.00  0.00     0.074 A 
ATOM     37  C   UNL A   1      37.966  32.579  32.676  1.00  0.00     0.049 A 
ATOM     38  N   UNL A   1      39.487  30.404  31.251  1.00  0.00    -0.248 NA
ATOM     39  C   UNL A   1      38.106  30.721  29.397  1.00  0.00     0.031 C 
ATOM     40  C   UNL A   1      37.229  33.598  33.430  1.00  0.00     0.029 A 
ATOM     41  N   UNL A   1      38.942  32.168  33.549  1.00  0.00    -0.354 N 
ATOM     42  C   UNL A   1      39.844  29.503  30.253  1.00  0.00     0.074 A 
ATOM     43  C   UNL A   1      38.910  29.695  29.164  1.00  0.00     0.031 C 
ATOM     44  C   UNL A   1      37.800  33.753  34.634  1.00  0.00     0.029 A 
ATOM     45  C   UNL A   1      38.906  32.811  34.765  1.00  0.00     0.049 A 
ATOM     46  H   UNL A   1      39.607  31.477  33.325  1.00  0.00     0.167 HD
ATOM     47  C   UNL A   1      40.870  28.616  30.238  1.00  0.00     0.034 A 
ATOM     48  C   UNL A   1      39.668  32.651  35.866  1.00  0.00     0.034 A 
ATOM     49  C   UNL A   1      41.796  28.443  31.331  1.00  0.00     0.049 A 
ATOM     50  C   UNL A   1      40.778  31.629  35.839  1.00  0.00     0.074 A 
ATOM     51  C   UNL A   1      42.900  27.612  31.400  1.00  0.00     0.029 A 
ATOM     52  N   UNL A   1      41.720  29.103  32.551  1.00  0.00    -0.354 N 
ATOM     53  N   UNL A   1      41.134  30.823  34.866  1.00  0.00    -0.248 NA
ATOM     54  C   UNL A   1      41.593  31.505  37.054  1.00  0.00     0.031 C 
ATOM     55  C   UNL A   1      43.442  27.709  32.686  1.00  0.00     0.029 A 
ATOM     56  C   UNL A   1      42.734  28.669  33.392  1.00  0.00     0.049 A 
ATOM     57  H   UNL A   1      41.045  29.780  32.786  1.00  0.00     0.167 HD
ATOM     58  C   UNL A   1      42.238  30.119  35.343  1.00  0.00     0.074 A 
ATOM     59  C   UNL A   1      42.496  30.611  36.682  1.00  0.00     0.031 C 
ATOM     60  C   UNL A   1      42.975  29.158  34.730  1.00  0.00     0.034 A 
BRANCH  47  61
ATOM     61  C   UNL A   1      41.023  27.750  29.008  1.00  0.00     0.023 A 
ATOM     62  C   UNL A   1      42.068  27.950  28.088  1.00  0.00     0.031 A 
ATOM     63  C   UNL A   1      40.100  26.723  28.740  1.00  0.00     0.131 A 
ATOM     64  C   UNL A   1      42.119  27.191  26.909  1.00  0.00     0.055 A 
ATOM     65  C   UNL A   1      40.207  25.913  27.608  1.00  0.00     0.041 A 
ATOM     66  F   UNL A   1      39.068  26.498  29.568  1.00  0.00    -0.206 F 
ATOM     67  C   UNL A   1      41.212  26.155  26.676  1.00  0.00     0.022 A 
BRANCH  64  68
ATOM     68  S   UNL A   1      43.292  27.679  25.615  1.00  0.00     0.124 S 
ATOM     69  O   UNL A   1      43.903  28.868  26.205  1.00  0.00    -0.237 OA
ATOM     70  O   UNL A   1      44.151  26.505  25.509  1.00  0.00    -0.237 OA
ATOM     71  O   UNL A   1      42.439  27.935  24.457  1.00  0.00    -0.744 OA
ENDBRANCH  64  68
ENDBRANCH  47  61
BRANCH  48  72
ATOM     72  C   UNL A   1      39.406  33.460  37.093  1.00  0.00     0.023 A 
ATOM     73  C   UNL A   1      40.072  34.677  37.316  1.00  0.00     0.031 A 
ATOM     74  C   UNL A   1      38.523  33.002  38.088  1.00  0.00     0.131 A 
ATOM     75  C   UNL A   1      39.884  35.367  38.523  1.00  0.00     0.055 A 
ATOM     76  C   UNL A   1      38.294  33.724  39.261  1.00  0.00     0.041 A 
ATOM     77  F   UNL A   1      37.858  31.847  37.928  1.00  0.00    -0.206 F 
ATOM     78  C   UNL A   1      38.988  34.907  39.490  1.00  0.00     0.022 A 
BRANCH  75  79
ATOM     79  S   UNL A   1      40.906  36.829  38.855  1.00  0.00     0.124 S 
ATOM     80  O   UNL A   1      41.669  36.398  40.021  1.00  0.00    -0.237 OA
ATOM     81  O   UNL A   1      41.654  36.964  37.610  1.00  0.00    -0.237 OA
ATOM     82  O   UNL A   1      39.923  37.880  39.107  1.00  0.00    -0.744 OA
ENDBRANCH  75  79
ENDBRANCH  48  72
BRANCH  60  83
ATOM     83  C   UNL A   1      44.161  28.611  35.488  1.00  0.00     0.023 A 
ATOM     84  C   UNL A   1      44.042  27.526  36.374  1.00  0.00     0.031 A 
ATOM     85  C   UNL A   1      45.432  29.193  35.326  1.00  0.00     0.131 A 
ATOM     86  C   UNL A   1      45.157  27.097  37.109  1.00  0.00     0.055 A 
ATOM     87  C   UNL A   1      46.553  28.716  36.007  1.00  0.00     0.041 A 
ATOM     88  F   UNL A   1      45.606  30.235  34.497  1.00  0.00    -0.206 F 
ATOM     89  C   UNL A   1      46.416  27.672  36.916  1.00  0.00     0.022 A 
BRANCH  86  90
ATOM     90  S   UNL A   1      44.921  25.844  38.399  1.00  0.00     0.124 S 
ATOM     91  O   UNL A   1      46.290  25.399  38.644  1.00  0.00    -0.237 OA
ATOM     92  O   UNL A   1      44.299  26.612  39.472  1.00  0.00    -0.237 OA
ATOM     93  O   UNL A   1      44.053  24.855  37.763  1.00  0.00    -0.744 OA
ENDBRANCH  86  90
ENDBRANCH  60  83
ENDBRANCH  34  35
ENDBRANCH  26  29
ENDBRANCH  24  25
ENDBRANCH  23  24
ENDBRANCH  22  23
ENDBRANCH   1  22
TORSDOF 19
ENDMDL
MODEL 3
REMARK VINA RESULT:     -10.9      1.966      7.834
REMARK SMILES C[C@H]1[C@H](C(=O)NCCCCNC(=O)c2ccc(-c3c4nc(c(-c5cc(S(=O)(=O)[O-])ccc5F)c5ccc([nH]5)c(-c5cc(S(=O)(=O)[O-])ccc5F)c5nc(c(-c6cc(S(=O)(=O)[O-])ccc6F)c6ccc3[nH]6)C=C5)C=C4)cc2)CCN1C(=O)N(C)CCS(C)(=O)=O
REMARK SMILES IDX 7 1 6 2 4 3 5 4 3 6 1 7 2 8 79 9 77 10 78 11 80 12 81 13
REMARK SMILES IDX 82 14 83 15 84 16 85 17 86 18 87 19 88 20 89 21 8 22 9 23
REMARK SMILES IDX 10 24 11 25 12 26 13 28 14 29 15 30 76 31 16 32 75 33 17 34
REMARK SMILES IDX 18 35 19 36 69 37 20 38 74 39 68 40 70 41 21 42 73 43 67 44
REMARK SMILES IDX 66 45 22 47 54 48 34 49 53 50 35 51 38 52 52 53 71 54 36 55
REMARK SMILES IDX 37 56 51 58 72 59 39 60 23 61 24 62 32 63 25 64 31 65 33 66
REMARK SMILES IDX 30 67 26 68 27 69 28 70 29 71 55 72 56 73 64 74 57 75 63 76
REMARK SMILES IDX 65 77 62 78 58 79 59 80 60 81 61 82 40 83 41 84 49 85 42 86
REMARK SMILES IDX 48 87 50 88 47 89 43 90 44 91 45 92 46 93
REMARK H PARENT 6 5 11 27 70 46 38 57
REMARK Flexibility Score: inf
ROOT
ATOM      1  C   UNL A   1      32.458  29.752  27.008  1.00  0.00     0.116 C 
ENDROOT
BRANCH   1   2
ATOM      2  N   UNL A   1      31.830  28.459  27.241  1.00  0.00    -0.356 N 
ATOM      3  C   UNL A   1      31.348  27.531  26.370  1.00  0.00     0.225 C 
ATOM      4  O   UNL A   1      30.853  26.503  26.842  1.00  0.00    -0.275 OA
ATOM      5  H   UNL A   1      31.738  28.215  28.190  1.00  0.00     0.163 HD
BRANCH   3   6
ATOM      6  C   UNL A   1      31.375  27.732  24.862  1.00  0.00     0.102 C 
ATOM      7  C   UNL A   1      33.428  28.574  23.664  1.00  0.00     0.032 C 
ATOM      8  C   UNL A   1      32.738  27.346  24.265  1.00  0.00     0.096 C 
ATOM      9  N   UNL A   1      32.463  26.361  23.225  1.00  0.00    -0.321 N 
ATOM     10  C   UNL A   1      30.316  26.939  24.108  1.00  0.00     0.037 C 
ATOM     11  C   UNL A   1      31.040  26.358  22.908  1.00  0.00     0.122 C 
BRANCH   9  12
ATOM     12  C   UNL A   1      33.265  25.557  22.465  1.00  0.00     0.320 C 
ATOM     13  O   UNL A   1      33.706  26.014  21.402  1.00  0.00    -0.248 OA
BRANCH  12  14
ATOM     14  N   UNL A   1      33.559  24.248  22.787  1.00  0.00    -0.327 N 
ATOM     15  C   UNL A   1      33.057  22.995  22.236  1.00  0.00     0.148 C 
BRANCH  14  16
ATOM     16  C   UNL A   1      34.558  24.059  23.854  1.00  0.00     0.137 C 
BRANCH  16  17
ATOM     17  C   UNL A   1      34.635  22.648  24.424  1.00  0.00     0.158 C 
BRANCH  17  18
ATOM     18  S   UNL A   1      33.751  22.329  25.940  1.00  0.00     0.149 S 
ATOM     19  C   UNL A   1      32.394  23.485  26.001  1.00  0.00     0.158 C 
ATOM     20  O   UNL A   1      33.138  21.017  25.779  1.00  0.00    -0.229 OA
ATOM     21  O   UNL A   1      34.641  22.554  27.059  1.00  0.00    -0.229 OA
ENDBRANCH  17  18
ENDBRANCH  16  17
ENDBRANCH  14  16
ENDBRANCH  12  14
ENDBRANCH   9  12
ENDBRANCH   3   6
ENDBRANCH   1   2
BRANCH   1  22
ATOM     22  C   UNL A   1      31.587  30.675  26.162  1.00  0.00     0.023 C 
BRANCH  22  23
ATOM     23  C   UNL A   1      31.413  32.083  26.725  1.00  0.00     0.023 C 
BRANCH  23  24
ATOM     24  C   UNL A   1      32.684  32.720  27.273  1.00  0.00     0.116 C 
BRANCH  24  25
ATOM     25  N   UNL A   1      32.502  34.114  27.651  1.00  0.00    -0.352 N 
ATOM     26  C   UNL A   1      33.164  34.836  28.616  1.00  0.00     0.251 C 
ATOM     27  H   UNL A   1      31.814  34.605  27.148  1.00  0.00     0.163 HD
ATOM     28  O   UNL A   1      32.777  35.963  28.914  1.00  0.00    -0.269 OA
BRANCH  26  29
ATOM     29  C   UNL A   1      34.314  34.232  29.321  1.00  0.00     0.039 A 
ATOM     30  C   UNL A   1      34.072  33.347  30.373  1.00  0.00     0.014 A 
ATOM     31  C   UNL A   1      35.624  34.508  28.922  1.00  0.00     0.014 A 
ATOM     32  C   UNL A   1      35.141  32.681  30.975  1.00  0.00     0.010 A 
ATOM     33  C   UNL A   1      36.679  33.780  29.464  1.00  0.00     0.010 A 
ATOM     34  C   UNL A   1      36.450  32.858  30.495  1.00  0.00    -0.014 A 
BRANCH  34  35
ATOM     35  C   UNL A   1      37.587  32.082  31.059  1.00  0.00     0.031 A 
ATOM     36  C   UNL A   1      38.093  32.382  32.444  1.00  0.00     0.074 A 
ATOM     37  C   UNL A   1      38.198  31.148  30.302  1.00  0.00     0.049 A 
ATOM     38  N   UNL A   1      39.108  31.863  33.084  1.00  0.00    -0.248 NA
ATOM     39  C   UNL A   1      37.379  33.425  33.195  1.00  0.00     0.031 C 
ATOM     40  C   UNL A   1      37.824  30.795  28.930  1.00  0.00     0.029 A 
ATOM     41  N   UNL A   1      39.264  30.327  30.573  1.00  0.00    -0.354 N 
ATOM     42  C   UNL A   1      39.161  32.521  34.309  1.00  0.00     0.074 A 
ATOM     43  C   UNL A   1      38.117  33.523  34.290  1.00  0.00     0.031 C 
ATOM     44  C   UNL A   1      38.625  29.810  28.495  1.00  0.00     0.029 A 
ATOM     45  C   UNL A   1      39.604  29.496  29.530  1.00  0.00     0.049 A 
ATOM     46  H   UNL A   1      39.741  30.331  31.435  1.00  0.00     0.167 HD
ATOM     47  C   UNL A   1      39.987  32.292  35.360  1.00  0.00     0.034 A 
ATOM     48  C   UNL A   1      40.600  28.594  29.414  1.00  0.00     0.034 A 
ATOM     49  C   UNL A   1      41.018  31.283  35.364  1.00  0.00     0.049 A 
ATOM     50  C   UNL A   1      41.532  28.386  30.582  1.00  0.00     0.074 A 
ATOM     51  C   UNL A   1      41.876  30.932  36.392  1.00  0.00     0.029 A 
ATOM     52  N   UNL A   1      41.342  30.470  34.284  1.00  0.00    -0.354 N 
ATOM     53  N   UNL A   1      41.533  28.981  31.754  1.00  0.00    -0.248 NA
ATOM     54  C   UNL A   1      42.587  27.380  30.416  1.00  0.00     0.031 C 
ATOM     55  C   UNL A   1      42.768  29.968  35.910  1.00  0.00     0.029 A 
ATOM     56  C   UNL A   1      42.410  29.648  34.610  1.00  0.00     0.049 A 
ATOM     57  H   UNL A   1      40.880  30.477  33.414  1.00  0.00     0.167 HD
ATOM     58  C   UNL A   1      42.570  28.393  32.475  1.00  0.00     0.074 A 
ATOM     59  C   UNL A   1      43.157  27.388  31.611  1.00  0.00     0.031 C 
ATOM     60  C   UNL A   1      42.995  28.657  33.737  1.00  0.00     0.034 A 
BRANCH  47  61
ATOM     61  C   UNL A   1      39.822  33.170  36.579  1.00  0.00     0.023 A 
ATOM     62  C   UNL A   1      39.122  32.731  37.718  1.00  0.00     0.031 A 
ATOM     63  C   UNL A   1      40.352  34.473  36.598  1.00  0.00     0.131 A 
ATOM     64  C   UNL A   1      38.904  33.610  38.790  1.00  0.00     0.055 A 
ATOM     65  C   UNL A   1      40.206  35.312  37.704  1.00  0.00     0.041 A 
ATOM     66  F   UNL A   1      41.009  34.958  35.534  1.00  0.00    -0.206 F 
ATOM     67  C   UNL A   1      39.465  34.888  38.803  1.00  0.00     0.022 A 
BRANCH  64  68
ATOM     68  S   UNL A   1      37.748  33.111  40.096  1.00  0.00     0.124 S 
ATOM     69  O   UNL A   1      38.426  31.946  40.661  1.00  0.00    -0.237 OA
ATOM     70  O   UNL A   1      37.701  34.297  40.944  1.00  0.00    -0.237 OA
ATOM     71  O   UNL A   1      36.516  32.814  39.368  1.00  0.00    -0.744 OA
ENDBRANCH  64  68
ENDBRANCH  47  61
BRANCH  48  72
ATOM     72  C   UNL A   1      40.784  27.828  28.147  1.00  0.00     0.023 A 
ATOM     73  C   UNL A   1      40.245  26.540  27.992  1.00  0.00     0.031 A 
ATOM     74  C   UNL A   1      41.548  28.352  27.087  1.00  0.00     0.131 A 
ATOM     75  C   UNL A   1      40.519  25.801  26.831  1.00  0.00     0.055 A 
ATOM     76  C   UNL A   1      41.765  27.636  25.908  1.00  0.00     0.041 A 
ATOM     77  F   UNL A   1      42.085  29.579  27.178  1.00  0.00    -0.206 F 
ATOM     78  C   UNL A   1      41.262  26.346  25.782  1.00  0.00     0.022 A 
BRANCH  75  79
ATOM     79  S   UNL A   1      39.970  24.073  26.752  1.00  0.00     0.124 S 
ATOM     80  O   UNL A   1      38.722  24.192  26.008  1.00  0.00    -0.237 OA
ATOM     81  O   UNL A   1      41.079  23.435  26.051  1.00  0.00    -0.237 OA
ATOM     82  O   UNL A   1      39.826  23.698  28.158  1.00  0.00    -0.744 OA
ENDBRANCH  75  79
ENDBRANCH  48  72
BRANCH  60  83
ATOM     83  C   UNL A   1      44.123  27.808  34.274  1.00  0.00     0.023 A 
ATOM     84  C   UNL A   1      43.902  26.523  34.800  1.00  0.00     0.031 A 
ATOM     85  C   UNL A   1      45.441  28.299  34.269  1.00  0.00     0.131 A 
ATOM     86  C   UNL A   1      44.970  25.799  35.352  1.00  0.00     0.055 A 
ATOM     87  C   UNL A   1      46.511  27.546  34.755  1.00  0.00     0.041 A 
ATOM     88  F   UNL A   1      45.714  29.522  33.784  1.00  0.00    -0.206 F 
ATOM     89  C   UNL A   1      46.276  26.294  35.315  1.00  0.00     0.022 A 
BRANCH  86  90
ATOM     90  S   UNL A   1      44.615  24.244  36.215  1.00  0.00     0.124 S 
ATOM     91  O   UNL A   1      45.796  23.445  35.899  1.00  0.00    -0.237 OA
ATOM     92  O   UNL A   1      44.491  24.677  37.603  1.00  0.00    -0.237 OA
ATOM     93  O   UNL A   1      43.372  23.784  35.597  1.00  0.00    -0.744 OA
ENDBRANCH  86  90
ENDBRANCH  60  83
ENDBRANCH  34  35
ENDBRANCH  26  29
ENDBRANCH  24  25
ENDBRANCH  23  24
ENDBRANCH  22  23
ENDBRANCH   1  22
TORSDOF 19
ENDMDL
