MODEL 1
REMARK VINA RESULT:     -11.8      0.000      0.000
REMARK SMILES O=C(C[C@@H]1CN(C(=O)[C@H]2C[C@H](O)C[NH2+]2)CCO1)NCCCCNC(=O)c1ccc(-c2c3nc(c(-c4cc(S(=O)(=O)[O-])ccc4F)c4ccc([nH]4)c(-c4cc(S(=O)(=O)[O-])ccc4F)c4nc(c(-c5cc(S(=O)(=O)[O-])ccc5F)c5ccc2[nH]5)C=C4)C=C3)cc1
REMARK SMILES IDX 20 1 19 2 18 3 1 4 2 5 3 7 4 8 5 9 17 10 6 11 16 12 15 13
REMARK SMILES IDX 7 14 8 15 9 16 10 17 14 18 11 19 13 20 12 23 21 25 22 26
REMARK SMILES IDX 23 27 24 28 25 30 26 31 27 32 88 33 28 34 87 35 29 36 30 37
REMARK SMILES IDX 31 38 81 39 32 40 86 41 80 42 82 43 33 44 85 45 79 46 78 47
REMARK SMILES IDX 34 49 66 50 46 51 65 52 47 53 50 54 64 55 83 56 48 57 49 58
REMARK SMILES IDX 63 60 84 61 51 62 35 63 36 64 44 65 37 66 43 67 45 68 42 69
REMARK SMILES IDX 38 70 39 71 40 72 41 73 67 74 68 75 76 76 69 77 75 78 77 79
REMARK SMILES IDX 74 80 70 81 71 82 72 83 73 84 52 85 53 86 61 87 54 88 60 89
REMARK SMILES IDX 62 90 59 91 55 92 56 93 57 94 58 95
REMARK H PARENT 18 6 14 21 14 22 12 24 23 29 82 48 50 59
REMARK Flexibility Score: inf
ROOT
ATOM      1  C   UNL A   1      34.604  21.075  25.804  1.00  0.00     0.023 C 
ENDROOT
BRANCH   1   2
ATOM      2  C   UNL A   1      33.930  21.072  24.433  1.00  0.00     0.116 C 
BRANCH   2   3
ATOM      3  N   UNL A   1      32.770  21.934  24.425  1.00  0.00    -0.356 N 
ATOM      4  O   UNL A   1      32.813  22.451  22.183  1.00  0.00    -0.275 OA
ATOM      5  C   UNL A   1      32.332  22.588  23.302  1.00  0.00     0.222 C 
ATOM      6  H   UNL A   1      32.269  22.056  25.264  1.00  0.00     0.163 HD
BRANCH   5   7
ATOM      7  C   UNL A   1      31.177  23.519  23.566  1.00  0.00     0.133 C 
BRANCH   7   8
ATOM      8  C   UNL A   1      31.687  24.834  24.152  1.00  0.00     0.147 C 
ATOM      9  C   UNL A   1      31.635  25.916  23.073  1.00  0.00     0.152 C 
ATOM     10  O   UNL A   1      33.035  24.660  24.620  1.00  0.00    -0.374 OA
ATOM     11  N   UNL A   1      32.168  27.180  23.551  1.00  0.00    -0.333 N 
ATOM     12  C   UNL A   1      33.546  25.891  25.172  1.00  0.00     0.182 C 
ATOM     13  C   UNL A   1      33.500  27.044  24.157  1.00  0.00     0.148 C 
BRANCH  11  14
ATOM     14  C   UNL A   1      31.620  28.439  23.359  1.00  0.00     0.281 C 
ATOM     15  O   UNL A   1      32.089  29.421  23.944  1.00  0.00    -0.268 OA
BRANCH  14  16
ATOM     16  C   UNL A   1      30.417  28.657  22.396  1.00  0.00     0.275 C 
ATOM     17  C   UNL A   1      29.035  28.501  23.019  1.00  0.00     0.113 C 
ATOM     18  N   UNL A   1      30.469  29.950  21.679  1.00  0.00    -0.334 N 
ATOM     19  C   UNL A   1      28.340  29.841  22.834  1.00  0.00     0.175 C 
ATOM     20  C   UNL A   1      29.131  30.548  21.733  1.00  0.00     0.293 C 
ATOM     21  H   UNL A   1      30.742  29.798  20.708  1.00  0.00     0.347 HD
ATOM     22  H   UNL A   1      31.153  30.571  22.113  1.00  0.00     0.347 HD
BRANCH  19  23
ATOM     23  O   UNL A   1      26.970  29.672  22.507  1.00  0.00    -0.387 OA
ATOM     24  H   UNL A   1      26.635  28.862  22.924  1.00  0.00     0.211 HD
ENDBRANCH  19  23
ENDBRANCH  14  16
ENDBRANCH  11  14
ENDBRANCH   7   8
ENDBRANCH   5   7
ENDBRANCH   2   3
ENDBRANCH   1   2
BRANCH   1  25
ATOM     25  C   UNL A   1      35.787  22.041  25.929  1.00  0.00     0.023 C 
BRANCH  25  26
ATOM     26  C   UNL A   1      36.925  21.806  24.941  1.00  0.00     0.116 C 
BRANCH  26  27
ATOM     27  N   UNL A   1      37.833  20.761  25.382  1.00  0.00    -0.352 N 
ATOM     28  C   UNL A   1      39.069  20.875  25.975  1.00  0.00     0.251 C 
ATOM     29  H   UNL A   1      37.519  19.840  25.234  1.00  0.00     0.163 HD
ATOM     30  O   UNL A   1      39.768  19.878  26.111  1.00  0.00    -0.269 OA
BRANCH  28  31
ATOM     31  C   UNL A   1      39.562  22.202  26.415  1.00  0.00     0.039 A 
ATOM     32  C   UNL A   1      40.647  22.258  27.293  1.00  0.00     0.014 A 
ATOM     33  C   UNL A   1      38.964  23.383  25.967  1.00  0.00     0.014 A 
ATOM     34  C   UNL A   1      41.175  23.498  27.664  1.00  0.00     0.010 A 
ATOM     35  C   UNL A   1      39.539  24.614  26.277  1.00  0.00     0.010 A 
ATOM     36  C   UNL A   1      40.654  24.686  27.127  1.00  0.00    -0.014 A 
BRANCH  36  37
ATOM     37  C   UNL A   1      41.265  26.007  27.440  1.00  0.00     0.031 A 
ATOM     38  C   UNL A   1      42.644  26.346  26.939  1.00  0.00     0.074 A 
ATOM     39  C   UNL A   1      40.600  26.883  28.222  1.00  0.00     0.049 A 
ATOM     40  N   UNL A   1      43.369  27.409  27.168  1.00  0.00    -0.248 NA
ATOM     41  C   UNL A   1      43.301  25.342  26.088  1.00  0.00     0.031 C 
ATOM     42  C   UNL A   1      39.272  26.659  28.799  1.00  0.00     0.029 A 
ATOM     43  N   UNL A   1      40.948  28.131  28.676  1.00  0.00    -0.354 N 
ATOM     44  C   UNL A   1      44.570  27.203  26.497  1.00  0.00     0.074 A 
ATOM     45  C   UNL A   1      44.498  25.882  25.909  1.00  0.00     0.031 C 
ATOM     46  C   UNL A   1      38.910  27.741  29.504  1.00  0.00     0.029 A 
ATOM     47  C   UNL A   1      39.996  28.716  29.481  1.00  0.00     0.049 A 
ATOM     48  H   UNL A   1      41.800  28.568  28.446  1.00  0.00     0.167 HD
ATOM     49  C   UNL A   1      45.626  28.045  26.363  1.00  0.00     0.034 A 
ATOM     50  C   UNL A   1      40.003  29.891  30.141  1.00  0.00     0.034 A 
ATOM     51  C   UNL A   1      45.683  29.361  26.952  1.00  0.00     0.049 A 
ATOM     52  C   UNL A   1      41.207  30.792  30.014  1.00  0.00     0.074 A 
ATOM     53  C   UNL A   1      46.685  30.310  26.842  1.00  0.00     0.029 A 
ATOM     54  N   UNL A   1      44.704  29.914  27.769  1.00  0.00    -0.354 N 
ATOM     55  N   UNL A   1      42.317  30.597  29.338  1.00  0.00    -0.248 NA
ATOM     56  C   UNL A   1      41.156  32.073  30.730  1.00  0.00     0.031 C 
ATOM     57  C   UNL A   1      46.351  31.399  27.655  1.00  0.00     0.029 A 
ATOM     58  C   UNL A   1      45.097  31.173  28.199  1.00  0.00     0.049 A 
ATOM     59  H   UNL A   1      43.856  29.475  28.009  1.00  0.00     0.167 HD
ATOM     60  C   UNL A   1      43.078  31.749  29.521  1.00  0.00     0.074 A 
ATOM     61  C   UNL A   1      42.295  32.636  30.356  1.00  0.00     0.031 C 
ATOM     62  C   UNL A   1      44.312  32.048  29.039  1.00  0.00     0.034 A 
BRANCH  49  63
ATOM     63  C   UNL A   1      46.812  27.554  25.566  1.00  0.00     0.023 A 
ATOM     64  C   UNL A   1      47.047  27.985  24.248  1.00  0.00     0.031 A 
ATOM     65  C   UNL A   1      47.715  26.630  26.124  1.00  0.00     0.131 A 
ATOM     66  C   UNL A   1      48.106  27.437  23.508  1.00  0.00     0.055 A 
ATOM     67  C   UNL A   1      48.819  26.157  25.412  1.00  0.00     0.041 A 
ATOM     68  F   UNL A   1      47.533  26.164  27.369  1.00  0.00    -0.206 F 
ATOM     69  C   UNL A   1      49.010  26.547  24.090  1.00  0.00     0.022 A 
BRANCH  66  70
ATOM     70  S   UNL A   1      48.193  27.790  21.731  1.00  0.00     0.124 S 
ATOM     71  O   UNL A   1      49.303  28.738  21.673  1.00  0.00    -0.237 OA
ATOM     72  O   UNL A   1      48.446  26.472  21.160  1.00  0.00    -0.237 OA
ATOM     73  O   UNL A   1      46.881  28.360  21.430  1.00  0.00    -0.744 OA
ENDBRANCH  66  70
ENDBRANCH  49  63
BRANCH  50  74
ATOM     74  C   UNL A   1      38.847  30.284  31.001  1.00  0.00     0.023 A 
ATOM     75  C   UNL A   1      37.737  30.956  30.464  1.00  0.00     0.031 A 
ATOM     76  C   UNL A   1      38.861  30.040  32.386  1.00  0.00     0.131 A 
ATOM     77  C   UNL A   1      36.715  31.409  31.313  1.00  0.00     0.055 A 
ATOM     78  C   UNL A   1      37.812  30.437  33.217  1.00  0.00     0.041 A 
ATOM     79  F   UNL A   1      39.896  29.402  32.954  1.00  0.00    -0.206 F 
ATOM     80  C   UNL A   1      36.737  31.140  32.683  1.00  0.00     0.022 A 
BRANCH  77  81
ATOM     81  S   UNL A   1      35.405  32.451  30.614  1.00  0.00     0.124 S 
ATOM     82  O   UNL A   1      36.065  33.750  30.545  1.00  0.00    -0.237 OA
ATOM     83  O   UNL A   1      35.144  31.794  29.338  1.00  0.00    -0.237 OA
ATOM     84  O   UNL A   1      34.329  32.348  31.598  1.00  0.00    -0.744 OA
ENDBRANCH  77  81
ENDBRANCH  50  74
BRANCH  62  85
ATOM     85  C   UNL A   1      44.867  33.416  29.362  1.00  0.00     0.023 A 
ATOM     86  C   UNL A   1      44.668  34.520  28.514  1.00  0.00     0.031 A 
ATOM     87  C   UNL A   1      45.615  33.614  30.537  1.00  0.00     0.131 A 
ATOM     88  C   UNL A   1      45.260  35.754  28.822  1.00  0.00     0.055 A 
ATOM     89  C   UNL A   1      46.143  34.860  30.872  1.00  0.00     0.041 A 
ATOM     90  F   UNL A   1      45.842  32.596  31.383  1.00  0.00    -0.206 F 
ATOM     91  C   UNL A   1      45.979  35.936  30.005  1.00  0.00     0.022 A 
BRANCH  88  92
ATOM     92  S   UNL A   1      45.164  37.094  27.602  1.00  0.00     0.124 S 
ATOM     93  O   UNL A   1      46.066  36.618  26.558  1.00  0.00    -0.237 OA
ATOM     94  O   UNL A   1      43.745  37.106  27.264  1.00  0.00    -0.237 OA
ATOM     95  O   UNL A   1      45.634  38.264  28.342  1.00  0.00    -0.744 OA
ENDBRANCH  88  92
ENDBRANCH  62  85
ENDBRANCH  36  37
ENDBRANCH  28  31
ENDBRANCH  26  27
ENDBRANCH  25  26
ENDBRANCH   1  25
TORSDOF 18
ENDMDL
MODEL 2
REMARK VINA RESULT:     -11.7      5.001      8.429
REMARK SMILES O=C(C[C@@H]1CN(C(=O)[C@H]2C[C@H](O)C[NH2+]2)CCO1)NCCCCNC(=O)c1ccc(-c2c3nc(c(-c4cc(S(=O)(=O)[O-])ccc4F)c4ccc([nH]4)c(-c4cc(S(=O)(=O)[O-])ccc4F)c4nc(c(-c5cc(S(=O)(=O)[O-])ccc5F)c5ccc2[nH]5)C=C4)C=C3)cc1
REMARK SMILES IDX 20 1 19 2 18 3 1 4 2 5 3 7 4 8 5 9 17 10 6 11 16 12 15 13
REMARK SMILES IDX 7 14 8 15 9 16 10 17 14 18 11 19 13 20 12 23 21 25 22 26
REMARK SMILES IDX 23 27 24 28 25 30 26 31 27 32 88 33 28 34 87 35 29 36 30 37
REMARK SMILES IDX 31 38 81 39 32 40 86 41 80 42 82 43 33 44 85 45 79 46 78 47
REMARK SMILES IDX 34 49 66 50 46 51 65 52 47 53 50 54 64 55 83 56 48 57 49 58
REMARK SMILES IDX 63 60 84 61 51 62 35 63 36 64 44 65 37 66 43 67 45 68 42 69
REMARK SMILES IDX 38 70 39 71 40 72 41 73 67 74 68 75 76 76 69 77 75 78 77 79
REMARK SMILES IDX 74 80 70 81 71 82 72 83 73 84 52 85 53 86 61 87 54 88 60 89
REMARK SMILES IDX 62 90 59 91 55 92 56 93 57 94 58 95
REMARK H PARENT 18 6 14 21 14 22 12 24 23 29 82 48 50 59
REMARK Flexibility Score: inf
ROOT
ATOM      1  C   UNL A   1      33.085  29.377  24.752  1.00  0.00     0.023 C 
ENDROOT
BRANCH   1   2
ATOM      2  C   UNL A   1      33.731  28.155  25.402  1.00  0.00     0.116 C 
BRANCH   2   3
ATOM      3  N   UNL A   1      33.688  27.014  24.515  1.00  0.00    -0.356 N 
ATOM      4  O   UNL A   1      31.837  26.004  25.437  1.00  0.00    -0.275 OA
ATOM      5  C   UNL A   1      32.765  26.007  24.636  1.00  0.00     0.222 C 
ATOM      6  H   UNL A   1      34.352  26.957  23.790  1.00  0.00     0.163 HD
BRANCH   5   7
ATOM      7  C   UNL A   1      32.992  24.871  23.673  1.00  0.00     0.133 C 
BRANCH   7   8
ATOM      8  C   UNL A   1      34.076  23.938  24.210  1.00  0.00     0.147 C 
ATOM      9  C   UNL A   1      33.436  22.613  24.624  1.00  0.00     0.152 C 
ATOM     10  O   UNL A   1      34.723  24.554  25.336  1.00  0.00    -0.374 OA
ATOM     11  N   UNL A   1      34.409  21.702  25.204  1.00  0.00    -0.333 N 
ATOM     12  C   UNL A   1      35.747  23.690  25.871  1.00  0.00     0.182 C 
ATOM     13  C   UNL A   1      35.192  22.318  26.285  1.00  0.00     0.148 C 
BRANCH  11  14
ATOM     14  C   UNL A   1      34.542  20.348  24.936  1.00  0.00     0.281 C 
ATOM     15  O   UNL A   1      35.663  19.831  24.875  1.00  0.00    -0.268 OA
BRANCH  14  16
ATOM     16  C   UNL A   1      33.297  19.441  24.722  1.00  0.00     0.275 C 
ATOM     17  C   UNL A   1      32.746  19.400  23.302  1.00  0.00     0.113 C 
ATOM     18  N   UNL A   1      33.497  18.053  25.192  1.00  0.00    -0.334 N 
ATOM     19  C   UNL A   1      32.831  17.946  22.863  1.00  0.00     0.175 C 
ATOM     20  C   UNL A   1      32.977  17.150  24.160  1.00  0.00     0.293 C 
ATOM     21  H   UNL A   1      32.993  17.906  26.067  1.00  0.00     0.347 HD
ATOM     22  H   UNL A   1      34.488  17.872  25.356  1.00  0.00     0.347 HD
BRANCH  19  23
ATOM     23  O   UNL A   1      31.691  17.567  22.108  1.00  0.00    -0.387 OA
ATOM     24  H   UNL A   1      31.014  17.206  22.702  1.00  0.00     0.211 HD
ENDBRANCH  19  23
ENDBRANCH  14  16
ENDBRANCH  11  14
ENDBRANCH   7   8
ENDBRANCH   5   7
ENDBRANCH   2   3
ENDBRANCH   1   2
BRANCH   1  25
ATOM     25  C   UNL A   1      31.769  29.821  25.398  1.00  0.00     0.023 C 
BRANCH  25  26
ATOM     26  C   UNL A   1      31.898  30.397  26.805  1.00  0.00     0.116 C 
BRANCH  26  27
ATOM     27  N   UNL A   1      31.871  31.848  26.813  1.00  0.00    -0.352 N 
ATOM     28  C   UNL A   1      32.751  32.733  27.392  1.00  0.00     0.251 C 
ATOM     29  H   UNL A   1      31.113  32.259  26.337  1.00  0.00     0.163 HD
ATOM     30  O   UNL A   1      32.463  33.923  27.448  1.00  0.00    -0.269 OA
BRANCH  28  31
ATOM     31  C   UNL A   1      34.023  32.241  27.973  1.00  0.00     0.039 A 
ATOM     32  C   UNL A   1      35.072  33.146  28.156  1.00  0.00     0.014 A 
ATOM     33  C   UNL A   1      34.184  30.902  28.337  1.00  0.00     0.014 A 
ATOM     34  C   UNL A   1      36.254  32.721  28.769  1.00  0.00     0.010 A 
ATOM     35  C   UNL A   1      35.332  30.500  29.017  1.00  0.00     0.010 A 
ATOM     36  C   UNL A   1      36.381  31.406  29.244  1.00  0.00    -0.014 A 
BRANCH  36  37
ATOM     37  C   UNL A   1      37.597  30.965  29.981  1.00  0.00     0.031 A 
ATOM     38  C   UNL A   1      38.530  29.952  29.372  1.00  0.00     0.074 A 
ATOM     39  C   UNL A   1      37.833  31.435  31.223  1.00  0.00     0.049 A 
ATOM     40  N   UNL A   1      39.593  29.391  29.887  1.00  0.00    -0.248 NA
ATOM     41  C   UNL A   1      38.206  29.491  28.013  1.00  0.00     0.031 C 
ATOM     42  C   UNL A   1      36.986  32.394  31.937  1.00  0.00     0.029 A 
ATOM     43  N   UNL A   1      38.847  31.169  32.110  1.00  0.00    -0.354 N 
ATOM     44  C   UNL A   1      40.064  28.508  28.921  1.00  0.00     0.074 A 
ATOM     45  C   UNL A   1      39.128  28.560  27.817  1.00  0.00     0.031 C 
ATOM     46  C   UNL A   1      37.529  32.653  33.136  1.00  0.00     0.029 A 
ATOM     47  C   UNL A   1      38.731  31.842  33.305  1.00  0.00     0.049 A 
ATOM     48  H   UNL A   1      39.589  30.554  31.908  1.00  0.00     0.167 HD
ATOM     49  C   UNL A   1      41.184  27.743  28.942  1.00  0.00     0.034 A 
ATOM     50  C   UNL A   1      39.491  31.798  34.417  1.00  0.00     0.034 A 
ATOM     51  C   UNL A   1      42.110  27.703  30.048  1.00  0.00     0.049 A 
ATOM     52  C   UNL A   1      40.707  30.904  34.435  1.00  0.00     0.074 A 
ATOM     53  C   UNL A   1      43.296  26.996  30.154  1.00  0.00     0.029 A 
ATOM     54  N   UNL A   1      41.953  28.391  31.246  1.00  0.00    -0.354 N 
ATOM     55  N   UNL A   1      41.161  30.108  33.494  1.00  0.00    -0.248 NA
ATOM     56  C   UNL A   1      41.518  30.911  35.659  1.00  0.00     0.031 C 
ATOM     57  C   UNL A   1      43.812  27.192  31.439  1.00  0.00     0.029 A 
ATOM     58  C   UNL A   1      42.999  28.095  32.107  1.00  0.00     0.049 A 
ATOM     59  H   UNL A   1      41.206  28.998  31.453  1.00  0.00     0.167 HD
ATOM     60  C   UNL A   1      42.330  29.548  34.002  1.00  0.00     0.074 A 
ATOM     61  C   UNL A   1      42.518  30.109  35.324  1.00  0.00     0.031 C 
ATOM     62  C   UNL A   1      43.175  28.653  33.427  1.00  0.00     0.034 A 
BRANCH  49  63
ATOM     63  C   UNL A   1      41.454  26.869  27.738  1.00  0.00     0.023 A 
ATOM     64  C   UNL A   1      41.044  25.524  27.695  1.00  0.00     0.031 A 
ATOM     65  C   UNL A   1      42.143  27.380  26.624  1.00  0.00     0.131 A 
ATOM     66  C   UNL A   1      41.391  24.719  26.600  1.00  0.00     0.055 A 
ATOM     67  C   UNL A   1      42.408  26.597  25.498  1.00  0.00     0.041 A 
ATOM     68  F   UNL A   1      42.580  28.649  26.613  1.00  0.00    -0.206 F 
ATOM     69  C   UNL A   1      42.046  25.253  25.489  1.00  0.00     0.022 A 
BRANCH  66  70
ATOM     70  S   UNL A   1      41.110  22.932  26.717  1.00  0.00     0.124 S 
ATOM     71  O   UNL A   1      39.664  22.848  26.522  1.00  0.00    -0.237 OA
ATOM     72  O   UNL A   1      41.932  22.411  25.631  1.00  0.00    -0.237 OA
ATOM     73  O   UNL A   1      41.569  22.599  28.064  1.00  0.00    -0.744 OA
ENDBRANCH  66  70
ENDBRANCH  49  63
BRANCH  50  74
ATOM     74  C   UNL A   1      39.123  32.603  35.620  1.00  0.00     0.023 A 
ATOM     75  C   UNL A   1      39.584  33.919  35.783  1.00  0.00     0.031 A 
ATOM     76  C   UNL A   1      38.345  32.047  36.652  1.00  0.00     0.131 A 
ATOM     77  C   UNL A   1      39.312  34.614  36.972  1.00  0.00     0.055 A 
ATOM     78  C   UNL A   1      38.024  32.765  37.805  1.00  0.00     0.041 A 
ATOM     79  F   UNL A   1      37.876  30.793  36.550  1.00  0.00    -0.206 F 
ATOM     80  C   UNL A   1      38.522  34.053  37.977  1.00  0.00     0.022 A 
BRANCH  77  81
ATOM     81  S   UNL A   1      40.098  36.228  37.232  1.00  0.00     0.124 S 
ATOM     82  O   UNL A   1      39.261  36.798  38.284  1.00  0.00    -0.237 OA
ATOM     83  O   UNL A   1      41.451  35.847  37.623  1.00  0.00    -0.237 OA
ATOM     84  O   UNL A   1      39.986  36.875  35.927  1.00  0.00    -0.744 OA
ENDBRANCH  77  81
ENDBRANCH  50  74
BRANCH  62  85
ATOM     85  C   UNL A   1      44.409  28.267  34.209  1.00  0.00     0.023 A 
ATOM     86  C   UNL A   1      44.424  27.162  35.078  1.00  0.00     0.031 A 
ATOM     87  C   UNL A   1      45.587  29.026  34.087  1.00  0.00     0.131 A 
ATOM     88  C   UNL A   1      45.573  26.883  35.835  1.00  0.00     0.055 A 
ATOM     89  C   UNL A   1      46.748  28.703  34.789  1.00  0.00     0.041 A 
ATOM     90  F   UNL A   1      45.631  30.095  33.275  1.00  0.00    -0.206 F 
ATOM     91  C   UNL A   1      46.741  27.634  35.680  1.00  0.00     0.022 A 
BRANCH  88  92
ATOM     92  S   UNL A   1      45.488  25.586  37.100  1.00  0.00     0.124 S 
ATOM     93  O   UNL A   1      45.362  24.379  36.289  1.00  0.00    -0.237 OA
ATOM     94  O   UNL A   1      46.755  25.753  37.803  1.00  0.00    -0.237 OA
ATOM     95  O   UNL A   1      44.299  25.940  37.874  1.00  0.00    -0.744 OA
ENDBRANCH  88  92
ENDBRANCH  62  85
ENDBRANCH  36  37
ENDBRANCH  28  31
ENDBRANCH  26  27
ENDBRANCH  25  26
ENDBRANCH   1  25
TORSDOF 18
ENDMDL
MODEL 3
REMARK VINA RESULT:     -11.5      5.544      8.712
REMARK SMILES O=C(C[C@@H]1CN(C(=O)[C@H]2C[C@H](O)C[NH2+]2)CCO1)NCCCCNC(=O)c1ccc(-c2c3nc(c(-c4cc(S(=O)(=O)[O-])ccc4F)c4ccc([nH]4)c(-c4cc(S(=O)(=O)[O-])ccc4F)c4nc(c(-c5cc(S(=O)(=O)[O-])ccc5F)c5ccc2[nH]5)C=C4)C=C3)cc1
REMARK SMILES IDX 20 1 19 2 18 3 1 4 2 5 3 7 4 8 5 9 17 10 6 11 16 12 15 13
REMARK SMILES IDX 7 14 8 15 9 16 10 17 14 18 11 19 13 20 12 23 21 25 22 26
REMARK SMILES IDX 23 27 24 28 25 30 26 31 27 32 88 33 28 34 87 35 29 36 30 37
REMARK SMILES IDX 31 38 81 39 32 40 86 41 80 42 82 43 33 44 85 45 79 46 78 47
REMARK SMILES IDX 34 49 66 50 46 51 65 52 47 53 50 54 64 55 83 56 48 57 49 58
REMARK SMILES IDX 63 60 84 61 51 62 35 63 36 64 44 65 37 66 43 67 45 68 42 69
REMARK SMILES IDX 38 70 39 71 40 72 41 73 67 74 68 75 76 76 69 77 75 78 77 79
REMARK SMILES IDX 74 80 70 81 71 82 72 83 73 84 52 85 53 86 61 87 54 88 60 89
REMARK SMILES IDX 62 90 59 91 55 92 56 93 57 94 58 95
REMARK H PARENT 18 6 14 21 14 22 12 24 23 29 82 48 50 59
REMARK Flexibility Score: inf
ROOT
ATOM      1  C   UNL A   1      31.426  30.803  25.989  1.00  0.00     0.023 C 
ENDROOT
BRANCH   1   2
ATOM      2  C   UNL A   1      32.324  29.570  25.914  1.00  0.00     0.116 C 
BRANCH   2   3
ATOM      3  N   UNL A   1      31.552  28.385  25.612  1.00  0.00    -0.356 N 
ATOM      4  O   UNL A   1      31.395  27.591  27.766  1.00  0.00    -0.275 OA
ATOM      5  C   UNL A   1      31.188  27.468  26.565  1.00  0.00     0.222 C 
ATOM      6  H   UNL A   1      31.274  28.229  24.681  1.00  0.00     0.163 HD
BRANCH   5   7
ATOM      7  C   UNL A   1      30.490  26.260  25.995  1.00  0.00     0.133 C 
BRANCH   7   8
ATOM      8  C   UNL A   1      31.442  25.065  25.979  1.00  0.00     0.147 C 
ATOM      9  C   UNL A   1      31.171  24.227  24.729  1.00  0.00     0.152 C 
ATOM     10  O   UNL A   1      31.239  24.275  27.163  1.00  0.00    -0.374 OA
ATOM     11  N   UNL A   1      32.004  23.036  24.688  1.00  0.00    -0.333 N 
ATOM     12  C   UNL A   1      32.119  23.133  27.171  1.00  0.00     0.182 C 
ATOM     13  C   UNL A   1      31.934  22.249  25.927  1.00  0.00     0.148 C 
BRANCH  11  14
ATOM     14  C   UNL A   1      32.693  22.542  23.591  1.00  0.00     0.281 C 
ATOM     15  O   UNL A   1      32.621  21.345  23.294  1.00  0.00    -0.268 OA
BRANCH  14  16
ATOM     16  C   UNL A   1      33.562  23.473  22.697  1.00  0.00     0.275 C 
ATOM     17  C   UNL A   1      32.873  24.027  21.455  1.00  0.00     0.113 C 
ATOM     18  N   UNL A   1      34.170  24.598  23.441  1.00  0.00    -0.334 N 
ATOM     19  C   UNL A   1      32.904  25.540  21.599  1.00  0.00     0.175 C 
ATOM     20  C   UNL A   1      33.987  25.815  22.644  1.00  0.00     0.293 C 
ATOM     21  H   UNL A   1      35.164  24.423  23.583  1.00  0.00     0.347 HD
ATOM     22  H   UNL A   1      33.727  24.702  24.354  1.00  0.00     0.347 HD
BRANCH  19  23
ATOM     23  O   UNL A   1      33.163  26.173  20.356  1.00  0.00    -0.387 OA
ATOM     24  H   UNL A   1      32.362  26.629  20.052  1.00  0.00     0.211 HD
ENDBRANCH  19  23
ENDBRANCH  14  16
ENDBRANCH  11  14
ENDBRANCH   7   8
ENDBRANCH   5   7
ENDBRANCH   2   3
ENDBRANCH   1   2
BRANCH   1  25
ATOM     25  C   UNL A   1      31.740  31.748  27.152  1.00  0.00     0.023 C 
BRANCH  25  26
ATOM     26  C   UNL A   1      32.857  32.753  26.890  1.00  0.00     0.116 C 
BRANCH  26  27
ATOM     27  N   UNL A   1      32.637  34.016  27.571  1.00  0.00    -0.352 N 
ATOM     28  C   UNL A   1      33.237  34.509  28.707  1.00  0.00     0.251 C 
ATOM     29  H   UNL A   1      31.962  34.604  27.161  1.00  0.00     0.163 HD
ATOM     30  O   UNL A   1      32.790  35.520  29.236  1.00  0.00    -0.269 OA
BRANCH  28  31
ATOM     31  C   UNL A   1      34.395  33.801  29.302  1.00  0.00     0.039 A 
ATOM     32  C   UNL A   1      35.683  34.258  29.013  1.00  0.00     0.014 A 
ATOM     33  C   UNL A   1      34.217  32.696  30.139  1.00  0.00     0.014 A 
ATOM     34  C   UNL A   1      36.786  33.652  29.620  1.00  0.00     0.010 A 
ATOM     35  C   UNL A   1      35.311  32.144  30.802  1.00  0.00     0.010 A 
ATOM     36  C   UNL A   1      36.609  32.617  30.553  1.00  0.00    -0.014 A 
BRANCH  36  37
ATOM     37  C   UNL A   1      37.768  32.024  31.277  1.00  0.00     0.031 A 
ATOM     38  C   UNL A   1      38.574  30.920  30.647  1.00  0.00     0.074 A 
ATOM     39  C   UNL A   1      38.060  32.442  32.526  1.00  0.00     0.049 A 
ATOM     40  N   UNL A   1      39.567  30.231  31.147  1.00  0.00    -0.248 NA
ATOM     41  C   UNL A   1      38.196  30.524  29.282  1.00  0.00     0.031 C 
ATOM     42  C   UNL A   1      37.333  33.481  33.260  1.00  0.00     0.029 A 
ATOM     43  N   UNL A   1      39.039  32.044  33.403  1.00  0.00    -0.354 N 
ATOM     44  C   UNL A   1      39.929  29.316  30.164  1.00  0.00     0.074 A 
ATOM     45  C   UNL A   1      39.003  29.495  29.066  1.00  0.00     0.031 C 
ATOM     46  C   UNL A   1      37.906  33.654  34.461  1.00  0.00     0.029 A 
ATOM     47  C   UNL A   1      39.005  32.705  34.610  1.00  0.00     0.049 A 
ATOM     48  H   UNL A   1      39.703  31.350  33.188  1.00  0.00     0.167 HD
ATOM     49  C   UNL A   1      40.952  28.425  30.167  1.00  0.00     0.034 A 
ATOM     50  C   UNL A   1      39.757  32.554  35.718  1.00  0.00     0.034 A 
ATOM     51  C   UNL A   1      41.869  28.258  31.269  1.00  0.00     0.049 A 
ATOM     52  C   UNL A   1      40.861  31.524  35.715  1.00  0.00     0.074 A 
ATOM     53  C   UNL A   1      42.965  27.416  31.357  1.00  0.00     0.029 A 
ATOM     54  N   UNL A   1      41.797  28.939  32.478  1.00  0.00    -0.354 N 
ATOM     55  N   UNL A   1      41.216  30.697  34.759  1.00  0.00    -0.248 NA
ATOM     56  C   UNL A   1      41.671  31.415  36.935  1.00  0.00     0.031 C 
ATOM     57  C   UNL A   1      43.504  27.528  32.643  1.00  0.00     0.029 A 
ATOM     58  C   UNL A   1      42.804  28.507  33.329  1.00  0.00     0.049 A 
ATOM     59  H   UNL A   1      41.127  29.625  32.700  1.00  0.00     0.167 HD
ATOM     60  C   UNL A   1      42.313  29.995  35.252  1.00  0.00     0.074 A 
ATOM     61  C   UNL A   1      42.569  30.508  36.582  1.00  0.00     0.031 C 
ATOM     62  C   UNL A   1      43.046  29.019  34.658  1.00  0.00     0.034 A 
BRANCH  49  63
ATOM     63  C   UNL A   1      41.115  27.546  28.948  1.00  0.00     0.023 A 
ATOM     64  C   UNL A   1      42.118  27.787  27.992  1.00  0.00     0.031 A 
ATOM     65  C   UNL A   1      40.246  26.462  28.727  1.00  0.00     0.131 A 
ATOM     66  C   UNL A   1      42.180  27.007  26.828  1.00  0.00     0.055 A 
ATOM     67  C   UNL A   1      40.370  25.634  27.609  1.00  0.00     0.041 A 
ATOM     68  F   UNL A   1      39.255  26.194  29.590  1.00  0.00    -0.206 F 
ATOM     69  C   UNL A   1      41.331  25.915  26.643  1.00  0.00     0.022 A 
BRANCH  66  70
ATOM     70  S   UNL A   1      43.286  27.535  25.491  1.00  0.00     0.124 S 
ATOM     71  O   UNL A   1      43.879  26.264  25.080  1.00  0.00    -0.237 OA
ATOM     72  O   UNL A   1      42.364  28.147  24.541  1.00  0.00    -0.237 OA
ATOM     73  O   UNL A   1      44.207  28.458  26.152  1.00  0.00    -0.744 OA
ENDBRANCH  66  70
ENDBRANCH  49  63
BRANCH  50  74
ATOM     74  C   UNL A   1      39.489  33.375  36.936  1.00  0.00     0.023 A 
ATOM     75  C   UNL A   1      40.170  34.582  37.164  1.00  0.00     0.031 A 
ATOM     76  C   UNL A   1      38.582  32.936  37.919  1.00  0.00     0.131 A 
ATOM     77  C   UNL A   1      39.977  35.278  38.367  1.00  0.00     0.055 A 
ATOM     78  C   UNL A   1      38.346  33.666  39.085  1.00  0.00     0.041 A 
ATOM     79  F   UNL A   1      37.903  31.791  37.754  1.00  0.00    -0.206 F 
ATOM     80  C   UNL A   1      39.058  34.837  39.322  1.00  0.00     0.022 A 
BRANCH  77  81
ATOM     81  S   UNL A   1      41.025  36.717  38.715  1.00  0.00     0.124 S 
ATOM     82  O   UNL A   1      40.030  37.751  38.981  1.00  0.00    -0.237 OA
ATOM     83  O   UNL A   1      41.797  36.258  39.864  1.00  0.00    -0.237 OA
ATOM     84  O   UNL A   1      41.788  36.888  37.481  1.00  0.00    -0.744 OA
ENDBRANCH  77  81
ENDBRANCH  50  74
BRANCH  62  85
ATOM     85  C   UNL A   1      44.229  28.478  35.428  1.00  0.00     0.023 A 
ATOM     86  C   UNL A   1      44.096  27.435  36.362  1.00  0.00     0.031 A 
ATOM     87  C   UNL A   1      45.510  29.024  35.227  1.00  0.00     0.131 A 
ATOM     88  C   UNL A   1      45.211  27.012  37.102  1.00  0.00     0.055 A 
ATOM     89  C   UNL A   1      46.628  28.552  35.916  1.00  0.00     0.041 A 
ATOM     90  F   UNL A   1      45.698  30.025  34.352  1.00  0.00    -0.206 F 
ATOM     91  C   UNL A   1      46.479  27.550  36.870  1.00  0.00     0.022 A 
BRANCH  88  92
ATOM     92  S   UNL A   1      44.962  25.819  38.445  1.00  0.00     0.124 S 
ATOM     93  O   UNL A   1      44.416  24.669  37.731  1.00  0.00    -0.237 OA
ATOM     94  O   UNL A   1      46.312  25.659  38.974  1.00  0.00    -0.237 OA
ATOM     95  O   UNL A   1      44.024  26.498  39.337  1.00  0.00    -0.744 OA
ENDBRANCH  88  92
ENDBRANCH  62  85
ENDBRANCH  36  37
ENDBRANCH  28  31
ENDBRANCH  26  27
ENDBRANCH  25  26
ENDBRANCH   1  25
TORSDOF 18
ENDMDL
