MODEL 1
REMARK VINA RESULT:     -12.9      0.000      0.000
REMARK SMILES O=C(NCCCCNC(=O)c1ccccc1Nc1nc(Cl)nc(Nc2ccc(N3CCOCC3=O)cc2)n1)c1ccc(-c2c3nc(c(-c4cc(S(=O)(=O)[O-])ccc4F)c4ccc([nH]4)c(-c4cc(S(=O)(=O)[O-])ccc4F)c4nc(c(-c5cc(S(=O)(=O)[O-])ccc5F)c5ccc2[nH]5)C=C4)C=C3)cc1
REMARK SMILES IDX 6 1 5 2 4 3 3 4 1 5 2 6 39 8 40 9 101 10 41 11 100 12 42 13
REMARK SMILES IDX 43 14 44 15 94 16 45 17 99 18 93 19 95 20 46 21 98 22 92 23
REMARK SMILES IDX 91 24 47 26 79 27 59 28 78 29 60 30 63 31 77 32 96 33 61 34
REMARK SMILES IDX 62 35 76 37 97 38 64 39 48 40 49 41 57 42 50 43 56 44 58 45
REMARK SMILES IDX 55 46 51 47 52 48 53 49 54 50 80 51 81 52 89 53 82 54 88 55
REMARK SMILES IDX 90 56 87 57 83 58 84 59 85 60 86 61 65 62 66 63 74 64 67 65
REMARK SMILES IDX 73 66 75 67 72 68 68 69 69 70 70 71 71 72 7 73 8 74 9 75
REMARK SMILES IDX 10 77 11 78 12 79 16 80 13 81 15 82 14 83 17 84 18 86 19 87
REMARK SMILES IDX 38 88 20 89 23 90 21 91 22 92 24 93 25 95 26 96 37 97 27 98
REMARK SMILES IDX 36 99 28 100 29 101 30 102 34 103 31 104 33 105 35 106
REMARK SMILES IDX 32 107
REMARK H PARENT 3 7 95 25 63 36 8 76 17 85 24 94
REMARK Flexibility Score: inf
ROOT
ATOM      1  C   UNL A   1      37.628  21.791  24.451  1.00  0.00     0.023 C 
ENDROOT
BRANCH   1   2
ATOM      2  C   UNL A   1      37.981  20.533  25.238  1.00  0.00     0.023 C 
BRANCH   2   3
ATOM      3  C   UNL A   1      39.180  20.651  26.167  1.00  0.00     0.116 C 
BRANCH   3   4
ATOM      4  N   UNL A   1      40.164  19.592  25.988  1.00  0.00    -0.352 N 
ATOM      5  O   UNL A   1      42.218  18.690  25.726  1.00  0.00    -0.269 OA
ATOM      6  C   UNL A   1      41.539  19.675  26.002  1.00  0.00     0.251 C 
ATOM      7  H   UNL A   1      39.795  18.693  25.836  1.00  0.00     0.163 HD
BRANCH   6   8
ATOM      8  C   UNL A   1      42.192  20.966  26.317  1.00  0.00     0.039 A 
ATOM      9  C   UNL A   1      42.538  21.278  27.632  1.00  0.00     0.014 A 
ATOM     10  C   UNL A   1      42.432  21.887  25.293  1.00  0.00     0.014 A 
ATOM     11  C   UNL A   1      42.946  22.568  27.946  1.00  0.00     0.010 A 
ATOM     12  C   UNL A   1      42.944  23.154  25.601  1.00  0.00     0.010 A 
ATOM     13  C   UNL A   1      43.167  23.520  26.937  1.00  0.00    -0.014 A 
BRANCH  13  14
ATOM     14  C   UNL A   1      43.676  24.864  27.325  1.00  0.00     0.031 A 
ATOM     15  C   UNL A   1      45.097  25.278  27.053  1.00  0.00     0.074 A 
ATOM     16  C   UNL A   1      42.804  25.743  27.860  1.00  0.00     0.049 A 
ATOM     17  N   UNL A   1      45.669  26.439  27.256  1.00  0.00    -0.248 NA
ATOM     18  C   UNL A   1      45.997  24.259  26.491  1.00  0.00     0.031 C 
ATOM     19  C   UNL A   1      41.406  25.442  28.186  1.00  0.00     0.029 A 
ATOM     20  N   UNL A   1      42.940  27.067  28.186  1.00  0.00    -0.354 N 
ATOM     21  C   UNL A   1      46.993  26.292  26.857  1.00  0.00     0.074 A 
ATOM     22  C   UNL A   1      47.148  24.915  26.433  1.00  0.00     0.031 C 
ATOM     23  C   UNL A   1      40.799  26.563  28.597  1.00  0.00     0.029 A 
ATOM     24  C   UNL A   1      41.775  27.645  28.634  1.00  0.00     0.049 A 
ATOM     25  H   UNL A   1      43.791  27.557  28.107  1.00  0.00     0.167 HD
ATOM     26  C   UNL A   1      47.983  27.222  26.838  1.00  0.00     0.034 A 
ATOM     27  C   UNL A   1      41.518  28.903  29.041  1.00  0.00     0.034 A 
ATOM     28  C   UNL A   1      47.810  28.592  27.265  1.00  0.00     0.049 A 
ATOM     29  C   UNL A   1      42.632  29.911  29.005  1.00  0.00     0.074 A 
ATOM     30  C   UNL A   1      48.745  29.614  27.289  1.00  0.00     0.029 A 
ATOM     31  N   UNL A   1      46.624  29.134  27.744  1.00  0.00    -0.354 N 
ATOM     32  N   UNL A   1      43.878  29.750  28.625  1.00  0.00    -0.248 NA
ATOM     33  C   UNL A   1      42.305  31.271  29.449  1.00  0.00     0.031 C 
ATOM     34  C   UNL A   1      48.139  30.755  27.830  1.00  0.00     0.029 A 
ATOM     35  C   UNL A   1      46.808  30.467  28.083  1.00  0.00     0.049 A 
ATOM     36  H   UNL A   1      45.775  28.643  27.830  1.00  0.00     0.167 HD
ATOM     37  C   UNL A   1      44.484  30.991  28.785  1.00  0.00     0.074 A 
ATOM     38  C   UNL A   1      43.454  31.897  29.252  1.00  0.00     0.031 C 
ATOM     39  C   UNL A   1      45.777  31.348  28.578  1.00  0.00     0.034 A 
BRANCH  26  40
ATOM     40  C   UNL A   1      49.350  26.776  26.375  1.00  0.00     0.023 A 
ATOM     41  C   UNL A   1      49.896  27.207  25.153  1.00  0.00     0.031 A 
ATOM     42  C   UNL A   1      50.121  25.906  27.168  1.00  0.00     0.131 A 
ATOM     43  C   UNL A   1      51.147  26.726  24.734  1.00  0.00     0.055 A 
ATOM     44  C   UNL A   1      51.395  25.485  26.779  1.00  0.00     0.041 A 
ATOM     45  F   UNL A   1      49.646  25.446  28.336  1.00  0.00    -0.206 F 
ATOM     46  C   UNL A   1      51.911  25.886  25.550  1.00  0.00     0.022 A 
BRANCH  43  47
ATOM     47  S   UNL A   1      51.718  27.125  23.059  1.00  0.00     0.124 S 
ATOM     48  O   UNL A   1      52.871  26.237  22.921  1.00  0.00    -0.237 OA
ATOM     49  O   UNL A   1      50.557  26.794  22.242  1.00  0.00    -0.237 OA
ATOM     50  O   UNL A   1      52.043  28.547  23.136  1.00  0.00    -0.744 OA
ENDBRANCH  43  47
ENDBRANCH  26  40
BRANCH  27  51
ATOM     51  C   UNL A   1      40.164  29.264  29.549  1.00  0.00     0.023 A 
ATOM     52  C   UNL A   1      39.888  29.315  30.923  1.00  0.00     0.031 A 
ATOM     53  C   UNL A   1      39.114  29.541  28.653  1.00  0.00     0.131 A 
ATOM     54  C   UNL A   1      38.585  29.594  31.363  1.00  0.00     0.055 A 
ATOM     55  C   UNL A   1      37.835  29.875  29.096  1.00  0.00     0.041 A 
ATOM     56  F   UNL A   1      39.327  29.511  27.328  1.00  0.00    -0.206 F 
ATOM     57  C   UNL A   1      37.561  29.889  30.460  1.00  0.00     0.022 A 
BRANCH  54  58
ATOM     58  S   UNL A   1      38.223  29.480  33.136  1.00  0.00     0.124 S 
ATOM     59  O   UNL A   1      37.700  30.812  33.421  1.00  0.00    -0.237 OA
ATOM     60  O   UNL A   1      37.252  28.391  33.176  1.00  0.00    -0.237 OA
ATOM     61  O   UNL A   1      39.523  29.179  33.731  1.00  0.00    -0.744 OA
ENDBRANCH  54  58
ENDBRANCH  27  51
BRANCH  39  62
ATOM     62  C   UNL A   1      46.124  32.790  28.856  1.00  0.00     0.023 A 
ATOM     63  C   UNL A   1      45.972  33.780  27.869  1.00  0.00     0.031 A 
ATOM     64  C   UNL A   1      46.664  33.166  30.097  1.00  0.00     0.131 A 
ATOM     65  C   UNL A   1      46.426  35.084  28.114  1.00  0.00     0.055 A 
ATOM     66  C   UNL A   1      47.057  34.480  30.356  1.00  0.00     0.041 A 
ATOM     67  F   UNL A   1      46.832  32.260  31.074  1.00  0.00    -0.206 F 
ATOM     68  C   UNL A   1      46.955  35.444  29.355  1.00  0.00     0.022 A 
BRANCH  65  69
ATOM     69  S   UNL A   1      46.421  36.276  26.746  1.00  0.00     0.124 S 
ATOM     70  O   UNL A   1      45.109  36.898  26.890  1.00  0.00    -0.237 OA
ATOM     71  O   UNL A   1      47.566  37.122  27.067  1.00  0.00    -0.237 OA
ATOM     72  O   UNL A   1      46.583  35.437  25.560  1.00  0.00    -0.744 OA
ENDBRANCH  65  69
ENDBRANCH  39  62
ENDBRANCH  13  14
ENDBRANCH   6   8
ENDBRANCH   3   4
ENDBRANCH   2   3
ENDBRANCH   1   2
BRANCH   1  73
ATOM     73  C   UNL A   1      36.144  22.140  24.392  1.00  0.00     0.116 C 
BRANCH  73  74
ATOM     74  N   UNL A   1      35.457  21.968  25.666  1.00  0.00    -0.352 N 
ATOM     75  C   UNL A   1      34.366  21.187  25.953  1.00  0.00     0.253 C 
ATOM     76  H   UNL A   1      35.825  22.482  26.421  1.00  0.00     0.163 HD
ATOM     77  O   UNL A   1      33.908  21.129  27.089  1.00  0.00    -0.269 OA
BRANCH  75  78
ATOM     78  C   UNL A   1      33.709  20.430  24.871  1.00  0.00     0.063 A 
ATOM     79  C   UNL A   1      34.023  19.066  24.780  1.00  0.00     0.016 A 
ATOM     80  C   UNL A   1      32.791  21.032  23.991  1.00  0.00     0.054 A 
ATOM     81  C   UNL A   1      33.376  18.267  23.842  1.00  0.00     0.001 A 
ATOM     82  C   UNL A   1      32.116  20.193  23.091  1.00  0.00     0.027 A 
ATOM     83  C   UNL A   1      32.410  18.828  23.012  1.00  0.00     0.002 A 
BRANCH  80  84
ATOM     84  N   UNL A   1      32.537  22.413  24.025  1.00  0.00    -0.323 N 
ATOM     85  H   UNL A   1      33.033  22.944  23.361  1.00  0.00     0.170 HD
BRANCH  84  86
ATOM     86  C   UNL A   1      31.693  23.144  24.852  1.00  0.00     0.233 A 
ATOM     87  N   UNL A   1      30.904  22.512  25.705  1.00  0.00    -0.182 NA
ATOM     88  N   UNL A   1      31.739  24.466  24.723  1.00  0.00    -0.176 NA
ATOM     89  C   UNL A   1      30.175  23.321  26.453  1.00  0.00     0.228 A 
ATOM     90  C   UNL A   1      30.895  25.171  25.471  1.00  0.00     0.233 A 
ATOM     91  Cl  UNL A   1      29.144  22.566  27.588  1.00  0.00    -0.041 Cl
ATOM     92  N   UNL A   1      30.102  24.637  26.386  1.00  0.00    -0.182 NA
BRANCH  90  93
ATOM     93  N   UNL A   1      30.779  26.520  25.141  1.00  0.00    -0.324 N 
ATOM     94  H   UNL A   1      30.134  26.729  24.428  1.00  0.00     0.170 HD
BRANCH  93  95
ATOM     95  C   UNL A   1      31.452  27.615  25.685  1.00  0.00     0.041 A 
ATOM     96  C   UNL A   1      31.953  28.610  24.838  1.00  0.00     0.028 A 
ATOM     97  C   UNL A   1      31.556  27.804  27.064  1.00  0.00     0.028 A 
ATOM     98  C   UNL A   1      32.525  29.776  25.360  1.00  0.00     0.028 A 
ATOM     99  C   UNL A   1      32.181  28.941  27.587  1.00  0.00     0.028 A 
ATOM    100  C   UNL A   1      32.653  29.950  26.742  1.00  0.00     0.044 A 
BRANCH 100 101
ATOM    101  N   UNL A   1      33.200  31.153  27.277  1.00  0.00    -0.308 N 
ATOM    102  C   UNL A   1      34.645  31.170  27.531  1.00  0.00     0.154 C 
ATOM    103  C   UNL A   1      32.474  32.351  27.251  1.00  0.00     0.253 C 
ATOM    104  C   UNL A   1      35.098  32.359  28.367  1.00  0.00     0.183 C 
ATOM    105  C   UNL A   1      33.227  33.596  27.752  1.00  0.00     0.260 C 
ATOM    106  O   UNL A   1      31.279  32.442  26.962  1.00  0.00    -0.272 OA
ATOM    107  O   UNL A   1      34.646  33.565  27.758  1.00  0.00    -0.370 OA
ENDBRANCH 100 101
ENDBRANCH  93  95
ENDBRANCH  90  93
ENDBRANCH  84  86
ENDBRANCH  80  84
ENDBRANCH  75  78
ENDBRANCH  73  74
ENDBRANCH   1  73
TORSDOF 19
ENDMDL
MODEL 2
REMARK VINA RESULT:     -12.8      1.545      7.579
REMARK SMILES O=C(NCCCCNC(=O)c1ccccc1Nc1nc(Cl)nc(Nc2ccc(N3CCOCC3=O)cc2)n1)c1ccc(-c2c3nc(c(-c4cc(S(=O)(=O)[O-])ccc4F)c4ccc([nH]4)c(-c4cc(S(=O)(=O)[O-])ccc4F)c4nc(c(-c5cc(S(=O)(=O)[O-])ccc5F)c5ccc2[nH]5)C=C4)C=C3)cc1
REMARK SMILES IDX 6 1 5 2 4 3 3 4 1 5 2 6 39 8 40 9 101 10 41 11 100 12 42 13
REMARK SMILES IDX 43 14 44 15 94 16 45 17 99 18 93 19 95 20 46 21 98 22 92 23
REMARK SMILES IDX 91 24 47 26 79 27 59 28 78 29 60 30 63 31 77 32 96 33 61 34
REMARK SMILES IDX 62 35 76 37 97 38 64 39 48 40 49 41 57 42 50 43 56 44 58 45
REMARK SMILES IDX 55 46 51 47 52 48 53 49 54 50 80 51 81 52 89 53 82 54 88 55
REMARK SMILES IDX 90 56 87 57 83 58 84 59 85 60 86 61 65 62 66 63 74 64 67 65
REMARK SMILES IDX 73 66 75 67 72 68 68 69 69 70 70 71 71 72 7 73 8 74 9 75
REMARK SMILES IDX 10 77 11 78 12 79 16 80 13 81 15 82 14 83 17 84 18 86 19 87
REMARK SMILES IDX 38 88 20 89 23 90 21 91 22 92 24 93 25 95 26 96 37 97 27 98
REMARK SMILES IDX 36 99 28 100 29 101 30 102 34 103 31 104 33 105 35 106
REMARK SMILES IDX 32 107
REMARK H PARENT 3 7 95 25 63 36 8 76 17 85 24 94
REMARK Flexibility Score: inf
ROOT
ATOM      1  C   UNL A   1      37.757  21.710  24.929  1.00  0.00     0.023 C 
ENDROOT
BRANCH   1   2
ATOM      2  C   UNL A   1      38.449  20.366  25.134  1.00  0.00     0.023 C 
BRANCH   2   3
ATOM      3  C   UNL A   1      39.441  20.304  26.287  1.00  0.00     0.116 C 
BRANCH   3   4
ATOM      4  N   UNL A   1      40.487  19.307  26.104  1.00  0.00    -0.352 N 
ATOM      5  O   UNL A   1      42.579  18.535  25.750  1.00  0.00    -0.269 OA
ATOM      6  C   UNL A   1      41.849  19.486  26.012  1.00  0.00     0.251 C 
ATOM      7  H   UNL A   1      40.176  18.375  26.038  1.00  0.00     0.163 HD
BRANCH   6   8
ATOM      8  C   UNL A   1      42.424  20.839  26.195  1.00  0.00     0.039 A 
ATOM      9  C   UNL A   1      42.708  21.317  27.474  1.00  0.00     0.014 A 
ATOM     10  C   UNL A   1      42.652  21.650  25.079  1.00  0.00     0.014 A 
ATOM     11  C   UNL A   1      43.038  22.655  27.649  1.00  0.00     0.010 A 
ATOM     12  C   UNL A   1      43.087  22.970  25.253  1.00  0.00     0.010 A 
ATOM     13  C   UNL A   1      43.245  23.496  26.544  1.00  0.00    -0.014 A 
BRANCH  13  14
ATOM     14  C   UNL A   1      43.670  24.901  26.789  1.00  0.00     0.031 A 
ATOM     15  C   UNL A   1      42.741  25.908  27.414  1.00  0.00     0.074 A 
ATOM     16  C   UNL A   1      44.946  25.236  26.513  1.00  0.00     0.049 A 
ATOM     17  N   UNL A   1      42.987  27.145  27.767  1.00  0.00    -0.248 NA
ATOM     18  C   UNL A   1      41.358  25.479  27.666  1.00  0.00     0.031 C 
ATOM     19  C   UNL A   1      45.929  24.346  25.887  1.00  0.00     0.029 A 
ATOM     20  N   UNL A   1      45.651  26.387  26.752  1.00  0.00    -0.354 N 
ATOM     21  C   UNL A   1      41.793  27.647  28.275  1.00  0.00     0.074 A 
ATOM     22  C   UNL A   1      40.812  26.588  28.148  1.00  0.00     0.031 C 
ATOM     23  C   UNL A   1      47.121  24.956  25.857  1.00  0.00     0.029 A 
ATOM     24  C   UNL A   1      46.976  26.304  26.393  1.00  0.00     0.049 A 
ATOM     25  H   UNL A   1      45.248  27.196  27.143  1.00  0.00     0.167 HD
ATOM     26  C   UNL A   1      41.542  28.872  28.803  1.00  0.00     0.034 A 
ATOM     27  C   UNL A   1      47.968  27.213  26.472  1.00  0.00     0.034 A 
ATOM     28  C   UNL A   1      42.533  29.918  28.921  1.00  0.00     0.049 A 
ATOM     29  C   UNL A   1      47.661  28.559  27.065  1.00  0.00     0.074 A 
ATOM     30  C   UNL A   1      42.386  31.194  29.438  1.00  0.00     0.029 A 
ATOM     31  N   UNL A   1      43.858  29.809  28.516  1.00  0.00    -0.354 N 
ATOM     32  N   UNL A   1      46.523  29.012  27.538  1.00  0.00    -0.248 NA
ATOM     33  C   UNL A   1      48.772  29.514  27.141  1.00  0.00     0.031 C 
ATOM     34  C   UNL A   1      43.604  31.872  29.298  1.00  0.00     0.029 A 
ATOM     35  C   UNL A   1      44.531  30.999  28.754  1.00  0.00     0.049 A 
ATOM     36  H   UNL A   1      44.261  29.004  28.119  1.00  0.00     0.167 HD
ATOM     37  C   UNL A   1      46.783  30.309  27.966  1.00  0.00     0.074 A 
ATOM     38  C   UNL A   1      48.195  30.545  27.738  1.00  0.00     0.031 C 
ATOM     39  C   UNL A   1      45.932  31.228  28.489  1.00  0.00     0.034 A 
BRANCH  26  40
ATOM     40  C   UNL A   1      40.130  29.160  29.258  1.00  0.00     0.023 A 
ATOM     41  C   UNL A   1      39.766  29.115  30.615  1.00  0.00     0.031 A 
ATOM     42  C   UNL A   1      39.133  29.486  28.321  1.00  0.00     0.131 A 
ATOM     43  C   UNL A   1      38.431  29.335  30.992  1.00  0.00     0.055 A 
ATOM     44  C   UNL A   1      37.822  29.772  28.707  1.00  0.00     0.041 A 
ATOM     45  F   UNL A   1      39.416  29.526  27.009  1.00  0.00    -0.206 F 
ATOM     46  C   UNL A   1      37.461  29.687  30.048  1.00  0.00     0.022 A 
BRANCH  43  47
ATOM     47  S   UNL A   1      37.953  29.050  32.718  1.00  0.00     0.124 S 
ATOM     48  O   UNL A   1      38.993  29.784  33.437  1.00  0.00    -0.237 OA
ATOM     49  O   UNL A   1      36.614  29.624  32.775  1.00  0.00    -0.237 OA
ATOM     50  O   UNL A   1      38.017  27.597  32.858  1.00  0.00    -0.744 OA
ENDBRANCH  43  47
ENDBRANCH  26  40
BRANCH  27  51
ATOM     51  C   UNL A   1      49.324  26.890  25.945  1.00  0.00     0.023 A 
ATOM     52  C   UNL A   1      49.793  27.446  24.746  1.00  0.00     0.031 A 
ATOM     53  C   UNL A   1      50.164  25.994  26.632  1.00  0.00     0.131 A 
ATOM     54  C   UNL A   1      51.050  27.068  24.247  1.00  0.00     0.055 A 
ATOM     55  C   UNL A   1      51.435  25.666  26.161  1.00  0.00     0.041 A 
ATOM     56  F   UNL A   1      49.764  25.438  27.787  1.00  0.00    -0.206 F 
ATOM     57  C   UNL A   1      51.879  26.194  24.954  1.00  0.00     0.022 A 
BRANCH  54  58
ATOM     58  S   UNL A   1      51.552  27.668  22.611  1.00  0.00     0.124 S 
ATOM     59  O   UNL A   1      52.994  27.451  22.643  1.00  0.00    -0.237 OA
ATOM     60  O   UNL A   1      50.794  26.792  21.723  1.00  0.00    -0.237 OA
ATOM     61  O   UNL A   1      51.130  29.066  22.616  1.00  0.00    -0.744 OA
ENDBRANCH  54  58
ENDBRANCH  27  51
BRANCH  39  62
ATOM     62  C   UNL A   1      46.531  32.564  28.849  1.00  0.00     0.023 A 
ATOM     63  C   UNL A   1      46.663  33.587  27.892  1.00  0.00     0.031 A 
ATOM     64  C   UNL A   1      47.027  32.798  30.143  1.00  0.00     0.131 A 
ATOM     65  C   UNL A   1      47.342  34.768  28.222  1.00  0.00     0.055 A 
ATOM     66  C   UNL A   1      47.648  34.001  30.482  1.00  0.00     0.041 A 
ATOM     67  F   UNL A   1      46.929  31.855  31.094  1.00  0.00    -0.206 F 
ATOM     68  C   UNL A   1      47.825  34.987  29.514  1.00  0.00     0.022 A 
BRANCH  65  69
ATOM     69  S   UNL A   1      47.690  35.967  26.905  1.00  0.00     0.124 S 
ATOM     70  O   UNL A   1      48.987  35.511  26.414  1.00  0.00    -0.237 OA
ATOM     71  O   UNL A   1      46.562  35.771  26.001  1.00  0.00    -0.237 OA
ATOM     72  O   UNL A   1      47.708  37.250  27.605  1.00  0.00    -0.744 OA
ENDBRANCH  65  69
ENDBRANCH  39  62
ENDBRANCH  13  14
ENDBRANCH   6   8
ENDBRANCH   3   4
ENDBRANCH   2   3
ENDBRANCH   1   2
BRANCH   1  73
ATOM     73  C   UNL A   1      36.265  21.644  24.616  1.00  0.00     0.116 C 
BRANCH  73  74
ATOM     74  N   UNL A   1      35.425  21.602  25.805  1.00  0.00    -0.352 N 
ATOM     75  C   UNL A   1      34.255  20.913  26.004  1.00  0.00     0.253 C 
ATOM     76  H   UNL A   1      35.738  22.139  26.568  1.00  0.00     0.163 HD
ATOM     77  O   UNL A   1      33.665  20.959  27.078  1.00  0.00    -0.269 OA
BRANCH  75  78
ATOM     78  C   UNL A   1      33.675  20.129  24.897  1.00  0.00     0.063 A 
ATOM     79  C   UNL A   1      34.055  18.782  24.815  1.00  0.00     0.016 A 
ATOM     80  C   UNL A   1      32.765  20.692  23.983  1.00  0.00     0.054 A 
ATOM     81  C   UNL A   1      33.483  17.957  23.852  1.00  0.00     0.001 A 
ATOM     82  C   UNL A   1      32.163  19.824  23.057  1.00  0.00     0.027 A 
ATOM     83  C   UNL A   1      32.523  18.475  22.987  1.00  0.00     0.002 A 
BRANCH  80  84
ATOM     84  N   UNL A   1      32.445  22.059  24.010  1.00  0.00    -0.323 N 
ATOM     85  H   UNL A   1      32.696  22.561  23.201  1.00  0.00     0.170 HD
BRANCH  84  86
ATOM     86  C   UNL A   1      31.830  22.812  25.002  1.00  0.00     0.233 A 
ATOM     87  N   UNL A   1      30.832  22.289  25.696  1.00  0.00    -0.182 NA
ATOM     88  N   UNL A   1      32.300  24.040  25.190  1.00  0.00    -0.176 NA
ATOM     89  C   UNL A   1      30.355  23.094  26.629  1.00  0.00     0.228 A 
ATOM     90  C   UNL A   1      31.682  24.787  26.100  1.00  0.00     0.233 A 
ATOM     91  Cl  UNL A   1      29.073  22.472  27.572  1.00  0.00    -0.041 Cl
ATOM     92  N   UNL A   1      30.708  24.341  26.878  1.00  0.00    -0.182 NA
BRANCH  90  93
ATOM     93  N   UNL A   1      32.020  26.138  26.102  1.00  0.00    -0.324 N 
ATOM     94  H   UNL A   1      32.750  26.393  26.712  1.00  0.00     0.170 HD
BRANCH  93  95
ATOM     95  C   UNL A   1      31.466  27.181  25.358  1.00  0.00     0.041 A 
ATOM     96  C   UNL A   1      30.456  26.909  24.430  1.00  0.00     0.028 A 
ATOM     97  C   UNL A   1      31.820  28.513  25.582  1.00  0.00     0.028 A 
ATOM     98  C   UNL A   1      29.800  27.946  23.757  1.00  0.00     0.028 A 
ATOM     99  C   UNL A   1      31.208  29.548  24.867  1.00  0.00     0.028 A 
ATOM    100  C   UNL A   1      30.176  29.278  23.963  1.00  0.00     0.044 A 
BRANCH 100 101
ATOM    101  N   UNL A   1      29.484  30.340  23.308  1.00  0.00    -0.308 N 
ATOM    102  C   UNL A   1      29.094  31.488  24.135  1.00  0.00     0.154 C 
ATOM    103  C   UNL A   1      29.468  30.437  21.911  1.00  0.00     0.253 C 
ATOM    104  C   UNL A   1      28.114  32.425  23.443  1.00  0.00     0.183 C 
ATOM    105  C   UNL A   1      28.787  31.694  21.341  1.00  0.00     0.260 C 
ATOM    106  O   UNL A   1      29.859  29.559  21.140  1.00  0.00    -0.272 OA
ATOM    107  O   UNL A   1      28.649  32.826  22.185  1.00  0.00    -0.370 OA
ENDBRANCH 100 101
ENDBRANCH  93  95
ENDBRANCH  90  93
ENDBRANCH  84  86
ENDBRANCH  80  84
ENDBRANCH  75  78
ENDBRANCH  73  74
ENDBRANCH   1  73
TORSDOF 19
ENDMDL
MODEL 3
REMARK VINA RESULT:     -12.4      2.410      7.540
REMARK SMILES O=C(NCCCCNC(=O)c1ccccc1Nc1nc(Cl)nc(Nc2ccc(N3CCOCC3=O)cc2)n1)c1ccc(-c2c3nc(c(-c4cc(S(=O)(=O)[O-])ccc4F)c4ccc([nH]4)c(-c4cc(S(=O)(=O)[O-])ccc4F)c4nc(c(-c5cc(S(=O)(=O)[O-])ccc5F)c5ccc2[nH]5)C=C4)C=C3)cc1
REMARK SMILES IDX 6 1 5 2 4 3 3 4 1 5 2 6 39 8 40 9 101 10 41 11 100 12 42 13
REMARK SMILES IDX 43 14 44 15 94 16 45 17 99 18 93 19 95 20 46 21 98 22 92 23
REMARK SMILES IDX 91 24 47 26 79 27 59 28 78 29 60 30 63 31 77 32 96 33 61 34
REMARK SMILES IDX 62 35 76 37 97 38 64 39 48 40 49 41 57 42 50 43 56 44 58 45
REMARK SMILES IDX 55 46 51 47 52 48 53 49 54 50 80 51 81 52 89 53 82 54 88 55
REMARK SMILES IDX 90 56 87 57 83 58 84 59 85 60 86 61 65 62 66 63 74 64 67 65
REMARK SMILES IDX 73 66 75 67 72 68 68 69 69 70 70 71 71 72 7 73 8 74 9 75
REMARK SMILES IDX 10 77 11 78 12 79 16 80 13 81 15 82 14 83 17 84 18 86 19 87
REMARK SMILES IDX 38 88 20 89 23 90 21 91 22 92 24 93 25 95 26 96 37 97 27 98
REMARK SMILES IDX 36 99 28 100 29 101 30 102 34 103 31 104 33 105 35 106
REMARK SMILES IDX 32 107
REMARK H PARENT 3 7 95 25 63 36 8 76 17 85 24 94
REMARK Flexibility Score: inf
ROOT
ATOM      1  C   UNL A   1      38.112  21.503  25.118  1.00  0.00     0.023 C 
ENDROOT
BRANCH   1   2
ATOM      2  C   UNL A   1      38.629  20.071  25.030  1.00  0.00     0.023 C 
BRANCH   2   3
ATOM      3  C   UNL A   1      39.295  19.532  26.289  1.00  0.00     0.116 C 
BRANCH   3   4
ATOM      4  N   UNL A   1      40.563  18.860  26.036  1.00  0.00    -0.352 N 
ATOM      5  O   UNL A   1      42.782  18.690  25.660  1.00  0.00    -0.269 OA
ATOM      6  C   UNL A   1      41.832  19.392  25.993  1.00  0.00     0.251 C 
ATOM      7  H   UNL A   1      40.503  17.891  25.874  1.00  0.00     0.163 HD
BRANCH   6   8
ATOM      8  C   UNL A   1      42.039  20.822  26.318  1.00  0.00     0.039 A 
ATOM      9  C   UNL A   1      41.925  21.794  25.323  1.00  0.00     0.014 A 
ATOM     10  C   UNL A   1      42.382  21.193  27.621  1.00  0.00     0.014 A 
ATOM     11  C   UNL A   1      42.332  23.095  25.586  1.00  0.00     0.010 A 
ATOM     12  C   UNL A   1      42.692  22.528  27.908  1.00  0.00     0.010 A 
ATOM     13  C   UNL A   1      42.708  23.485  26.883  1.00  0.00    -0.014 A 
BRANCH  13  14
ATOM     14  C   UNL A   1      43.063  24.910  27.122  1.00  0.00     0.031 A 
ATOM     15  C   UNL A   1      42.116  25.854  27.813  1.00  0.00     0.074 A 
ATOM     16  C   UNL A   1      44.299  25.324  26.775  1.00  0.00     0.049 A 
ATOM     17  N   UNL A   1      42.308  27.100  28.168  1.00  0.00    -0.248 NA
ATOM     18  C   UNL A   1      40.777  25.339  28.140  1.00  0.00     0.031 C 
ATOM     19  C   UNL A   1      45.294  24.500  26.081  1.00  0.00     0.029 A 
ATOM     20  N   UNL A   1      44.947  26.512  26.987  1.00  0.00    -0.354 N 
ATOM     21  C   UNL A   1      41.119  27.524  28.751  1.00  0.00     0.074 A 
ATOM     22  C   UNL A   1      40.197  26.409  28.669  1.00  0.00     0.031 C 
ATOM     23  C   UNL A   1      46.443  25.181  25.988  1.00  0.00     0.029 A 
ATOM     24  C   UNL A   1      46.251  26.513  26.550  1.00  0.00     0.049 A 
ATOM     25  H   UNL A   1      44.521  27.292  27.413  1.00  0.00     0.167 HD
ATOM     26  C   UNL A   1      40.827  28.726  29.310  1.00  0.00     0.034 A 
ATOM     27  C   UNL A   1      47.190  27.478  26.583  1.00  0.00     0.034 A 
ATOM     28  C   UNL A   1      41.760  29.828  29.383  1.00  0.00     0.049 A 
ATOM     29  C   UNL A   1      46.840  28.798  27.211  1.00  0.00     0.074 A 
ATOM     30  C   UNL A   1      41.569  31.089  29.925  1.00  0.00     0.029 A 
ATOM     31  N   UNL A   1      43.063  29.803  28.900  1.00  0.00    -0.354 N 
ATOM     32  N   UNL A   1      45.707  29.178  27.755  1.00  0.00    -0.248 NA
ATOM     33  C   UNL A   1      47.895  29.817  27.234  1.00  0.00     0.031 C 
ATOM     34  C   UNL A   1      42.733  31.839  29.722  1.00  0.00     0.029 A 
ATOM     35  C   UNL A   1      43.677  31.029  29.114  1.00  0.00     0.049 A 
ATOM     36  H   UNL A   1      43.489  29.027  28.469  1.00  0.00     0.167 HD
ATOM     37  C   UNL A   1      45.915  30.483  28.186  1.00  0.00     0.074 A 
ATOM     38  C   UNL A   1      47.294  30.806  27.877  1.00  0.00     0.031 C 
ATOM     39  C   UNL A   1      45.043  31.344  28.770  1.00  0.00     0.034 A 
BRANCH  26  40
ATOM     40  C   UNL A   1      39.431  28.925  29.851  1.00  0.00     0.023 A 
ATOM     41  C   UNL A   1      38.409  29.497  29.073  1.00  0.00     0.031 A 
ATOM     42  C   UNL A   1      39.115  28.535  31.166  1.00  0.00     0.131 A 
ATOM     43  C   UNL A   1      37.139  29.715  29.632  1.00  0.00     0.055 A 
ATOM     44  C   UNL A   1      37.831  28.691  31.694  1.00  0.00     0.041 A 
ATOM     45  F   UNL A   1      40.054  28.001  31.964  1.00  0.00    -0.206 F 
ATOM     46  C   UNL A   1      36.837  29.293  30.930  1.00  0.00     0.022 A 
BRANCH  43  47
ATOM     47  S   UNL A   1      35.916  30.654  28.677  1.00  0.00     0.124 S 
ATOM     48  O   UNL A   1      34.992  29.600  28.262  1.00  0.00    -0.237 OA
ATOM     49  O   UNL A   1      35.404  31.599  29.662  1.00  0.00    -0.237 OA
ATOM     50  O   UNL A   1      36.702  31.244  27.596  1.00  0.00    -0.744 OA
ENDBRANCH  43  47
ENDBRANCH  26  40
BRANCH  27  51
ATOM     51  C   UNL A   1      48.529  27.243  25.973  1.00  0.00     0.023 A 
ATOM     52  C   UNL A   1      49.616  26.803  26.742  1.00  0.00     0.031 A 
ATOM     53  C   UNL A   1      48.744  27.482  24.603  1.00  0.00     0.131 A 
ATOM     54  C   UNL A   1      50.878  26.655  26.147  1.00  0.00     0.055 A 
ATOM     55  C   UNL A   1      49.986  27.280  24.004  1.00  0.00     0.041 A 
ATOM     56  F   UNL A   1      47.735  27.901  23.820  1.00  0.00    -0.206 F 
ATOM     57  C   UNL A   1      51.067  26.876  24.780  1.00  0.00     0.022 A 
BRANCH  54  58
ATOM     58  S   UNL A   1      52.297  26.254  27.203  1.00  0.00     0.124 S 
ATOM     59  O   UNL A   1      53.078  27.485  27.134  1.00  0.00    -0.237 OA
ATOM     60  O   UNL A   1      51.652  25.977  28.482  1.00  0.00    -0.237 OA
ATOM     61  O   UNL A   1      52.896  25.097  26.543  1.00  0.00    -0.744 OA
ENDBRANCH  54  58
ENDBRANCH  27  51
BRANCH  39  62
ATOM     62  C   UNL A   1      45.583  32.711  29.112  1.00  0.00     0.023 A 
ATOM     63  C   UNL A   1      45.493  33.780  28.202  1.00  0.00     0.031 A 
ATOM     64  C   UNL A   1      46.242  32.932  30.332  1.00  0.00     0.131 A 
ATOM     65  C   UNL A   1      46.119  34.999  28.494  1.00  0.00     0.055 A 
ATOM     66  C   UNL A   1      46.811  34.167  30.644  1.00  0.00     0.041 A 
ATOM     67  F   UNL A   1      46.359  31.945  31.235  1.00  0.00    -0.206 F 
ATOM     68  C   UNL A   1      46.766  35.205  29.714  1.00  0.00     0.022 A 
BRANCH  65  69
ATOM     69  S   UNL A   1      46.176  36.277  27.207  1.00  0.00     0.124 S 
ATOM     70  O   UNL A   1      47.052  37.277  27.810  1.00  0.00    -0.237 OA
ATOM     71  O   UNL A   1      46.728  35.548  26.070  1.00  0.00    -0.237 OA
ATOM     72  O   UNL A   1      44.778  36.682  27.065  1.00  0.00    -0.744 OA
ENDBRANCH  65  69
ENDBRANCH  39  62
ENDBRANCH  13  14
ENDBRANCH   6   8
ENDBRANCH   3   4
ENDBRANCH   2   3
ENDBRANCH   1   2
BRANCH   1  73
ATOM     73  C   UNL A   1      36.649  21.702  24.734  1.00  0.00     0.116 C 
BRANCH  73  74
ATOM     74  N   UNL A   1      35.767  21.874  25.881  1.00  0.00    -0.352 N 
ATOM     75  C   UNL A   1      34.615  21.192  26.186  1.00  0.00     0.253 C 
ATOM     76  H   UNL A   1      36.032  22.572  26.522  1.00  0.00     0.163 HD
ATOM     77  O   UNL A   1      33.985  21.437  27.209  1.00  0.00    -0.269 OA
BRANCH  75  78
ATOM     78  C   UNL A   1      34.106  20.171  25.252  1.00  0.00     0.063 A 
ATOM     79  C   UNL A   1      34.973  19.112  24.946  1.00  0.00     0.016 A 
ATOM     80  C   UNL A   1      32.807  20.234  24.715  1.00  0.00     0.054 A 
ATOM     81  C   UNL A   1      34.532  18.065  24.144  1.00  0.00     0.001 A 
ATOM     82  C   UNL A   1      32.371  19.138  23.953  1.00  0.00     0.027 A 
ATOM     83  C   UNL A   1      33.226  18.070  23.663  1.00  0.00     0.002 A 
BRANCH  80  84
ATOM     84  N   UNL A   1      31.965  21.333  24.953  1.00  0.00    -0.323 N 
ATOM     85  H   UNL A   1      31.409  21.264  25.762  1.00  0.00     0.170 HD
BRANCH  84  86
ATOM     86  C   UNL A   1      31.798  22.502  24.221  1.00  0.00     0.233 A 
ATOM     87  N   UNL A   1      32.595  22.753  23.196  1.00  0.00    -0.182 NA
ATOM     88  N   UNL A   1      30.819  23.311  24.615  1.00  0.00    -0.176 NA
ATOM     89  C   UNL A   1      32.312  23.879  22.566  1.00  0.00     0.228 A 
ATOM     90  C   UNL A   1      30.686  24.458  23.955  1.00  0.00     0.233 A 
ATOM     91  Cl  UNL A   1      33.297  24.253  21.220  1.00  0.00    -0.041 Cl
ATOM     92  N   UNL A   1      31.401  24.778  22.888  1.00  0.00    -0.182 NA
BRANCH  90  93
ATOM     93  N   UNL A   1      29.833  25.393  24.537  1.00  0.00    -0.324 N 
ATOM     94  H   UNL A   1      29.364  25.093  25.349  1.00  0.00     0.170 HD
BRANCH  93  95
ATOM     95  C   UNL A   1      29.553  26.697  24.126  1.00  0.00     0.041 A 
ATOM     96  C   UNL A   1      30.578  27.647  24.090  1.00  0.00     0.028 A 
ATOM     97  C   UNL A   1      28.292  27.063  23.651  1.00  0.00     0.028 A 
ATOM     98  C   UNL A   1      30.354  28.928  23.570  1.00  0.00     0.028 A 
ATOM     99  C   UNL A   1      28.049  28.360  23.187  1.00  0.00     0.028 A 
ATOM    100  C   UNL A   1      29.082  29.300  23.120  1.00  0.00     0.044 A 
BRANCH 100 101
ATOM    101  N   UNL A   1      28.859  30.590  22.555  1.00  0.00    -0.308 N 
ATOM    102  C   UNL A   1      28.164  30.638  21.264  1.00  0.00     0.154 C 
ATOM    103  C   UNL A   1      28.993  31.750  23.328  1.00  0.00     0.253 C 
ATOM    104  C   UNL A   1      28.229  32.003  20.593  1.00  0.00     0.183 C 
ATOM    105  C   UNL A   1      28.608  33.065  22.627  1.00  0.00     0.260 C 
ATOM    106  O   UNL A   1      29.483  31.789  24.459  1.00  0.00    -0.272 OA
ATOM    107  O   UNL A   1      27.754  32.998  21.496  1.00  0.00    -0.370 OA
ENDBRANCH 100 101
ENDBRANCH  93  95
ENDBRANCH  90  93
ENDBRANCH  84  86
ENDBRANCH  80  84
ENDBRANCH  75  78
ENDBRANCH  73  74
ENDBRANCH   1  73
TORSDOF 19
ENDMDL
