MODEL 1
REMARK VINA RESULT:     -11.0      0.000      0.000
REMARK SMILES Cc1nnc(S[C@@H](C)CCO)c(C(=O)NCCCCNC(=O)c2ccc(-c3c4nc(c(-c5cc(S(=O)(=O)[O-])ccc5F)c5ccc([nH]5)c(-c5cc(S(=O)(=O)[O-])ccc5F)c5nc(c(-c6cc(S(=O)(=O)[O-])ccc6F)c6ccc3[nH]6)C=C5)C=C4)cc2)c1C
REMARK SMILES IDX 16 1 15 2 13 3 14 4 12 6 1 7 2 8 3 9 86 10 4 11 87 12 5 13
REMARK SMILES IDX 6 14 7 15 8 16 9 17 10 18 11 19 17 21 18 22 19 23 20 24
REMARK SMILES IDX 21 25 22 27 23 28 24 29 85 30 25 31 84 32 26 33 27 34 28 35
REMARK SMILES IDX 78 36 29 37 83 38 77 39 79 40 30 41 82 42 76 43 75 44 31 46
REMARK SMILES IDX 63 47 43 48 62 49 44 50 47 51 61 52 80 53 45 54 46 55 60 57
REMARK SMILES IDX 81 58 48 59 32 60 33 61 41 62 34 63 40 64 42 65 39 66 35 67
REMARK SMILES IDX 36 68 37 69 38 70 64 71 65 72 73 73 66 74 72 75 74 76 71 77
REMARK SMILES IDX 67 78 68 79 69 80 70 81 49 82 50 83 58 84 51 85 57 86 59 87
REMARK SMILES IDX 56 88 52 89 53 90 54 91 55 92
REMARK H PARENT 15 5 11 20 20 26 79 45 47 56
REMARK Flexibility Score: inf
ROOT
ATOM      1  C   UNL A   1      32.674  26.689  26.469  1.00  0.00     0.116 C 
ENDROOT
BRANCH   1   2
ATOM      2  N   UNL A   1      31.469  25.912  26.229  1.00  0.00    -0.352 N 
ATOM      3  C   UNL A   1      31.249  24.832  25.390  1.00  0.00     0.254 C 
ATOM      4  O   UNL A   1      30.321  24.080  25.660  1.00  0.00    -0.269 OA
ATOM      5  H   UNL A   1      30.682  26.200  26.746  1.00  0.00     0.163 HD
BRANCH   3   6
ATOM      6  C   UNL A   1      32.077  24.566  24.191  1.00  0.00     0.078 A 
ATOM      7  C   UNL A   1      32.575  25.817  20.602  1.00  0.00     0.069 C 
ATOM      8  C   UNL A   1      32.640  25.035  21.880  1.00  0.00     0.064 A 
ATOM      9  N   UNL A   1      33.405  23.938  21.843  1.00  0.00    -0.155 NA
ATOM     10  C   UNL A   1      31.975  25.412  23.049  1.00  0.00    -0.012 A 
ATOM     11  N   UNL A   1      33.626  23.230  22.990  1.00  0.00    -0.143 NA
ATOM     12  C   UNL A   1      31.252  26.734  23.053  1.00  0.00     0.047 C 
ATOM     13  C   UNL A   1      33.033  23.538  24.175  1.00  0.00     0.132 A 
BRANCH  13  14
ATOM     14  S   UNL A   1      33.963  22.670  25.427  1.00  0.00    -0.101 SA
BRANCH  14  15
ATOM     15  C   UNL A   1      34.927  21.230  24.827  1.00  0.00     0.052 C 
ATOM     16  C   UNL A   1      36.343  21.240  25.408  1.00  0.00     0.020 C 
BRANCH  15  17
ATOM     17  C   UNL A   1      34.227  19.870  24.750  1.00  0.00     0.043 C 
BRANCH  17  18
ATOM     18  C   UNL A   1      33.085  19.726  25.761  1.00  0.00     0.157 C 
BRANCH  18  19
ATOM     19  O   UNL A   1      31.869  20.252  25.239  1.00  0.00    -0.396 OA
ATOM     20  H   UNL A   1      31.961  20.392  24.283  1.00  0.00     0.210 HD
ENDBRANCH  18  19
ENDBRANCH  17  18
ENDBRANCH  15  17
ENDBRANCH  14  15
ENDBRANCH  13  14
ENDBRANCH   3   6
ENDBRANCH   1   2
BRANCH   1  21
ATOM     21  C   UNL A   1      32.522  27.971  27.281  1.00  0.00     0.023 C 
BRANCH  21  22
ATOM     22  C   UNL A   1      31.950  29.197  26.575  1.00  0.00     0.023 C 
BRANCH  22  23
ATOM     23  C   UNL A   1      32.929  30.294  26.176  1.00  0.00     0.116 C 
BRANCH  23  24
ATOM     24  N   UNL A   1      32.706  31.578  26.831  1.00  0.00    -0.352 N 
ATOM     25  C   UNL A   1      33.568  32.302  27.629  1.00  0.00     0.251 C 
ATOM     26  H   UNL A   1      31.820  31.982  26.685  1.00  0.00     0.163 HD
ATOM     27  O   UNL A   1      33.233  33.372  28.114  1.00  0.00    -0.269 OA
BRANCH  25  28
ATOM     28  C   UNL A   1      34.889  31.717  27.924  1.00  0.00     0.039 A 
ATOM     29  C   UNL A   1      35.995  32.566  27.979  1.00  0.00     0.014 A 
ATOM     30  C   UNL A   1      34.983  30.378  28.312  1.00  0.00     0.014 A 
ATOM     31  C   UNL A   1      37.185  32.091  28.529  1.00  0.00     0.010 A 
ATOM     32  C   UNL A   1      36.144  29.936  28.935  1.00  0.00     0.010 A 
ATOM     33  C   UNL A   1      37.251  30.791  29.059  1.00  0.00    -0.014 A 
BRANCH  33  34
ATOM     34  C   UNL A   1      38.475  30.329  29.759  1.00  0.00     0.031 A 
ATOM     35  C   UNL A   1      38.775  30.815  31.145  1.00  0.00     0.074 A 
ATOM     36  C   UNL A   1      39.327  29.492  29.134  1.00  0.00     0.049 A 
ATOM     37  N   UNL A   1      39.750  30.466  31.943  1.00  0.00    -0.248 NA
ATOM     38  C   UNL A   1      37.880  31.842  31.703  1.00  0.00     0.031 C 
ATOM     39  C   UNL A   1      39.184  29.015  27.757  1.00  0.00     0.029 A 
ATOM     40  N   UNL A   1      40.480  28.890  29.573  1.00  0.00    -0.354 N 
ATOM     41  C   UNL A   1      39.577  31.218  33.096  1.00  0.00     0.074 A 
ATOM     42  C   UNL A   1      38.457  32.102  32.867  1.00  0.00     0.031 C 
ATOM     43  C   UNL A   1      40.187  28.166  27.479  1.00  0.00     0.029 A 
ATOM     44  C   UNL A   1      41.056  28.050  28.647  1.00  0.00     0.049 A 
ATOM     45  H   UNL A   1      40.860  29.044  30.469  1.00  0.00     0.167 HD
ATOM     46  C   UNL A   1      40.263  31.147  34.259  1.00  0.00     0.034 A 
ATOM     47  C   UNL A   1      42.146  27.259  28.736  1.00  0.00     0.034 A 
ATOM     48  C   UNL A   1      41.365  30.253  34.485  1.00  0.00     0.049 A 
ATOM     49  C   UNL A   1      42.891  27.189  30.047  1.00  0.00     0.074 A 
ATOM     50  C   UNL A   1      42.083  30.062  35.650  1.00  0.00     0.029 A 
ATOM     51  N   UNL A   1      41.911  29.406  33.532  1.00  0.00    -0.354 N 
ATOM     52  N   UNL A   1      42.635  27.812  31.173  1.00  0.00    -0.248 NA
ATOM     53  C   UNL A   1      44.056  26.296  30.106  1.00  0.00     0.031 C 
ATOM     54  C   UNL A   1      43.096  29.137  35.389  1.00  0.00     0.029 A 
ATOM     55  C   UNL A   1      42.974  28.707  34.076  1.00  0.00     0.049 A 
ATOM     56  H   UNL A   1      41.590  29.315  32.606  1.00  0.00     0.167 HD
ATOM     57  C   UNL A   1      43.596  27.374  32.080  1.00  0.00     0.074 A 
ATOM     58  C   UNL A   1      44.418  26.409  31.379  1.00  0.00     0.031 C 
ATOM     59  C   UNL A   1      43.783  27.742  33.372  1.00  0.00     0.034 A 
BRANCH  46  60
ATOM     60  C   UNL A   1      39.818  32.023  35.398  1.00  0.00     0.023 A 
ATOM     61  C   UNL A   1      38.975  31.509  36.397  1.00  0.00     0.031 A 
ATOM     62  C   UNL A   1      40.146  33.391  35.434  1.00  0.00     0.131 A 
ATOM     63  C   UNL A   1      38.459  32.367  37.374  1.00  0.00     0.055 A 
ATOM     64  C   UNL A   1      39.660  34.233  36.433  1.00  0.00     0.041 A 
ATOM     65  F   UNL A   1      40.955  33.923  34.504  1.00  0.00    -0.206 F 
ATOM     66  C   UNL A   1      38.804  33.723  37.403  1.00  0.00     0.022 A 
BRANCH  63  67
ATOM     67  S   UNL A   1      37.294  31.765  38.624  1.00  0.00     0.124 S 
ATOM     68  O   UNL A   1      36.172  32.687  38.463  1.00  0.00    -0.237 OA
ATOM     69  O   UNL A   1      37.048  30.398  38.174  1.00  0.00    -0.237 OA
ATOM     70  O   UNL A   1      38.027  31.898  39.878  1.00  0.00    -0.744 OA
ENDBRANCH  63  67
ENDBRANCH  46  60
BRANCH  47  71
ATOM     71  C   UNL A   1      42.534  26.415  27.571  1.00  0.00     0.023 A 
ATOM     72  C   UNL A   1      42.076  25.092  27.448  1.00  0.00     0.031 A 
ATOM     73  C   UNL A   1      43.439  26.894  26.608  1.00  0.00     0.131 A 
ATOM     74  C   UNL A   1      42.565  24.278  26.419  1.00  0.00     0.055 A 
ATOM     75  C   UNL A   1      43.877  26.099  25.548  1.00  0.00     0.041 A 
ATOM     76  F   UNL A   1      43.913  28.147  26.691  1.00  0.00    -0.206 F 
ATOM     77  C   UNL A   1      43.449  24.778  25.457  1.00  0.00     0.022 A 
BRANCH  74  78
ATOM     78  S   UNL A   1      42.146  22.515  26.349  1.00  0.00     0.124 S 
ATOM     79  O   UNL A   1      42.807  21.994  27.541  1.00  0.00    -0.237 OA
ATOM     80  O   UNL A   1      40.687  22.558  26.402  1.00  0.00    -0.237 OA
ATOM     81  O   UNL A   1      42.710  22.079  25.076  1.00  0.00    -0.744 OA
ENDBRANCH  74  78
ENDBRANCH  47  71
BRANCH  59  82
ATOM     82  C   UNL A   1      44.923  27.120  34.139  1.00  0.00     0.023 A 
ATOM     83  C   UNL A   1      44.693  26.000  34.961  1.00  0.00     0.031 A 
ATOM     84  C   UNL A   1      46.194  27.720  34.169  1.00  0.00     0.131 A 
ATOM     85  C   UNL A   1      45.710  25.537  35.805  1.00  0.00     0.055 A 
ATOM     86  C   UNL A   1      47.217  27.226  34.978  1.00  0.00     0.041 A 
ATOM     87  F   UNL A   1      46.456  28.797  33.412  1.00  0.00    -0.206 F 
ATOM     88  C   UNL A   1      46.973  26.137  35.811  1.00  0.00     0.022 A 
BRANCH  85  89
ATOM     89  S   UNL A   1      45.410  24.187  36.978  1.00  0.00     0.124 S 
ATOM     90  O   UNL A   1      46.707  24.067  37.640  1.00  0.00    -0.237 OA
ATOM     91  O   UNL A   1      44.336  24.732  37.805  1.00  0.00    -0.237 OA
ATOM     92  O   UNL A   1      45.039  23.058  36.132  1.00  0.00    -0.744 OA
ENDBRANCH  85  89
ENDBRANCH  59  82
ENDBRANCH  33  34
ENDBRANCH  25  28
ENDBRANCH  23  24
ENDBRANCH  22  23
ENDBRANCH  21  22
ENDBRANCH   1  21
TORSDOF 19
ENDMDL
MODEL 2
REMARK VINA RESULT:     -10.9      2.392      8.162
REMARK SMILES Cc1nnc(S[C@@H](C)CCO)c(C(=O)NCCCCNC(=O)c2ccc(-c3c4nc(c(-c5cc(S(=O)(=O)[O-])ccc5F)c5ccc([nH]5)c(-c5cc(S(=O)(=O)[O-])ccc5F)c5nc(c(-c6cc(S(=O)(=O)[O-])ccc6F)c6ccc3[nH]6)C=C5)C=C4)cc2)c1C
REMARK SMILES IDX 16 1 15 2 13 3 14 4 12 6 1 7 2 8 3 9 86 10 4 11 87 12 5 13
REMARK SMILES IDX 6 14 7 15 8 16 9 17 10 18 11 19 17 21 18 22 19 23 20 24
REMARK SMILES IDX 21 25 22 27 23 28 24 29 85 30 25 31 84 32 26 33 27 34 28 35
REMARK SMILES IDX 78 36 29 37 83 38 77 39 79 40 30 41 82 42 76 43 75 44 31 46
REMARK SMILES IDX 63 47 43 48 62 49 44 50 47 51 61 52 80 53 45 54 46 55 60 57
REMARK SMILES IDX 81 58 48 59 32 60 33 61 41 62 34 63 40 64 42 65 39 66 35 67
REMARK SMILES IDX 36 68 37 69 38 70 64 71 65 72 73 73 66 74 72 75 74 76 71 77
REMARK SMILES IDX 67 78 68 79 69 80 70 81 49 82 50 83 58 84 51 85 57 86 59 87
REMARK SMILES IDX 56 88 52 89 53 90 54 91 55 92
REMARK H PARENT 15 5 11 20 20 26 79 45 47 56
REMARK Flexibility Score: inf
ROOT
ATOM      1  C   UNL A   1      33.537  28.951  25.646  1.00  0.00     0.116 C 
ENDROOT
BRANCH   1   2
ATOM      2  N   UNL A   1      34.028  28.681  24.304  1.00  0.00    -0.352 N 
ATOM      3  C   UNL A   1      33.425  28.026  23.242  1.00  0.00     0.254 C 
ATOM      4  O   UNL A   1      33.821  28.288  22.113  1.00  0.00    -0.269 OA
ATOM      5  H   UNL A   1      34.935  29.017  24.121  1.00  0.00     0.163 HD
BRANCH   3   6
ATOM      6  C   UNL A   1      32.345  27.029  23.422  1.00  0.00     0.078 A 
ATOM      7  C   UNL A   1      28.538  26.828  23.816  1.00  0.00     0.069 C 
ATOM      8  C   UNL A   1      30.001  26.506  23.751  1.00  0.00     0.064 A 
ATOM      9  N   UNL A   1      30.322  25.236  24.026  1.00  0.00    -0.155 NA
ATOM     10  C   UNL A   1      30.981  27.440  23.410  1.00  0.00    -0.012 A 
ATOM     11  N   UNL A   1      31.613  24.818  23.872  1.00  0.00    -0.143 NA
ATOM     12  C   UNL A   1      30.527  28.809  22.973  1.00  0.00     0.047 C 
ATOM     13  C   UNL A   1      32.626  25.657  23.525  1.00  0.00     0.132 A 
BRANCH  13  14
ATOM     14  S   UNL A   1      33.970  24.609  22.998  1.00  0.00    -0.101 SA
BRANCH  14  15
ATOM     15  C   UNL A   1      35.014  23.937  24.348  1.00  0.00     0.052 C 
ATOM     16  C   UNL A   1      34.822  24.739  25.637  1.00  0.00     0.020 C 
BRANCH  15  17
ATOM     17  C   UNL A   1      35.119  22.417  24.496  1.00  0.00     0.043 C 
BRANCH  17  18
ATOM     18  C   UNL A   1      36.005  21.989  25.671  1.00  0.00     0.157 C 
BRANCH  18  19
ATOM     19  O   UNL A   1      35.224  21.444  26.730  1.00  0.00    -0.396 OA
ATOM     20  H   UNL A   1      35.337  20.480  26.751  1.00  0.00     0.210 HD
ENDBRANCH  18  19
ENDBRANCH  17  18
ENDBRANCH  15  17
ENDBRANCH  14  15
ENDBRANCH  13  14
ENDBRANCH   3   6
ENDBRANCH   1   2
BRANCH   1  21
ATOM     21  C   UNL A   1      32.494  30.053  25.793  1.00  0.00     0.023 C 
BRANCH  21  22
ATOM     22  C   UNL A   1      32.432  30.801  27.122  1.00  0.00     0.023 C 
BRANCH  22  23
ATOM     23  C   UNL A   1      33.451  31.911  27.347  1.00  0.00     0.116 C 
BRANCH  23  24
ATOM     24  N   UNL A   1      32.875  33.235  27.550  1.00  0.00    -0.352 N 
ATOM     25  C   UNL A   1      33.243  34.208  28.458  1.00  0.00     0.251 C 
ATOM     26  H   UNL A   1      32.122  33.467  26.959  1.00  0.00     0.163 HD
ATOM     27  O   UNL A   1      32.657  35.278  28.510  1.00  0.00    -0.269 OA
BRANCH  25  28
ATOM     28  C   UNL A   1      34.331  33.893  29.402  1.00  0.00     0.039 A 
ATOM     29  C   UNL A   1      34.029  33.143  30.539  1.00  0.00     0.014 A 
ATOM     30  C   UNL A   1      35.652  34.192  29.061  1.00  0.00     0.014 A 
ATOM     31  C   UNL A   1      35.072  32.597  31.285  1.00  0.00     0.010 A 
ATOM     32  C   UNL A   1      36.685  33.577  29.758  1.00  0.00     0.010 A 
ATOM     33  C   UNL A   1      36.404  32.765  30.869  1.00  0.00    -0.014 A 
BRANCH  33  34
ATOM     34  C   UNL A   1      37.505  32.078  31.588  1.00  0.00     0.031 A 
ATOM     35  C   UNL A   1      38.230  30.938  30.937  1.00  0.00     0.074 A 
ATOM     36  C   UNL A   1      37.833  32.467  32.837  1.00  0.00     0.049 A 
ATOM     37  N   UNL A   1      39.264  30.269  31.374  1.00  0.00    -0.248 NA
ATOM     38  C   UNL A   1      37.718  30.474  29.638  1.00  0.00     0.031 C 
ATOM     39  C   UNL A   1      37.147  33.508  33.605  1.00  0.00     0.029 A 
ATOM     40  N   UNL A   1      38.827  32.036  33.680  1.00  0.00    -0.354 N 
ATOM     41  C   UNL A   1      39.531  29.316  30.400  1.00  0.00     0.074 A 
ATOM     42  C   UNL A   1      38.505  29.438  29.390  1.00  0.00     0.031 C 
ATOM     43  C   UNL A   1      37.764  33.661  34.787  1.00  0.00     0.029 A 
ATOM     44  C   UNL A   1      38.877  32.719  34.874  1.00  0.00     0.049 A 
ATOM     45  H   UNL A   1      39.448  31.306  33.452  1.00  0.00     0.167 HD
ATOM     46  C   UNL A   1      40.565  28.448  30.333  1.00  0.00     0.034 A 
ATOM     47  C   UNL A   1      39.735  32.615  35.910  1.00  0.00     0.034 A 
ATOM     48  C   UNL A   1      41.591  28.346  31.333  1.00  0.00     0.049 A 
ATOM     49  C   UNL A   1      40.887  31.646  35.809  1.00  0.00     0.074 A 
ATOM     50  C   UNL A   1      42.715  27.541  31.324  1.00  0.00     0.029 A 
ATOM     51  N   UNL A   1      41.620  29.062  32.521  1.00  0.00    -0.354 N 
ATOM     52  N   UNL A   1      41.201  30.841  34.821  1.00  0.00    -0.248 NA
ATOM     53  C   UNL A   1      41.811  31.583  36.950  1.00  0.00     0.031 C 
ATOM     54  C   UNL A   1      43.398  27.734  32.526  1.00  0.00     0.029 A 
ATOM     55  C   UNL A   1      42.730  28.701  33.263  1.00  0.00     0.049 A 
ATOM     56  H   UNL A   1      40.950  29.730  32.794  1.00  0.00     0.167 HD
ATOM     57  C   UNL A   1      42.368  30.190  35.212  1.00  0.00     0.074 A 
ATOM     58  C   UNL A   1      42.720  30.719  36.515  1.00  0.00     0.031 C 
ATOM     59  C   UNL A   1      43.078  29.239  34.556  1.00  0.00     0.034 A 
BRANCH  46  60
ATOM     60  C   UNL A   1      40.673  27.569  29.117  1.00  0.00     0.023 A 
ATOM     61  C   UNL A   1      41.574  27.893  28.089  1.00  0.00     0.031 A 
ATOM     62  C   UNL A   1      39.810  26.473  28.933  1.00  0.00     0.131 A 
ATOM     63  C   UNL A   1      41.568  27.147  26.905  1.00  0.00     0.055 A 
ATOM     64  C   UNL A   1      39.836  25.709  27.768  1.00  0.00     0.041 A 
ATOM     65  F   UNL A   1      38.939  26.123  29.893  1.00  0.00    -0.206 F 
ATOM     66  C   UNL A   1      40.712  26.052  26.742  1.00  0.00     0.022 A 
BRANCH  63  67
ATOM     67  S   UNL A   1      42.648  27.589  25.518  1.00  0.00     0.124 S 
ATOM     68  O   UNL A   1      42.003  28.795  25.004  1.00  0.00    -0.237 OA
ATOM     69  O   UNL A   1      43.928  27.801  26.188  1.00  0.00    -0.237 OA
ATOM     70  O   UNL A   1      42.578  26.428  24.637  1.00  0.00    -0.744 OA
ENDBRANCH  63  67
ENDBRANCH  46  60
BRANCH  47  71
ATOM     71  C   UNL A   1      39.574  33.516  37.087  1.00  0.00     0.023 A 
ATOM     72  C   UNL A   1      38.952  33.068  38.264  1.00  0.00     0.031 A 
ATOM     73  C   UNL A   1      39.962  34.864  37.015  1.00  0.00     0.131 A 
ATOM     74  C   UNL A   1      38.690  33.972  39.301  1.00  0.00     0.055 A 
ATOM     75  C   UNL A   1      39.755  35.749  38.075  1.00  0.00     0.041 A 
ATOM     76  F   UNL A   1      40.548  35.341  35.906  1.00  0.00    -0.206 F 
ATOM     77  C   UNL A   1      39.103  35.306  39.222  1.00  0.00     0.022 A 
BRANCH  74  78
ATOM     78  S   UNL A   1      37.717  33.472  40.748  1.00  0.00     0.124 S 
ATOM     79  O   UNL A   1      37.691  34.698  41.540  1.00  0.00    -0.237 OA
ATOM     80  O   UNL A   1      36.449  33.091  40.131  1.00  0.00    -0.237 OA
ATOM     81  O   UNL A   1      38.489  32.372  41.316  1.00  0.00    -0.744 OA
ENDBRANCH  74  78
ENDBRANCH  47  71
BRANCH  59  82
ATOM     82  C   UNL A   1      44.312  28.678  35.217  1.00  0.00     0.023 A 
ATOM     83  C   UNL A   1      44.194  27.662  36.185  1.00  0.00     0.031 A 
ATOM     84  C   UNL A   1      45.578  29.248  34.998  1.00  0.00     0.131 A 
ATOM     85  C   UNL A   1      45.318  27.270  36.922  1.00  0.00     0.055 A 
ATOM     86  C   UNL A   1      46.703  28.822  35.704  1.00  0.00     0.041 A 
ATOM     87  F   UNL A   1      45.737  30.228  34.095  1.00  0.00    -0.206 F 
ATOM     88  C   UNL A   1      46.574  27.838  36.680  1.00  0.00     0.022 A 
BRANCH  85  89
ATOM     89  S   UNL A   1      45.180  26.066  38.270  1.00  0.00     0.124 S 
ATOM     90  O   UNL A   1      44.320  26.771  39.219  1.00  0.00    -0.237 OA
ATOM     91  O   UNL A   1      44.564  24.924  37.600  1.00  0.00    -0.237 OA
ATOM     92  O   UNL A   1      46.556  25.868  38.711  1.00  0.00    -0.744 OA
ENDBRANCH  85  89
ENDBRANCH  59  82
ENDBRANCH  33  34
ENDBRANCH  25  28
ENDBRANCH  23  24
ENDBRANCH  22  23
ENDBRANCH  21  22
ENDBRANCH   1  21
TORSDOF 19
ENDMDL
MODEL 3
REMARK VINA RESULT:     -10.9      1.909      3.325
REMARK SMILES Cc1nnc(S[C@@H](C)CCO)c(C(=O)NCCCCNC(=O)c2ccc(-c3c4nc(c(-c5cc(S(=O)(=O)[O-])ccc5F)c5ccc([nH]5)c(-c5cc(S(=O)(=O)[O-])ccc5F)c5nc(c(-c6cc(S(=O)(=O)[O-])ccc6F)c6ccc3[nH]6)C=C5)C=C4)cc2)c1C
REMARK SMILES IDX 16 1 15 2 13 3 14 4 12 6 1 7 2 8 3 9 86 10 4 11 87 12 5 13
REMARK SMILES IDX 6 14 7 15 8 16 9 17 10 18 11 19 17 21 18 22 19 23 20 24
REMARK SMILES IDX 21 25 22 27 23 28 24 29 85 30 25 31 84 32 26 33 27 34 28 35
REMARK SMILES IDX 78 36 29 37 83 38 77 39 79 40 30 41 82 42 76 43 75 44 31 46
REMARK SMILES IDX 63 47 43 48 62 49 44 50 47 51 61 52 80 53 45 54 46 55 60 57
REMARK SMILES IDX 81 58 48 59 32 60 33 61 41 62 34 63 40 64 42 65 39 66 35 67
REMARK SMILES IDX 36 68 37 69 38 70 64 71 65 72 73 73 66 74 72 75 74 76 71 77
REMARK SMILES IDX 67 78 68 79 69 80 70 81 49 82 50 83 58 84 51 85 57 86 59 87
REMARK SMILES IDX 56 88 52 89 53 90 54 91 55 92
REMARK H PARENT 15 5 11 20 20 26 79 45 47 56
REMARK Flexibility Score: inf
ROOT
ATOM      1  C   UNL A   1      32.273  27.930  27.576  1.00  0.00     0.116 C 
ENDROOT
BRANCH   1   2
ATOM      2  N   UNL A   1      31.067  27.286  27.080  1.00  0.00    -0.352 N 
ATOM      3  C   UNL A   1      30.910  26.260  26.161  1.00  0.00     0.254 C 
ATOM      4  O   UNL A   1      29.882  25.597  26.218  1.00  0.00    -0.269 OA
ATOM      5  H   UNL A   1      30.227  27.635  27.457  1.00  0.00     0.163 HD
BRANCH   3   6
ATOM      6  C   UNL A   1      31.920  25.951  25.123  1.00  0.00     0.078 A 
ATOM      7  C   UNL A   1      35.194  24.012  24.664  1.00  0.00     0.069 C 
ATOM      8  C   UNL A   1      34.005  24.904  24.465  1.00  0.00     0.064 A 
ATOM      9  N   UNL A   1      33.969  25.562  23.301  1.00  0.00    -0.155 NA
ATOM     10  C   UNL A   1      32.980  25.041  25.404  1.00  0.00    -0.012 A 
ATOM     11  N   UNL A   1      32.866  26.300  22.976  1.00  0.00    -0.143 NA
ATOM     12  C   UNL A   1      33.019  24.158  26.624  1.00  0.00     0.047 C 
ATOM     13  C   UNL A   1      31.816  26.472  23.823  1.00  0.00     0.132 A 
BRANCH  13  14
ATOM     14  S   UNL A   1      30.472  27.078  22.818  1.00  0.00    -0.101 SA
BRANCH  14  15
ATOM     15  C   UNL A   1      29.599  28.547  23.484  1.00  0.00     0.052 C 
ATOM     16  C   UNL A   1      30.588  29.665  23.820  1.00  0.00     0.020 C 
BRANCH  15  17
ATOM     17  C   UNL A   1      28.284  28.971  22.822  1.00  0.00     0.043 C 
BRANCH  17  18
ATOM     18  C   UNL A   1      28.074  30.489  22.827  1.00  0.00     0.157 C 
BRANCH  18  19
ATOM     19  O   UNL A   1      26.957  30.849  23.634  1.00  0.00    -0.396 OA
ATOM     20  H   UNL A   1      26.137  30.683  23.143  1.00  0.00     0.210 HD
ENDBRANCH  18  19
ENDBRANCH  17  18
ENDBRANCH  15  17
ENDBRANCH  14  15
ENDBRANCH  13  14
ENDBRANCH   3   6
ENDBRANCH   1   2
BRANCH   1  21
ATOM     21  C   UNL A   1      32.849  29.064  26.735  1.00  0.00     0.023 C 
BRANCH  21  22
ATOM     22  C   UNL A   1      32.361  30.482  27.023  1.00  0.00     0.023 C 
BRANCH  22  23
ATOM     23  C   UNL A   1      33.416  31.530  27.356  1.00  0.00     0.116 C 
BRANCH  23  24
ATOM     24  N   UNL A   1      32.887  32.859  27.636  1.00  0.00    -0.352 N 
ATOM     25  C   UNL A   1      33.401  33.838  28.462  1.00  0.00     0.251 C 
ATOM     26  H   UNL A   1      32.049  33.090  27.173  1.00  0.00     0.163 HD
ATOM     27  O   UNL A   1      32.837  34.912  28.597  1.00  0.00    -0.269 OA
BRANCH  25  28
ATOM     28  C   UNL A   1      34.626  33.525  29.220  1.00  0.00     0.039 A 
ATOM     29  C   UNL A   1      34.533  32.652  30.305  1.00  0.00     0.014 A 
ATOM     30  C   UNL A   1      35.866  33.957  28.743  1.00  0.00     0.014 A 
ATOM     31  C   UNL A   1      35.702  32.125  30.850  1.00  0.00     0.010 A 
ATOM     32  C   UNL A   1      37.023  33.365  29.235  1.00  0.00     0.010 A 
ATOM     33  C   UNL A   1      36.951  32.435  30.284  1.00  0.00    -0.014 A 
BRANCH  33  34
ATOM     34  C   UNL A   1      38.183  31.775  30.781  1.00  0.00     0.031 A 
ATOM     35  C   UNL A   1      38.754  32.157  32.114  1.00  0.00     0.074 A 
ATOM     36  C   UNL A   1      38.801  30.851  30.018  1.00  0.00     0.049 A 
ATOM     37  N   UNL A   1      39.774  31.641  32.747  1.00  0.00    -0.248 NA
ATOM     38  C   UNL A   1      38.112  33.278  32.820  1.00  0.00     0.031 C 
ATOM     39  C   UNL A   1      38.387  30.454  28.670  1.00  0.00     0.029 A 
ATOM     40  N   UNL A   1      39.905  30.073  30.266  1.00  0.00    -0.354 N 
ATOM     41  C   UNL A   1      39.886  32.364  33.926  1.00  0.00     0.074 A 
ATOM     42  C   UNL A   1      38.887  33.406  33.887  1.00  0.00     0.031 C 
ATOM     43  C   UNL A   1      39.202  29.483  28.228  1.00  0.00     0.029 A 
ATOM     44  C   UNL A   1      40.207  29.197  29.248  1.00  0.00     0.049 A 
ATOM     45  H   UNL A   1      40.432  30.135  31.095  1.00  0.00     0.167 HD
ATOM     46  C   UNL A   1      40.719  32.148  34.970  1.00  0.00     0.034 A 
ATOM     47  C   UNL A   1      41.170  28.256  29.156  1.00  0.00     0.034 A 
ATOM     48  C   UNL A   1      41.698  31.098  35.009  1.00  0.00     0.049 A 
ATOM     49  C   UNL A   1      42.082  28.027  30.335  1.00  0.00     0.074 A 
ATOM     50  C   UNL A   1      42.545  30.759  36.047  1.00  0.00     0.029 A 
ATOM     51  N   UNL A   1      41.967  30.220  33.969  1.00  0.00    -0.354 N 
ATOM     52  N   UNL A   1      42.091  28.635  31.499  1.00  0.00    -0.248 NA
ATOM     53  C   UNL A   1      43.099  26.976  30.201  1.00  0.00     0.031 C 
ATOM     54  C   UNL A   1      43.361  29.710  35.619  1.00  0.00     0.029 A 
ATOM     55  C   UNL A   1      42.984  29.355  34.332  1.00  0.00     0.049 A 
ATOM     56  H   UNL A   1      41.502  30.214  33.101  1.00  0.00     0.167 HD
ATOM     57  C   UNL A   1      43.100  28.028  32.241  1.00  0.00     0.074 A 
ATOM     58  C   UNL A   1      43.658  26.985  31.405  1.00  0.00     0.031 C 
ATOM     59  C   UNL A   1      43.529  28.313  33.496  1.00  0.00     0.034 A 
BRANCH  46  60
ATOM     60  C   UNL A   1      40.582  33.033  36.179  1.00  0.00     0.023 A 
ATOM     61  C   UNL A   1      39.710  32.674  37.221  1.00  0.00     0.031 A 
ATOM     62  C   UNL A   1      41.234  34.278  36.247  1.00  0.00     0.131 A 
ATOM     63  C   UNL A   1      39.489  33.568  38.274  1.00  0.00     0.055 A 
ATOM     64  C   UNL A   1      41.039  35.147  37.319  1.00  0.00     0.041 A 
ATOM     65  F   UNL A   1      42.081  34.657  35.277  1.00  0.00    -0.206 F 
ATOM     66  C   UNL A   1      40.154  34.798  38.334  1.00  0.00     0.022 A 
BRANCH  63  67
ATOM     67  S   UNL A   1      38.303  33.185  39.590  1.00  0.00     0.124 S 
ATOM     68  O   UNL A   1      37.069  32.975  38.834  1.00  0.00    -0.237 OA
ATOM     69  O   UNL A   1      38.885  31.983  40.180  1.00  0.00    -0.237 OA
ATOM     70  O   UNL A   1      38.316  34.376  40.431  1.00  0.00    -0.744 OA
ENDBRANCH  63  67
ENDBRANCH  46  60
BRANCH  47  71
ATOM     71  C   UNL A   1      41.253  27.412  27.929  1.00  0.00     0.023 A 
ATOM     72  C   UNL A   1      40.860  26.064  27.949  1.00  0.00     0.031 A 
ATOM     73  C   UNL A   1      41.808  27.923  26.744  1.00  0.00     0.131 A 
ATOM     74  C   UNL A   1      41.076  25.258  26.823  1.00  0.00     0.055 A 
ATOM     75  C   UNL A   1      41.966  27.133  25.604  1.00  0.00     0.041 A 
ATOM     76  F   UNL A   1      42.210  29.202  26.682  1.00  0.00    -0.206 F 
ATOM     77  C   UNL A   1      41.611  25.789  25.644  1.00  0.00     0.022 A 
BRANCH  74  78
ATOM     78  S   UNL A   1      40.762  23.473  26.882  1.00  0.00     0.124 S 
ATOM     79  O   UNL A   1      40.948  23.175  28.299  1.00  0.00    -0.237 OA
ATOM     80  O   UNL A   1      39.387  23.401  26.395  1.00  0.00    -0.237 OA
ATOM     81  O   UNL A   1      41.770  22.918  25.985  1.00  0.00    -0.744 OA
ENDBRANCH  74  78
ENDBRANCH  47  71
BRANCH  59  82
ATOM     82  C   UNL A   1      44.666  27.505  34.068  1.00  0.00     0.023 A 
ATOM     83  C   UNL A   1      44.407  26.275  34.703  1.00  0.00     0.031 A 
ATOM     84  C   UNL A   1      45.973  28.018  34.114  1.00  0.00     0.131 A 
ATOM     85  C   UNL A   1      45.436  25.616  35.387  1.00  0.00     0.055 A 
ATOM     86  C   UNL A   1      47.005  27.334  34.758  1.00  0.00     0.041 A 
ATOM     87  F   UNL A   1      46.265  29.193  33.534  1.00  0.00    -0.206 F 
ATOM     88  C   UNL A   1      46.736  26.134  35.409  1.00  0.00     0.022 A 
BRANCH  85  89
ATOM     89  S   UNL A   1      45.112  24.103  36.333  1.00  0.00     0.124 S 
ATOM     90  O   UNL A   1      43.828  23.673  35.785  1.00  0.00    -0.237 OA
ATOM     91  O   UNL A   1      46.254  23.266  35.974  1.00  0.00    -0.237 OA
ATOM     92  O   UNL A   1      45.076  24.554  37.719  1.00  0.00    -0.744 OA
ENDBRANCH  85  89
ENDBRANCH  59  82
ENDBRANCH  33  34
ENDBRANCH  25  28
ENDBRANCH  23  24
ENDBRANCH  22  23
ENDBRANCH  21  22
ENDBRANCH   1  21
TORSDOF 19
ENDMDL
