MODEL 1
REMARK VINA RESULT:     -12.6      0.000      0.000
REMARK SMILES CC(C)CN(C)c1cc2c(cc1Cl)C=C(C(=O)NCCCCNC(=O)c1ccc(-c3c4nc(c(-c5cc(S(=O)(=O)[O-])ccc5F)c5ccc([nH]5)c(-c5cc(S(=O)(=O)[O-])ccc5F)c5nc(c(-c6cc(S(=O)(=O)[O-])ccc6F)c6ccc3[nH]6)C=C5)C=C4)cc1)[C@@H](C(F)(F)F)O2
REMARK SMILES IDX 20 1 19 2 18 3 16 4 17 5 15 7 7 8 8 9 12 10 9 11 11 12 13 13
REMARK SMILES IDX 10 14 94 15 14 16 89 17 5 18 6 19 4 20 2 21 1 22 3 23 90 24
REMARK SMILES IDX 91 25 92 26 93 27 21 28 22 29 23 30 24 31 25 33 26 34 27 35
REMARK SMILES IDX 88 36 28 37 87 38 29 39 30 40 31 41 81 42 32 43 86 44 80 45
REMARK SMILES IDX 82 46 33 47 85 48 79 49 78 50 34 52 66 53 46 54 65 55 47 56
REMARK SMILES IDX 50 57 64 58 83 59 48 60 49 61 63 63 84 64 51 65 35 66 36 67
REMARK SMILES IDX 44 68 37 69 43 70 45 71 42 72 38 73 39 74 40 75 41 76 67 77
REMARK SMILES IDX 68 78 76 79 69 80 75 81 77 82 74 83 70 84 71 85 72 86 73 87
REMARK SMILES IDX 52 88 53 89 61 90 54 91 60 92 62 93 59 94 55 95 56 96 57 97
REMARK SMILES IDX 58 98
REMARK H PARENT 18 6 23 32 82 51 50 62
REMARK Flexibility Score: inf
ROOT
ATOM      1  C   UNL A   1      31.428  29.448  24.753  1.00  0.00     0.023 C 
ENDROOT
BRANCH   1   2
ATOM      2  C   UNL A   1      31.053  28.656  23.504  1.00  0.00     0.116 C 
BRANCH   2   3
ATOM      3  N   UNL A   1      29.820  27.912  23.689  1.00  0.00    -0.352 N 
ATOM      4  C   UNL A   1      29.476  26.616  23.877  1.00  0.00     0.251 C 
ATOM      5  O   UNL A   1      28.269  26.403  24.033  1.00  0.00    -0.270 OA
ATOM      6  H   UNL A   1      29.032  28.501  23.674  1.00  0.00     0.163 HD
BRANCH   4   7
ATOM      7  C   UNL A   1      30.428  25.470  23.888  1.00  0.00     0.067 C 
ATOM      8  C   UNL A   1      33.108  21.412  25.244  1.00  0.00     0.059 A 
ATOM      9  C   UNL A   1      32.439  21.808  24.076  1.00  0.00     0.074 A 
ATOM     10  C   UNL A   1      33.096  22.304  26.343  1.00  0.00     0.065 A 
ATOM     11  C   UNL A   1      31.754  23.019  24.027  1.00  0.00     0.130 A 
ATOM     12  C   UNL A   1      32.336  23.479  26.315  1.00  0.00     0.034 A 
ATOM     13  Cl  UNL A   1      34.018  21.997  27.776  1.00  0.00    -0.082 Cl
ATOM     14  C   UNL A   1      31.645  23.829  25.158  1.00  0.00     0.019 A 
ATOM     15  O   UNL A   1      31.180  23.368  22.833  1.00  0.00    -0.475 OA
ATOM     16  C   UNL A   1      30.773  24.997  25.101  1.00  0.00     0.025 C 
ATOM     17  C   UNL A   1      30.999  24.808  22.666  1.00  0.00     0.314 C 
BRANCH   8  18
ATOM     18  N   UNL A   1      33.727  20.153  25.309  1.00  0.00    -0.373 N 
ATOM     19  C   UNL A   1      35.155  20.153  25.001  1.00  0.00     0.143 C 
BRANCH  18  20
ATOM     20  C   UNL A   1      32.937  19.021  24.780  1.00  0.00     0.119 C 
BRANCH  20  21
ATOM     21  C   UNL A   1      33.774  17.732  24.641  1.00  0.00     0.002 C 
ATOM     22  C   UNL A   1      33.281  16.615  25.568  1.00  0.00     0.009 C 
ATOM     23  C   UNL A   1      33.744  17.218  23.198  1.00  0.00     0.009 C 
ENDBRANCH  20  21
ENDBRANCH  18  20
ENDBRANCH   8  18
BRANCH  17  24
ATOM     24  C   UNL A   1      32.316  25.475  22.207  1.00  0.00     0.429 C 
ATOM     25  F   UNL A   1      32.066  26.427  21.274  1.00  0.00    -0.167 F 
ATOM     26  F   UNL A   1      32.963  26.091  23.227  1.00  0.00    -0.167 F 
ATOM     27  F   UNL A   1      33.195  24.603  21.665  1.00  0.00    -0.167 F 
ENDBRANCH  17  24
ENDBRANCH   4   7
ENDBRANCH   2   3
ENDBRANCH   1   2
BRANCH   1  28
ATOM     28  C   UNL A   1      31.969  28.593  25.900  1.00  0.00     0.023 C 
BRANCH  28  29
ATOM     29  C   UNL A   1      32.421  29.371  27.133  1.00  0.00     0.116 C 
BRANCH  29  30
ATOM     30  N   UNL A   1      32.238  30.813  27.032  1.00  0.00    -0.352 N 
ATOM     31  C   UNL A   1      33.164  31.797  27.304  1.00  0.00     0.251 C 
ATOM     32  H   UNL A   1      31.351  31.121  26.734  1.00  0.00     0.163 HD
ATOM     33  O   UNL A   1      32.854  32.982  27.248  1.00  0.00    -0.269 OA
BRANCH  31  34
ATOM     34  C   UNL A   1      34.518  31.383  27.722  1.00  0.00     0.039 A 
ATOM     35  C   UNL A   1      34.786  30.036  27.966  1.00  0.00     0.014 A 
ATOM     36  C   UNL A   1      35.475  32.362  27.997  1.00  0.00     0.014 A 
ATOM     37  C   UNL A   1      35.935  29.687  28.661  1.00  0.00     0.010 A 
ATOM     38  C   UNL A   1      36.672  31.995  28.617  1.00  0.00     0.010 A 
ATOM     39  C   UNL A   1      36.885  30.663  29.009  1.00  0.00    -0.014 A 
BRANCH  39  40
ATOM     40  C   UNL A   1      38.084  30.262  29.789  1.00  0.00     0.031 A 
ATOM     41  C   UNL A   1      38.278  30.728  31.208  1.00  0.00     0.074 A 
ATOM     42  C   UNL A   1      38.969  29.416  29.228  1.00  0.00     0.049 A 
ATOM     43  N   UNL A   1      39.239  30.432  32.045  1.00  0.00    -0.248 NA
ATOM     44  C   UNL A   1      37.268  31.644  31.762  1.00  0.00     0.031 C 
ATOM     45  C   UNL A   1      38.871  28.897  27.864  1.00  0.00     0.029 A 
ATOM     46  N   UNL A   1      40.095  28.818  29.734  1.00  0.00    -0.354 N 
ATOM     47  C   UNL A   1      38.965  31.138  33.210  1.00  0.00     0.074 A 
ATOM     48  C   UNL A   1      37.762  31.902  32.966  1.00  0.00     0.031 C 
ATOM     49  C   UNL A   1      39.854  28.010  27.662  1.00  0.00     0.029 A 
ATOM     50  C   UNL A   1      40.699  27.952  28.852  1.00  0.00     0.049 A 
ATOM     51  H   UNL A   1      40.438  28.992  30.640  1.00  0.00     0.167 HD
ATOM     52  C   UNL A   1      39.651  31.139  34.379  1.00  0.00     0.034 A 
ATOM     53  C   UNL A   1      41.810  27.199  28.977  1.00  0.00     0.034 A 
ATOM     54  C   UNL A   1      40.833  30.349  34.614  1.00  0.00     0.049 A 
ATOM     55  C   UNL A   1      42.562  27.230  30.281  1.00  0.00     0.074 A 
ATOM     56  C   UNL A   1      41.580  30.256  35.777  1.00  0.00     0.029 A 
ATOM     57  N   UNL A   1      41.439  29.516  33.685  1.00  0.00    -0.354 N 
ATOM     58  N   UNL A   1      42.268  27.877  31.384  1.00  0.00    -0.248 NA
ATOM     59  C   UNL A   1      43.795  26.436  30.361  1.00  0.00     0.031 C 
ATOM     60  C   UNL A   1      42.666  29.415  35.533  1.00  0.00     0.029 A 
ATOM     61  C   UNL A   1      42.564  28.927  34.240  1.00  0.00     0.049 A 
ATOM     62  H   UNL A   1      41.118  29.365  32.766  1.00  0.00     0.167 HD
ATOM     63  C   UNL A   1      43.273  27.560  32.293  1.00  0.00     0.074 A 
ATOM     64  C   UNL A   1      44.165  26.638  31.619  1.00  0.00     0.031 C 
ATOM     65  C   UNL A   1      43.445  28.003  33.564  1.00  0.00     0.034 A 
BRANCH  52  66
ATOM     66  C   UNL A   1      39.155  32.002  35.513  1.00  0.00     0.023 A 
ATOM     67  C   UNL A   1      39.642  33.316  35.661  1.00  0.00     0.031 A 
ATOM     68  C   UNL A   1      38.312  31.489  36.514  1.00  0.00     0.131 A 
ATOM     69  C   UNL A   1      39.310  34.058  36.801  1.00  0.00     0.055 A 
ATOM     70  C   UNL A   1      37.954  32.247  37.630  1.00  0.00     0.041 A 
ATOM     71  F   UNL A   1      37.820  30.243  36.419  1.00  0.00    -0.206 F 
ATOM     72  C   UNL A   1      38.465  33.533  37.784  1.00  0.00     0.022 A 
BRANCH  69  73
ATOM     73  S   UNL A   1      40.009  35.707  37.086  1.00  0.00     0.124 S 
ATOM     74  O   UNL A   1      39.315  36.120  38.304  1.00  0.00    -0.237 OA
ATOM     75  O   UNL A   1      41.430  35.413  37.248  1.00  0.00    -0.237 OA
ATOM     76  O   UNL A   1      39.651  36.453  35.885  1.00  0.00    -0.744 OA
ENDBRANCH  69  73
ENDBRANCH  52  66
BRANCH  53  77
ATOM     77  C   UNL A   1      42.224  26.328  27.839  1.00  0.00     0.023 A 
ATOM     78  C   UNL A   1      41.714  25.023  27.709  1.00  0.00     0.031 A 
ATOM     79  C   UNL A   1      43.232  26.735  26.951  1.00  0.00     0.131 A 
ATOM     80  C   UNL A   1      42.276  24.144  26.774  1.00  0.00     0.055 A 
ATOM     81  C   UNL A   1      43.735  25.881  25.969  1.00  0.00     0.041 A 
ATOM     82  F   UNL A   1      43.758  27.966  27.044  1.00  0.00    -0.206 F 
ATOM     83  C   UNL A   1      43.273  24.570  25.891  1.00  0.00     0.022 A 
BRANCH  80  84
ATOM     84  S   UNL A   1      41.847  22.381  26.785  1.00  0.00     0.124 S 
ATOM     85  O   UNL A   1      40.407  22.420  27.015  1.00  0.00    -0.237 OA
ATOM     86  O   UNL A   1      42.262  21.965  25.447  1.00  0.00    -0.237 OA
ATOM     87  O   UNL A   1      42.649  21.839  27.877  1.00  0.00    -0.744 OA
ENDBRANCH  80  84
ENDBRANCH  53  77
BRANCH  65  88
ATOM     88  C   UNL A   1      44.645  27.514  34.339  1.00  0.00     0.023 A 
ATOM     89  C   UNL A   1      44.578  26.301  35.051  1.00  0.00     0.031 A 
ATOM     90  C   UNL A   1      45.785  28.319  34.496  1.00  0.00     0.131 A 
ATOM     91  C   UNL A   1      45.618  25.947  35.919  1.00  0.00     0.055 A 
ATOM     92  C   UNL A   1      46.840  27.939  35.329  1.00  0.00     0.041 A 
ATOM     93  F   UNL A   1      45.890  29.489  33.847  1.00  0.00    -0.206 F 
ATOM     94  C   UNL A   1      46.751  26.755  36.056  1.00  0.00     0.022 A 
BRANCH  91  95
ATOM     95  S   UNL A   1      45.498  24.472  36.969  1.00  0.00     0.124 S 
ATOM     96  O   UNL A   1      44.760  24.982  38.122  1.00  0.00    -0.237 OA
ATOM     97  O   UNL A   1      44.759  23.545  36.116  1.00  0.00    -0.237 OA
ATOM     98  O   UNL A   1      46.888  24.111  37.230  1.00  0.00    -0.744 OA
ENDBRANCH  91  95
ENDBRANCH  65  88
ENDBRANCH  39  40
ENDBRANCH  31  34
ENDBRANCH  29  30
ENDBRANCH  28  29
ENDBRANCH   1  28
TORSDOF 18
ENDMDL
MODEL 2
REMARK VINA RESULT:     -12.3      2.825      8.039
REMARK SMILES CC(C)CN(C)c1cc2c(cc1Cl)C=C(C(=O)NCCCCNC(=O)c1ccc(-c3c4nc(c(-c5cc(S(=O)(=O)[O-])ccc5F)c5ccc([nH]5)c(-c5cc(S(=O)(=O)[O-])ccc5F)c5nc(c(-c6cc(S(=O)(=O)[O-])ccc6F)c6ccc3[nH]6)C=C5)C=C4)cc1)[C@@H](C(F)(F)F)O2
REMARK SMILES IDX 20 1 19 2 18 3 16 4 17 5 15 7 7 8 8 9 12 10 9 11 11 12 13 13
REMARK SMILES IDX 10 14 94 15 14 16 89 17 5 18 6 19 4 20 2 21 1 22 3 23 90 24
REMARK SMILES IDX 91 25 92 26 93 27 21 28 22 29 23 30 24 31 25 33 26 34 27 35
REMARK SMILES IDX 88 36 28 37 87 38 29 39 30 40 31 41 81 42 32 43 86 44 80 45
REMARK SMILES IDX 82 46 33 47 85 48 79 49 78 50 34 52 66 53 46 54 65 55 47 56
REMARK SMILES IDX 50 57 64 58 83 59 48 60 49 61 63 63 84 64 51 65 35 66 36 67
REMARK SMILES IDX 44 68 37 69 43 70 45 71 42 72 38 73 39 74 40 75 41 76 67 77
REMARK SMILES IDX 68 78 76 79 69 80 75 81 77 82 74 83 70 84 71 85 72 86 73 87
REMARK SMILES IDX 52 88 53 89 61 90 54 91 60 92 62 93 59 94 55 95 56 96 57 97
REMARK SMILES IDX 58 98
REMARK H PARENT 18 6 23 32 82 51 50 62
REMARK Flexibility Score: inf
ROOT
ATOM      1  C   UNL A   1      31.526  29.299  25.762  1.00  0.00     0.023 C 
ENDROOT
BRANCH   1   2
ATOM      2  C   UNL A   1      31.292  29.232  24.256  1.00  0.00     0.116 C 
BRANCH   2   3
ATOM      3  N   UNL A   1      30.079  28.505  23.931  1.00  0.00    -0.352 N 
ATOM      4  C   UNL A   1      29.722  27.207  23.786  1.00  0.00     0.251 C 
ATOM      5  O   UNL A   1      28.531  27.006  23.531  1.00  0.00    -0.270 OA
ATOM      6  H   UNL A   1      29.319  29.112  23.776  1.00  0.00     0.163 HD
BRANCH   4   7
ATOM      7  C   UNL A   1      30.652  26.047  23.892  1.00  0.00     0.067 C 
ATOM      8  C   UNL A   1      32.999  21.845  25.417  1.00  0.00     0.059 A 
ATOM      9  C   UNL A   1      32.581  22.348  24.175  1.00  0.00     0.074 A 
ATOM     10  C   UNL A   1      32.766  22.643  26.561  1.00  0.00     0.065 A 
ATOM     11  C   UNL A   1      31.921  23.570  24.091  1.00  0.00     0.130 A 
ATOM     12  C   UNL A   1      32.027  23.830  26.479  1.00  0.00     0.034 A 
ATOM     13  Cl  UNL A   1      33.377  22.203  28.120  1.00  0.00    -0.082 Cl
ATOM     14  C   UNL A   1      31.586  24.286  25.240  1.00  0.00     0.019 A 
ATOM     15  O   UNL A   1      31.601  24.026  22.839  1.00  0.00    -0.475 OA
ATOM     16  C   UNL A   1      30.744  25.470  25.107  1.00  0.00     0.025 C 
ATOM     17  C   UNL A   1      31.458  25.477  22.760  1.00  0.00     0.314 C 
BRANCH   8  18
ATOM     18  N   UNL A   1      33.591  20.574  25.500  1.00  0.00    -0.373 N 
ATOM     19  C   UNL A   1      34.960  20.499  24.993  1.00  0.00     0.143 C 
BRANCH  18  20
ATOM     20  C   UNL A   1      32.707  19.431  25.184  1.00  0.00     0.119 C 
BRANCH  20  21
ATOM     21  C   UNL A   1      33.314  18.492  24.121  1.00  0.00     0.002 C 
ATOM     22  C   UNL A   1      33.553  17.078  24.662  1.00  0.00     0.009 C 
ATOM     23  C   UNL A   1      32.401  18.399  22.895  1.00  0.00     0.009 C 
ENDBRANCH  20  21
ENDBRANCH  18  20
ENDBRANCH   8  18
BRANCH  17  24
ATOM     24  C   UNL A   1      32.842  26.157  22.634  1.00  0.00     0.429 C 
ATOM     25  F   UNL A   1      33.707  25.353  21.968  1.00  0.00    -0.167 F 
ATOM     26  F   UNL A   1      32.782  27.321  21.943  1.00  0.00    -0.167 F 
ATOM     27  F   UNL A   1      33.404  26.447  23.829  1.00  0.00    -0.167 F 
ENDBRANCH  17  24
ENDBRANCH   4   7
ENDBRANCH   2   3
ENDBRANCH   1   2
BRANCH   1  28
ATOM     28  C   UNL A   1      32.735  28.497  26.246  1.00  0.00     0.023 C 
BRANCH  28  29
ATOM     29  C   UNL A   1      34.053  29.267  26.282  1.00  0.00     0.116 C 
BRANCH  29  30
ATOM     30  N   UNL A   1      33.991  30.525  27.014  1.00  0.00    -0.352 N 
ATOM     31  C   UNL A   1      34.898  31.005  27.935  1.00  0.00     0.251 C 
ATOM     32  H   UNL A   1      33.213  31.100  26.829  1.00  0.00     0.163 HD
ATOM     33  O   UNL A   1      34.685  32.053  28.535  1.00  0.00    -0.269 OA
BRANCH  31  34
ATOM     34  C   UNL A   1      36.097  30.194  28.220  1.00  0.00     0.039 A 
ATOM     35  C   UNL A   1      36.182  29.478  29.415  1.00  0.00     0.014 A 
ATOM     36  C   UNL A   1      37.188  30.262  27.351  1.00  0.00     0.014 A 
ATOM     37  C   UNL A   1      37.413  28.991  29.829  1.00  0.00     0.010 A 
ATOM     38  C   UNL A   1      38.405  29.691  27.733  1.00  0.00     0.010 A 
ATOM     39  C   UNL A   1      38.543  29.106  29.001  1.00  0.00    -0.014 A 
BRANCH  39  40
ATOM     40  C   UNL A   1      39.855  28.610  29.493  1.00  0.00     0.031 A 
ATOM     41  C   UNL A   1      40.537  27.439  28.838  1.00  0.00     0.074 A 
ATOM     42  C   UNL A   1      40.462  29.271  30.498  1.00  0.00     0.049 A 
ATOM     43  N   UNL A   1      41.703  26.911  29.109  1.00  0.00    -0.248 NA
ATOM     44  C   UNL A   1      39.822  26.769  27.739  1.00  0.00     0.031 C 
ATOM     45  C   UNL A   1      39.893  30.424  31.197  1.00  0.00     0.029 A 
ATOM     46  N   UNL A   1      41.690  29.098  31.083  1.00  0.00    -0.354 N 
ATOM     47  C   UNL A   1      41.852  25.840  28.236  1.00  0.00     0.074 A 
ATOM     48  C   UNL A   1      40.645  25.772  27.443  1.00  0.00     0.031 C 
ATOM     49  C   UNL A   1      40.794  30.896  32.067  1.00  0.00     0.029 A 
ATOM     50  C   UNL A   1      41.975  30.036  32.048  1.00  0.00     0.049 A 
ATOM     51  H   UNL A   1      42.308  28.373  30.836  1.00  0.00     0.167 HD
ATOM     52  C   UNL A   1      42.907  24.999  28.103  1.00  0.00     0.034 A 
ATOM     53  C   UNL A   1      43.057  30.188  32.837  1.00  0.00     0.034 A 
ATOM     54  C   UNL A   1      44.114  25.098  28.883  1.00  0.00     0.049 A 
ATOM     55  C   UNL A   1      44.208  29.231  32.680  1.00  0.00     0.074 A 
ATOM     56  C   UNL A   1      45.252  24.314  28.799  1.00  0.00     0.029 A 
ATOM     57  N   UNL A   1      44.350  26.035  29.880  1.00  0.00    -0.354 N 
ATOM     58  N   UNL A   1      44.346  28.245  31.825  1.00  0.00    -0.248 NA
ATOM     59  C   UNL A   1      45.347  29.399  33.592  1.00  0.00     0.031 C 
ATOM     60  C   UNL A   1      46.149  24.737  29.780  1.00  0.00     0.029 A 
ATOM     61  C   UNL A   1      45.603  25.830  30.435  1.00  0.00     0.049 A 
ATOM     62  H   UNL A   1      43.720  26.740  30.153  1.00  0.00     0.167 HD
ATOM     63  C   UNL A   1      45.591  27.681  32.088  1.00  0.00     0.074 A 
ATOM     64  C   UNL A   1      46.178  28.457  33.161  1.00  0.00     0.031 C 
ATOM     65  C   UNL A   1      46.185  26.612  31.500  1.00  0.00     0.034 A 
BRANCH  52  66
ATOM     66  C   UNL A   1      42.832  23.895  27.077  1.00  0.00     0.023 A 
ATOM     67  C   UNL A   1      42.216  22.671  27.405  1.00  0.00     0.031 A 
ATOM     68  C   UNL A   1      43.479  24.001  25.834  1.00  0.00     0.131 A 
ATOM     69  C   UNL A   1      42.291  21.593  26.514  1.00  0.00     0.055 A 
ATOM     70  C   UNL A   1      43.518  22.935  24.934  1.00  0.00     0.041 A 
ATOM     71  F   UNL A   1      44.079  25.147  25.473  1.00  0.00    -0.206 F 
ATOM     72  C   UNL A   1      42.934  21.720  25.279  1.00  0.00     0.022 A 
BRANCH  69  73
ATOM     73  S   UNL A   1      41.613  19.967  26.948  1.00  0.00     0.124 S 
ATOM     74  O   UNL A   1      40.801  20.284  28.120  1.00  0.00    -0.237 OA
ATOM     75  O   UNL A   1      40.861  19.620  25.745  1.00  0.00    -0.237 OA
ATOM     76  O   UNL A   1      42.793  19.153  27.212  1.00  0.00    -0.744 OA
ENDBRANCH  69  73
ENDBRANCH  52  66
BRANCH  53  77
ATOM     77  C   UNL A   1      43.095  31.327  33.799  1.00  0.00     0.023 A 
ATOM     78  C   UNL A   1      42.496  31.219  35.068  1.00  0.00     0.031 A 
ATOM     79  C   UNL A   1      43.605  32.577  33.414  1.00  0.00     0.131 A 
ATOM     80  C   UNL A   1      42.343  32.359  35.868  1.00  0.00     0.055 A 
ATOM     81  C   UNL A   1      43.520  33.694  34.248  1.00  0.00     0.041 A 
ATOM     82  F   UNL A   1      44.174  32.734  32.209  1.00  0.00    -0.206 F 
ATOM     83  C   UNL A   1      42.866  33.593  35.472  1.00  0.00     0.022 A 
BRANCH  80  84
ATOM     84  S   UNL A   1      41.319  32.309  37.365  1.00  0.00     0.124 S 
ATOM     85  O   UNL A   1      40.132  31.600  36.899  1.00  0.00    -0.237 OA
ATOM     86  O   UNL A   1      42.176  31.567  38.287  1.00  0.00    -0.237 OA
ATOM     87  O   UNL A   1      41.127  33.717  37.698  1.00  0.00    -0.744 OA
ENDBRANCH  80  84
ENDBRANCH  53  77
BRANCH  65  88
ATOM     88  C   UNL A   1      47.548  26.188  31.991  1.00  0.00     0.023 A 
ATOM     89  C   UNL A   1      48.704  26.568  31.281  1.00  0.00     0.031 A 
ATOM     90  C   UNL A   1      47.688  25.289  33.061  1.00  0.00     0.131 A 
ATOM     91  C   UNL A   1      49.944  26.018  31.626  1.00  0.00     0.055 A 
ATOM     92  C   UNL A   1      48.934  24.778  33.430  1.00  0.00     0.041 A 
ATOM     93  F   UNL A   1      46.615  24.889  33.761  1.00  0.00    -0.206 F 
ATOM     94  C   UNL A   1      50.066  25.131  32.701  1.00  0.00     0.022 A 
BRANCH  91  95
ATOM     95  S   UNL A   1      51.426  26.361  30.639  1.00  0.00     0.124 S 
ATOM     96  O   UNL A   1      52.466  25.687  31.413  1.00  0.00    -0.237 OA
ATOM     97  O   UNL A   1      51.097  25.736  29.360  1.00  0.00    -0.237 OA
ATOM     98  O   UNL A   1      51.509  27.817  30.621  1.00  0.00    -0.744 OA
ENDBRANCH  91  95
ENDBRANCH  65  88
ENDBRANCH  39  40
ENDBRANCH  31  34
ENDBRANCH  29  30
ENDBRANCH  28  29
ENDBRANCH   1  28
TORSDOF 18
ENDMDL
MODEL 3
REMARK VINA RESULT:     -12.2      4.686     10.345
REMARK SMILES CC(C)CN(C)c1cc2c(cc1Cl)C=C(C(=O)NCCCCNC(=O)c1ccc(-c3c4nc(c(-c5cc(S(=O)(=O)[O-])ccc5F)c5ccc([nH]5)c(-c5cc(S(=O)(=O)[O-])ccc5F)c5nc(c(-c6cc(S(=O)(=O)[O-])ccc6F)c6ccc3[nH]6)C=C5)C=C4)cc1)[C@@H](C(F)(F)F)O2
REMARK SMILES IDX 20 1 19 2 18 3 16 4 17 5 15 7 7 8 8 9 12 10 9 11 11 12 13 13
REMARK SMILES IDX 10 14 94 15 14 16 89 17 5 18 6 19 4 20 2 21 1 22 3 23 90 24
REMARK SMILES IDX 91 25 92 26 93 27 21 28 22 29 23 30 24 31 25 33 26 34 27 35
REMARK SMILES IDX 88 36 28 37 87 38 29 39 30 40 31 41 81 42 32 43 86 44 80 45
REMARK SMILES IDX 82 46 33 47 85 48 79 49 78 50 34 52 66 53 46 54 65 55 47 56
REMARK SMILES IDX 50 57 64 58 83 59 48 60 49 61 63 63 84 64 51 65 35 66 36 67
REMARK SMILES IDX 44 68 37 69 43 70 45 71 42 72 38 73 39 74 40 75 41 76 67 77
REMARK SMILES IDX 68 78 76 79 69 80 75 81 77 82 74 83 70 84 71 85 72 86 73 87
REMARK SMILES IDX 52 88 53 89 61 90 54 91 60 92 62 93 59 94 55 95 56 96 57 97
REMARK SMILES IDX 58 98
REMARK H PARENT 18 6 23 32 82 51 50 62
REMARK Flexibility Score: inf
ROOT
ATOM      1  C   UNL A   1      36.228  21.155  24.632  1.00  0.00     0.023 C 
ENDROOT
BRANCH   1   2
ATOM      2  C   UNL A   1      34.966  20.870  25.440  1.00  0.00     0.116 C 
BRANCH   2   3
ATOM      3  N   UNL A   1      33.858  20.477  24.589  1.00  0.00    -0.352 N 
ATOM      4  C   UNL A   1      32.802  21.092  24.007  1.00  0.00     0.251 C 
ATOM      5  O   UNL A   1      32.088  20.373  23.301  1.00  0.00    -0.270 OA
ATOM      6  H   UNL A   1      33.881  19.515  24.379  1.00  0.00     0.163 HD
BRANCH   4   7
ATOM      7  C   UNL A   1      32.448  22.530  24.177  1.00  0.00     0.067 C 
ATOM      8  C   UNL A   1      31.701  27.460  23.387  1.00  0.00     0.059 A 
ATOM      9  C   UNL A   1      30.972  26.439  24.016  1.00  0.00     0.074 A 
ATOM     10  C   UNL A   1      32.958  27.124  22.832  1.00  0.00     0.065 A 
ATOM     11  C   UNL A   1      31.459  25.136  24.047  1.00  0.00     0.130 A 
ATOM     12  C   UNL A   1      33.402  25.797  22.794  1.00  0.00     0.034 A 
ATOM     13  Cl  UNL A   1      34.015  28.327  22.175  1.00  0.00    -0.082 Cl
ATOM     14  C   UNL A   1      32.640  24.795  23.387  1.00  0.00     0.019 A 
ATOM     15  O   UNL A   1      30.724  24.206  24.736  1.00  0.00    -0.475 OA
ATOM     16  C   UNL A   1      33.014  23.387  23.304  1.00  0.00     0.025 C 
ATOM     17  C   UNL A   1      31.510  23.074  25.217  1.00  0.00     0.314 C 
BRANCH   8  18
ATOM     18  N   UNL A   1      31.162  28.754  23.289  1.00  0.00    -0.373 N 
ATOM     19  C   UNL A   1      31.096  29.489  24.550  1.00  0.00     0.143 C 
BRANCH  18  20
ATOM     20  C   UNL A   1      30.007  28.902  22.378  1.00  0.00     0.119 C 
BRANCH  20  21
ATOM     21  C   UNL A   1      28.895  29.789  22.975  1.00  0.00     0.002 C 
ATOM     22  C   UNL A   1      28.677  31.072  22.166  1.00  0.00     0.009 C 
ATOM     23  C   UNL A   1      27.569  29.024  23.045  1.00  0.00     0.009 C 
ENDBRANCH  20  21
ENDBRANCH  18  20
ENDBRANCH   8  18
BRANCH  17  24
ATOM     24  C   UNL A   1      32.246  23.437  26.528  1.00  0.00     0.429 C 
ATOM     25  F   UNL A   1      31.765  24.598  27.037  1.00  0.00    -0.167 F 
ATOM     26  F   UNL A   1      32.080  22.494  27.488  1.00  0.00    -0.167 F 
ATOM     27  F   UNL A   1      33.579  23.591  26.367  1.00  0.00    -0.167 F 
ENDBRANCH  17  24
ENDBRANCH   4   7
ENDBRANCH   2   3
ENDBRANCH   1   2
BRANCH   1  28
ATOM     28  C   UNL A   1      37.418  20.265  24.991  1.00  0.00     0.023 C 
BRANCH  28  29
ATOM     29  C   UNL A   1      38.558  20.969  25.723  1.00  0.00     0.116 C 
BRANCH  29  30
ATOM     30  N   UNL A   1      39.661  20.092  26.096  1.00  0.00    -0.352 N 
ATOM     31  C   UNL A   1      40.800  20.429  26.795  1.00  0.00     0.251 C 
ATOM     32  H   UNL A   1      39.583  19.150  25.818  1.00  0.00     0.163 HD
ATOM     33  O   UNL A   1      41.689  19.604  26.978  1.00  0.00    -0.269 OA
BRANCH  31  34
ATOM     34  C   UNL A   1      40.945  21.822  27.262  1.00  0.00     0.039 A 
ATOM     35  C   UNL A   1      40.393  22.863  26.516  1.00  0.00     0.014 A 
ATOM     36  C   UNL A   1      41.749  22.088  28.372  1.00  0.00     0.014 A 
ATOM     37  C   UNL A   1      40.799  24.166  26.765  1.00  0.00     0.010 A 
ATOM     38  C   UNL A   1      42.083  23.410  28.675  1.00  0.00     0.010 A 
ATOM     39  C   UNL A   1      41.660  24.455  27.837  1.00  0.00    -0.014 A 
BRANCH  39  40
ATOM     40  C   UNL A   1      42.108  25.856  28.052  1.00  0.00     0.031 A 
ATOM     41  C   UNL A   1      43.405  26.352  27.472  1.00  0.00     0.074 A 
ATOM     42  C   UNL A   1      41.298  26.699  28.719  1.00  0.00     0.049 A 
ATOM     43  N   UNL A   1      43.919  27.555  27.521  1.00  0.00    -0.248 NA
ATOM     44  C   UNL A   1      44.237  25.379  26.745  1.00  0.00     0.031 C 
ATOM     45  C   UNL A   1      40.015  26.323  29.314  1.00  0.00     0.029 A 
ATOM     46  N   UNL A   1      41.408  28.041  28.983  1.00  0.00    -0.354 N 
ATOM     47  C   UNL A   1      45.138  27.480  26.856  1.00  0.00     0.074 A 
ATOM     48  C   UNL A   1      45.303  26.106  26.435  1.00  0.00     0.031 C 
ATOM     49  C   UNL A   1      39.427  27.418  29.813  1.00  0.00     0.029 A 
ATOM     50  C   UNL A   1      40.321  28.560  29.646  1.00  0.00     0.049 A 
ATOM     51  H   UNL A   1      42.190  28.580  28.723  1.00  0.00     0.167 HD
ATOM     52  C   UNL A   1      46.029  28.470  26.612  1.00  0.00     0.034 A 
ATOM     53  C   UNL A   1      40.068  29.811  30.080  1.00  0.00     0.034 A 
ATOM     54  C   UNL A   1      45.835  29.840  27.015  1.00  0.00     0.049 A 
ATOM     55  C   UNL A   1      41.083  30.891  29.810  1.00  0.00     0.074 A 
ATOM     56  C   UNL A   1      46.665  30.924  26.783  1.00  0.00     0.029 A 
ATOM     57  N   UNL A   1      44.742  30.321  27.720  1.00  0.00    -0.354 N 
ATOM     58  N   UNL A   1      42.213  30.808  29.148  1.00  0.00    -0.248 NA
ATOM     59  C   UNL A   1      40.795  32.228  30.342  1.00  0.00     0.031 C 
ATOM     60  C   UNL A   1      46.105  32.044  27.397  1.00  0.00     0.029 A 
ATOM     61  C   UNL A   1      44.890  31.679  27.956  1.00  0.00     0.049 A 
ATOM     62  H   UNL A   1      43.974  29.779  28.012  1.00  0.00     0.167 HD
ATOM     63  C   UNL A   1      42.767  32.084  29.176  1.00  0.00     0.074 A 
ATOM     64  C   UNL A   1      41.831  32.926  29.893  1.00  0.00     0.031 C 
ATOM     65  C   UNL A   1      43.948  32.514  28.664  1.00  0.00     0.034 A 
BRANCH  52  66
ATOM     66  C   UNL A   1      47.299  28.139  25.866  1.00  0.00     0.023 A 
ATOM     67  C   UNL A   1      47.320  28.185  24.458  1.00  0.00     0.031 A 
ATOM     68  C   UNL A   1      48.437  27.652  26.532  1.00  0.00     0.131 A 
ATOM     69  C   UNL A   1      48.442  27.721  23.762  1.00  0.00     0.055 A 
ATOM     70  C   UNL A   1      49.568  27.225  25.834  1.00  0.00     0.041 A 
ATOM     71  F   UNL A   1      48.468  27.589  27.873  1.00  0.00    -0.206 F 
ATOM     72  C   UNL A   1      49.568  27.246  24.442  1.00  0.00     0.022 A 
BRANCH  69  73
ATOM     73  S   UNL A   1      48.464  27.655  21.950  1.00  0.00     0.124 S 
ATOM     74  O   UNL A   1      47.151  28.203  21.615  1.00  0.00    -0.237 OA
ATOM     75  O   UNL A   1      49.599  28.516  21.627  1.00  0.00    -0.237 OA
ATOM     76  O   UNL A   1      48.640  26.239  21.651  1.00  0.00    -0.744 OA
ENDBRANCH  69  73
ENDBRANCH  52  66
BRANCH  53  77
ATOM     77  C   UNL A   1      38.774  30.090  30.768  1.00  0.00     0.023 A 
ATOM     78  C   UNL A   1      37.722  30.733  30.089  1.00  0.00     0.031 A 
ATOM     79  C   UNL A   1      38.622  29.843  32.142  1.00  0.00     0.131 A 
ATOM     80  C   UNL A   1      36.606  31.187  30.804  1.00  0.00     0.055 A 
ATOM     81  C   UNL A   1      37.472  30.228  32.834  1.00  0.00     0.041 A 
ATOM     82  F   UNL A   1      39.602  29.244  32.834  1.00  0.00    -0.206 F 
ATOM     83  C   UNL A   1      36.467  30.924  32.170  1.00  0.00     0.022 A 
BRANCH  80  84
ATOM     84  S   UNL A   1      35.382  32.271  30.018  1.00  0.00     0.124 S 
ATOM     85  O   UNL A   1      34.872  31.426  28.943  1.00  0.00    -0.237 OA
ATOM     86  O   UNL A   1      34.454  32.521  31.119  1.00  0.00    -0.237 OA
ATOM     87  O   UNL A   1      36.166  33.428  29.597  1.00  0.00    -0.744 OA
ENDBRANCH  80  84
ENDBRANCH  53  77
BRANCH  65  88
ATOM     88  C   UNL A   1      44.327  33.963  28.851  1.00  0.00     0.023 A 
ATOM     89  C   UNL A   1      44.939  34.383  30.048  1.00  0.00     0.031 A 
ATOM     90  C   UNL A   1      43.945  34.941  27.918  1.00  0.00     0.131 A 
ATOM     91  C   UNL A   1      45.114  35.749  30.296  1.00  0.00     0.055 A 
ATOM     92  C   UNL A   1      44.163  36.300  28.151  1.00  0.00     0.041 A 
ATOM     93  F   UNL A   1      43.349  34.590  26.768  1.00  0.00    -0.206 F 
ATOM     94  C   UNL A   1      44.736  36.709  29.352  1.00  0.00     0.022 A 
BRANCH  91  95
ATOM     95  S   UNL A   1      45.754  36.336  31.890  1.00  0.00     0.124 S 
ATOM     96  O   UNL A   1      45.503  37.773  31.804  1.00  0.00    -0.237 OA
ATOM     97  O   UNL A   1      44.917  35.612  32.843  1.00  0.00    -0.237 OA
ATOM     98  O   UNL A   1      47.161  35.948  31.870  1.00  0.00    -0.744 OA
ENDBRANCH  91  95
ENDBRANCH  65  88
ENDBRANCH  39  40
ENDBRANCH  31  34
ENDBRANCH  29  30
ENDBRANCH  28  29
ENDBRANCH   1  28
TORSDOF 18
ENDMDL
