MODEL 1
REMARK VINA RESULT:     -13.6      0.000      0.000
REMARK SMILES Cc1nc2sc3c(c2c2nc(CCC(=O)NCCCCNC(=O)c4ccc(-c5c6nc(c(-c7cc(S(=O)(=O)[O-])ccc7F)c7ccc([nH]7)c(-c7cc(S(=O)(=O)[O-])ccc7F)c7nc(c(-c8cc(S(=O)(=O)[O-])ccc8F)c8ccc5[nH]8)C=C7)C=C6)cc4)nn12)[C@@H](C)CCC3
REMARK SMILES IDX 19 1 18 2 17 3 16 4 14 5 15 6 13 8 12 9 11 10 1 11 2 12 3 13
REMARK SMILES IDX 88 14 4 15 9 16 87 17 5 18 8 19 10 20 6 21 7 22 93 23 89 24
REMARK SMILES IDX 92 25 90 26 91 27 20 28 21 29 22 30 23 32 24 33 25 34 86 35
REMARK SMILES IDX 26 36 85 37 27 38 28 39 29 40 79 41 30 42 84 43 78 44 80 45
REMARK SMILES IDX 31 46 83 47 77 48 76 49 32 51 64 52 44 53 63 54 45 55 48 56
REMARK SMILES IDX 62 57 81 58 46 59 47 60 61 62 82 63 49 64 33 65 34 66 42 67
REMARK SMILES IDX 35 68 41 69 43 70 40 71 36 72 37 73 38 74 39 75 65 76 66 77
REMARK SMILES IDX 74 78 67 79 73 80 75 81 72 82 68 83 69 84 70 85 71 86 50 87
REMARK SMILES IDX 51 88 59 89 52 90 58 91 60 92 57 93 53 94 54 95 55 96 56 97
REMARK H PARENT 16 7 21 31 80 50 48 61
REMARK Flexibility Score: inf
ROOT
ATOM      1  C   UNL A   1      37.862  19.999  24.969  1.00  0.00     0.023 C 
ENDROOT
BRANCH   1   2
ATOM      2  C   UNL A   1      36.772  21.048  25.107  1.00  0.00     0.023 C 
BRANCH   2   3
ATOM      3  C   UNL A   1      35.416  20.381  25.361  1.00  0.00     0.116 C 
BRANCH   3   4
ATOM      4  N   UNL A   1      35.279  19.101  24.671  1.00  0.00    -0.356 N 
ATOM      5  C   UNL A   1      34.173  18.333  24.465  1.00  0.00     0.220 C 
ATOM      6  O   UNL A   1      34.309  17.199  24.005  1.00  0.00    -0.275 OA
ATOM      7  H   UNL A   1      36.114  18.738  24.297  1.00  0.00     0.163 HD
BRANCH   5   8
ATOM      8  C   UNL A   1      32.805  18.914  24.731  1.00  0.00     0.108 C 
BRANCH   8   9
ATOM      9  C   UNL A   1      32.492  20.122  23.845  1.00  0.00     0.089 C 
BRANCH   9  10
ATOM     10  C   UNL A   1      32.262  21.396  24.589  1.00  0.00     0.152 A 
ATOM     11  C   UNL A   1      29.311  22.648  27.180  1.00  0.00     0.090 C 
ATOM     12  C   UNL A   1      30.434  23.475  26.632  1.00  0.00     0.131 A 
ATOM     13  N   UNL A   1      30.492  24.761  26.822  1.00  0.00    -0.222 NA
ATOM     14  N   UNL A   1      31.366  22.802  25.838  1.00  0.00    -0.199 N 
ATOM     15  C   UNL A   1      31.396  25.447  26.053  1.00  0.00     0.129 A 
ATOM     16  C   UNL A   1      32.320  23.456  25.082  1.00  0.00     0.168 A 
ATOM     17  N   UNL A   1      31.334  21.482  25.555  1.00  0.00    -0.150 NA
ATOM     18  S   UNL A   1      31.418  27.142  26.122  1.00  0.00    -0.120 S 
ATOM     19  C   UNL A   1      32.275  24.964  25.082  1.00  0.00     0.060 A 
ATOM     20  N   UNL A   1      32.926  22.578  24.311  1.00  0.00    -0.211 NA
ATOM     21  C   UNL A   1      32.272  27.236  24.657  1.00  0.00     0.011 A 
ATOM     22  C   UNL A   1      32.742  26.008  24.180  1.00  0.00    -0.018 A 
ATOM     23  C   UNL A   1      32.386  28.573  23.989  1.00  0.00     0.047 C 
ATOM     24  C   UNL A   1      33.582  25.996  22.886  1.00  0.00     0.018 C 
ATOM     25  C   UNL A   1      33.517  28.568  22.973  1.00  0.00     0.006 C 
ATOM     26  C   UNL A   1      33.332  24.902  21.852  1.00  0.00     0.013 C 
ATOM     27  C   UNL A   1      33.414  27.333  22.089  1.00  0.00     0.008 C 
ENDBRANCH   9  10
ENDBRANCH   8   9
ENDBRANCH   5   8
ENDBRANCH   3   4
ENDBRANCH   2   3
ENDBRANCH   1   2
BRANCH   1  28
ATOM     28  C   UNL A   1      39.144  20.264  25.696  1.00  0.00     0.116 C 
BRANCH  28  29
ATOM     29  N   UNL A   1      40.116  19.184  25.879  1.00  0.00    -0.352 N 
ATOM     30  C   UNL A   1      41.513  19.338  25.979  1.00  0.00     0.251 C 
ATOM     31  H   UNL A   1      39.761  18.267  25.938  1.00  0.00     0.163 HD
ATOM     32  O   UNL A   1      42.281  18.406  25.850  1.00  0.00    -0.269 OA
BRANCH  30  33
ATOM     33  C   UNL A   1      42.013  20.696  26.274  1.00  0.00     0.039 A 
ATOM     34  C   UNL A   1      42.362  21.702  25.368  1.00  0.00     0.014 A 
ATOM     35  C   UNL A   1      42.025  20.999  27.604  1.00  0.00     0.014 A 
ATOM     36  C   UNL A   1      42.599  22.988  25.888  1.00  0.00     0.010 A 
ATOM     37  C   UNL A   1      41.544  22.232  27.844  1.00  0.00     0.010 A 
ATOM     38  C   UNL A   1      42.215  23.223  27.203  1.00  0.00    -0.014 A 
BRANCH  38  39
ATOM     39  C   UNL A   1      42.315  24.411  28.024  1.00  0.00     0.031 A 
ATOM     40  C   UNL A   1      41.083  25.222  28.078  1.00  0.00     0.074 A 
ATOM     41  C   UNL A   1      43.340  24.549  28.909  1.00  0.00     0.049 A 
ATOM     42  N   UNL A   1      40.894  26.368  27.524  1.00  0.00    -0.248 NA
ATOM     43  C   UNL A   1      39.861  24.633  28.654  1.00  0.00     0.031 C 
ATOM     44  C   UNL A   1      44.469  23.642  29.197  1.00  0.00     0.029 A 
ATOM     45  N   UNL A   1      43.535  25.523  29.831  1.00  0.00    -0.354 N 
ATOM     46  C   UNL A   1      39.617  26.764  27.892  1.00  0.00     0.074 A 
ATOM     47  C   UNL A   1      38.959  25.579  28.374  1.00  0.00     0.031 C 
ATOM     48  C   UNL A   1      45.080  24.002  30.350  1.00  0.00     0.029 A 
ATOM     49  C   UNL A   1      44.518  25.263  30.788  1.00  0.00     0.049 A 
ATOM     50  H   UNL A   1      43.018  26.361  29.825  1.00  0.00     0.167 HD
ATOM     51  C   UNL A   1      39.296  28.083  27.992  1.00  0.00     0.034 A 
ATOM     52  C   UNL A   1      44.848  26.050  31.850  1.00  0.00     0.034 A 
ATOM     53  C   UNL A   1      40.332  28.909  27.406  1.00  0.00     0.049 A 
ATOM     54  C   UNL A   1      44.370  27.415  31.494  1.00  0.00     0.074 A 
ATOM     55  C   UNL A   1      40.870  28.998  26.136  1.00  0.00     0.029 A 
ATOM     56  N   UNL A   1      41.296  29.424  28.249  1.00  0.00    -0.354 N 
ATOM     57  N   UNL A   1      44.852  28.087  30.480  1.00  0.00    -0.248 NA
ATOM     58  C   UNL A   1      43.013  27.776  31.884  1.00  0.00     0.031 C 
ATOM     59  C   UNL A   1      42.282  29.054  26.340  1.00  0.00     0.029 A 
ATOM     60  C   UNL A   1      42.529  29.117  27.714  1.00  0.00     0.049 A 
ATOM     61  H   UNL A   1      41.133  29.922  29.082  1.00  0.00     0.167 HD
ATOM     62  C   UNL A   1      43.745  28.633  29.844  1.00  0.00     0.074 A 
ATOM     63  C   UNL A   1      42.645  28.470  30.801  1.00  0.00     0.031 C 
ATOM     64  C   UNL A   1      43.734  28.872  28.497  1.00  0.00     0.034 A 
BRANCH  51  65
ATOM     65  C   UNL A   1      38.211  28.641  28.870  1.00  0.00     0.023 A 
ATOM     66  C   UNL A   1      37.278  29.522  28.298  1.00  0.00     0.031 A 
ATOM     67  C   UNL A   1      38.178  28.530  30.279  1.00  0.00     0.131 A 
ATOM     68  C   UNL A   1      36.398  30.263  29.107  1.00  0.00     0.055 A 
ATOM     69  C   UNL A   1      37.264  29.222  31.075  1.00  0.00     0.041 A 
ATOM     70  F   UNL A   1      39.085  27.823  30.965  1.00  0.00    -0.206 F 
ATOM     71  C   UNL A   1      36.379  30.111  30.492  1.00  0.00     0.022 A 
BRANCH  68  72
ATOM     72  S   UNL A   1      35.353  31.522  28.330  1.00  0.00     0.124 S 
ATOM     73  O   UNL A   1      34.652  30.745  27.315  1.00  0.00    -0.237 OA
ATOM     74  O   UNL A   1      34.550  31.985  29.457  1.00  0.00    -0.237 OA
ATOM     75  O   UNL A   1      36.317  32.492  27.815  1.00  0.00    -0.744 OA
ENDBRANCH  68  72
ENDBRANCH  51  65
BRANCH  52  76
ATOM     76  C   UNL A   1      45.224  25.622  33.232  1.00  0.00     0.023 A 
ATOM     77  C   UNL A   1      45.094  24.289  33.688  1.00  0.00     0.031 A 
ATOM     78  C   UNL A   1      45.970  26.494  34.059  1.00  0.00     0.131 A 
ATOM     79  C   UNL A   1      45.695  23.883  34.907  1.00  0.00     0.055 A 
ATOM     80  C   UNL A   1      46.563  26.087  35.259  1.00  0.00     0.041 A 
ATOM     81  F   UNL A   1      46.225  27.758  33.686  1.00  0.00    -0.206 F 
ATOM     82  C   UNL A   1      46.437  24.776  35.684  1.00  0.00     0.022 A 
BRANCH  79  83
ATOM     83  S   UNL A   1      45.617  22.144  35.455  1.00  0.00     0.124 S 
ATOM     84  O   UNL A   1      45.469  22.283  36.899  1.00  0.00    -0.237 OA
ATOM     85  O   UNL A   1      44.459  21.635  34.730  1.00  0.00    -0.237 OA
ATOM     86  O   UNL A   1      46.902  21.592  35.019  1.00  0.00    -0.744 OA
ENDBRANCH  79  83
ENDBRANCH  52  76
BRANCH  64  87
ATOM     87  C   UNL A   1      45.030  28.683  27.714  1.00  0.00     0.023 A 
ATOM     88  C   UNL A   1      45.467  27.465  27.133  1.00  0.00     0.031 A 
ATOM     89  C   UNL A   1      45.771  29.838  27.411  1.00  0.00     0.131 A 
ATOM     90  C   UNL A   1      46.602  27.441  26.291  1.00  0.00     0.055 A 
ATOM     91  C   UNL A   1      46.879  29.814  26.563  1.00  0.00     0.041 A 
ATOM     92  F   UNL A   1      45.395  31.031  27.902  1.00  0.00    -0.206 F 
ATOM     93  C   UNL A   1      47.301  28.614  26.000  1.00  0.00     0.022 A 
BRANCH  90  94
ATOM     94  S   UNL A   1      47.180  25.878  25.538  1.00  0.00     0.124 S 
ATOM     95  O   UNL A   1      47.398  25.011  26.691  1.00  0.00    -0.237 OA
ATOM     96  O   UNL A   1      46.071  25.511  24.662  1.00  0.00    -0.237 OA
ATOM     97  O   UNL A   1      48.404  26.269  24.834  1.00  0.00    -0.744 OA
ENDBRANCH  90  94
ENDBRANCH  64  87
ENDBRANCH  38  39
ENDBRANCH  30  33
ENDBRANCH  28  29
ENDBRANCH   1  28
TORSDOF 16
ENDMDL
MODEL 2
REMARK VINA RESULT:     -13.5      1.818      2.100
REMARK SMILES Cc1nc2sc3c(c2c2nc(CCC(=O)NCCCCNC(=O)c4ccc(-c5c6nc(c(-c7cc(S(=O)(=O)[O-])ccc7F)c7ccc([nH]7)c(-c7cc(S(=O)(=O)[O-])ccc7F)c7nc(c(-c8cc(S(=O)(=O)[O-])ccc8F)c8ccc5[nH]8)C=C7)C=C6)cc4)nn12)[C@@H](C)CCC3
REMARK SMILES IDX 19 1 18 2 17 3 16 4 14 5 15 6 13 8 12 9 11 10 1 11 2 12 3 13
REMARK SMILES IDX 88 14 4 15 9 16 87 17 5 18 8 19 10 20 6 21 7 22 93 23 89 24
REMARK SMILES IDX 92 25 90 26 91 27 20 28 21 29 22 30 23 32 24 33 25 34 86 35
REMARK SMILES IDX 26 36 85 37 27 38 28 39 29 40 79 41 30 42 84 43 78 44 80 45
REMARK SMILES IDX 31 46 83 47 77 48 76 49 32 51 64 52 44 53 63 54 45 55 48 56
REMARK SMILES IDX 62 57 81 58 46 59 47 60 61 62 82 63 49 64 33 65 34 66 42 67
REMARK SMILES IDX 35 68 41 69 43 70 40 71 36 72 37 73 38 74 39 75 65 76 66 77
REMARK SMILES IDX 74 78 67 79 73 80 75 81 72 82 68 83 69 84 70 85 71 86 50 87
REMARK SMILES IDX 51 88 59 89 52 90 58 91 60 92 57 93 53 94 54 95 55 96 56 97
REMARK H PARENT 16 7 21 31 80 50 48 61
REMARK Flexibility Score: inf
ROOT
ATOM      1  C   UNL A   1      37.978  19.972  25.008  1.00  0.00     0.023 C 
ENDROOT
BRANCH   1   2
ATOM      2  C   UNL A   1      36.917  21.055  25.080  1.00  0.00     0.023 C 
BRANCH   2   3
ATOM      3  C   UNL A   1      35.535  20.438  25.309  1.00  0.00     0.116 C 
BRANCH   3   4
ATOM      4  N   UNL A   1      35.377  19.146  24.645  1.00  0.00    -0.356 N 
ATOM      5  C   UNL A   1      34.271  18.363  24.508  1.00  0.00     0.220 C 
ATOM      6  O   UNL A   1      34.395  17.224  24.057  1.00  0.00    -0.275 OA
ATOM      7  H   UNL A   1      36.195  18.786  24.234  1.00  0.00     0.163 HD
BRANCH   5   8
ATOM      8  C   UNL A   1      32.912  18.934  24.834  1.00  0.00     0.108 C 
BRANCH   8   9
ATOM      9  C   UNL A   1      32.528  20.106  23.929  1.00  0.00     0.089 C 
BRANCH   9  10
ATOM     10  C   UNL A   1      32.283  21.393  24.647  1.00  0.00     0.152 A 
ATOM     11  C   UNL A   1      29.311  22.669  27.201  1.00  0.00     0.090 C 
ATOM     12  C   UNL A   1      30.428  23.496  26.641  1.00  0.00     0.131 A 
ATOM     13  N   UNL A   1      30.474  24.786  26.805  1.00  0.00    -0.222 NA
ATOM     14  N   UNL A   1      31.370  22.815  25.863  1.00  0.00    -0.199 N 
ATOM     15  C   UNL A   1      31.376  25.464  26.026  1.00  0.00     0.129 A 
ATOM     16  C   UNL A   1      32.321  23.462  25.099  1.00  0.00     0.168 A 
ATOM     17  N   UNL A   1      31.350  21.489  25.607  1.00  0.00    -0.150 NA
ATOM     18  S   UNL A   1      31.383  27.160  26.062  1.00  0.00    -0.120 S 
ATOM     19  C   UNL A   1      32.263  24.969  25.068  1.00  0.00     0.060 A 
ATOM     20  N   UNL A   1      32.938  22.575  24.347  1.00  0.00    -0.211 NA
ATOM     21  C   UNL A   1      32.242  27.232  24.599  1.00  0.00     0.011 A 
ATOM     22  C   UNL A   1      32.725  26.000  24.148  1.00  0.00    -0.018 A 
ATOM     23  C   UNL A   1      32.346  28.557  23.904  1.00  0.00     0.047 C 
ATOM     24  C   UNL A   1      33.569  25.970  22.858  1.00  0.00     0.018 C 
ATOM     25  C   UNL A   1      33.481  28.542  22.893  1.00  0.00     0.006 C 
ATOM     26  C   UNL A   1      33.333  24.853  21.845  1.00  0.00     0.013 C 
ATOM     27  C   UNL A   1      33.393  27.289  22.033  1.00  0.00     0.008 C 
ENDBRANCH   9  10
ENDBRANCH   8   9
ENDBRANCH   5   8
ENDBRANCH   3   4
ENDBRANCH   2   3
ENDBRANCH   1   2
BRANCH   1  28
ATOM     28  C   UNL A   1      39.250  20.227  25.757  1.00  0.00     0.116 C 
BRANCH  28  29
ATOM     29  N   UNL A   1      40.238  19.155  25.903  1.00  0.00    -0.352 N 
ATOM     30  C   UNL A   1      41.635  19.326  25.982  1.00  0.00     0.251 C 
ATOM     31  H   UNL A   1      39.896  18.234  25.951  1.00  0.00     0.163 HD
ATOM     32  O   UNL A   1      42.412  18.406  25.823  1.00  0.00    -0.269 OA
BRANCH  30  33
ATOM     33  C   UNL A   1      42.123  20.684  26.294  1.00  0.00     0.039 A 
ATOM     34  C   UNL A   1      42.356  21.741  25.408  1.00  0.00     0.014 A 
ATOM     35  C   UNL A   1      42.253  20.927  27.630  1.00  0.00     0.014 A 
ATOM     36  C   UNL A   1      42.606  23.009  25.965  1.00  0.00     0.010 A 
ATOM     37  C   UNL A   1      41.764  22.132  27.974  1.00  0.00     0.010 A 
ATOM     38  C   UNL A   1      42.343  23.171  27.321  1.00  0.00    -0.014 A 
BRANCH  38  39
ATOM     39  C   UNL A   1      42.487  24.323  28.185  1.00  0.00     0.031 A 
ATOM     40  C   UNL A   1      41.382  25.297  28.097  1.00  0.00     0.074 A 
ATOM     41  C   UNL A   1      43.388  24.306  29.205  1.00  0.00     0.049 A 
ATOM     42  N   UNL A   1      41.429  26.465  27.559  1.00  0.00    -0.248 NA
ATOM     43  C   UNL A   1      40.023  24.876  28.481  1.00  0.00     0.031 C 
ATOM     44  C   UNL A   1      44.333  23.248  29.616  1.00  0.00     0.029 A 
ATOM     45  N   UNL A   1      43.584  25.232  30.176  1.00  0.00    -0.354 N 
ATOM     46  C   UNL A   1      40.179  27.030  27.762  1.00  0.00     0.074 A 
ATOM     47  C   UNL A   1      39.305  25.941  28.111  1.00  0.00     0.031 C 
ATOM     48  C   UNL A   1      44.820  23.505  30.852  1.00  0.00     0.029 A 
ATOM     49  C   UNL A   1      44.379  24.826  31.250  1.00  0.00     0.049 A 
ATOM     50  H   UNL A   1      43.190  26.134  30.127  1.00  0.00     0.167 HD
ATOM     51  C   UNL A   1      40.030  28.379  27.859  1.00  0.00     0.034 A 
ATOM     52  C   UNL A   1      44.661  25.546  32.371  1.00  0.00     0.034 A 
ATOM     53  C   UNL A   1      41.239  29.060  27.446  1.00  0.00     0.049 A 
ATOM     54  C   UNL A   1      44.427  26.969  31.997  1.00  0.00     0.074 A 
ATOM     55  C   UNL A   1      41.956  29.091  26.264  1.00  0.00     0.029 A 
ATOM     56  N   UNL A   1      42.137  29.427  28.429  1.00  0.00    -0.354 N 
ATOM     57  N   UNL A   1      45.133  27.580  31.080  1.00  0.00    -0.248 NA
ATOM     58  C   UNL A   1      43.091  27.509  32.209  1.00  0.00     0.031 C 
ATOM     59  C   UNL A   1      43.320  28.948  26.661  1.00  0.00     0.029 A 
ATOM     60  C   UNL A   1      43.380  28.958  28.057  1.00  0.00     0.049 A 
ATOM     61  H   UNL A   1      41.928  29.931  29.247  1.00  0.00     0.167 HD
ATOM     62  C   UNL A   1      44.210  28.283  30.317  1.00  0.00     0.074 A 
ATOM     63  C   UNL A   1      42.975  28.262  31.109  1.00  0.00     0.031 C 
ATOM     64  C   UNL A   1      44.419  28.538  28.989  1.00  0.00     0.034 A 
BRANCH  51  65
ATOM     65  C   UNL A   1      38.918  29.071  28.599  1.00  0.00     0.023 A 
ATOM     66  C   UNL A   1      38.937  29.046  30.004  1.00  0.00     0.031 A 
ATOM     67  C   UNL A   1      37.733  29.558  28.001  1.00  0.00     0.131 A 
ATOM     68  C   UNL A   1      37.813  29.454  30.746  1.00  0.00     0.055 A 
ATOM     69  C   UNL A   1      36.643  30.018  28.741  1.00  0.00     0.041 A 
ATOM     70  F   UNL A   1      37.531  29.526  26.678  1.00  0.00    -0.206 F 
ATOM     71  C   UNL A   1      36.670  29.950  30.123  1.00  0.00     0.022 A 
BRANCH  68  72
ATOM     72  S   UNL A   1      37.825  29.218  32.541  1.00  0.00     0.124 S 
ATOM     73  O   UNL A   1      39.107  29.803  32.913  1.00  0.00    -0.237 OA
ATOM     74  O   UNL A   1      36.635  29.959  32.950  1.00  0.00    -0.237 OA
ATOM     75  O   UNL A   1      37.735  27.768  32.693  1.00  0.00    -0.744 OA
ENDBRANCH  68  72
ENDBRANCH  51  65
BRANCH  52  76
ATOM     76  C   UNL A   1      44.780  25.052  33.777  1.00  0.00     0.023 A 
ATOM     77  C   UNL A   1      45.588  25.684  34.749  1.00  0.00     0.031 A 
ATOM     78  C   UNL A   1      43.879  24.071  34.256  1.00  0.00     0.131 A 
ATOM     79  C   UNL A   1      45.472  25.335  36.120  1.00  0.00     0.055 A 
ATOM     80  C   UNL A   1      43.768  23.734  35.609  1.00  0.00     0.041 A 
ATOM     81  F   UNL A   1      43.009  23.465  33.433  1.00  0.00    -0.206 F 
ATOM     82  C   UNL A   1      44.558  24.372  36.549  1.00  0.00     0.022 A 
BRANCH  79  83
ATOM     83  S   UNL A   1      46.440  26.214  37.394  1.00  0.00     0.124 S 
ATOM     84  O   UNL A   1      47.778  25.670  37.195  1.00  0.00    -0.237 OA
ATOM     85  O   UNL A   1      46.248  27.613  37.029  1.00  0.00    -0.237 OA
ATOM     86  O   UNL A   1      45.794  25.816  38.647  1.00  0.00    -0.744 OA
ENDBRANCH  79  83
ENDBRANCH  52  76
BRANCH  64  87
ATOM     87  C   UNL A   1      45.774  28.181  28.385  1.00  0.00     0.023 A 
ATOM     88  C   UNL A   1      46.096  26.946  27.766  1.00  0.00     0.031 A 
ATOM     89  C   UNL A   1      46.726  29.210  28.293  1.00  0.00     0.131 A 
ATOM     90  C   UNL A   1      47.329  26.782  27.095  1.00  0.00     0.055 A 
ATOM     91  C   UNL A   1      47.934  29.051  27.611  1.00  0.00     0.041 A 
ATOM     92  F   UNL A   1      46.473  30.416  28.827  1.00  0.00    -0.206 F 
ATOM     93  C   UNL A   1      48.242  27.835  27.011  1.00  0.00     0.022 A 
BRANCH  90  94
ATOM     94  S   UNL A   1      47.761  25.194  26.298  1.00  0.00     0.124 S 
ATOM     95  O   UNL A   1      48.353  24.423  27.385  1.00  0.00    -0.237 OA
ATOM     96  O   UNL A   1      46.472  24.718  25.805  1.00  0.00    -0.237 OA
ATOM     97  O   UNL A   1      48.705  25.584  25.247  1.00  0.00    -0.744 OA
ENDBRANCH  90  94
ENDBRANCH  64  87
ENDBRANCH  38  39
ENDBRANCH  30  33
ENDBRANCH  28  29
ENDBRANCH   1  28
TORSDOF 16
ENDMDL
MODEL 3
REMARK VINA RESULT:     -12.9      6.612     14.254
REMARK SMILES Cc1nc2sc3c(c2c2nc(CCC(=O)NCCCCNC(=O)c4ccc(-c5c6nc(c(-c7cc(S(=O)(=O)[O-])ccc7F)c7ccc([nH]7)c(-c7cc(S(=O)(=O)[O-])ccc7F)c7nc(c(-c8cc(S(=O)(=O)[O-])ccc8F)c8ccc5[nH]8)C=C7)C=C6)cc4)nn12)[C@@H](C)CCC3
REMARK SMILES IDX 19 1 18 2 17 3 16 4 14 5 15 6 13 8 12 9 11 10 1 11 2 12 3 13
REMARK SMILES IDX 88 14 4 15 9 16 87 17 5 18 8 19 10 20 6 21 7 22 93 23 89 24
REMARK SMILES IDX 92 25 90 26 91 27 20 28 21 29 22 30 23 32 24 33 25 34 86 35
REMARK SMILES IDX 26 36 85 37 27 38 28 39 29 40 79 41 30 42 84 43 78 44 80 45
REMARK SMILES IDX 31 46 83 47 77 48 76 49 32 51 64 52 44 53 63 54 45 55 48 56
REMARK SMILES IDX 62 57 81 58 46 59 47 60 61 62 82 63 49 64 33 65 34 66 42 67
REMARK SMILES IDX 35 68 41 69 43 70 40 71 36 72 37 73 38 74 39 75 65 76 66 77
REMARK SMILES IDX 74 78 67 79 73 80 75 81 72 82 68 83 69 84 70 85 71 86 50 87
REMARK SMILES IDX 51 88 59 89 52 90 58 91 60 92 57 93 53 94 54 95 55 96 56 97
REMARK H PARENT 16 7 21 31 80 50 48 61
REMARK Flexibility Score: inf
ROOT
ATOM      1  C   UNL A   1      45.086  22.103  35.645  1.00  0.00     0.023 C 
ENDROOT
BRANCH   1   2
ATOM      2  C   UNL A   1      46.267  22.584  36.471  1.00  0.00     0.023 C 
BRANCH   2   3
ATOM      3  C   UNL A   1      46.862  21.429  37.280  1.00  0.00     0.116 C 
BRANCH   3   4
ATOM      4  N   UNL A   1      46.007  20.244  37.285  1.00  0.00    -0.356 N 
ATOM      5  C   UNL A   1      46.046  19.141  38.083  1.00  0.00     0.220 C 
ATOM      6  O   UNL A   1      45.335  18.175  37.804  1.00  0.00    -0.275 OA
ATOM      7  H   UNL A   1      45.295  20.242  36.606  1.00  0.00     0.163 HD
BRANCH   5   8
ATOM      8  C   UNL A   1      46.894  19.158  39.331  1.00  0.00     0.108 C 
BRANCH   8   9
ATOM      9  C   UNL A   1      46.169  19.765  40.534  1.00  0.00     0.089 C 
BRANCH   9  10
ATOM     10  C   UNL A   1      45.704  18.773  41.548  1.00  0.00     0.152 A 
ATOM     11  C   UNL A   1      47.560  16.918  44.726  1.00  0.00     0.090 C 
ATOM     12  C   UNL A   1      46.181  16.644  44.208  1.00  0.00     0.131 A 
ATOM     13  N   UNL A   1      45.471  15.645  44.647  1.00  0.00    -0.222 NA
ATOM     14  N   UNL A   1      45.736  17.468  43.170  1.00  0.00    -0.199 N 
ATOM     15  C   UNL A   1      44.356  15.328  43.917  1.00  0.00     0.129 A 
ATOM     16  C   UNL A   1      44.594  17.204  42.439  1.00  0.00     0.168 A 
ATOM     17  N   UNL A   1      46.443  18.484  42.631  1.00  0.00    -0.150 NA
ATOM     18  S   UNL A   1      43.470  13.940  44.328  1.00  0.00    -0.120 S 
ATOM     19  C   UNL A   1      43.862  15.923  42.754  1.00  0.00     0.060 A 
ATOM     20  N   UNL A   1      44.534  18.044  41.427  1.00  0.00    -0.211 NA
ATOM     21  C   UNL A   1      42.711  13.919  42.809  1.00  0.00     0.011 A 
ATOM     22  C   UNL A   1      42.942  15.057  42.029  1.00  0.00    -0.018 A 
ATOM     23  C   UNL A   1      41.941  12.693  42.420  1.00  0.00     0.047 C 
ATOM     24  C   UNL A   1      42.247  15.160  40.656  1.00  0.00     0.018 C 
ATOM     25  C   UNL A   1      40.987  13.002  41.276  1.00  0.00     0.006 C 
ATOM     26  C   UNL A   1      43.036  15.694  39.465  1.00  0.00     0.013 C 
ATOM     27  C   UNL A   1      41.720  13.764  40.181  1.00  0.00     0.008 C 
ENDBRANCH   9  10
ENDBRANCH   8   9
ENDBRANCH   5   8
ENDBRANCH   3   4
ENDBRANCH   2   3
ENDBRANCH   1   2
BRANCH   1  28
ATOM     28  C   UNL A   1      44.116  23.148  35.187  1.00  0.00     0.116 C 
BRANCH  28  29
ATOM     29  N   UNL A   1      43.974  24.393  35.945  1.00  0.00    -0.352 N 
ATOM     30  C   UNL A   1      44.641  25.605  35.674  1.00  0.00     0.251 C 
ATOM     31  H   UNL A   1      43.357  24.383  36.712  1.00  0.00     0.163 HD
ATOM     32  O   UNL A   1      44.702  26.509  36.482  1.00  0.00    -0.269 OA
BRANCH  30  33
ATOM     33  C   UNL A   1      45.252  25.743  34.336  1.00  0.00     0.039 A 
ATOM     34  C   UNL A   1      46.510  25.303  33.915  1.00  0.00     0.014 A 
ATOM     35  C   UNL A   1      44.414  26.280  33.403  1.00  0.00     0.014 A 
ATOM     36  C   UNL A   1      46.783  25.350  32.535  1.00  0.00     0.010 A 
ATOM     37  C   UNL A   1      44.470  25.617  32.234  1.00  0.00     0.010 A 
ATOM     38  C   UNL A   1      45.708  25.572  31.681  1.00  0.00    -0.014 A 
BRANCH  38  39
ATOM     39  C   UNL A   1      45.647  25.675  30.239  1.00  0.00     0.031 A 
ATOM     40  C   UNL A   1      46.805  26.352  29.624  1.00  0.00     0.074 A 
ATOM     41  C   UNL A   1      44.766  24.913  29.534  1.00  0.00     0.049 A 
ATOM     42  N   UNL A   1      46.815  27.524  29.091  1.00  0.00    -0.248 NA
ATOM     43  C   UNL A   1      48.144  25.754  29.766  1.00  0.00     0.031 C 
ATOM     44  C   UNL A   1      43.770  23.933  30.011  1.00  0.00     0.029 A 
ATOM     45  N   UNL A   1      44.642  24.789  28.190  1.00  0.00    -0.354 N 
ATOM     46  C   UNL A   1      48.099  27.710  28.602  1.00  0.00     0.074 A 
ATOM     47  C   UNL A   1      48.915  26.713  29.244  1.00  0.00     0.031 C 
ATOM     48  C   UNL A   1      43.321  23.178  28.982  1.00  0.00     0.029 A 
ATOM     49  C   UNL A   1      43.845  23.730  27.750  1.00  0.00     0.049 A 
ATOM     50  H   UNL A   1      45.086  25.406  27.564  1.00  0.00     0.167 HD
ATOM     51  C   UNL A   1      48.328  28.515  27.529  1.00  0.00     0.034 A 
ATOM     52  C   UNL A   1      43.626  23.359  26.458  1.00  0.00     0.034 A 
ATOM     53  C   UNL A   1      47.152  29.301  27.217  1.00  0.00     0.049 A 
ATOM     54  C   UNL A   1      43.934  24.566  25.642  1.00  0.00     0.074 A 
ATOM     55  C   UNL A   1      46.417  30.231  27.926  1.00  0.00     0.029 A 
ATOM     56  N   UNL A   1      46.296  28.818  26.247  1.00  0.00    -0.354 N 
ATOM     57  N   UNL A   1      43.249  25.676  25.740  1.00  0.00    -0.248 NA
ATOM     58  C   UNL A   1      45.304  24.727  25.170  1.00  0.00     0.031 C 
ATOM     59  C   UNL A   1      45.054  29.870  27.699  1.00  0.00     0.029 A 
ATOM     60  C   UNL A   1      45.021  28.822  26.775  1.00  0.00     0.049 A 
ATOM     61  H   UNL A   1      46.549  28.524  25.343  1.00  0.00     0.167 HD
ATOM     62  C   UNL A   1      44.196  26.691  25.760  1.00  0.00     0.074 A 
ATOM     63  C   UNL A   1      45.442  26.049  25.328  1.00  0.00     0.031 C 
ATOM     64  C   UNL A   1      43.977  27.867  26.425  1.00  0.00     0.034 A 
BRANCH  51  65
ATOM     65  C   UNL A   1      49.491  28.381  26.585  1.00  0.00     0.023 A 
ATOM     66  C   UNL A   1      50.340  29.488  26.414  1.00  0.00     0.031 A 
ATOM     67  C   UNL A   1      49.678  27.308  25.683  1.00  0.00     0.131 A 
ATOM     68  C   UNL A   1      51.288  29.513  25.375  1.00  0.00     0.055 A 
ATOM     69  C   UNL A   1      50.660  27.312  24.691  1.00  0.00     0.041 A 
ATOM     70  F   UNL A   1      48.864  26.246  25.653  1.00  0.00    -0.206 F 
ATOM     71  C   UNL A   1      51.460  28.427  24.518  1.00  0.00     0.022 A 
BRANCH  68  72
ATOM     72  S   UNL A   1      52.219  31.039  25.084  1.00  0.00     0.124 S 
ATOM     73  O   UNL A   1      53.597  30.581  25.218  1.00  0.00    -0.237 OA
ATOM     74  O   UNL A   1      51.789  31.404  23.738  1.00  0.00    -0.237 OA
ATOM     75  O   UNL A   1      51.753  31.928  26.147  1.00  0.00    -0.744 OA
ENDBRANCH  68  72
ENDBRANCH  51  65
BRANCH  52  76
ATOM     76  C   UNL A   1      43.505  21.976  25.905  1.00  0.00     0.023 A 
ATOM     77  C   UNL A   1      44.599  21.267  25.356  1.00  0.00     0.031 A 
ATOM     78  C   UNL A   1      42.332  21.222  26.144  1.00  0.00     0.131 A 
ATOM     79  C   UNL A   1      44.494  19.879  25.081  1.00  0.00     0.055 A 
ATOM     80  C   UNL A   1      42.234  19.854  25.873  1.00  0.00     0.041 A 
ATOM     81  F   UNL A   1      41.260  21.774  26.736  1.00  0.00    -0.206 F 
ATOM     82  C   UNL A   1      43.319  19.173  25.349  1.00  0.00     0.022 A 
BRANCH  79  83
ATOM     83  S   UNL A   1      45.930  18.935  24.466  1.00  0.00     0.124 S 
ATOM     84  O   UNL A   1      47.017  19.896  24.619  1.00  0.00    -0.237 OA
ATOM     85  O   UNL A   1      45.955  17.781  25.356  1.00  0.00    -0.237 OA
ATOM     86  O   UNL A   1      45.569  18.630  23.080  1.00  0.00    -0.744 OA
ENDBRANCH  79  83
ENDBRANCH  52  76
BRANCH  64  87
ATOM     87  C   UNL A   1      42.593  28.123  27.013  1.00  0.00     0.023 A 
ATOM     88  C   UNL A   1      42.266  28.074  28.393  1.00  0.00     0.031 A 
ATOM     89  C   UNL A   1      41.601  28.598  26.138  1.00  0.00     0.131 A 
ATOM     90  C   UNL A   1      40.992  28.488  28.841  1.00  0.00     0.055 A 
ATOM     91  C   UNL A   1      40.351  29.026  26.587  1.00  0.00     0.041 A 
ATOM     92  F   UNL A   1      41.853  28.702  24.823  1.00  0.00    -0.206 F 
ATOM     93  C   UNL A   1      40.040  28.971  27.941  1.00  0.00     0.022 A 
BRANCH  90  94
ATOM     94  S   UNL A   1      40.554  28.425  30.616  1.00  0.00     0.124 S 
ATOM     95  O   UNL A   1      40.245  29.815  30.934  1.00  0.00    -0.237 OA
ATOM     96  O   UNL A   1      39.427  27.497  30.639  1.00  0.00    -0.237 OA
ATOM     97  O   UNL A   1      41.772  27.915  31.251  1.00  0.00    -0.744 OA
ENDBRANCH  90  94
ENDBRANCH  64  87
ENDBRANCH  38  39
ENDBRANCH  30  33
ENDBRANCH  28  29
ENDBRANCH   1  28
TORSDOF 16
ENDMDL
