MODEL 1
REMARK VINA RESULT:     -11.4      0.000      0.000
REMARK SMILES COCC(=O)N[C@H]1C=C[C@@H](C(=O)NCCCCNC(=O)c2ccc(-c3c4nc(c(-c5cc(S(=O)(=O)[O-])ccc5F)c5ccc([nH]5)c(-c5cc(S(=O)(=O)[O-])ccc5F)c5nc(c(-c6cc(S(=O)(=O)[O-])ccc6F)c6ccc3[nH]6)C=C5)C=C4)cc2)C1
REMARK SMILES IDX 15 1 14 2 13 3 11 4 12 5 10 7 7 8 8 9 84 10 9 11 6 12 4 13
REMARK SMILES IDX 5 14 3 16 2 17 1 18 16 19 17 20 18 21 19 22 20 24 21 25
REMARK SMILES IDX 22 26 83 27 23 28 82 29 24 30 25 31 26 32 76 33 27 34 81 35
REMARK SMILES IDX 75 36 77 37 28 38 80 39 74 40 73 41 29 43 61 44 41 45 60 46
REMARK SMILES IDX 42 47 45 48 59 49 78 50 43 51 44 52 58 54 79 55 46 56 30 57
REMARK SMILES IDX 31 58 39 59 32 60 38 61 40 62 37 63 33 64 34 65 35 66 36 67
REMARK SMILES IDX 62 68 63 69 71 70 64 71 70 72 72 73 69 74 65 75 66 76 67 77
REMARK SMILES IDX 68 78 47 79 48 80 56 81 49 82 55 83 57 84 54 85 50 86 51 87
REMARK SMILES IDX 52 88 53 89
REMARK H PARENT 13 6 6 15 18 23 77 42 45 53
REMARK Flexibility Score: inf
ROOT
ATOM      1  C   UNL A   1      35.581  22.641  25.515  1.00  0.00     0.023 C 
ENDROOT
BRANCH   1   2
ATOM      2  C   UNL A   1      34.867  22.596  24.166  1.00  0.00     0.116 C 
BRANCH   2   3
ATOM      3  N   UNL A   1      33.543  23.185  24.255  1.00  0.00    -0.356 N 
ATOM      4  C   UNL A   1      32.321  22.643  24.486  1.00  0.00     0.227 C 
ATOM      5  O   UNL A   1      31.348  23.402  24.373  1.00  0.00    -0.274 OA
ATOM      6  H   UNL A   1      33.530  24.161  24.122  1.00  0.00     0.163 HD
BRANCH   4   7
ATOM      7  C   UNL A   1      32.069  21.170  24.844  1.00  0.00     0.103 C 
ATOM      8  C   UNL A   1      32.564  18.876  24.212  1.00  0.00     0.106 C 
ATOM      9  C   UNL A   1      33.236  19.233  25.492  1.00  0.00    -0.006 C 
ATOM     10  C   UNL A   1      32.125  20.224  23.632  1.00  0.00     0.047 C 
ATOM     11  C   UNL A   1      32.949  20.491  25.853  1.00  0.00    -0.016 C 
BRANCH   8  12
ATOM     12  N   UNL A   1      33.350  17.974  23.396  1.00  0.00    -0.348 N 
ATOM     13  C   UNL A   1      33.710  16.666  23.513  1.00  0.00     0.246 C 
ATOM     14  O   UNL A   1      34.358  16.161  22.591  1.00  0.00    -0.272 OA
ATOM     15  H   UNL A   1      33.700  18.399  22.580  1.00  0.00     0.164 HD
BRANCH  13  16
ATOM     16  C   UNL A   1      33.327  15.851  24.735  1.00  0.00     0.259 C 
BRANCH  16  17
ATOM     17  O   UNL A   1      34.402  15.055  25.196  1.00  0.00    -0.375 OA
ATOM     18  C   UNL A   1      35.584  15.792  25.467  1.00  0.00     0.195 C 
ENDBRANCH  16  17
ENDBRANCH  13  16
ENDBRANCH   8  12
ENDBRANCH   4   7
ENDBRANCH   2   3
ENDBRANCH   1   2
BRANCH   1  19
ATOM     19  C   UNL A   1      36.463  21.445  25.832  1.00  0.00     0.023 C 
BRANCH  19  20
ATOM     20  C   UNL A   1      37.676  21.293  24.920  1.00  0.00     0.116 C 
BRANCH  20  21
ATOM     21  N   UNL A   1      38.673  20.333  25.390  1.00  0.00    -0.352 N 
ATOM     22  C   UNL A   1      39.752  20.525  26.227  1.00  0.00     0.251 C 
ATOM     23  H   UNL A   1      38.557  19.413  25.061  1.00  0.00     0.163 HD
ATOM     24  O   UNL A   1      40.523  19.597  26.458  1.00  0.00    -0.269 OA
BRANCH  22  25
ATOM     25  C   UNL A   1      39.998  21.868  26.789  1.00  0.00     0.039 A 
ATOM     26  C   UNL A   1      40.927  22.017  27.821  1.00  0.00     0.014 A 
ATOM     27  C   UNL A   1      39.394  22.987  26.218  1.00  0.00     0.014 A 
ATOM     28  C   UNL A   1      41.343  23.300  28.189  1.00  0.00     0.010 A 
ATOM     29  C   UNL A   1      39.899  24.249  26.497  1.00  0.00     0.010 A 
ATOM     30  C   UNL A   1      40.887  24.423  27.478  1.00  0.00    -0.014 A 
BRANCH  30  31
ATOM     31  C   UNL A   1      41.424  25.789  27.727  1.00  0.00     0.031 A 
ATOM     32  C   UNL A   1      42.818  26.133  27.273  1.00  0.00     0.074 A 
ATOM     33  C   UNL A   1      40.709  26.675  28.452  1.00  0.00     0.049 A 
ATOM     34  N   UNL A   1      43.544  27.187  27.544  1.00  0.00    -0.248 NA
ATOM     35  C   UNL A   1      43.507  25.124  26.455  1.00  0.00     0.031 C 
ATOM     36  C   UNL A   1      39.375  26.438  29.013  1.00  0.00     0.029 A 
ATOM     37  N   UNL A   1      41.012  27.951  28.857  1.00  0.00    -0.354 N 
ATOM     38  C   UNL A   1      44.785  26.949  26.961  1.00  0.00     0.074 A 
ATOM     39  C   UNL A   1      44.733  25.618  26.397  1.00  0.00     0.031 C 
ATOM     40  C   UNL A   1      38.966  27.541  29.659  1.00  0.00     0.029 A 
ATOM     41  C   UNL A   1      40.020  28.547  29.604  1.00  0.00     0.049 A 
ATOM     42  H   UNL A   1      41.859  28.400  28.634  1.00  0.00     0.167 HD
ATOM     43  C   UNL A   1      45.855  27.777  26.871  1.00  0.00     0.034 A 
ATOM     44  C   UNL A   1      39.972  29.762  30.187  1.00  0.00     0.034 A 
ATOM     45  C   UNL A   1      45.873  29.118  27.399  1.00  0.00     0.049 A 
ATOM     46  C   UNL A   1      41.155  30.683  30.035  1.00  0.00     0.074 A 
ATOM     47  C   UNL A   1      46.881  30.064  27.327  1.00  0.00     0.029 A 
ATOM     48  N   UNL A   1      44.820  29.710  28.087  1.00  0.00    -0.354 N 
ATOM     49  N   UNL A   1      42.309  30.456  29.449  1.00  0.00    -0.248 NA
ATOM     50  C   UNL A   1      41.025  32.029  30.608  1.00  0.00     0.031 C 
ATOM     51  C   UNL A   1      46.453  31.213  28.003  1.00  0.00     0.029 A 
ATOM     52  C   UNL A   1      45.157  31.006  28.446  1.00  0.00     0.049 A 
ATOM     53  H   UNL A   1      43.961  29.273  28.289  1.00  0.00     0.167 HD
ATOM     54  C   UNL A   1      43.030  31.642  29.560  1.00  0.00     0.074 A 
ATOM     55  C   UNL A   1      42.175  32.585  30.251  1.00  0.00     0.031 C 
ATOM     56  C   UNL A   1      44.285  31.928  29.133  1.00  0.00     0.034 A 
BRANCH  43  57
ATOM     57  C   UNL A   1      47.082  27.240  26.174  1.00  0.00     0.023 A 
ATOM     58  C   UNL A   1      48.033  26.463  26.860  1.00  0.00     0.031 A 
ATOM     59  C   UNL A   1      47.338  27.551  24.828  1.00  0.00     0.131 A 
ATOM     60  C   UNL A   1      49.238  26.113  26.234  1.00  0.00     0.055 A 
ATOM     61  C   UNL A   1      48.499  27.118  24.180  1.00  0.00     0.041 A 
ATOM     62  F   UNL A   1      46.479  28.303  24.122  1.00  0.00    -0.206 F 
ATOM     63  C   UNL A   1      49.466  26.411  24.890  1.00  0.00     0.022 A 
BRANCH  60  64
ATOM     64  S   UNL A   1      50.563  25.410  27.251  1.00  0.00     0.124 S 
ATOM     65  O   UNL A   1      50.953  26.563  28.061  1.00  0.00    -0.237 OA
ATOM     66  O   UNL A   1      49.883  24.333  27.960  1.00  0.00    -0.237 OA
ATOM     67  O   UNL A   1      51.558  24.982  26.270  1.00  0.00    -0.744 OA
ENDBRANCH  60  64
ENDBRANCH  43  57
BRANCH  44  68
ATOM     68  C   UNL A   1      38.773  30.187  30.964  1.00  0.00     0.023 A 
ATOM     69  C   UNL A   1      37.728  30.894  30.348  1.00  0.00     0.031 A 
ATOM     70  C   UNL A   1      38.676  29.937  32.344  1.00  0.00     0.131 A 
ATOM     71  C   UNL A   1      36.658  31.376  31.118  1.00  0.00     0.055 A 
ATOM     72  C   UNL A   1      37.583  30.374  33.097  1.00  0.00     0.041 A 
ATOM     73  F   UNL A   1      39.642  29.256  32.981  1.00  0.00    -0.206 F 
ATOM     74  C   UNL A   1      36.574  31.112  32.487  1.00  0.00     0.022 A 
BRANCH  71  75
ATOM     75  S   UNL A   1      35.424  32.438  30.319  1.00  0.00     0.124 S 
ATOM     76  O   UNL A   1      35.035  31.629  29.168  1.00  0.00    -0.237 OA
ATOM     77  O   UNL A   1      34.423  32.581  31.370  1.00  0.00    -0.237 OA
ATOM     78  O   UNL A   1      36.173  33.653  30.004  1.00  0.00    -0.744 OA
ENDBRANCH  71  75
ENDBRANCH  44  68
BRANCH  56  79
ATOM     79  C   UNL A   1      44.776  33.335  29.358  1.00  0.00     0.023 A 
ATOM     80  C   UNL A   1      44.583  34.347  28.402  1.00  0.00     0.031 A 
ATOM     81  C   UNL A   1      45.458  33.661  30.544  1.00  0.00     0.131 A 
ATOM     82  C   UNL A   1      45.113  35.625  28.625  1.00  0.00     0.055 A 
ATOM     83  C   UNL A   1      45.936  34.949  30.784  1.00  0.00     0.041 A 
ATOM     84  F   UNL A   1      45.667  32.730  31.489  1.00  0.00    -0.206 F 
ATOM     85  C   UNL A   1      45.777  35.936  29.815  1.00  0.00     0.022 A 
BRANCH  82  86
ATOM     86  S   UNL A   1      44.997  36.858  27.301  1.00  0.00     0.124 S 
ATOM     87  O   UNL A   1      46.031  36.409  26.374  1.00  0.00    -0.237 OA
ATOM     88  O   UNL A   1      43.619  36.696  26.845  1.00  0.00    -0.237 OA
ATOM     89  O   UNL A   1      45.278  38.120  27.981  1.00  0.00    -0.744 OA
ENDBRANCH  82  86
ENDBRANCH  56  79
ENDBRANCH  30  31
ENDBRANCH  22  25
ENDBRANCH  20  21
ENDBRANCH  19  20
ENDBRANCH   1  19
TORSDOF 17
ENDMDL
MODEL 2
REMARK VINA RESULT:     -11.4      5.946      8.858
REMARK SMILES COCC(=O)N[C@H]1C=C[C@@H](C(=O)NCCCCNC(=O)c2ccc(-c3c4nc(c(-c5cc(S(=O)(=O)[O-])ccc5F)c5ccc([nH]5)c(-c5cc(S(=O)(=O)[O-])ccc5F)c5nc(c(-c6cc(S(=O)(=O)[O-])ccc6F)c6ccc3[nH]6)C=C5)C=C4)cc2)C1
REMARK SMILES IDX 15 1 14 2 13 3 11 4 12 5 10 7 7 8 8 9 84 10 9 11 6 12 4 13
REMARK SMILES IDX 5 14 3 16 2 17 1 18 16 19 17 20 18 21 19 22 20 24 21 25
REMARK SMILES IDX 22 26 83 27 23 28 82 29 24 30 25 31 26 32 76 33 27 34 81 35
REMARK SMILES IDX 75 36 77 37 28 38 80 39 74 40 73 41 29 43 61 44 41 45 60 46
REMARK SMILES IDX 42 47 45 48 59 49 78 50 43 51 44 52 58 54 79 55 46 56 30 57
REMARK SMILES IDX 31 58 39 59 32 60 38 61 40 62 37 63 33 64 34 65 35 66 36 67
REMARK SMILES IDX 62 68 63 69 71 70 64 71 70 72 72 73 69 74 65 75 66 76 67 77
REMARK SMILES IDX 68 78 47 79 48 80 56 81 49 82 55 83 57 84 54 85 50 86 51 87
REMARK SMILES IDX 52 88 53 89
REMARK H PARENT 13 6 6 15 18 23 77 42 45 53
REMARK Flexibility Score: inf
ROOT
ATOM      1  C   UNL A   1      31.758  26.872  26.470  1.00  0.00     0.023 C 
ENDROOT
BRANCH   1   2
ATOM      2  C   UNL A   1      30.413  26.297  26.034  1.00  0.00     0.116 C 
BRANCH   2   3
ATOM      3  N   UNL A   1      30.590  25.201  25.098  1.00  0.00    -0.356 N 
ATOM      4  C   UNL A   1      30.750  25.173  23.751  1.00  0.00     0.227 C 
ATOM      5  O   UNL A   1      30.749  24.055  23.217  1.00  0.00    -0.274 OA
ATOM      6  H   UNL A   1      30.595  24.311  25.521  1.00  0.00     0.163 HD
BRANCH   4   7
ATOM      7  C   UNL A   1      30.901  26.416  22.860  1.00  0.00     0.103 C 
ATOM      8  C   UNL A   1      30.556  28.820  22.758  1.00  0.00     0.106 C 
ATOM      9  C   UNL A   1      32.009  28.492  22.810  1.00  0.00    -0.006 C 
ATOM     10  C   UNL A   1      29.863  27.513  23.155  1.00  0.00     0.047 C 
ATOM     11  C   UNL A   1      32.201  27.165  22.847  1.00  0.00    -0.016 C 
BRANCH   8  12
ATOM     12  N   UNL A   1      30.231  30.041  23.465  1.00  0.00    -0.348 N 
ATOM     13  C   UNL A   1      29.212  30.940  23.379  1.00  0.00     0.246 C 
ATOM     14  O   UNL A   1      29.195  31.873  24.187  1.00  0.00    -0.272 OA
ATOM     15  H   UNL A   1      30.889  30.271  24.159  1.00  0.00     0.164 HD
BRANCH  13  16
ATOM     16  C   UNL A   1      28.128  30.801  22.325  1.00  0.00     0.259 C 
BRANCH  16  17
ATOM     17  O   UNL A   1      27.505  32.040  22.043  1.00  0.00    -0.375 OA
ATOM     18  C   UNL A   1      27.851  32.580  20.778  1.00  0.00     0.195 C 
ENDBRANCH  16  17
ENDBRANCH  13  16
ENDBRANCH   8  12
ENDBRANCH   4   7
ENDBRANCH   2   3
ENDBRANCH   1   2
BRANCH   1  19
ATOM     19  C   UNL A   1      31.716  28.275  27.052  1.00  0.00     0.023 C 
BRANCH  19  20
ATOM     20  C   UNL A   1      32.646  29.271  26.369  1.00  0.00     0.116 C 
BRANCH  20  21
ATOM     21  N   UNL A   1      32.359  30.674  26.668  1.00  0.00    -0.352 N 
ATOM     22  C   UNL A   1      33.160  31.630  27.253  1.00  0.00     0.251 C 
ATOM     23  H   UNL A   1      31.459  30.980  26.412  1.00  0.00     0.163 HD
ATOM     24  O   UNL A   1      32.713  32.751  27.481  1.00  0.00    -0.269 OA
BRANCH  22  25
ATOM     25  C   UNL A   1      34.536  31.271  27.653  1.00  0.00     0.039 A 
ATOM     26  C   UNL A   1      35.484  32.282  27.825  1.00  0.00     0.014 A 
ATOM     27  C   UNL A   1      34.852  29.949  27.964  1.00  0.00     0.014 A 
ATOM     28  C   UNL A   1      36.705  31.980  28.434  1.00  0.00     0.010 A 
ATOM     29  C   UNL A   1      36.010  29.677  28.679  1.00  0.00     0.010 A 
ATOM     30  C   UNL A   1      36.947  30.689  28.933  1.00  0.00    -0.014 A 
BRANCH  30  31
ATOM     31  C   UNL A   1      38.163  30.362  29.728  1.00  0.00     0.031 A 
ATOM     32  C   UNL A   1      39.169  29.385  29.178  1.00  0.00     0.074 A 
ATOM     33  C   UNL A   1      38.305  30.851  30.978  1.00  0.00     0.049 A 
ATOM     34  N   UNL A   1      40.190  28.824  29.770  1.00  0.00    -0.248 NA
ATOM     35  C   UNL A   1      38.956  28.937  27.794  1.00  0.00     0.031 C 
ATOM     36  C   UNL A   1      37.364  31.748  31.655  1.00  0.00     0.029 A 
ATOM     37  N   UNL A   1      39.291  30.647  31.912  1.00  0.00    -0.354 N 
ATOM     38  C   UNL A   1      40.718  27.930  28.843  1.00  0.00     0.074 A 
ATOM     39  C   UNL A   1      39.851  27.969  27.686  1.00  0.00     0.031 C 
ATOM     40  C   UNL A   1      37.834  32.040  32.878  1.00  0.00     0.029 A 
ATOM     41  C   UNL A   1      39.082  31.317  33.097  1.00  0.00     0.049 A 
ATOM     42  H   UNL A   1      40.076  30.076  31.750  1.00  0.00     0.167 HD
ATOM     43  C   UNL A   1      41.840  27.174  28.933  1.00  0.00     0.034 A 
ATOM     44  C   UNL A   1      39.807  31.337  34.232  1.00  0.00     0.034 A 
ATOM     45  C   UNL A   1      42.718  27.183  30.076  1.00  0.00     0.049 A 
ATOM     46  C   UNL A   1      41.076  30.526  34.293  1.00  0.00     0.074 A 
ATOM     47  C   UNL A   1      43.906  26.497  30.261  1.00  0.00     0.029 A 
ATOM     48  N   UNL A   1      42.508  27.931  31.228  1.00  0.00    -0.354 N 
ATOM     49  N   UNL A   1      41.581  29.712  33.393  1.00  0.00    -0.248 NA
ATOM     50  C   UNL A   1      41.883  30.646  35.514  1.00  0.00     0.031 C 
ATOM     51  C   UNL A   1      44.394  26.801  31.537  1.00  0.00     0.029 A 
ATOM     52  C   UNL A   1      43.542  27.721  32.126  1.00  0.00     0.049 A 
ATOM     53  H   UNL A   1      41.737  28.524  31.383  1.00  0.00     0.167 HD
ATOM     54  C   UNL A   1      42.777  29.247  33.931  1.00  0.00     0.074 A 
ATOM     55  C   UNL A   1      42.928  29.885  35.223  1.00  0.00     0.031 C 
ATOM     56  C   UNL A   1      43.672  28.372  33.408  1.00  0.00     0.034 A 
BRANCH  43  57
ATOM     57  C   UNL A   1      42.166  26.286  27.756  1.00  0.00     0.023 A 
ATOM     58  C   UNL A   1      41.672  24.972  27.672  1.00  0.00     0.031 A 
ATOM     59  C   UNL A   1      43.023  26.730  26.735  1.00  0.00     0.131 A 
ATOM     60  C   UNL A   1      42.118  24.117  26.654  1.00  0.00     0.055 A 
ATOM     61  C   UNL A   1      43.389  25.903  25.669  1.00  0.00     0.041 A 
ATOM     62  F   UNL A   1      43.543  27.967  26.766  1.00  0.00    -0.206 F 
ATOM     63  C   UNL A   1      42.952  24.582  25.636  1.00  0.00     0.022 A 
BRANCH  60  64
ATOM     64  S   UNL A   1      41.722  22.352  26.777  1.00  0.00     0.124 S 
ATOM     65  O   UNL A   1      42.214  21.852  25.496  1.00  0.00    -0.237 OA
ATOM     66  O   UNL A   1      42.474  21.940  27.956  1.00  0.00    -0.237 OA
ATOM     67  O   UNL A   1      40.268  22.337  26.927  1.00  0.00    -0.744 OA
ENDBRANCH  60  64
ENDBRANCH  43  57
BRANCH  44  68
ATOM     68  C   UNL A   1      39.366  32.146  35.404  1.00  0.00     0.023 A 
ATOM     69  C   UNL A   1      38.671  31.552  36.470  1.00  0.00     0.031 A 
ATOM     70  C   UNL A   1      39.586  33.533  35.453  1.00  0.00     0.131 A 
ATOM     71  C   UNL A   1      38.173  32.349  37.513  1.00  0.00     0.055 A 
ATOM     72  C   UNL A   1      39.133  34.315  36.519  1.00  0.00     0.041 A 
ATOM     73  F   UNL A   1      40.253  34.151  34.465  1.00  0.00    -0.206 F 
ATOM     74  C   UNL A   1      38.408  33.725  37.549  1.00  0.00     0.022 A 
BRANCH  71  75
ATOM     75  S   UNL A   1      37.128  31.571  38.775  1.00  0.00     0.124 S 
ATOM     76  O   UNL A   1      37.948  31.718  39.973  1.00  0.00    -0.237 OA
ATOM     77  O   UNL A   1      35.924  32.391  38.717  1.00  0.00    -0.237 OA
ATOM     78  O   UNL A   1      36.972  30.200  38.290  1.00  0.00    -0.744 OA
ENDBRANCH  71  75
ENDBRANCH  44  68
BRANCH  56  79
ATOM     79  C   UNL A   1      44.913  28.102  34.218  1.00  0.00     0.023 A 
ATOM     80  C   UNL A   1      44.969  27.064  35.162  1.00  0.00     0.031 A 
ATOM     81  C   UNL A   1      46.054  28.907  34.046  1.00  0.00     0.131 A 
ATOM     82  C   UNL A   1      46.122  26.890  35.940  1.00  0.00     0.055 A 
ATOM     83  C   UNL A   1      47.218  28.695  34.785  1.00  0.00     0.041 A 
ATOM     84  F   UNL A   1      46.052  29.912  33.156  1.00  0.00    -0.206 F 
ATOM     85  C   UNL A   1      47.252  27.691  35.747  1.00  0.00     0.022 A 
BRANCH  82  86
ATOM     86  S   UNL A   1      46.099  25.654  37.266  1.00  0.00     0.124 S 
ATOM     87  O   UNL A   1      46.328  24.414  36.531  1.00  0.00    -0.237 OA
ATOM     88  O   UNL A   1      47.195  26.097  38.124  1.00  0.00    -0.237 OA
ATOM     89  O   UNL A   1      44.765  25.795  37.845  1.00  0.00    -0.744 OA
ENDBRANCH  82  86
ENDBRANCH  56  79
ENDBRANCH  30  31
ENDBRANCH  22  25
ENDBRANCH  20  21
ENDBRANCH  19  20
ENDBRANCH   1  19
TORSDOF 17
ENDMDL
MODEL 3
REMARK VINA RESULT:     -11.3      5.526      8.525
REMARK SMILES COCC(=O)N[C@H]1C=C[C@@H](C(=O)NCCCCNC(=O)c2ccc(-c3c4nc(c(-c5cc(S(=O)(=O)[O-])ccc5F)c5ccc([nH]5)c(-c5cc(S(=O)(=O)[O-])ccc5F)c5nc(c(-c6cc(S(=O)(=O)[O-])ccc6F)c6ccc3[nH]6)C=C5)C=C4)cc2)C1
REMARK SMILES IDX 15 1 14 2 13 3 11 4 12 5 10 7 7 8 8 9 84 10 9 11 6 12 4 13
REMARK SMILES IDX 5 14 3 16 2 17 1 18 16 19 17 20 18 21 19 22 20 24 21 25
REMARK SMILES IDX 22 26 83 27 23 28 82 29 24 30 25 31 26 32 76 33 27 34 81 35
REMARK SMILES IDX 75 36 77 37 28 38 80 39 74 40 73 41 29 43 61 44 41 45 60 46
REMARK SMILES IDX 42 47 45 48 59 49 78 50 43 51 44 52 58 54 79 55 46 56 30 57
REMARK SMILES IDX 31 58 39 59 32 60 38 61 40 62 37 63 33 64 34 65 35 66 36 67
REMARK SMILES IDX 62 68 63 69 71 70 64 71 70 72 72 73 69 74 65 75 66 76 67 77
REMARK SMILES IDX 68 78 47 79 48 80 56 81 49 82 55 83 57 84 54 85 50 86 51 87
REMARK SMILES IDX 52 88 53 89
REMARK H PARENT 13 6 6 15 18 23 77 42 45 53
REMARK Flexibility Score: inf
ROOT
ATOM      1  C   UNL A   1      31.615  26.919  26.396  1.00  0.00     0.023 C 
ENDROOT
BRANCH   1   2
ATOM      2  C   UNL A   1      30.308  26.321  25.882  1.00  0.00     0.116 C 
BRANCH   2   3
ATOM      3  N   UNL A   1      30.560  25.225  24.964  1.00  0.00    -0.356 N 
ATOM      4  C   UNL A   1      30.832  25.196  23.635  1.00  0.00     0.227 C 
ATOM      5  O   UNL A   1      30.872  24.078  23.103  1.00  0.00    -0.274 OA
ATOM      6  H   UNL A   1      30.526  24.335  25.386  1.00  0.00     0.163 HD
BRANCH   4   7
ATOM      7  C   UNL A   1      31.059  26.438  22.760  1.00  0.00     0.103 C 
ATOM      8  C   UNL A   1      30.650  28.827  22.585  1.00  0.00     0.106 C 
ATOM      9  C   UNL A   1      32.092  28.551  22.838  1.00  0.00    -0.006 C 
ATOM     10  C   UNL A   1      29.954  27.499  22.898  1.00  0.00     0.047 C 
ATOM     11  C   UNL A   1      32.323  27.233  22.916  1.00  0.00    -0.016 C 
BRANCH   8  12
ATOM     12  N   UNL A   1      30.188  30.040  23.229  1.00  0.00    -0.348 N 
ATOM     13  C   UNL A   1      29.016  30.732  23.211  1.00  0.00     0.246 C 
ATOM     14  O   UNL A   1      28.922  31.728  23.935  1.00  0.00    -0.272 OA
ATOM     15  H   UNL A   1      30.871  30.455  23.803  1.00  0.00     0.164 HD
BRANCH  13  16
ATOM     16  C   UNL A   1      27.857  30.293  22.333  1.00  0.00     0.259 C 
BRANCH  16  17
ATOM     17  O   UNL A   1      28.117  30.527  20.962  1.00  0.00    -0.375 OA
ATOM     18  C   UNL A   1      28.029  31.893  20.589  1.00  0.00     0.195 C 
ENDBRANCH  16  17
ENDBRANCH  13  16
ENDBRANCH   8  12
ENDBRANCH   4   7
ENDBRANCH   2   3
ENDBRANCH   1   2
BRANCH   1  19
ATOM     19  C   UNL A   1      31.517  28.327  26.961  1.00  0.00     0.023 C 
BRANCH  19  20
ATOM     20  C   UNL A   1      32.513  29.317  26.369  1.00  0.00     0.116 C 
BRANCH  20  21
ATOM     21  N   UNL A   1      32.234  30.719  26.680  1.00  0.00    -0.352 N 
ATOM     22  C   UNL A   1      33.040  31.665  27.274  1.00  0.00     0.251 C 
ATOM     23  H   UNL A   1      31.336  31.033  26.425  1.00  0.00     0.163 HD
ATOM     24  O   UNL A   1      32.599  32.787  27.512  1.00  0.00    -0.269 OA
BRANCH  22  25
ATOM     25  C   UNL A   1      34.413  31.294  27.674  1.00  0.00     0.039 A 
ATOM     26  C   UNL A   1      35.384  32.291  27.792  1.00  0.00     0.014 A 
ATOM     27  C   UNL A   1      34.704  29.980  28.038  1.00  0.00     0.014 A 
ATOM     28  C   UNL A   1      36.605  31.988  28.399  1.00  0.00     0.010 A 
ATOM     29  C   UNL A   1      35.865  29.714  28.750  1.00  0.00     0.010 A 
ATOM     30  C   UNL A   1      36.827  30.715  28.950  1.00  0.00    -0.014 A 
BRANCH  30  31
ATOM     31  C   UNL A   1      38.045  30.397  29.744  1.00  0.00     0.031 A 
ATOM     32  C   UNL A   1      39.046  29.409  29.205  1.00  0.00     0.074 A 
ATOM     33  C   UNL A   1      38.194  30.903  30.987  1.00  0.00     0.049 A 
ATOM     34  N   UNL A   1      40.069  28.853  29.800  1.00  0.00    -0.248 NA
ATOM     35  C   UNL A   1      38.825  28.941  27.828  1.00  0.00     0.031 C 
ATOM     36  C   UNL A   1      37.258  31.812  31.655  1.00  0.00     0.029 A 
ATOM     37  N   UNL A   1      39.183  30.710  31.919  1.00  0.00    -0.354 N 
ATOM     38  C   UNL A   1      40.589  27.944  28.884  1.00  0.00     0.074 A 
ATOM     39  C   UNL A   1      39.717  27.969  27.730  1.00  0.00     0.031 C 
ATOM     40  C   UNL A   1      37.735  32.121  32.871  1.00  0.00     0.029 A 
ATOM     41  C   UNL A   1      38.981  31.398  33.095  1.00  0.00     0.049 A 
ATOM     42  H   UNL A   1      39.967  30.134  31.762  1.00  0.00     0.167 HD
ATOM     43  C   UNL A   1      41.710  27.187  28.979  1.00  0.00     0.034 A 
ATOM     44  C   UNL A   1      39.712  31.432  34.227  1.00  0.00     0.034 A 
ATOM     45  C   UNL A   1      42.593  27.210  30.118  1.00  0.00     0.049 A 
ATOM     46  C   UNL A   1      40.979  30.618  34.293  1.00  0.00     0.074 A 
ATOM     47  C   UNL A   1      43.780  26.524  30.308  1.00  0.00     0.029 A 
ATOM     48  N   UNL A   1      42.390  27.976  31.260  1.00  0.00    -0.354 N 
ATOM     49  N   UNL A   1      41.477  29.790  33.403  1.00  0.00    -0.248 NA
ATOM     50  C   UNL A   1      41.791  30.754  35.510  1.00  0.00     0.031 C 
ATOM     51  C   UNL A   1      44.275  26.845  31.577  1.00  0.00     0.029 A 
ATOM     52  C   UNL A   1      43.427  27.776  32.157  1.00  0.00     0.049 A 
ATOM     53  H   UNL A   1      41.622  28.573  31.410  1.00  0.00     0.167 HD
ATOM     54  C   UNL A   1      42.675  29.330  33.943  1.00  0.00     0.074 A 
ATOM     55  C   UNL A   1      42.833  29.986  35.224  1.00  0.00     0.031 C 
ATOM     56  C   UNL A   1      43.564  28.444  33.429  1.00  0.00     0.034 A 
BRANCH  43  57
ATOM     57  C   UNL A   1      42.028  26.281  27.814  1.00  0.00     0.023 A 
ATOM     58  C   UNL A   1      41.564  24.954  27.771  1.00  0.00     0.031 A 
ATOM     59  C   UNL A   1      42.849  26.722  26.763  1.00  0.00     0.131 A 
ATOM     60  C   UNL A   1      42.005  24.088  26.760  1.00  0.00     0.055 A 
ATOM     61  C   UNL A   1      43.209  25.880  25.707  1.00  0.00     0.041 A 
ATOM     62  F   UNL A   1      43.340  27.972  26.755  1.00  0.00    -0.206 F 
ATOM     63  C   UNL A   1      42.802  24.549  25.712  1.00  0.00     0.022 A 
BRANCH  60  64
ATOM     64  S   UNL A   1      41.654  22.317  26.931  1.00  0.00     0.124 S 
ATOM     65  O   UNL A   1      40.265  22.336  27.383  1.00  0.00    -0.237 OA
ATOM     66  O   UNL A   1      41.879  21.817  25.581  1.00  0.00    -0.237 OA
ATOM     67  O   UNL A   1      42.621  21.872  27.932  1.00  0.00    -0.744 OA
ENDBRANCH  60  64
ENDBRANCH  43  57
BRANCH  44  68
ATOM     68  C   UNL A   1      39.278  32.259  35.389  1.00  0.00     0.023 A 
ATOM     69  C   UNL A   1      39.692  33.594  35.518  1.00  0.00     0.031 A 
ATOM     70  C   UNL A   1      38.485  31.714  36.413  1.00  0.00     0.131 A 
ATOM     71  C   UNL A   1      39.360  34.323  36.670  1.00  0.00     0.055 A 
ATOM     72  C   UNL A   1      38.112  32.460  37.534  1.00  0.00     0.041 A 
ATOM     73  F   UNL A   1      38.052  30.445  36.335  1.00  0.00    -0.206 F 
ATOM     74  C   UNL A   1      38.564  33.768  37.675  1.00  0.00     0.022 A 
BRANCH  71  75
ATOM     75  S   UNL A   1      40.065  35.981  36.881  1.00  0.00     0.124 S 
ATOM     76  O   UNL A   1      39.761  36.601  35.596  1.00  0.00    -0.237 OA
ATOM     77  O   UNL A   1      39.318  36.483  38.029  1.00  0.00    -0.237 OA
ATOM     78  O   UNL A   1      41.482  35.719  37.128  1.00  0.00    -0.744 OA
ENDBRANCH  71  75
ENDBRANCH  44  68
BRANCH  56  79
ATOM     79  C   UNL A   1      44.809  28.183  34.237  1.00  0.00     0.023 A 
ATOM     80  C   UNL A   1      45.977  28.944  34.062  1.00  0.00     0.031 A 
ATOM     81  C   UNL A   1      44.825  27.148  35.189  1.00  0.00     0.131 A 
ATOM     82  C   UNL A   1      47.132  28.625  34.789  1.00  0.00     0.055 A 
ATOM     83  C   UNL A   1      45.961  26.870  35.949  1.00  0.00     0.041 A 
ATOM     84  F   UNL A   1      43.734  26.393  35.395  1.00  0.00    -0.206 F 
ATOM     85  C   UNL A   1      47.127  27.601  35.742  1.00  0.00     0.022 A 
BRANCH  82  86
ATOM     86  S   UNL A   1      48.668  29.512  34.417  1.00  0.00     0.124 S 
ATOM     87  O   UNL A   1      48.175  30.837  34.058  1.00  0.00    -0.237 OA
ATOM     88  O   UNL A   1      49.394  29.423  35.681  1.00  0.00    -0.237 OA
ATOM     89  O   UNL A   1      49.249  28.746  33.316  1.00  0.00    -0.744 OA
ENDBRANCH  82  86
ENDBRANCH  56  79
ENDBRANCH  30  31
ENDBRANCH  22  25
ENDBRANCH  20  21
ENDBRANCH  19  20
ENDBRANCH   1  19
TORSDOF 17
ENDMDL
