MODEL 1
REMARK VINA RESULT:     -12.2      0.000      0.000
REMARK SMILES CC(=O)N1CC[NH2+]C[C@@H]1c1ccc(C(=O)NCCCCNC(=O)c2ccc(-c3c4nc(c(-c5cc(S(=O)(=O)[O-])ccc5F)c5ccc([nH]5)c(-c5cc(S(=O)(=O)[O-])ccc5F)c5nc(c(-c6cc(S(=O)(=O)[O-])ccc6F)c6ccc3[nH]6)C=C5)C=C4)cc2)cc1
REMARK SMILES IDX 19 1 18 2 17 3 16 4 14 5 15 6 13 8 10 9 11 10 88 11 12 12
REMARK SMILES IDX 87 13 9 14 4 15 5 16 6 17 8 18 7 19 2 22 1 23 3 24 20 25
REMARK SMILES IDX 21 26 22 27 23 29 24 30 25 31 86 32 26 33 85 34 27 35 28 36
REMARK SMILES IDX 29 37 79 38 30 39 84 40 78 41 80 42 31 43 83 44 77 45 76 46
REMARK SMILES IDX 32 48 64 49 44 50 63 51 45 52 48 53 62 54 81 55 46 56 47 57
REMARK SMILES IDX 61 59 82 60 49 61 33 62 34 63 42 64 35 65 41 66 43 67 40 68
REMARK SMILES IDX 36 69 37 70 38 71 39 72 65 73 66 74 74 75 67 76 73 77 75 78
REMARK SMILES IDX 72 79 68 80 69 81 70 82 71 83 50 84 51 85 59 86 52 87 58 88
REMARK SMILES IDX 60 89 57 90 53 91 54 92 55 93 56 94
REMARK H PARENT 16 7 7 20 7 21 21 28 80 47 48 58
REMARK Flexibility Score: inf
ROOT
ATOM      1  C   UNL A   1      33.571  29.033  24.378  1.00  0.00     0.023 C 
ENDROOT
BRANCH   1   2
ATOM      2  C   UNL A   1      32.678  28.979  23.135  1.00  0.00     0.023 C 
BRANCH   2   3
ATOM      3  C   UNL A   1      31.933  27.652  22.958  1.00  0.00     0.116 C 
BRANCH   3   4
ATOM      4  N   UNL A   1      32.275  27.021  21.700  1.00  0.00    -0.352 N 
ATOM      5  C   UNL A   1      32.856  25.820  21.382  1.00  0.00     0.251 C 
ATOM      6  O   UNL A   1      32.964  25.556  20.183  1.00  0.00    -0.269 OA
ATOM      7  H   UNL A   1      32.044  27.564  20.912  1.00  0.00     0.163 HD
BRANCH   5   8
ATOM      8  C   UNL A   1      33.364  24.825  22.378  1.00  0.00     0.039 A 
ATOM      9  C   UNL A   1      34.375  22.715  24.021  1.00  0.00    -0.020 A 
ATOM     10  C   UNL A   1      33.342  22.485  23.099  1.00  0.00     0.007 A 
ATOM     11  C   UNL A   1      34.796  24.039  24.185  1.00  0.00     0.007 A 
ATOM     12  C   UNL A   1      32.848  23.522  22.294  1.00  0.00     0.014 A 
ATOM     13  C   UNL A   1      34.341  25.061  23.341  1.00  0.00     0.014 A 
BRANCH   9  14
ATOM     14  C   UNL A   1      35.030  21.542  24.768  1.00  0.00     0.170 C 
ATOM     15  N   UNL A   1      34.060  20.519  25.239  1.00  0.00    -0.325 N 
ATOM     16  C   UNL A   1      33.228  20.898  26.395  1.00  0.00     0.181 C 
ATOM     17  C   UNL A   1      34.067  21.499  27.537  1.00  0.00     0.282 C 
ATOM     18  C   UNL A   1      35.850  22.023  26.006  1.00  0.00     0.290 C 
ATOM     19  N   UNL A   1      35.012  22.548  27.107  1.00  0.00    -0.343 N 
ATOM     20  H   UNL A   1      35.605  22.815  27.892  1.00  0.00     0.346 HD
ATOM     21  H   UNL A   1      34.494  23.365  26.783  1.00  0.00     0.346 HD
BRANCH  15  22
ATOM     22  C   UNL A   1      33.916  19.247  24.711  1.00  0.00     0.220 C 
ATOM     23  C   UNL A   1      32.519  18.777  24.399  1.00  0.00     0.114 C 
ATOM     24  O   UNL A   1      34.880  18.535  24.427  1.00  0.00    -0.275 OA
ENDBRANCH  15  22
ENDBRANCH   9  14
ENDBRANCH   5   8
ENDBRANCH   3   4
ENDBRANCH   2   3
ENDBRANCH   1   2
BRANCH   1  25
ATOM     25  C   UNL A   1      32.814  29.028  25.702  1.00  0.00     0.116 C 
BRANCH  25  26
ATOM     26  N   UNL A   1      32.321  30.339  26.091  1.00  0.00    -0.352 N 
ATOM     27  C   UNL A   1      32.909  31.240  26.951  1.00  0.00     0.251 C 
ATOM     28  H   UNL A   1      31.463  30.616  25.693  1.00  0.00     0.163 HD
ATOM     29  O   UNL A   1      32.325  32.266  27.268  1.00  0.00    -0.269 OA
BRANCH  27  30
ATOM     30  C   UNL A   1      34.233  30.912  27.522  1.00  0.00     0.039 A 
ATOM     31  C   UNL A   1      35.186  31.926  27.639  1.00  0.00     0.014 A 
ATOM     32  C   UNL A   1      34.500  29.627  28.001  1.00  0.00     0.014 A 
ATOM     33  C   UNL A   1      36.384  31.668  28.309  1.00  0.00     0.010 A 
ATOM     34  C   UNL A   1      35.666  29.391  28.723  1.00  0.00     0.010 A 
ATOM     35  C   UNL A   1      36.615  30.411  28.891  1.00  0.00    -0.014 A 
BRANCH  35  36
ATOM     36  C   UNL A   1      37.841  30.139  29.684  1.00  0.00     0.031 A 
ATOM     37  C   UNL A   1      38.903  29.231  29.128  1.00  0.00     0.074 A 
ATOM     38  C   UNL A   1      37.958  30.640  30.929  1.00  0.00     0.049 A 
ATOM     39  N   UNL A   1      39.987  28.777  29.701  1.00  0.00    -0.248 NA
ATOM     40  C   UNL A   1      38.696  28.745  27.756  1.00  0.00     0.031 C 
ATOM     41  C   UNL A   1      36.973  31.502  31.590  1.00  0.00     0.029 A 
ATOM     42  N   UNL A   1      38.946  30.489  31.869  1.00  0.00    -0.354 N 
ATOM     43  C   UNL A   1      40.585  27.939  28.767  1.00  0.00     0.074 A 
ATOM     44  C   UNL A   1      39.710  27.905  27.614  1.00  0.00     0.031 C 
ATOM     45  C   UNL A   1      37.416  31.813  32.819  1.00  0.00     0.029 A 
ATOM     46  C   UNL A   1      38.689  31.140  33.054  1.00  0.00     0.049 A 
ATOM     47  H   UNL A   1      39.762  29.961  31.710  1.00  0.00     0.167 HD
ATOM     48  C   UNL A   1      41.766  27.277  28.854  1.00  0.00     0.034 A 
ATOM     49  C   UNL A   1      39.394  31.178  34.202  1.00  0.00     0.034 A 
ATOM     50  C   UNL A   1      42.632  27.335  30.005  1.00  0.00     0.049 A 
ATOM     51  C   UNL A   1      40.695  30.421  34.282  1.00  0.00     0.074 A 
ATOM     52  C   UNL A   1      43.874  26.748  30.181  1.00  0.00     0.029 A 
ATOM     53  N   UNL A   1      42.348  28.019  31.181  1.00  0.00    -0.354 N 
ATOM     54  N   UNL A   1      41.270  29.667  33.373  1.00  0.00    -0.248 NA
ATOM     55  C   UNL A   1      41.449  30.528  35.539  1.00  0.00     0.031 C 
ATOM     56  C   UNL A   1      44.312  27.027  31.481  1.00  0.00     0.029 A 
ATOM     57  C   UNL A   1      43.376  27.847  32.094  1.00  0.00     0.049 A 
ATOM     58  H   UNL A   1      41.533  28.548  31.342  1.00  0.00     0.167 HD
ATOM     59  C   UNL A   1      42.467  29.238  33.939  1.00  0.00     0.074 A 
ATOM     60  C   UNL A   1      42.535  29.824  35.261  1.00  0.00     0.031 C 
ATOM     61  C   UNL A   1      43.427  28.436  33.411  1.00  0.00     0.034 A 
BRANCH  48  62
ATOM     62  C   UNL A   1      42.166  26.417  27.679  1.00  0.00     0.023 A 
ATOM     63  C   UNL A   1      41.726  25.087  27.556  1.00  0.00     0.031 A 
ATOM     64  C   UNL A   1      43.024  26.921  26.686  1.00  0.00     0.131 A 
ATOM     65  C   UNL A   1      42.208  24.284  26.512  1.00  0.00     0.055 A 
ATOM     66  C   UNL A   1      43.435  26.140  25.604  1.00  0.00     0.041 A 
ATOM     67  F   UNL A   1      43.493  28.177  26.760  1.00  0.00    -0.206 F 
ATOM     68  C   UNL A   1      43.040  24.808  25.520  1.00  0.00     0.022 A 
BRANCH  65  69
ATOM     69  S   UNL A   1      41.849  22.507  26.553  1.00  0.00     0.124 S 
ATOM     70  O   UNL A   1      40.390  22.500  26.502  1.00  0.00    -0.237 OA
ATOM     71  O   UNL A   1      42.532  22.019  25.359  1.00  0.00    -0.237 OA
ATOM     72  O   UNL A   1      42.424  22.070  27.823  1.00  0.00    -0.744 OA
ENDBRANCH  65  69
ENDBRANCH  48  62
BRANCH  49  73
ATOM     73  C   UNL A   1      38.889  31.947  35.375  1.00  0.00     0.023 A 
ATOM     74  C   UNL A   1      38.336  31.290  36.485  1.00  0.00     0.031 A 
ATOM     75  C   UNL A   1      38.912  33.353  35.384  1.00  0.00     0.131 A 
ATOM     76  C   UNL A   1      37.784  32.037  37.537  1.00  0.00     0.055 A 
ATOM     77  C   UNL A   1      38.408  34.092  36.456  1.00  0.00     0.041 A 
ATOM     78  F   UNL A   1      39.437  34.031  34.350  1.00  0.00    -0.206 F 
ATOM     79  C   UNL A   1      37.827  33.433  37.535  1.00  0.00     0.022 A 
BRANCH  76  80
ATOM     80  S   UNL A   1      36.933  31.155  38.874  1.00  0.00     0.124 S 
ATOM     81  O   UNL A   1      35.682  31.898  38.971  1.00  0.00    -0.237 OA
ATOM     82  O   UNL A   1      36.837  29.804  38.332  1.00  0.00    -0.237 OA
ATOM     83  O   UNL A   1      37.839  31.305  40.011  1.00  0.00    -0.744 OA
ENDBRANCH  76  80
ENDBRANCH  49  73
BRANCH  61  84
ATOM     84  C   UNL A   1      44.654  28.194  34.251  1.00  0.00     0.023 A 
ATOM     85  C   UNL A   1      44.751  27.097  35.125  1.00  0.00     0.031 A 
ATOM     86  C   UNL A   1      45.743  29.080  34.177  1.00  0.00     0.131 A 
ATOM     87  C   UNL A   1      45.892  26.941  35.925  1.00  0.00     0.055 A 
ATOM     88  C   UNL A   1      46.898  28.890  34.936  1.00  0.00     0.041 A 
ATOM     89  F   UNL A   1      45.702  30.145  33.359  1.00  0.00    -0.206 F 
ATOM     90  C   UNL A   1      46.972  27.821  35.824  1.00  0.00     0.022 A 
BRANCH  87  91
ATOM     91  S   UNL A   1      45.917  25.611  37.158  1.00  0.00     0.124 S 
ATOM     92  O   UNL A   1      44.587  25.716  37.747  1.00  0.00    -0.237 OA
ATOM     93  O   UNL A   1      46.157  24.428  36.337  1.00  0.00    -0.237 OA
ATOM     94  O   UNL A   1      47.020  25.983  38.043  1.00  0.00    -0.744 OA
ENDBRANCH  87  91
ENDBRANCH  61  84
ENDBRANCH  35  36
ENDBRANCH  27  30
ENDBRANCH  25  26
ENDBRANCH   1  25
TORSDOF 16
ENDMDL
MODEL 2
REMARK VINA RESULT:     -12.1      5.087     10.379
REMARK SMILES CC(=O)N1CC[NH2+]C[C@@H]1c1ccc(C(=O)NCCCCNC(=O)c2ccc(-c3c4nc(c(-c5cc(S(=O)(=O)[O-])ccc5F)c5ccc([nH]5)c(-c5cc(S(=O)(=O)[O-])ccc5F)c5nc(c(-c6cc(S(=O)(=O)[O-])ccc6F)c6ccc3[nH]6)C=C5)C=C4)cc2)cc1
REMARK SMILES IDX 19 1 18 2 17 3 16 4 14 5 15 6 13 8 10 9 11 10 88 11 12 12
REMARK SMILES IDX 87 13 9 14 4 15 5 16 6 17 8 18 7 19 2 22 1 23 3 24 20 25
REMARK SMILES IDX 21 26 22 27 23 29 24 30 25 31 86 32 26 33 85 34 27 35 28 36
REMARK SMILES IDX 29 37 79 38 30 39 84 40 78 41 80 42 31 43 83 44 77 45 76 46
REMARK SMILES IDX 32 48 64 49 44 50 63 51 45 52 48 53 62 54 81 55 46 56 47 57
REMARK SMILES IDX 61 59 82 60 49 61 33 62 34 63 42 64 35 65 41 66 43 67 40 68
REMARK SMILES IDX 36 69 37 70 38 71 39 72 65 73 66 74 74 75 67 76 73 77 75 78
REMARK SMILES IDX 72 79 68 80 69 81 70 82 71 83 50 84 51 85 59 86 52 87 58 88
REMARK SMILES IDX 60 89 57 90 53 91 54 92 55 93 56 94
REMARK H PARENT 16 7 7 20 7 21 21 28 80 47 48 58
REMARK Flexibility Score: inf
ROOT
ATOM      1  C   UNL A   1      35.566  22.037  24.336  1.00  0.00     0.023 C 
ENDROOT
BRANCH   1   2
ATOM      2  C   UNL A   1      34.051  21.988  24.557  1.00  0.00     0.023 C 
BRANCH   2   3
ATOM      3  C   UNL A   1      33.639  21.708  26.005  1.00  0.00     0.116 C 
BRANCH   3   4
ATOM      4  N   UNL A   1      32.199  21.621  26.135  1.00  0.00    -0.352 N 
ATOM      5  C   UNL A   1      31.190  22.542  26.008  1.00  0.00     0.251 C 
ATOM      6  O   UNL A   1      30.038  22.123  26.136  1.00  0.00    -0.269 OA
ATOM      7  H   UNL A   1      31.878  20.718  26.359  1.00  0.00     0.163 HD
BRANCH   5   8
ATOM      8  C   UNL A   1      31.391  23.999  25.733  1.00  0.00     0.039 A 
ATOM      9  C   UNL A   1      31.443  26.802  25.168  1.00  0.00    -0.020 A 
ATOM     10  C   UNL A   1      30.761  25.905  24.330  1.00  0.00     0.007 A 
ATOM     11  C   UNL A   1      32.192  26.249  26.212  1.00  0.00     0.007 A 
ATOM     12  C   UNL A   1      30.738  24.531  24.610  1.00  0.00     0.014 A 
ATOM     13  C   UNL A   1      32.121  24.885  26.522  1.00  0.00     0.014 A 
BRANCH   9  14
ATOM     14  C   UNL A   1      31.316  28.319  24.955  1.00  0.00     0.170 C 
ATOM     15  N   UNL A   1      31.140  28.709  23.532  1.00  0.00    -0.325 N 
ATOM     16  C   UNL A   1      32.338  28.606  22.680  1.00  0.00     0.181 C 
ATOM     17  C   UNL A   1      33.569  29.261  23.333  1.00  0.00     0.282 C 
ATOM     18  C   UNL A   1      32.554  29.092  25.510  1.00  0.00     0.290 C 
ATOM     19  N   UNL A   1      33.793  28.862  24.736  1.00  0.00    -0.343 N 
ATOM     20  H   UNL A   1      34.552  29.416  25.131  1.00  0.00     0.346 HD
ATOM     21  H   UNL A   1      34.043  27.874  24.776  1.00  0.00     0.346 HD
BRANCH  15  22
ATOM     22  C   UNL A   1      29.971  29.193  22.972  1.00  0.00     0.220 C 
ATOM     23  C   UNL A   1      29.380  30.444  23.568  1.00  0.00     0.114 C 
ATOM     24  O   UNL A   1      29.453  28.684  21.977  1.00  0.00    -0.275 OA
ENDBRANCH  15  22
ENDBRANCH   9  14
ENDBRANCH   5   8
ENDBRANCH   3   4
ENDBRANCH   2   3
ENDBRANCH   1   2
BRANCH   1  25
ATOM     25  C   UNL A   1      36.396  21.831  25.600  1.00  0.00     0.116 C 
BRANCH  25  26
ATOM     26  N   UNL A   1      37.369  20.757  25.483  1.00  0.00    -0.352 N 
ATOM     27  C   UNL A   1      38.716  20.806  25.765  1.00  0.00     0.251 C 
ATOM     28  H   UNL A   1      37.023  19.891  25.164  1.00  0.00     0.163 HD
ATOM     29  O   UNL A   1      39.436  19.849  25.518  1.00  0.00    -0.269 OA
BRANCH  27  30
ATOM     30  C   UNL A   1      39.278  22.057  26.317  1.00  0.00     0.039 A 
ATOM     31  C   UNL A   1      40.344  21.977  27.215  1.00  0.00     0.014 A 
ATOM     32  C   UNL A   1      38.798  23.298  25.893  1.00  0.00     0.014 A 
ATOM     33  C   UNL A   1      40.981  23.149  27.631  1.00  0.00     0.010 A 
ATOM     34  C   UNL A   1      39.474  24.458  26.258  1.00  0.00     0.010 A 
ATOM     35  C   UNL A   1      40.577  24.394  27.124  1.00  0.00    -0.014 A 
BRANCH  35  36
ATOM     36  C   UNL A   1      41.293  25.645  27.481  1.00  0.00     0.031 A 
ATOM     37  C   UNL A   1      40.592  26.702  28.289  1.00  0.00     0.074 A 
ATOM     38  C   UNL A   1      42.538  25.861  27.011  1.00  0.00     0.049 A 
ATOM     39  N   UNL A   1      40.996  27.904  28.608  1.00  0.00    -0.248 NA
ATOM     40  C   UNL A   1      39.244  26.370  28.772  1.00  0.00     0.031 C 
ATOM     41  C   UNL A   1      43.304  24.924  26.184  1.00  0.00     0.029 A 
ATOM     42  N   UNL A   1      43.373  26.941  27.147  1.00  0.00    -0.354 N 
ATOM     43  C   UNL A   1      39.947  28.480  29.315  1.00  0.00     0.074 A 
ATOM     44  C   UNL A   1      38.869  27.513  29.326  1.00  0.00     0.031 C 
ATOM     45  C   UNL A   1      44.500  25.466  25.901  1.00  0.00     0.029 A 
ATOM     46  C   UNL A   1      44.572  26.801  26.485  1.00  0.00     0.049 A 
ATOM     47  H   UNL A   1      43.136  27.742  27.668  1.00  0.00     0.167 HD
ATOM     48  C   UNL A   1      39.896  29.693  29.920  1.00  0.00     0.034 A 
ATOM     49  C   UNL A   1      45.603  27.658  26.352  1.00  0.00     0.034 A 
ATOM     50  C   UNL A   1      40.986  30.637  29.912  1.00  0.00     0.049 A 
ATOM     51  C   UNL A   1      45.518  29.008  27.018  1.00  0.00     0.074 A 
ATOM     52  C   UNL A   1      41.062  31.871  30.535  1.00  0.00     0.029 A 
ATOM     53  N   UNL A   1      42.191  30.454  29.246  1.00  0.00    -0.354 N 
ATOM     54  N   UNL A   1      44.534  29.522  27.721  1.00  0.00    -0.248 NA
ATOM     55  C   UNL A   1      46.684  29.890  26.882  1.00  0.00     0.031 C 
ATOM     56  C   UNL A   1      42.288  32.458  30.197  1.00  0.00     0.029 A 
ATOM     57  C   UNL A   1      43.005  31.562  29.420  1.00  0.00     0.049 A 
ATOM     58  H   UNL A   1      42.431  29.654  28.725  1.00  0.00     0.167 HD
ATOM     59  C   UNL A   1      44.980  30.773  28.137  1.00  0.00     0.074 A 
ATOM     60  C   UNL A   1      46.321  30.932  27.614  1.00  0.00     0.031 C 
ATOM     61  C   UNL A   1      44.340  31.705  28.888  1.00  0.00     0.034 A 
BRANCH  48  62
ATOM     62  C   UNL A   1      38.607  30.067  30.613  1.00  0.00     0.023 A 
ATOM     63  C   UNL A   1      37.603  30.799  29.955  1.00  0.00     0.031 A 
ATOM     64  C   UNL A   1      38.394  29.718  31.958  1.00  0.00     0.131 A 
ATOM     65  C   UNL A   1      36.470  31.226  30.663  1.00  0.00     0.055 A 
ATOM     66  C   UNL A   1      37.225  30.076  32.634  1.00  0.00     0.041 A 
ATOM     67  F   UNL A   1      39.325  29.037  32.644  1.00  0.00    -0.206 F 
ATOM     68  C   UNL A   1      36.262  30.848  31.992  1.00  0.00     0.022 A 
BRANCH  65  69
ATOM     69  S   UNL A   1      35.346  32.404  29.866  1.00  0.00     0.124 S 
ATOM     70  O   UNL A   1      34.826  31.610  28.756  1.00  0.00    -0.237 OA
ATOM     71  O   UNL A   1      34.398  32.708  30.932  1.00  0.00    -0.237 OA
ATOM     72  O   UNL A   1      36.223  33.506  29.478  1.00  0.00    -0.744 OA
ENDBRANCH  65  69
ENDBRANCH  48  62
BRANCH  49  73
ATOM     73  C   UNL A   1      46.803  27.281  25.552  1.00  0.00     0.023 A 
ATOM     74  C   UNL A   1      46.980  27.760  24.246  1.00  0.00     0.031 A 
ATOM     75  C   UNL A   1      47.769  26.398  26.068  1.00  0.00     0.131 A 
ATOM     76  C   UNL A   1      48.069  27.320  23.479  1.00  0.00     0.055 A 
ATOM     77  C   UNL A   1      48.879  26.001  25.319  1.00  0.00     0.041 A 
ATOM     78  F   UNL A   1      47.652  25.915  27.315  1.00  0.00    -0.206 F 
ATOM     79  C   UNL A   1      49.026  26.453  24.011  1.00  0.00     0.022 A 
BRANCH  76  80
ATOM     80  S   UNL A   1      48.173  27.833  21.743  1.00  0.00     0.124 S 
ATOM     81  O   UNL A   1      49.319  28.735  21.767  1.00  0.00    -0.237 OA
ATOM     82  O   UNL A   1      48.374  26.559  21.062  1.00  0.00    -0.237 OA
ATOM     83  O   UNL A   1      46.881  28.471  21.499  1.00  0.00    -0.744 OA
ENDBRANCH  76  80
ENDBRANCH  49  73
BRANCH  61  84
ATOM     84  C   UNL A   1      45.111  32.955  29.229  1.00  0.00     0.023 A 
ATOM     85  C   UNL A   1      44.993  34.130  28.466  1.00  0.00     0.031 A 
ATOM     86  C   UNL A   1      45.978  32.966  30.335  1.00  0.00     0.131 A 
ATOM     87  C   UNL A   1      45.769  35.252  28.791  1.00  0.00     0.055 A 
ATOM     88  C   UNL A   1      46.706  34.104  30.686  1.00  0.00     0.041 A 
ATOM     89  F   UNL A   1      46.127  31.870  31.098  1.00  0.00    -0.206 F 
ATOM     90  C   UNL A   1      46.612  35.252  29.905  1.00  0.00     0.022 A 
BRANCH  87  91
ATOM     91  S   UNL A   1      45.718  36.695  27.693  1.00  0.00     0.124 S 
ATOM     92  O   UNL A   1      45.699  37.801  28.644  1.00  0.00    -0.237 OA
ATOM     93  O   UNL A   1      46.947  36.543  26.920  1.00  0.00    -0.237 OA
ATOM     94  O   UNL A   1      44.483  36.507  26.934  1.00  0.00    -0.744 OA
ENDBRANCH  87  91
ENDBRANCH  61  84
ENDBRANCH  35  36
ENDBRANCH  27  30
ENDBRANCH  25  26
ENDBRANCH   1  25
TORSDOF 16
ENDMDL
MODEL 3
REMARK VINA RESULT:     -12.0      2.378      3.185
REMARK SMILES CC(=O)N1CC[NH2+]C[C@@H]1c1ccc(C(=O)NCCCCNC(=O)c2ccc(-c3c4nc(c(-c5cc(S(=O)(=O)[O-])ccc5F)c5ccc([nH]5)c(-c5cc(S(=O)(=O)[O-])ccc5F)c5nc(c(-c6cc(S(=O)(=O)[O-])ccc6F)c6ccc3[nH]6)C=C5)C=C4)cc2)cc1
REMARK SMILES IDX 19 1 18 2 17 3 16 4 14 5 15 6 13 8 10 9 11 10 88 11 12 12
REMARK SMILES IDX 87 13 9 14 4 15 5 16 6 17 8 18 7 19 2 22 1 23 3 24 20 25
REMARK SMILES IDX 21 26 22 27 23 29 24 30 25 31 86 32 26 33 85 34 27 35 28 36
REMARK SMILES IDX 29 37 79 38 30 39 84 40 78 41 80 42 31 43 83 44 77 45 76 46
REMARK SMILES IDX 32 48 64 49 44 50 63 51 45 52 48 53 62 54 81 55 46 56 47 57
REMARK SMILES IDX 61 59 82 60 49 61 33 62 34 63 42 64 35 65 41 66 43 67 40 68
REMARK SMILES IDX 36 69 37 70 38 71 39 72 65 73 66 74 74 75 67 76 73 77 75 78
REMARK SMILES IDX 72 79 68 80 69 81 70 82 71 83 50 84 51 85 59 86 52 87 58 88
REMARK SMILES IDX 60 89 57 90 53 91 54 92 55 93 56 94
REMARK H PARENT 16 7 7 20 7 21 21 28 80 47 48 58
REMARK Flexibility Score: inf
ROOT
ATOM      1  C   UNL A   1      31.396  32.201  26.655  1.00  0.00     0.023 C 
ENDROOT
BRANCH   1   2
ATOM      2  C   UNL A   1      31.494  30.673  26.625  1.00  0.00     0.023 C 
BRANCH   2   3
ATOM      3  C   UNL A   1      32.235  30.117  25.405  1.00  0.00     0.116 C 
BRANCH   3   4
ATOM      4  N   UNL A   1      31.308  29.683  24.380  1.00  0.00    -0.352 N 
ATOM      5  C   UNL A   1      30.862  28.448  23.983  1.00  0.00     0.251 C 
ATOM      6  O   UNL A   1      30.014  28.425  23.089  1.00  0.00    -0.269 OA
ATOM      7  H   UNL A   1      30.919  30.424  23.862  1.00  0.00     0.163 HD
BRANCH   5   8
ATOM      8  C   UNL A   1      31.332  27.145  24.551  1.00  0.00     0.039 A 
ATOM      9  C   UNL A   1      32.539  24.763  25.572  1.00  0.00    -0.020 A 
ATOM     10  C   UNL A   1      32.891  25.272  24.312  1.00  0.00     0.007 A 
ATOM     11  C   UNL A   1      31.491  25.400  26.243  1.00  0.00     0.007 A 
ATOM     12  C   UNL A   1      32.297  26.441  23.814  1.00  0.00     0.014 A 
ATOM     13  C   UNL A   1      30.939  26.598  25.770  1.00  0.00     0.014 A 
BRANCH   9  14
ATOM     14  C   UNL A   1      33.320  23.588  26.184  1.00  0.00     0.170 C 
ATOM     15  N   UNL A   1      34.064  22.781  25.183  1.00  0.00    -0.325 N 
ATOM     16  C   UNL A   1      33.249  21.901  24.326  1.00  0.00     0.181 C 
ATOM     17  C   UNL A   1      32.246  21.066  25.143  1.00  0.00     0.282 C 
ATOM     18  C   UNL A   1      32.388  22.619  26.978  1.00  0.00     0.290 C 
ATOM     19  N   UNL A   1      31.463  21.848  26.119  1.00  0.00    -0.343 N 
ATOM     20  H   UNL A   1      30.907  21.216  26.694  1.00  0.00     0.346 HD
ATOM     21  H   UNL A   1      30.840  22.488  25.625  1.00  0.00     0.346 HD
BRANCH  15  22
ATOM     22  C   UNL A   1      35.440  22.761  25.031  1.00  0.00     0.220 C 
ATOM     23  C   UNL A   1      36.212  23.954  25.530  1.00  0.00     0.114 C 
ATOM     24  O   UNL A   1      36.042  21.787  24.576  1.00  0.00    -0.275 OA
ENDBRANCH  15  22
ENDBRANCH   9  14
ENDBRANCH   5   8
ENDBRANCH   3   4
ENDBRANCH   2   3
ENDBRANCH   1   2
BRANCH   1  25
ATOM     25  C   UNL A   1      32.688  32.910  27.050  1.00  0.00     0.116 C 
BRANCH  25  26
ATOM     26  N   UNL A   1      32.469  34.194  27.695  1.00  0.00    -0.352 N 
ATOM     27  C   UNL A   1      33.178  34.744  28.740  1.00  0.00     0.251 C 
ATOM     28  H   UNL A   1      31.725  34.735  27.342  1.00  0.00     0.163 HD
ATOM     29  O   UNL A   1      32.813  35.792  29.253  1.00  0.00    -0.269 OA
BRANCH  27  30
ATOM     30  C   UNL A   1      34.351  34.012  29.262  1.00  0.00     0.039 A 
ATOM     31  C   UNL A   1      35.629  34.434  28.890  1.00  0.00     0.014 A 
ATOM     32  C   UNL A   1      34.187  32.960  30.167  1.00  0.00     0.014 A 
ATOM     33  C   UNL A   1      36.748  33.849  29.487  1.00  0.00     0.010 A 
ATOM     34  C   UNL A   1      35.299  32.425  30.808  1.00  0.00     0.010 A 
ATOM     35  C   UNL A   1      36.589  32.869  30.480  1.00  0.00    -0.014 A 
BRANCH  35  36
ATOM     36  C   UNL A   1      37.759  32.294  31.194  1.00  0.00     0.031 A 
ATOM     37  C   UNL A   1      38.509  31.141  30.589  1.00  0.00     0.074 A 
ATOM     38  C   UNL A   1      38.090  32.756  32.416  1.00  0.00     0.049 A 
ATOM     39  N   UNL A   1      39.479  30.426  31.096  1.00  0.00    -0.248 NA
ATOM     40  C   UNL A   1      38.086  30.717  29.246  1.00  0.00     0.031 C 
ATOM     41  C   UNL A   1      37.409  33.846  33.121  1.00  0.00     0.029 A 
ATOM     42  N   UNL A   1      39.071  32.360  33.289  1.00  0.00    -0.354 N 
ATOM     43  C   UNL A   1      39.773  29.457  30.144  1.00  0.00     0.074 A 
ATOM     44  C   UNL A   1      38.838  29.643  29.055  1.00  0.00     0.031 C 
ATOM     45  C   UNL A   1      38.005  34.039  34.310  1.00  0.00     0.029 A 
ATOM     46  C   UNL A   1      39.076  33.062  34.473  1.00  0.00     0.049 A 
ATOM     47  H   UNL A   1      39.711  31.639  33.088  1.00  0.00     0.167 HD
ATOM     48  C   UNL A   1      40.748  28.513  30.167  1.00  0.00     0.034 A 
ATOM     49  C   UNL A   1      39.848  32.924  35.569  1.00  0.00     0.034 A 
ATOM     50  C   UNL A   1      41.681  28.353  31.254  1.00  0.00     0.049 A 
ATOM     51  C   UNL A   1      40.914  31.858  35.578  1.00  0.00     0.074 A 
ATOM     52  C   UNL A   1      42.740  27.467  31.358  1.00  0.00     0.029 A 
ATOM     53  N   UNL A   1      41.667  29.094  32.429  1.00  0.00    -0.354 N 
ATOM     54  N   UNL A   1      41.209  30.976  34.650  1.00  0.00    -0.248 NA
ATOM     55  C   UNL A   1      41.759  31.774  36.777  1.00  0.00     0.031 C 
ATOM     56  C   UNL A   1      43.327  27.632  32.619  1.00  0.00     0.029 A 
ATOM     57  C   UNL A   1      42.680  28.668  33.274  1.00  0.00     0.049 A 
ATOM     58  H   UNL A   1      41.029  29.816  32.633  1.00  0.00     0.167 HD
ATOM     59  C   UNL A   1      42.293  30.257  35.143  1.00  0.00     0.074 A 
ATOM     60  C   UNL A   1      42.605  30.813  36.443  1.00  0.00     0.031 C 
ATOM     61  C   UNL A   1      42.975  29.231  34.570  1.00  0.00     0.034 A 
BRANCH  48  62
ATOM     62  C   UNL A   1      40.828  27.573  28.988  1.00  0.00     0.023 A 
ATOM     63  C   UNL A   1      41.790  27.742  27.976  1.00  0.00     0.031 A 
ATOM     64  C   UNL A   1      39.912  26.516  28.855  1.00  0.00     0.131 A 
ATOM     65  C   UNL A   1      41.763  26.918  26.840  1.00  0.00     0.055 A 
ATOM     66  C   UNL A   1      39.943  25.648  27.761  1.00  0.00     0.041 A 
ATOM     67  F   UNL A   1      38.958  26.317  29.779  1.00  0.00    -0.206 F 
ATOM     68  C   UNL A   1      40.862  25.857  26.737  1.00  0.00     0.022 A 
BRANCH  65  69
ATOM     69  S   UNL A   1      42.826  27.350  25.436  1.00  0.00     0.124 S 
ATOM     70  O   UNL A   1      42.902  26.077  24.723  1.00  0.00    -0.237 OA
ATOM     71  O   UNL A   1      42.066  28.406  24.777  1.00  0.00    -0.237 OA
ATOM     72  O   UNL A   1      44.072  27.778  26.067  1.00  0.00    -0.744 OA
ENDBRANCH  65  69
ENDBRANCH  48  62
BRANCH  49  73
ATOM     73  C   UNL A   1      39.643  33.803  36.755  1.00  0.00     0.023 A 
ATOM     74  C   UNL A   1      39.048  33.310  37.926  1.00  0.00     0.031 A 
ATOM     75  C   UNL A   1      40.000  35.163  36.718  1.00  0.00     0.131 A 
ATOM     76  C   UNL A   1      38.783  34.178  38.996  1.00  0.00     0.055 A 
ATOM     77  C   UNL A   1      39.780  36.013  37.804  1.00  0.00     0.041 A 
ATOM     78  F   UNL A   1      40.579  35.685  35.625  1.00  0.00    -0.206 F 
ATOM     79  C   UNL A   1      39.155  35.523  38.948  1.00  0.00     0.022 A 
BRANCH  76  80
ATOM     80  S   UNL A   1      37.866  33.539  40.424  1.00  0.00     0.124 S 
ATOM     81  O   UNL A   1      36.633  33.072  39.802  1.00  0.00    -0.237 OA
ATOM     82  O   UNL A   1      38.765  32.503  40.922  1.00  0.00    -0.237 OA
ATOM     83  O   UNL A   1      37.726  34.708  41.289  1.00  0.00    -0.744 OA
ENDBRANCH  76  80
ENDBRANCH  49  73
BRANCH  61  84
ATOM     84  C   UNL A   1      44.157  28.686  35.330  1.00  0.00     0.023 A 
ATOM     85  C   UNL A   1      44.023  27.636  36.255  1.00  0.00     0.031 A 
ATOM     86  C   UNL A   1      45.436  29.231  35.125  1.00  0.00     0.131 A 
ATOM     87  C   UNL A   1      45.143  27.196  36.976  1.00  0.00     0.055 A 
ATOM     88  C   UNL A   1      46.556  28.753  35.807  1.00  0.00     0.041 A 
ATOM     89  F   UNL A   1      45.619  30.237  34.253  1.00  0.00    -0.206 F 
ATOM     90  C   UNL A   1      46.410  27.736  36.746  1.00  0.00     0.022 A 
BRANCH  87  91
ATOM     91  S   UNL A   1      44.909  25.954  38.277  1.00  0.00     0.124 S 
ATOM     92  O   UNL A   1      44.010  25.002  37.632  1.00  0.00    -0.237 OA
ATOM     93  O   UNL A   1      46.271  25.485  38.511  1.00  0.00    -0.237 OA
ATOM     94  O   UNL A   1      44.320  26.715  39.378  1.00  0.00    -0.744 OA
ENDBRANCH  87  91
ENDBRANCH  61  84
ENDBRANCH  35  36
ENDBRANCH  27  30
ENDBRANCH  25  26
ENDBRANCH   1  25
TORSDOF 16
ENDMDL
