MODEL 1
REMARK VINA RESULT:      -8.4      0.000      0.000
REMARK SMILES CC1CC[NH+]([C@H](c2ccc(F)cc2)c2ccc([C@@H](C)C(=O)NCCCCNC(=O)c3ccc(-c4c5nc(c(-c6cc(S(=O)(=O)[O-])ccc6F)c6ccc([nH]6)c(-c6cc(S(=O)(=O)[O-])ccc6F)c6nc(c(-c7cc(S(=O)(=O)[O-])ccc7F)c7ccc4[nH]7)C=C6)C=C5)cc3)cc2-c2ccc(C(F)(F)F)cc2)CC1
REMARK SMILES IDX 24 1 23 2 22 3 20 4 21 5 18 7 19 8 17 9 14 10 15 11 94 12
REMARK SMILES IDX 16 13 93 14 6 15 5 16 1 17 2 18 3 19 106 20 4 21 105 22 7 24
REMARK SMILES IDX 8 25 13 26 9 27 12 28 10 29 11 30 95 31 96 32 104 33 97 34
REMARK SMILES IDX 103 35 98 36 99 37 100 38 101 39 102 40 25 41 26 42 27 43
REMARK SMILES IDX 28 44 29 46 30 47 31 48 92 49 32 50 91 51 33 52 34 53 35 54
REMARK SMILES IDX 85 55 36 56 90 57 84 58 86 59 37 60 89 61 83 62 82 63 38 65
REMARK SMILES IDX 70 66 50 67 69 68 51 69 54 70 68 71 87 72 52 73 53 74 67 76
REMARK SMILES IDX 88 77 55 78 39 79 40 80 48 81 41 82 47 83 49 84 46 85 42 86
REMARK SMILES IDX 43 87 44 88 45 89 71 90 72 91 80 92 73 93 79 94 81 95 78 96
REMARK SMILES IDX 74 97 75 98 76 99 77 100 56 101 57 102 65 103 58 104 64 105
REMARK SMILES IDX 66 106 63 107 59 108 60 109 61 110 62 111
REMARK H PARENT 22 6 5 23 27 45 86 64 54 75
REMARK Flexibility Score: inf
ROOT
ATOM      1  C   UNL A   1      50.958  38.106  30.201  1.00  0.00     0.023 C 
ENDROOT
BRANCH   1   2
ATOM      2  C   UNL A   1      50.169  39.144  29.396  1.00  0.00     0.116 C 
BRANCH   2   3
ATOM      3  N   UNL A   1      50.095  38.804  27.986  1.00  0.00    -0.356 N 
ATOM      4  C   UNL A   1      49.355  37.897  27.290  1.00  0.00     0.227 C 
ATOM      5  O   UNL A   1      49.583  37.829  26.074  1.00  0.00    -0.274 OA
ATOM      6  H   UNL A   1      50.701  39.335  27.421  1.00  0.00     0.163 HD
BRANCH   4   7
ATOM      7  C   UNL A   1      48.275  36.985  27.906  1.00  0.00     0.105 C 
ATOM      8  C   UNL A   1      48.082  35.660  27.171  1.00  0.00     0.023 C 
BRANCH   7   9
ATOM      9  C   UNL A   1      46.998  37.725  28.263  1.00  0.00    -0.035 A 
ATOM     10  C   UNL A   1      44.838  39.511  28.871  1.00  0.00     0.022 A 
ATOM     11  C   UNL A   1      45.059  38.992  27.584  1.00  0.00     0.011 A 
ATOM     12  C   UNL A   1      45.630  38.954  29.914  1.00  0.00    -0.009 A 
ATOM     13  C   UNL A   1      46.054  38.057  27.308  1.00  0.00     0.005 A 
ATOM     14  C   UNL A   1      46.744  38.143  29.576  1.00  0.00     0.013 A 
BRANCH  10  15
ATOM     15  C   UNL A   1      43.739  40.587  29.124  1.00  0.00     0.247 C 
BRANCH  15  16
ATOM     16  N   UNL A   1      43.105  41.249  27.935  1.00  0.00    -0.325 N 
ATOM     17  C   UNL A   1      41.964  41.710  23.708  1.00  0.00     0.008 C 
ATOM     18  C   UNL A   1      42.502  41.260  25.063  1.00  0.00    -0.003 C 
ATOM     19  C   UNL A   1      41.378  41.003  26.066  1.00  0.00     0.065 C 
ATOM     20  C   UNL A   1      43.411  42.319  25.669  1.00  0.00     0.065 C 
ATOM     21  C   UNL A   1      41.898  40.577  27.447  1.00  0.00     0.263 C 
ATOM     22  C   UNL A   1      44.045  41.793  26.953  1.00  0.00     0.263 C 
ATOM     23  H   UNL A   1      42.708  42.120  28.287  1.00  0.00     0.348 HD
ENDBRANCH  15  16
BRANCH  15  24
ATOM     24  C   UNL A   1      44.145  41.662  30.157  1.00  0.00     0.014 A 
ATOM     25  C   UNL A   1      43.313  42.007  31.242  1.00  0.00     0.013 A 
ATOM     26  C   UNL A   1      45.381  42.324  30.026  1.00  0.00     0.013 A 
ATOM     27  C   UNL A   1      43.705  42.980  32.163  1.00  0.00     0.040 A 
ATOM     28  C   UNL A   1      45.759  43.316  30.932  1.00  0.00     0.040 A 
ATOM     29  C   UNL A   1      44.920  43.631  31.994  1.00  0.00     0.123 A 
ATOM     30  F   UNL A   1      45.289  44.579  32.866  1.00  0.00    -0.207 F 
ENDBRANCH  15  24
ENDBRANCH  10  15
BRANCH  12  31
ATOM     31  C   UNL A   1      45.313  39.102  31.349  1.00  0.00    -0.018 A 
ATOM     32  C   UNL A   1      46.194  39.733  32.241  1.00  0.00     0.009 A 
ATOM     33  C   UNL A   1      44.131  38.548  31.868  1.00  0.00     0.009 A 
ATOM     34  C   UNL A   1      45.886  39.834  33.602  1.00  0.00     0.014 A 
ATOM     35  C   UNL A   1      43.818  38.652  33.226  1.00  0.00     0.014 A 
ATOM     36  C   UNL A   1      44.690  39.302  34.107  1.00  0.00     0.056 A 
BRANCH  36  37
ATOM     37  C   UNL A   1      44.371  39.406  35.576  1.00  0.00     0.416 C 
ATOM     38  F   UNL A   1      45.423  39.047  36.364  1.00  0.00    -0.166 F 
ATOM     39  F   UNL A   1      44.032  40.669  35.960  1.00  0.00    -0.166 F 
ATOM     40  F   UNL A   1      43.332  38.611  35.964  1.00  0.00    -0.166 F 
ENDBRANCH  36  37
ENDBRANCH  12  31
ENDBRANCH   7   9
ENDBRANCH   4   7
ENDBRANCH   2   3
ENDBRANCH   1   2
BRANCH   1  41
ATOM     41  C   UNL A   1      50.165  37.333  31.251  1.00  0.00     0.023 C 
BRANCH  41  42
ATOM     42  C   UNL A   1      50.824  36.056  31.753  1.00  0.00     0.116 C 
BRANCH  42  43
ATOM     43  N   UNL A   1      51.473  36.187  33.048  1.00  0.00    -0.352 N 
ATOM     44  C   UNL A   1      50.898  36.134  34.303  1.00  0.00     0.251 C 
ATOM     45  H   UNL A   1      52.447  36.334  33.027  1.00  0.00     0.163 HD
ATOM     46  O   UNL A   1      51.576  36.336  35.295  1.00  0.00    -0.269 OA
BRANCH  44  47
ATOM     47  C   UNL A   1      49.442  35.884  34.412  1.00  0.00     0.039 A 
ATOM     48  C   UNL A   1      48.578  36.979  34.496  1.00  0.00     0.014 A 
ATOM     49  C   UNL A   1      48.930  34.585  34.358  1.00  0.00     0.014 A 
ATOM     50  C   UNL A   1      47.198  36.772  34.431  1.00  0.00     0.010 A 
ATOM     51  C   UNL A   1      47.561  34.388  34.209  1.00  0.00     0.010 A 
ATOM     52  C   UNL A   1      46.682  35.480  34.235  1.00  0.00    -0.014 A 
BRANCH  52  53
ATOM     53  C   UNL A   1      45.228  35.257  34.032  1.00  0.00     0.031 A 
ATOM     54  C   UNL A   1      44.656  35.193  32.644  1.00  0.00     0.074 A 
ATOM     55  C   UNL A   1      44.414  35.172  35.103  1.00  0.00     0.049 A 
ATOM     56  N   UNL A   1      43.412  35.052  32.269  1.00  0.00    -0.248 NA
ATOM     57  C   UNL A   1      45.608  35.337  31.531  1.00  0.00     0.031 C 
ATOM     58  C   UNL A   1      44.844  35.269  36.500  1.00  0.00     0.029 A 
ATOM     59  N   UNL A   1      43.059  34.975  35.186  1.00  0.00    -0.354 N 
ATOM     60  C   UNL A   1      43.427  35.098  30.880  1.00  0.00     0.074 A 
ATOM     61  C   UNL A   1      44.797  35.347  30.484  1.00  0.00     0.031 C 
ATOM     62  C   UNL A   1      43.782  35.081  37.300  1.00  0.00     0.029 A 
ATOM     63  C   UNL A   1      42.592  34.890  36.476  1.00  0.00     0.049 A 
ATOM     64  H   UNL A   1      42.476  34.903  34.396  1.00  0.00     0.167 HD
ATOM     65  C   UNL A   1      42.400  34.919  30.014  1.00  0.00     0.034 A 
ATOM     66  C   UNL A   1      41.348  34.675  36.946  1.00  0.00     0.034 A 
ATOM     67  C   UNL A   1      41.044  34.653  30.422  1.00  0.00     0.049 A 
ATOM     68  C   UNL A   1      40.218  34.492  35.973  1.00  0.00     0.074 A 
ATOM     69  C   UNL A   1      39.937  34.410  29.628  1.00  0.00     0.029 A 
ATOM     70  N   UNL A   1      40.608  34.596  31.739  1.00  0.00    -0.354 N 
ATOM     71  N   UNL A   1      40.250  34.525  34.662  1.00  0.00    -0.248 NA
ATOM     72  C   UNL A   1      38.885  34.243  36.539  1.00  0.00     0.031 C 
ATOM     73  C   UNL A   1      38.824  34.257  30.461  1.00  0.00     0.029 A 
ATOM     74  C   UNL A   1      39.245  34.344  31.779  1.00  0.00     0.049 A 
ATOM     75  H   UNL A   1      41.182  34.718  32.530  1.00  0.00     0.167 HD
ATOM     76  C   UNL A   1      38.948  34.280  34.243  1.00  0.00     0.074 A 
ATOM     77  C   UNL A   1      38.150  34.107  35.442  1.00  0.00     0.031 C 
ATOM     78  C   UNL A   1      38.461  34.192  32.980  1.00  0.00     0.034 A 
BRANCH  65  79
ATOM     79  C   UNL A   1      42.713  35.020  28.543  1.00  0.00     0.023 A 
ATOM     80  C   UNL A   1      43.287  33.945  27.842  1.00  0.00     0.031 A 
ATOM     81  C   UNL A   1      42.462  36.210  27.838  1.00  0.00     0.131 A 
ATOM     82  C   UNL A   1      43.661  34.105  26.500  1.00  0.00     0.055 A 
ATOM     83  C   UNL A   1      42.765  36.336  26.481  1.00  0.00     0.041 A 
ATOM     84  F   UNL A   1      41.934  37.275  28.461  1.00  0.00    -0.206 F 
ATOM     85  C   UNL A   1      43.380  35.285  25.807  1.00  0.00     0.022 A 
BRANCH  82  86
ATOM     86  S   UNL A   1      44.633  32.794  25.711  1.00  0.00     0.124 S 
ATOM     87  O   UNL A   1      45.968  33.061  26.240  1.00  0.00    -0.237 OA
ATOM     88  O   UNL A   1      43.984  31.582  26.197  1.00  0.00    -0.237 OA
ATOM     89  O   UNL A   1      44.469  33.059  24.283  1.00  0.00    -0.744 OA
ENDBRANCH  82  86
ENDBRANCH  65  79
BRANCH  66  90
ATOM     90  C   UNL A   1      41.125  34.599  38.414  1.00  0.00     0.023 A 
ATOM     91  C   UNL A   1      40.816  35.751  39.152  1.00  0.00     0.031 A 
ATOM     92  C   UNL A   1      41.159  33.365  39.086  1.00  0.00     0.131 A 
ATOM     93  C   UNL A   1      40.557  35.648  40.527  1.00  0.00     0.055 A 
ATOM     94  C   UNL A   1      40.876  33.264  40.448  1.00  0.00     0.041 A 
ATOM     95  F   UNL A   1      41.430  32.235  38.413  1.00  0.00    -0.206 F 
ATOM     96  C   UNL A   1      40.573  34.411  41.177  1.00  0.00     0.022 A 
BRANCH  93  97
ATOM     97  S   UNL A   1      40.174  37.156  41.459  1.00  0.00     0.124 S 
ATOM     98  O   UNL A   1      39.047  36.720  42.275  1.00  0.00    -0.237 OA
ATOM     99  O   UNL A   1      41.424  37.405  42.170  1.00  0.00    -0.237 OA
ATOM    100  O   UNL A   1      39.854  38.128  40.415  1.00  0.00    -0.744 OA
ENDBRANCH  93  97
ENDBRANCH  66  90
BRANCH  78 101
ATOM    101  C   UNL A   1      37.002  33.865  32.821  1.00  0.00     0.023 A 
ATOM    102  C   UNL A   1      36.033  34.871  32.673  1.00  0.00     0.031 A 
ATOM    103  C   UNL A   1      36.589  32.522  32.750  1.00  0.00     0.131 A 
ATOM    104  C   UNL A   1      34.690  34.517  32.481  1.00  0.00     0.055 A 
ATOM    105  C   UNL A   1      35.258  32.177  32.520  1.00  0.00     0.041 A 
ATOM    106  F   UNL A   1      37.482  31.528  32.880  1.00  0.00    -0.206 F 
ATOM    107  C   UNL A   1      34.299  33.177  32.385  1.00  0.00     0.022 A 
BRANCH 104 108
ATOM    108  S   UNL A   1      33.446  35.831  32.363  1.00  0.00     0.124 S 
ATOM    109  O   UNL A   1      33.889  36.758  33.400  1.00  0.00    -0.237 OA
ATOM    110  O   UNL A   1      33.600  36.292  30.987  1.00  0.00    -0.237 OA
ATOM    111  O   UNL A   1      32.189  35.140  32.644  1.00  0.00    -0.744 OA
ENDBRANCH 104 108
ENDBRANCH  78 101
ENDBRANCH  52  53
ENDBRANCH  44  47
ENDBRANCH  42  43
ENDBRANCH  41  42
ENDBRANCH   1  41
TORSDOF 20
ENDMDL
MODEL 2
REMARK VINA RESULT:      -8.4      1.789      2.484
REMARK SMILES CC1CC[NH+]([C@H](c2ccc(F)cc2)c2ccc([C@@H](C)C(=O)NCCCCNC(=O)c3ccc(-c4c5nc(c(-c6cc(S(=O)(=O)[O-])ccc6F)c6ccc([nH]6)c(-c6cc(S(=O)(=O)[O-])ccc6F)c6nc(c(-c7cc(S(=O)(=O)[O-])ccc7F)c7ccc4[nH]7)C=C6)C=C5)cc3)cc2-c2ccc(C(F)(F)F)cc2)CC1
REMARK SMILES IDX 24 1 23 2 22 3 20 4 21 5 18 7 19 8 17 9 14 10 15 11 94 12
REMARK SMILES IDX 16 13 93 14 6 15 5 16 1 17 2 18 3 19 106 20 4 21 105 22 7 24
REMARK SMILES IDX 8 25 13 26 9 27 12 28 10 29 11 30 95 31 96 32 104 33 97 34
REMARK SMILES IDX 103 35 98 36 99 37 100 38 101 39 102 40 25 41 26 42 27 43
REMARK SMILES IDX 28 44 29 46 30 47 31 48 92 49 32 50 91 51 33 52 34 53 35 54
REMARK SMILES IDX 85 55 36 56 90 57 84 58 86 59 37 60 89 61 83 62 82 63 38 65
REMARK SMILES IDX 70 66 50 67 69 68 51 69 54 70 68 71 87 72 52 73 53 74 67 76
REMARK SMILES IDX 88 77 55 78 39 79 40 80 48 81 41 82 47 83 49 84 46 85 42 86
REMARK SMILES IDX 43 87 44 88 45 89 71 90 72 91 80 92 73 93 79 94 81 95 78 96
REMARK SMILES IDX 74 97 75 98 76 99 77 100 56 101 57 102 65 103 58 104 64 105
REMARK SMILES IDX 66 106 63 107 59 108 60 109 61 110 62 111
REMARK H PARENT 22 6 5 23 27 45 86 64 54 75
REMARK Flexibility Score: inf
ROOT
ATOM      1  C   UNL A   1      50.702  38.615  30.570  1.00  0.00     0.023 C 
ENDROOT
BRANCH   1   2
ATOM      2  C   UNL A   1      49.993  39.030  29.276  1.00  0.00     0.116 C 
BRANCH   2   3
ATOM      3  N   UNL A   1      50.094  38.013  28.245  1.00  0.00    -0.356 N 
ATOM      4  C   UNL A   1      49.255  37.021  27.837  1.00  0.00     0.227 C 
ATOM      5  O   UNL A   1      49.686  36.280  26.943  1.00  0.00    -0.274 OA
ATOM      6  H   UNL A   1      50.939  38.048  27.740  1.00  0.00     0.163 HD
BRANCH   4   7
ATOM      7  C   UNL A   1      47.839  36.781  28.399  1.00  0.00     0.105 C 
ATOM      8  C   UNL A   1      47.332  35.352  28.222  1.00  0.00     0.023 C 
BRANCH   7   9
ATOM      9  C   UNL A   1      46.853  37.874  28.027  1.00  0.00    -0.035 A 
ATOM     10  C   UNL A   1      45.368  40.215  27.295  1.00  0.00     0.022 A 
ATOM     11  C   UNL A   1      45.822  39.276  26.355  1.00  0.00     0.011 A 
ATOM     12  C   UNL A   1      45.514  39.852  28.663  1.00  0.00    -0.009 A 
ATOM     13  C   UNL A   1      46.466  38.096  26.717  1.00  0.00     0.005 A 
ATOM     14  C   UNL A   1      46.327  38.737  28.997  1.00  0.00     0.013 A 
BRANCH  10  15
ATOM     15  C   UNL A   1      44.688  41.542  26.840  1.00  0.00     0.247 C 
BRANCH  15  16
ATOM     16  N   UNL A   1      44.062  41.589  25.477  1.00  0.00    -0.325 N 
ATOM     17  C   UNL A   1      41.747  43.327  22.160  1.00  0.00     0.008 C 
ATOM     18  C   UNL A   1      42.479  43.022  23.463  1.00  0.00    -0.003 C 
ATOM     19  C   UNL A   1      43.979  42.832  23.243  1.00  0.00     0.065 C 
ATOM     20  C   UNL A   1      41.953  41.743  24.098  1.00  0.00     0.065 C 
ATOM     21  C   UNL A   1      44.732  42.494  24.539  1.00  0.00     0.263 C 
ATOM     22  C   UNL A   1      42.598  41.532  25.464  1.00  0.00     0.263 C 
ATOM     23  H   UNL A   1      44.269  40.686  25.050  1.00  0.00     0.348 HD
ENDBRANCH  15  16
BRANCH  15  24
ATOM     24  C   UNL A   1      45.568  42.796  27.045  1.00  0.00     0.014 A 
ATOM     25  C   UNL A   1      46.926  42.827  26.666  1.00  0.00     0.013 A 
ATOM     26  C   UNL A   1      45.009  43.952  27.624  1.00  0.00     0.013 A 
ATOM     27  C   UNL A   1      47.696  43.975  26.860  1.00  0.00     0.040 A 
ATOM     28  C   UNL A   1      45.789  45.089  27.841  1.00  0.00     0.040 A 
ATOM     29  C   UNL A   1      47.123  45.092  27.454  1.00  0.00     0.123 A 
ATOM     30  F   UNL A   1      47.867  46.187  27.658  1.00  0.00    -0.207 F 
ENDBRANCH  15  24
ENDBRANCH  10  15
BRANCH  12  31
ATOM     31  C   UNL A   1      44.799  40.520  29.768  1.00  0.00    -0.018 A 
ATOM     32  C   UNL A   1      43.484  40.176  30.116  1.00  0.00     0.009 A 
ATOM     33  C   UNL A   1      45.412  41.575  30.465  1.00  0.00     0.009 A 
ATOM     34  C   UNL A   1      42.816  40.845  31.147  1.00  0.00     0.014 A 
ATOM     35  C   UNL A   1      44.750  42.242  31.499  1.00  0.00     0.014 A 
ATOM     36  C   UNL A   1      43.445  41.879  31.856  1.00  0.00     0.056 A 
BRANCH  36  37
ATOM     37  C   UNL A   1      42.715  42.601  32.959  1.00  0.00     0.416 C 
ATOM     38  F   UNL A   1      43.557  43.054  33.930  1.00  0.00    -0.166 F 
ATOM     39  F   UNL A   1      42.031  43.694  32.519  1.00  0.00    -0.166 F 
ATOM     40  F   UNL A   1      41.795  41.825  33.601  1.00  0.00    -0.166 F 
ENDBRANCH  36  37
ENDBRANCH  12  31
ENDBRANCH   7   9
ENDBRANCH   4   7
ENDBRANCH   2   3
ENDBRANCH   1   2
BRANCH   1  41
ATOM     41  C   UNL A   1      49.921  37.681  31.489  1.00  0.00     0.023 C 
BRANCH  41  42
ATOM     42  C   UNL A   1      50.769  36.721  32.311  1.00  0.00     0.116 C 
BRANCH  42  43
ATOM     43  N   UNL A   1      51.252  37.275  33.566  1.00  0.00    -0.352 N 
ATOM     44  C   UNL A   1      50.545  37.502  34.731  1.00  0.00     0.251 C 
ATOM     45  H   UNL A   1      52.205  37.521  33.588  1.00  0.00     0.163 HD
ATOM     46  O   UNL A   1      51.085  38.045  35.678  1.00  0.00    -0.269 OA
BRANCH  44  47
ATOM     47  C   UNL A   1      49.112  37.127  34.782  1.00  0.00     0.039 A 
ATOM     48  C   UNL A   1      48.151  38.134  34.659  1.00  0.00     0.014 A 
ATOM     49  C   UNL A   1      48.723  35.789  34.876  1.00  0.00     0.014 A 
ATOM     50  C   UNL A   1      46.804  37.785  34.536  1.00  0.00     0.010 A 
ATOM     51  C   UNL A   1      47.392  35.440  34.670  1.00  0.00     0.010 A 
ATOM     52  C   UNL A   1      46.420  36.435  34.489  1.00  0.00    -0.014 A 
BRANCH  52  53
ATOM     53  C   UNL A   1      45.011  36.046  34.228  1.00  0.00     0.031 A 
ATOM     54  C   UNL A   1      44.517  35.885  32.818  1.00  0.00     0.074 A 
ATOM     55  C   UNL A   1      44.162  35.895  35.263  1.00  0.00     0.049 A 
ATOM     56  N   UNL A   1      43.315  35.597  32.392  1.00  0.00    -0.248 NA
ATOM     57  C   UNL A   1      45.499  36.109  31.745  1.00  0.00     0.031 C 
ATOM     58  C   UNL A   1      44.511  36.072  36.675  1.00  0.00     0.029 A 
ATOM     59  N   UNL A   1      42.835  35.550  35.291  1.00  0.00    -0.354 N 
ATOM     60  C   UNL A   1      43.391  35.612  31.004  1.00  0.00     0.074 A 
ATOM     61  C   UNL A   1      44.742  36.003  30.663  1.00  0.00     0.031 C 
ATOM     62  C   UNL A   1      43.440  35.786  37.432  1.00  0.00     0.029 A 
ATOM     63  C   UNL A   1      42.319  35.443  36.561  1.00  0.00     0.049 A 
ATOM     64  H   UNL A   1      42.301  35.394  34.479  1.00  0.00     0.167 HD
ATOM     65  C   UNL A   1      42.432  35.299  30.099  1.00  0.00     0.034 A 
ATOM     66  C   UNL A   1      41.085  35.102  36.981  1.00  0.00     0.034 A 
ATOM     67  C   UNL A   1      41.096  34.892  30.454  1.00  0.00     0.049 A 
ATOM     68  C   UNL A   1      40.030  34.770  35.964  1.00  0.00     0.074 A 
ATOM     69  C   UNL A   1      40.062  34.507  29.618  1.00  0.00     0.029 A 
ATOM     70  N   UNL A   1      40.607  34.817  31.751  1.00  0.00    -0.354 N 
ATOM     71  N   UNL A   1      40.121  34.776  34.655  1.00  0.00    -0.248 NA
ATOM     72  C   UNL A   1      38.708  34.386  36.477  1.00  0.00     0.031 C 
ATOM     73  C   UNL A   1      38.935  34.251  30.404  1.00  0.00     0.029 A 
ATOM     74  C   UNL A   1      39.281  34.415  31.737  1.00  0.00     0.049 A 
ATOM     75  H   UNL A   1      41.126  35.021  32.563  1.00  0.00     0.167 HD
ATOM     76  C   UNL A   1      38.875  34.376  34.186  1.00  0.00     0.074 A 
ATOM     77  C   UNL A   1      38.046  34.143  35.353  1.00  0.00     0.031 C 
ATOM     78  C   UNL A   1      38.462  34.205  32.905  1.00  0.00     0.034 A 
BRANCH  65  79
ATOM     79  C   UNL A   1      42.802  35.399  28.641  1.00  0.00     0.023 A 
ATOM     80  C   UNL A   1      43.371  34.313  27.954  1.00  0.00     0.031 A 
ATOM     81  C   UNL A   1      42.612  36.600  27.936  1.00  0.00     0.131 A 
ATOM     82  C   UNL A   1      43.799  34.470  26.628  1.00  0.00     0.055 A 
ATOM     83  C   UNL A   1      42.968  36.726  26.591  1.00  0.00     0.041 A 
ATOM     84  F   UNL A   1      42.091  37.676  28.546  1.00  0.00    -0.206 F 
ATOM     85  C   UNL A   1      43.577  35.661  25.933  1.00  0.00     0.022 A 
BRANCH  82  86
ATOM     86  S   UNL A   1      44.761  33.136  25.865  1.00  0.00     0.124 S 
ATOM     87  O   UNL A   1      45.335  33.816  24.706  1.00  0.00    -0.237 OA
ATOM     88  O   UNL A   1      45.699  32.777  26.923  1.00  0.00    -0.237 OA
ATOM     89  O   UNL A   1      43.755  32.123  25.552  1.00  0.00    -0.744 OA
ENDBRANCH  82  86
ENDBRANCH  65  79
BRANCH  66  90
ATOM     90  C   UNL A   1      40.803  35.035  38.439  1.00  0.00     0.023 A 
ATOM     91  C   UNL A   1      40.988  33.841  39.150  1.00  0.00     0.031 A 
ATOM     92  C   UNL A   1      40.404  36.180  39.150  1.00  0.00     0.131 A 
ATOM     93  C   UNL A   1      40.768  33.814  40.535  1.00  0.00     0.055 A 
ATOM     94  C   UNL A   1      40.211  36.156  40.532  1.00  0.00     0.041 A 
ATOM     95  F   UNL A   1      40.236  37.349  38.511  1.00  0.00    -0.206 F 
ATOM     96  C   UNL A   1      40.392  34.966  41.232  1.00  0.00     0.022 A 
BRANCH  93  97
ATOM     97  S   UNL A   1      41.001  32.252  41.428  1.00  0.00     0.124 S 
ATOM     98  O   UNL A   1      42.039  31.609  40.631  1.00  0.00    -0.237 OA
ATOM     99  O   UNL A   1      41.399  32.712  42.755  1.00  0.00    -0.237 OA
ATOM    100  O   UNL A   1      39.682  31.625  41.363  1.00  0.00    -0.744 OA
ENDBRANCH  93  97
ENDBRANCH  66  90
BRANCH  78 101
ATOM    101  C   UNL A   1      37.057  33.712  32.690  1.00  0.00     0.023 A 
ATOM    102  C   UNL A   1      36.009  34.592  32.375  1.00  0.00     0.031 A 
ATOM    103  C   UNL A   1      36.784  32.334  32.738  1.00  0.00     0.131 A 
ATOM    104  C   UNL A   1      34.724  34.082  32.138  1.00  0.00     0.055 A 
ATOM    105  C   UNL A   1      35.513  31.830  32.463  1.00  0.00     0.041 A 
ATOM    106  F   UNL A   1      37.757  31.456  33.030  1.00  0.00    -0.206 F 
ATOM    107  C   UNL A   1      34.474  32.706  32.161  1.00  0.00     0.022 A 
BRANCH 104 108
ATOM    108  S   UNL A   1      33.370  35.240  31.801  1.00  0.00     0.124 S 
ATOM    109  O   UNL A   1      33.969  36.518  32.172  1.00  0.00    -0.237 OA
ATOM    110  O   UNL A   1      33.127  35.040  30.377  1.00  0.00    -0.237 OA
ATOM    111  O   UNL A   1      32.298  34.779  32.682  1.00  0.00    -0.744 OA
ENDBRANCH 104 108
ENDBRANCH  78 101
ENDBRANCH  52  53
ENDBRANCH  44  47
ENDBRANCH  42  43
ENDBRANCH  41  42
ENDBRANCH   1  41
TORSDOF 20
ENDMDL
MODEL 3
REMARK VINA RESULT:      -8.3      7.217     11.422
REMARK SMILES CC1CC[NH+]([C@H](c2ccc(F)cc2)c2ccc([C@@H](C)C(=O)NCCCCNC(=O)c3ccc(-c4c5nc(c(-c6cc(S(=O)(=O)[O-])ccc6F)c6ccc([nH]6)c(-c6cc(S(=O)(=O)[O-])ccc6F)c6nc(c(-c7cc(S(=O)(=O)[O-])ccc7F)c7ccc4[nH]7)C=C6)C=C5)cc3)cc2-c2ccc(C(F)(F)F)cc2)CC1
REMARK SMILES IDX 24 1 23 2 22 3 20 4 21 5 18 7 19 8 17 9 14 10 15 11 94 12
REMARK SMILES IDX 16 13 93 14 6 15 5 16 1 17 2 18 3 19 106 20 4 21 105 22 7 24
REMARK SMILES IDX 8 25 13 26 9 27 12 28 10 29 11 30 95 31 96 32 104 33 97 34
REMARK SMILES IDX 103 35 98 36 99 37 100 38 101 39 102 40 25 41 26 42 27 43
REMARK SMILES IDX 28 44 29 46 30 47 31 48 92 49 32 50 91 51 33 52 34 53 35 54
REMARK SMILES IDX 85 55 36 56 90 57 84 58 86 59 37 60 89 61 83 62 82 63 38 65
REMARK SMILES IDX 70 66 50 67 69 68 51 69 54 70 68 71 87 72 52 73 53 74 67 76
REMARK SMILES IDX 88 77 55 78 39 79 40 80 48 81 41 82 47 83 49 84 46 85 42 86
REMARK SMILES IDX 43 87 44 88 45 89 71 90 72 91 80 92 73 93 79 94 81 95 78 96
REMARK SMILES IDX 74 97 75 98 76 99 77 100 56 101 57 102 65 103 58 104 64 105
REMARK SMILES IDX 66 106 63 107 59 108 60 109 61 110 62 111
REMARK H PARENT 22 6 5 23 27 45 86 64 54 75
REMARK Flexibility Score: inf
ROOT
ATOM      1  C   UNL A   1      45.144  36.936  31.928  1.00  0.00     0.023 C 
ENDROOT
BRANCH   1   2
ATOM      2  C   UNL A   1      45.197  35.408  32.041  1.00  0.00     0.116 C 
BRANCH   2   3
ATOM      3  N   UNL A   1      45.007  34.952  33.407  1.00  0.00    -0.356 N 
ATOM      4  C   UNL A   1      43.940  34.978  34.252  1.00  0.00     0.227 C 
ATOM      5  O   UNL A   1      44.141  34.542  35.394  1.00  0.00    -0.274 OA
ATOM      6  H   UNL A   1      45.811  34.542  33.800  1.00  0.00     0.163 HD
BRANCH   4   7
ATOM      7  C   UNL A   1      42.535  35.494  33.879  1.00  0.00     0.105 C 
ATOM      8  C   UNL A   1      41.965  36.517  34.859  1.00  0.00     0.023 C 
BRANCH   7   9
ATOM      9  C   UNL A   1      41.582  34.387  33.463  1.00  0.00    -0.035 A 
ATOM     10  C   UNL A   1      39.521  32.439  33.037  1.00  0.00     0.022 A 
ATOM     11  C   UNL A   1      39.538  33.686  32.389  1.00  0.00     0.011 A 
ATOM     12  C   UNL A   1      40.689  32.105  33.778  1.00  0.00    -0.009 A 
ATOM     13  C   UNL A   1      40.584  34.595  32.528  1.00  0.00     0.005 A 
ATOM     14  C   UNL A   1      41.649  33.115  34.045  1.00  0.00     0.013 A 
BRANCH  10  15
ATOM     15  C   UNL A   1      38.309  31.471  32.883  1.00  0.00     0.247 C 
BRANCH  15  16
ATOM     16  N   UNL A   1      38.317  30.499  31.739  1.00  0.00    -0.325 N 
ATOM     17  C   UNL A   1      39.887  27.245  29.223  1.00  0.00     0.008 C 
ATOM     18  C   UNL A   1      39.626  28.316  30.278  1.00  0.00    -0.003 C 
ATOM     19  C   UNL A   1      38.360  28.028  31.082  1.00  0.00     0.065 C 
ATOM     20  C   UNL A   1      39.447  29.684  29.634  1.00  0.00     0.065 C 
ATOM     21  C   UNL A   1      38.062  29.110  32.131  1.00  0.00     0.263 C 
ATOM     22  C   UNL A   1      39.327  30.758  30.711  1.00  0.00     0.263 C 
ATOM     23  H   UNL A   1      37.474  30.702  31.202  1.00  0.00     0.348 HD
ENDBRANCH  15  16
BRANCH  15  24
ATOM     24  C   UNL A   1      36.935  32.176  32.950  1.00  0.00     0.014 A 
ATOM     25  C   UNL A   1      36.536  32.929  34.074  1.00  0.00     0.013 A 
ATOM     26  C   UNL A   1      36.046  32.075  31.863  1.00  0.00     0.013 A 
ATOM     27  C   UNL A   1      35.290  33.557  34.107  1.00  0.00     0.040 A 
ATOM     28  C   UNL A   1      34.790  32.682  31.910  1.00  0.00     0.040 A 
ATOM     29  C   UNL A   1      34.426  33.421  33.029  1.00  0.00     0.123 A 
ATOM     30  F   UNL A   1      33.223  34.008  33.068  1.00  0.00    -0.207 F 
ENDBRANCH  15  24
ENDBRANCH  10  15
BRANCH  12  31
ATOM     31  C   UNL A   1      41.008  30.734  34.226  1.00  0.00    -0.018 A 
ATOM     32  C   UNL A   1      40.977  30.371  35.581  1.00  0.00     0.009 A 
ATOM     33  C   UNL A   1      41.416  29.767  33.292  1.00  0.00     0.009 A 
ATOM     34  C   UNL A   1      41.315  29.074  35.984  1.00  0.00     0.014 A 
ATOM     35  C   UNL A   1      41.748  28.470  33.690  1.00  0.00     0.014 A 
ATOM     36  C   UNL A   1      41.695  28.107  35.041  1.00  0.00     0.056 A 
BRANCH  36  37
ATOM     37  C   UNL A   1      42.066  26.716  35.484  1.00  0.00     0.416 C 
ATOM     38  F   UNL A   1      43.060  26.714  36.417  1.00  0.00    -0.166 F 
ATOM     39  F   UNL A   1      41.025  26.040  36.047  1.00  0.00    -0.166 F 
ATOM     40  F   UNL A   1      42.513  25.923  34.468  1.00  0.00    -0.166 F 
ENDBRANCH  36  37
ENDBRANCH  12  31
ENDBRANCH   7   9
ENDBRANCH   4   7
ENDBRANCH   2   3
ENDBRANCH   1   2
BRANCH   1  41
ATOM     41  C   UNL A   1      44.288  37.491  30.795  1.00  0.00     0.023 C 
BRANCH  41  42
ATOM     42  C   UNL A   1      43.208  36.552  30.276  1.00  0.00     0.116 C 
BRANCH  42  43
ATOM     43  N   UNL A   1      43.012  36.604  28.835  1.00  0.00    -0.352 N 
ATOM     44  C   UNL A   1      43.003  35.556  27.935  1.00  0.00     0.251 C 
ATOM     45  H   UNL A   1      42.869  37.499  28.453  1.00  0.00     0.163 HD
ATOM     46  O   UNL A   1      42.897  35.777  26.742  1.00  0.00    -0.269 OA
BRANCH  44  47
ATOM     47  C   UNL A   1      43.181  34.175  28.442  1.00  0.00     0.039 A 
ATOM     48  C   UNL A   1      44.376  33.507  28.166  1.00  0.00     0.014 A 
ATOM     49  C   UNL A   1      42.207  33.574  29.245  1.00  0.00     0.014 A 
ATOM     50  C   UNL A   1      44.631  32.276  28.773  1.00  0.00     0.010 A 
ATOM     51  C   UNL A   1      42.498  32.389  29.913  1.00  0.00     0.010 A 
ATOM     52  C   UNL A   1      43.717  31.733  29.691  1.00  0.00    -0.014 A 
BRANCH  52  53
ATOM     53  C   UNL A   1      44.031  30.492  30.443  1.00  0.00     0.031 A 
ATOM     54  C   UNL A   1      43.829  29.146  29.805  1.00  0.00     0.074 A 
ATOM     55  C   UNL A   1      44.443  30.577  31.723  1.00  0.00     0.049 A 
ATOM     56  N   UNL A   1      44.003  27.955  30.316  1.00  0.00    -0.248 NA
ATOM     57  C   UNL A   1      43.337  29.141  28.418  1.00  0.00     0.031 C 
ATOM     58  C   UNL A   1      44.630  31.825  32.468  1.00  0.00     0.029 A 
ATOM     59  N   UNL A   1      44.788  29.600  32.622  1.00  0.00    -0.354 N 
ATOM     60  C   UNL A   1      43.635  27.058  29.319  1.00  0.00     0.074 A 
ATOM     61  C   UNL A   1      43.166  27.845  28.199  1.00  0.00     0.031 C 
ATOM     62  C   UNL A   1      45.103  31.539  33.692  1.00  0.00     0.029 A 
ATOM     63  C   UNL A   1      45.215  30.090  33.832  1.00  0.00     0.049 A 
ATOM     64  H   UNL A   1      44.733  28.638  32.419  1.00  0.00     0.167 HD
ATOM     65  C   UNL A   1      43.710  25.705  29.327  1.00  0.00     0.034 A 
ATOM     66  C   UNL A   1      45.656  29.448  34.932  1.00  0.00     0.034 A 
ATOM     67  C   UNL A   1      44.198  24.935  30.443  1.00  0.00     0.049 A 
ATOM     68  C   UNL A   1      45.721  27.947  34.929  1.00  0.00     0.074 A 
ATOM     69  C   UNL A   1      44.360  23.563  30.538  1.00  0.00     0.029 A 
ATOM     70  N   UNL A   1      44.601  25.468  31.660  1.00  0.00    -0.354 N 
ATOM     71  N   UNL A   1      45.382  27.113  33.974  1.00  0.00    -0.248 NA
ATOM     72  C   UNL A   1      46.227  27.299  36.146  1.00  0.00     0.031 C 
ATOM     73  C   UNL A   1      44.811  23.264  31.828  1.00  0.00     0.029 A 
ATOM     74  C   UNL A   1      44.991  24.452  32.518  1.00  0.00     0.049 A 
ATOM     75  H   UNL A   1      44.609  26.427  31.881  1.00  0.00     0.167 HD
ATOM     76  C   UNL A   1      45.653  25.842  34.467  1.00  0.00     0.074 A 
ATOM     77  C   UNL A   1      46.178  26.017  35.807  1.00  0.00     0.031 C 
ATOM     78  C   UNL A   1      45.494  24.640  33.857  1.00  0.00     0.034 A 
BRANCH  65  79
ATOM     79  C   UNL A   1      43.241  24.982  28.090  1.00  0.00     0.023 A 
ATOM     80  C   UNL A   1      42.011  24.302  28.062  1.00  0.00     0.031 A 
ATOM     81  C   UNL A   1      44.043  24.945  26.937  1.00  0.00     0.131 A 
ATOM     82  C   UNL A   1      41.651  23.553  26.933  1.00  0.00     0.055 A 
ATOM     83  C   UNL A   1      43.642  24.262  25.786  1.00  0.00     0.041 A 
ATOM     84  F   UNL A   1      45.236  25.559  26.913  1.00  0.00    -0.206 F 
ATOM     85  C   UNL A   1      42.446  23.549  25.784  1.00  0.00     0.022 A 
BRANCH  82  86
ATOM     86  S   UNL A   1      40.191  22.484  27.033  1.00  0.00     0.124 S 
ATOM     87  O   UNL A   1      40.279  21.750  25.773  1.00  0.00    -0.237 OA
ATOM     88  O   UNL A   1      40.446  21.710  28.242  1.00  0.00    -0.237 OA
ATOM     89  O   UNL A   1      39.079  23.429  27.120  1.00  0.00    -0.744 OA
ENDBRANCH  82  86
ENDBRANCH  65  79
BRANCH  66  90
ATOM     90  C   UNL A   1      46.092  30.239  36.113  1.00  0.00     0.023 A 
ATOM     91  C   UNL A   1      47.390  30.769  36.180  1.00  0.00     0.031 A 
ATOM     92  C   UNL A   1      45.199  30.527  37.159  1.00  0.00     0.131 A 
ATOM     93  C   UNL A   1      47.763  31.557  37.279  1.00  0.00     0.055 A 
ATOM     94  C   UNL A   1      45.567  31.333  38.237  1.00  0.00     0.041 A 
ATOM     95  F   UNL A   1      43.942  30.058  37.123  1.00  0.00    -0.206 F 
ATOM     96  C   UNL A   1      46.857  31.853  38.301  1.00  0.00     0.022 A 
BRANCH  93  97
ATOM     97  S   UNL A   1      49.451  32.217  37.347  1.00  0.00     0.124 S 
ATOM     98  O   UNL A   1      49.216  33.647  37.189  1.00  0.00    -0.237 OA
ATOM     99  O   UNL A   1      49.900  31.780  38.666  1.00  0.00    -0.237 OA
ATOM    100  O   UNL A   1      50.116  31.563  36.222  1.00  0.00    -0.744 OA
ENDBRANCH  93  97
ENDBRANCH  66  90
BRANCH  78 101
ATOM    101  C   UNL A   1      45.919  23.415  34.618  1.00  0.00     0.023 A 
ATOM    102  C   UNL A   1      47.204  22.866  34.471  1.00  0.00     0.031 A 
ATOM    103  C   UNL A   1      45.045  22.832  35.552  1.00  0.00     0.131 A 
ATOM    104  C   UNL A   1      47.572  21.750  35.235  1.00  0.00     0.055 A 
ATOM    105  C   UNL A   1      45.431  21.747  36.338  1.00  0.00     0.041 A 
ATOM    106  F   UNL A   1      43.810  23.327  35.730  1.00  0.00    -0.206 F 
ATOM    107  C   UNL A   1      46.701  21.198  36.181  1.00  0.00     0.022 A 
BRANCH 104 108
ATOM    108  S   UNL A   1      49.210  21.015  34.979  1.00  0.00     0.124 S 
ATOM    109  O   UNL A   1      49.026  20.305  33.717  1.00  0.00    -0.237 OA
ATOM    110  O   UNL A   1      50.080  22.184  34.932  1.00  0.00    -0.237 OA
ATOM    111  O   UNL A   1      49.389  20.159  36.151  1.00  0.00    -0.744 OA
ENDBRANCH 104 108
ENDBRANCH  78 101
ENDBRANCH  52  53
ENDBRANCH  44  47
ENDBRANCH  42  43
ENDBRANCH  41  42
ENDBRANCH   1  41
TORSDOF 20
ENDMDL
