MODEL 1
REMARK VINA RESULT:     -11.4      0.000      0.000
REMARK SMILES Cc1cscc1CNC(=O)N[C@@H](C)c1nc(C(=O)NCCCCNC(=O)c2ccc(-c3c4nc(c(-c5cc(S(=O)(=O)[O-])ccc5F)c5ccc([nH]5)c(-c5cc(S(=O)(=O)[O-])ccc5F)c5nc(c(-c6cc(S(=O)(=O)[O-])ccc6F)c6ccc3[nH]6)C=C5)C=C4)cc2)cs1
REMARK SMILES IDX 21 1 20 2 19 3 17 4 18 5 16 7 14 8 15 9 91 10 90 11 12 12
REMARK SMILES IDX 13 13 11 14 8 15 9 16 10 18 7 20 6 21 1 22 2 23 3 24 4 25
REMARK SMILES IDX 5 26 22 27 23 28 24 29 25 30 26 32 27 33 28 34 89 35 29 36
REMARK SMILES IDX 88 37 30 38 31 39 32 40 82 41 33 42 87 43 81 44 83 45 34 46
REMARK SMILES IDX 86 47 80 48 79 49 35 51 67 52 47 53 66 54 48 55 51 56 65 57
REMARK SMILES IDX 84 58 49 59 50 60 64 62 85 63 52 64 36 65 37 66 45 67 38 68
REMARK SMILES IDX 44 69 46 70 43 71 39 72 40 73 41 74 42 75 68 76 69 77 77 78
REMARK SMILES IDX 70 79 76 80 78 81 75 82 71 83 72 84 73 85 74 86 53 87 54 88
REMARK SMILES IDX 62 89 55 90 61 91 63 92 60 93 56 94 57 95 58 96 59 97
REMARK H PARENT 19 6 8 17 11 19 24 31 83 50 51 61
REMARK Flexibility Score: inf
ROOT
ATOM      1  C   UNL A   1      34.908  30.879  28.042  1.00  0.00     0.023 C 
ENDROOT
BRANCH   1   2
ATOM      2  C   UNL A   1      34.667  29.432  27.616  1.00  0.00     0.116 C 
BRANCH   2   3
ATOM      3  N   UNL A   1      33.308  29.014  27.905  1.00  0.00    -0.351 N 
ATOM      4  C   UNL A   1      32.482  28.129  27.249  1.00  0.00     0.270 C 
ATOM      5  O   UNL A   1      31.362  27.937  27.717  1.00  0.00    -0.267 OA
ATOM      6  H   UNL A   1      32.911  29.432  28.702  1.00  0.00     0.163 HD
BRANCH   4   7
ATOM      7  C   UNL A   1      32.947  27.409  26.054  1.00  0.00     0.139 A 
ATOM      8  C   UNL A   1      33.699  25.692  24.846  1.00  0.00     0.116 A 
ATOM      9  N   UNL A   1      33.481  26.124  26.070  1.00  0.00    -0.234 NA
ATOM     10  S   UNL A   1      33.380  26.830  23.603  1.00  0.00    -0.124 S 
ATOM     11  C   UNL A   1      32.878  27.961  24.783  1.00  0.00     0.101 A 
BRANCH   8  12
ATOM     12  C   UNL A   1      34.166  24.293  24.522  1.00  0.00     0.140 C 
ATOM     13  C   UNL A   1      35.641  24.134  24.896  1.00  0.00     0.039 C 
BRANCH  12  14
ATOM     14  N   UNL A   1      34.007  24.091  23.088  1.00  0.00    -0.329 N 
ATOM     15  N   UNL A   1      32.738  22.130  22.745  1.00  0.00    -0.334 N 
ATOM     16  C   UNL A   1      33.391  23.208  22.308  1.00  0.00     0.315 C 
ATOM     17  H   UNL A   1      32.300  21.636  22.015  1.00  0.00     0.165 HD
ATOM     18  O   UNL A   1      33.409  23.400  21.092  1.00  0.00    -0.249 OA
ATOM     19  H   UNL A   1      34.472  24.783  22.565  1.00  0.00     0.166 HD
BRANCH  15  20
ATOM     20  C   UNL A   1      32.519  21.516  24.031  1.00  0.00     0.154 C 
BRANCH  20  21
ATOM     21  C   UNL A   1      32.991  20.086  24.045  1.00  0.00    -0.015 A 
ATOM     22  C   UNL A   1      35.280  20.585  25.196  1.00  0.00     0.045 C 
ATOM     23  C   UNL A   1      34.273  19.668  24.580  1.00  0.00    -0.035 A 
ATOM     24  C   UNL A   1      34.460  18.304  24.447  1.00  0.00     0.068 A 
ATOM     25  S   UNL A   1      33.136  17.519  23.720  1.00  0.00    -0.152 S 
ATOM     26  C   UNL A   1      32.291  18.992  23.560  1.00  0.00     0.070 A 
ENDBRANCH  20  21
ENDBRANCH  15  20
ENDBRANCH  12  14
ENDBRANCH   8  12
ENDBRANCH   4   7
ENDBRANCH   2   3
ENDBRANCH   1   2
BRANCH   1  27
ATOM     27  C   UNL A   1      34.123  31.908  27.218  1.00  0.00     0.023 C 
BRANCH  27  28
ATOM     28  C   UNL A   1      32.868  32.463  27.891  1.00  0.00     0.116 C 
BRANCH  28  29
ATOM     29  N   UNL A   1      32.812  33.917  27.892  1.00  0.00    -0.352 N 
ATOM     30  C   UNL A   1      33.601  34.807  28.580  1.00  0.00     0.251 C 
ATOM     31  H   UNL A   1      32.114  34.316  27.324  1.00  0.00     0.163 HD
ATOM     32  O   UNL A   1      33.337  36.006  28.551  1.00  0.00    -0.269 OA
BRANCH  30  33
ATOM     33  C   UNL A   1      34.736  34.307  29.385  1.00  0.00     0.039 A 
ATOM     34  C   UNL A   1      34.465  33.616  30.568  1.00  0.00     0.014 A 
ATOM     35  C   UNL A   1      36.055  34.492  28.963  1.00  0.00     0.014 A 
ATOM     36  C   UNL A   1      35.516  33.046  31.290  1.00  0.00     0.010 A 
ATOM     37  C   UNL A   1      37.094  33.866  29.647  1.00  0.00     0.010 A 
ATOM     38  C   UNL A   1      36.835  33.130  30.813  1.00  0.00    -0.014 A 
BRANCH  38  39
ATOM     39  C   UNL A   1      37.943  32.430  31.513  1.00  0.00     0.031 A 
ATOM     40  C   UNL A   1      38.634  31.259  30.869  1.00  0.00     0.074 A 
ATOM     41  C   UNL A   1      38.287  32.816  32.758  1.00  0.00     0.049 A 
ATOM     42  N   UNL A   1      39.598  30.507  31.337  1.00  0.00    -0.248 NA
ATOM     43  C   UNL A   1      38.157  30.866  29.536  1.00  0.00     0.031 C 
ATOM     44  C   UNL A   1      37.650  33.902  33.509  1.00  0.00     0.029 A 
ATOM     45  N   UNL A   1      39.250  32.344  33.613  1.00  0.00    -0.354 N 
ATOM     46  C   UNL A   1      39.839  29.547  30.359  1.00  0.00     0.074 A 
ATOM     47  C   UNL A   1      38.873  29.775  29.305  1.00  0.00     0.031 C 
ATOM     48  C   UNL A   1      38.259  34.029  34.698  1.00  0.00     0.029 A 
ATOM     49  C   UNL A   1      39.299  33.013  34.814  1.00  0.00     0.049 A 
ATOM     50  H   UNL A   1      39.849  31.596  33.388  1.00  0.00     0.167 HD
ATOM     51  C   UNL A   1      40.792  28.581  30.335  1.00  0.00     0.034 A 
ATOM     52  C   UNL A   1      40.089  32.826  35.890  1.00  0.00     0.034 A 
ATOM     53  C   UNL A   1      41.750  28.374  31.396  1.00  0.00     0.049 A 
ATOM     54  C   UNL A   1      41.132  31.740  35.846  1.00  0.00     0.074 A 
ATOM     55  C   UNL A   1      42.798  27.471  31.446  1.00  0.00     0.029 A 
ATOM     56  N   UNL A   1      41.770  29.067  32.599  1.00  0.00    -0.354 N 
ATOM     57  N   UNL A   1      41.394  30.883  34.885  1.00  0.00    -0.248 NA
ATOM     58  C   UNL A   1      41.994  31.604  37.027  1.00  0.00     0.031 C 
ATOM     59  C   UNL A   1      43.405  27.569  32.704  1.00  0.00     0.029 A 
ATOM     60  C   UNL A   1      42.787  28.588  33.412  1.00  0.00     0.049 A 
ATOM     61  H   UNL A   1      41.151  29.795  32.840  1.00  0.00     0.167 HD
ATOM     62  C   UNL A   1      42.467  30.122  35.338  1.00  0.00     0.074 A 
ATOM     63  C   UNL A   1      42.816  30.637  36.647  1.00  0.00     0.031 C 
ATOM     64  C   UNL A   1      43.109  29.093  34.727  1.00  0.00     0.034 A 
BRANCH  51  65
ATOM     65  C   UNL A   1      40.821  27.667  29.132  1.00  0.00     0.023 A 
ATOM     66  C   UNL A   1      41.757  27.838  28.095  1.00  0.00     0.031 A 
ATOM     67  C   UNL A   1      39.880  26.630  29.000  1.00  0.00     0.131 A 
ATOM     68  C   UNL A   1      41.679  27.045  26.940  1.00  0.00     0.055 A 
ATOM     69  C   UNL A   1      39.863  25.787  27.886  1.00  0.00     0.041 A 
ATOM     70  F   UNL A   1      38.949  26.428  29.945  1.00  0.00    -0.206 F 
ATOM     71  C   UNL A   1      40.754  26.003  26.839  1.00  0.00     0.022 A 
BRANCH  68  72
ATOM     72  S   UNL A   1      42.700  27.495  25.511  1.00  0.00     0.124 S 
ATOM     73  O   UNL A   1      43.954  27.883  26.154  1.00  0.00    -0.237 OA
ATOM     74  O   UNL A   1      42.732  26.257  24.742  1.00  0.00    -0.237 OA
ATOM     75  O   UNL A   1      41.961  28.595  24.895  1.00  0.00    -0.744 OA
ENDBRANCH  68  72
ENDBRANCH  51  65
BRANCH  52  76
ATOM     76  C   UNL A   1      39.926  33.680  37.101  1.00  0.00     0.023 A 
ATOM     77  C   UNL A   1      39.193  33.231  38.211  1.00  0.00     0.031 A 
ATOM     78  C   UNL A   1      40.476  34.973  37.154  1.00  0.00     0.131 A 
ATOM     79  C   UNL A   1      38.995  34.082  39.309  1.00  0.00     0.055 A 
ATOM     80  C   UNL A   1      40.319  35.797  38.268  1.00  0.00     0.041 A 
ATOM     81  F   UNL A   1      41.192  35.448  36.121  1.00  0.00    -0.206 F 
ATOM     82  C   UNL A   1      39.563  35.357  39.351  1.00  0.00     0.022 A 
BRANCH  79  83
ATOM     83  S   UNL A   1      37.915  33.525  40.657  1.00  0.00     0.124 S 
ATOM     84  O   UNL A   1      38.734  32.497  41.289  1.00  0.00    -0.237 OA
ATOM     85  O   UNL A   1      37.727  34.754  41.420  1.00  0.00    -0.237 OA
ATOM     86  O   UNL A   1      36.726  33.038  39.961  1.00  0.00    -0.744 OA
ENDBRANCH  79  83
ENDBRANCH  52  76
BRANCH  64  87
ATOM     87  C   UNL A   1      44.273  28.480  35.469  1.00  0.00     0.023 A 
ATOM     88  C   UNL A   1      44.082  27.495  36.456  1.00  0.00     0.031 A 
ATOM     89  C   UNL A   1      45.586  28.905  35.205  1.00  0.00     0.131 A 
ATOM     90  C   UNL A   1      45.181  27.018  37.187  1.00  0.00     0.055 A 
ATOM     91  C   UNL A   1      46.682  28.379  35.891  1.00  0.00     0.041 A 
ATOM     92  F   UNL A   1      45.827  29.845  34.276  1.00  0.00    -0.206 F 
ATOM     93  C   UNL A   1      46.481  27.441  36.899  1.00  0.00     0.022 A 
BRANCH  90  94
ATOM     94  S   UNL A   1      44.876  25.913  38.593  1.00  0.00     0.124 S 
ATOM     95  O   UNL A   1      44.633  24.637  37.929  1.00  0.00    -0.237 OA
ATOM     96  O   UNL A   1      46.122  26.013  39.346  1.00  0.00    -0.237 OA
ATOM     97  O   UNL A   1      43.709  26.504  39.247  1.00  0.00    -0.744 OA
ENDBRANCH  90  94
ENDBRANCH  64  87
ENDBRANCH  38  39
ENDBRANCH  30  33
ENDBRANCH  28  29
ENDBRANCH  27  28
ENDBRANCH   1  27
TORSDOF 18
ENDMDL
MODEL 2
REMARK VINA RESULT:     -11.4      6.186     11.571
REMARK SMILES Cc1cscc1CNC(=O)N[C@@H](C)c1nc(C(=O)NCCCCNC(=O)c2ccc(-c3c4nc(c(-c5cc(S(=O)(=O)[O-])ccc5F)c5ccc([nH]5)c(-c5cc(S(=O)(=O)[O-])ccc5F)c5nc(c(-c6cc(S(=O)(=O)[O-])ccc6F)c6ccc3[nH]6)C=C5)C=C4)cc2)cs1
REMARK SMILES IDX 21 1 20 2 19 3 17 4 18 5 16 7 14 8 15 9 91 10 90 11 12 12
REMARK SMILES IDX 13 13 11 14 8 15 9 16 10 18 7 20 6 21 1 22 2 23 3 24 4 25
REMARK SMILES IDX 5 26 22 27 23 28 24 29 25 30 26 32 27 33 28 34 89 35 29 36
REMARK SMILES IDX 88 37 30 38 31 39 32 40 82 41 33 42 87 43 81 44 83 45 34 46
REMARK SMILES IDX 86 47 80 48 79 49 35 51 67 52 47 53 66 54 48 55 51 56 65 57
REMARK SMILES IDX 84 58 49 59 50 60 64 62 85 63 52 64 36 65 37 66 45 67 38 68
REMARK SMILES IDX 44 69 46 70 43 71 39 72 40 73 41 74 42 75 68 76 69 77 77 78
REMARK SMILES IDX 70 79 76 80 78 81 75 82 71 83 72 84 73 85 74 86 53 87 54 88
REMARK SMILES IDX 62 89 55 90 61 91 63 92 60 93 56 94 57 95 58 96 59 97
REMARK H PARENT 19 6 8 17 11 19 24 31 83 50 51 61
REMARK Flexibility Score: inf
ROOT
ATOM      1  C   UNL A   1      36.992  20.859  24.415  1.00  0.00     0.023 C 
ENDROOT
BRANCH   1   2
ATOM      2  C   UNL A   1      35.938  21.150  25.481  1.00  0.00     0.116 C 
BRANCH   2   3
ATOM      3  N   UNL A   1      34.762  20.319  25.303  1.00  0.00    -0.351 N 
ATOM      4  C   UNL A   1      33.517  20.623  24.800  1.00  0.00     0.270 C 
ATOM      5  O   UNL A   1      32.687  19.717  24.741  1.00  0.00    -0.267 OA
ATOM      6  H   UNL A   1      34.872  19.384  25.589  1.00  0.00     0.163 HD
BRANCH   4   7
ATOM      7  C   UNL A   1      33.211  21.975  24.310  1.00  0.00     0.139 A 
ATOM      8  C   UNL A   1      32.708  24.144  24.430  1.00  0.00     0.116 A 
ATOM      9  N   UNL A   1      32.793  23.027  25.120  1.00  0.00    -0.234 NA
ATOM     10  S   UNL A   1      33.020  23.990  22.750  1.00  0.00    -0.124 S 
ATOM     11  C   UNL A   1      33.328  22.323  22.973  1.00  0.00     0.101 A 
BRANCH   8  12
ATOM     12  C   UNL A   1      32.393  25.487  25.044  1.00  0.00     0.140 C 
ATOM     13  C   UNL A   1      33.575  25.967  25.887  1.00  0.00     0.039 C 
BRANCH  12  14
ATOM     14  N   UNL A   1      31.225  25.323  25.899  1.00  0.00    -0.329 N 
ATOM     15  N   UNL A   1      29.327  26.100  24.730  1.00  0.00    -0.334 N 
ATOM     16  C   UNL A   1      29.919  25.545  25.788  1.00  0.00     0.315 C 
ATOM     17  H   UNL A   1      28.347  26.122  24.818  1.00  0.00     0.165 HD
ATOM     18  O   UNL A   1      29.194  25.204  26.724  1.00  0.00    -0.249 OA
ATOM     19  H   UNL A   1      31.463  24.954  26.780  1.00  0.00     0.166 HD
BRANCH  15  20
ATOM     20  C   UNL A   1      29.779  26.673  23.486  1.00  0.00     0.154 C 
BRANCH  20  21
ATOM     21  C   UNL A   1      29.300  28.092  23.329  1.00  0.00    -0.015 A 
ATOM     22  C   UNL A   1      31.535  29.201  24.095  1.00  0.00     0.045 C 
ATOM     23  C   UNL A   1      30.119  29.254  23.621  1.00  0.00    -0.035 A 
ATOM     24  C   UNL A   1      29.425  30.431  23.410  1.00  0.00     0.068 A 
ATOM     25  S   UNL A   1      27.835  30.177  22.856  1.00  0.00    -0.152 S 
ATOM     26  C   UNL A   1      28.042  28.484  22.898  1.00  0.00     0.070 A 
ENDBRANCH  20  21
ENDBRANCH  15  20
ENDBRANCH  12  14
ENDBRANCH   8  12
ENDBRANCH   4   7
ENDBRANCH   2   3
ENDBRANCH   1   2
BRANCH   1  27
ATOM     27  C   UNL A   1      37.919  19.687  24.760  1.00  0.00     0.023 C 
BRANCH  27  28
ATOM     28  C   UNL A   1      38.752  19.865  26.029  1.00  0.00     0.116 C 
BRANCH  28  29
ATOM     29  N   UNL A   1      39.979  19.084  26.026  1.00  0.00    -0.352 N 
ATOM     30  C   UNL A   1      41.271  19.512  26.219  1.00  0.00     0.251 C 
ATOM     31  H   UNL A   1      39.869  18.120  25.862  1.00  0.00     0.163 HD
ATOM     32  O   UNL A   1      42.203  18.728  26.069  1.00  0.00    -0.269 OA
BRANCH  30  33
ATOM     33  C   UNL A   1      41.529  20.927  26.566  1.00  0.00     0.039 A 
ATOM     34  C   UNL A   1      42.269  21.211  27.715  1.00  0.00     0.014 A 
ATOM     35  C   UNL A   1      41.070  21.963  25.748  1.00  0.00     0.014 A 
ATOM     36  C   UNL A   1      42.612  22.533  28.005  1.00  0.00     0.010 A 
ATOM     37  C   UNL A   1      41.470  23.273  26.002  1.00  0.00     0.010 A 
ATOM     38  C   UNL A   1      42.252  23.571  27.129  1.00  0.00    -0.014 A 
BRANCH  38  39
ATOM     39  C   UNL A   1      42.710  24.963  27.369  1.00  0.00     0.031 A 
ATOM     40  C   UNL A   1      41.798  25.966  28.022  1.00  0.00     0.074 A 
ATOM     41  C   UNL A   1      43.934  25.338  26.946  1.00  0.00     0.049 A 
ATOM     42  N   UNL A   1      42.011  27.229  28.286  1.00  0.00    -0.248 NA
ATOM     43  C   UNL A   1      40.460  25.490  28.398  1.00  0.00     0.031 C 
ATOM     44  C   UNL A   1      44.887  24.470  26.249  1.00  0.00     0.029 A 
ATOM     45  N   UNL A   1      44.587  26.541  27.034  1.00  0.00    -0.354 N 
ATOM     46  C   UNL A   1      40.833  27.703  28.854  1.00  0.00     0.074 A 
ATOM     47  C   UNL A   1      39.890  26.604  28.831  1.00  0.00     0.031 C 
ATOM     48  C   UNL A   1      46.011  25.161  26.000  1.00  0.00     0.029 A 
ATOM     49  C   UNL A   1      45.847  26.529  26.480  1.00  0.00     0.049 A 
ATOM     50  H   UNL A   1      44.191  27.339  27.453  1.00  0.00     0.167 HD
ATOM     51  C   UNL A   1      40.571  28.932  29.366  1.00  0.00     0.034 A 
ATOM     52  C   UNL A   1      46.764  27.510  26.366  1.00  0.00     0.034 A 
ATOM     53  C   UNL A   1      41.529  30.014  29.383  1.00  0.00     0.049 A 
ATOM     54  C   UNL A   1      46.447  28.870  26.930  1.00  0.00     0.074 A 
ATOM     55  C   UNL A   1      41.393  31.276  29.935  1.00  0.00     0.029 A 
ATOM     56  N   UNL A   1      42.793  29.968  28.811  1.00  0.00    -0.354 N 
ATOM     57  N   UNL A   1      45.352  29.283  27.527  1.00  0.00    -0.248 NA
ATOM     58  C   UNL A   1      47.496  29.892  26.817  1.00  0.00     0.031 C 
ATOM     59  C   UNL A   1      42.544  32.014  29.635  1.00  0.00     0.029 A 
ATOM     60  C   UNL A   1      43.433  31.189  28.964  1.00  0.00     0.049 A 
ATOM     61  H   UNL A   1      43.180  29.181  28.362  1.00  0.00     0.167 HD
ATOM     62  C   UNL A   1      45.591  30.608  27.881  1.00  0.00     0.074 A 
ATOM     63  C   UNL A   1      46.941  30.915  27.451  1.00  0.00     0.031 C 
ATOM     64  C   UNL A   1      44.771  31.491  28.507  1.00  0.00     0.034 A 
BRANCH  51  65
ATOM     65  C   UNL A   1      39.188  29.170  29.924  1.00  0.00     0.023 A 
ATOM     66  C   UNL A   1      38.201  29.854  29.190  1.00  0.00     0.031 A 
ATOM     67  C   UNL A   1      38.856  28.739  31.221  1.00  0.00     0.131 A 
ATOM     68  C   UNL A   1      36.967  30.159  29.784  1.00  0.00     0.055 A 
ATOM     69  C   UNL A   1      37.595  28.970  31.775  1.00  0.00     0.041 A 
ATOM     70  F   UNL A   1      39.759  28.099  31.980  1.00  0.00    -0.206 F 
ATOM     71  C   UNL A   1      36.647  29.699  31.063  1.00  0.00     0.022 A 
BRANCH  68  72
ATOM     72  S   UNL A   1      35.849  31.296  28.921  1.00  0.00     0.124 S 
ATOM     73  O   UNL A   1      36.788  32.267  28.363  1.00  0.00    -0.237 OA
ATOM     74  O   UNL A   1      35.187  30.422  27.961  1.00  0.00    -0.237 OA
ATOM     75  O   UNL A   1      34.995  31.813  29.988  1.00  0.00    -0.744 OA
ENDBRANCH  68  72
ENDBRANCH  51  65
BRANCH  52  76
ATOM     76  C   UNL A   1      48.066  27.247  25.688  1.00  0.00     0.023 A 
ATOM     77  C   UNL A   1      48.216  27.445  24.306  1.00  0.00     0.031 A 
ATOM     78  C   UNL A   1      49.172  26.765  26.409  1.00  0.00     0.131 A 
ATOM     79  C   UNL A   1      49.431  27.123  23.682  1.00  0.00     0.055 A 
ATOM     80  C   UNL A   1      50.393  26.493  25.792  1.00  0.00     0.041 A 
ATOM     81  F   UNL A   1      49.083  26.564  27.734  1.00  0.00    -0.206 F 
ATOM     82  C   UNL A   1      50.524  26.660  24.417  1.00  0.00     0.022 A 
BRANCH  79  83
ATOM     83  S   UNL A   1      49.538  27.247  21.875  1.00  0.00     0.124 S 
ATOM     84  O   UNL A   1      48.930  28.549  21.628  1.00  0.00    -0.237 OA
ATOM     85  O   UNL A   1      50.978  27.159  21.651  1.00  0.00    -0.237 OA
ATOM     86  O   UNL A   1      48.767  26.097  21.409  1.00  0.00    -0.744 OA
ENDBRANCH  79  83
ENDBRANCH  52  76
BRANCH  64  87
ATOM     87  C   UNL A   1      45.334  32.865  28.784  1.00  0.00     0.023 A 
ATOM     88  C   UNL A   1      45.301  33.885  27.816  1.00  0.00     0.031 A 
ATOM     89  C   UNL A   1      45.936  33.149  30.022  1.00  0.00     0.131 A 
ATOM     90  C   UNL A   1      45.917  35.118  28.079  1.00  0.00     0.055 A 
ATOM     91  C   UNL A   1      46.489  34.399  30.301  1.00  0.00     0.041 A 
ATOM     92  F   UNL A   1      45.999  32.212  30.983  1.00  0.00    -0.206 F 
ATOM     93  C   UNL A   1      46.495  35.387  29.322  1.00  0.00     0.022 A 
BRANCH  90  94
ATOM     94  S   UNL A   1      46.044  36.331  26.735  1.00  0.00     0.124 S 
ATOM     95  O   UNL A   1      45.663  35.536  25.573  1.00  0.00    -0.237 OA
ATOM     96  O   UNL A   1      45.090  37.355  27.148  1.00  0.00    -0.237 OA
ATOM     97  O   UNL A   1      47.447  36.740  26.774  1.00  0.00    -0.744 OA
ENDBRANCH  90  94
ENDBRANCH  64  87
ENDBRANCH  38  39
ENDBRANCH  30  33
ENDBRANCH  28  29
ENDBRANCH  27  28
ENDBRANCH   1  27
TORSDOF 18
ENDMDL
MODEL 3
REMARK VINA RESULT:     -11.4      5.616      9.042
REMARK SMILES Cc1cscc1CNC(=O)N[C@@H](C)c1nc(C(=O)NCCCCNC(=O)c2ccc(-c3c4nc(c(-c5cc(S(=O)(=O)[O-])ccc5F)c5ccc([nH]5)c(-c5cc(S(=O)(=O)[O-])ccc5F)c5nc(c(-c6cc(S(=O)(=O)[O-])ccc6F)c6ccc3[nH]6)C=C5)C=C4)cc2)cs1
REMARK SMILES IDX 21 1 20 2 19 3 17 4 18 5 16 7 14 8 15 9 91 10 90 11 12 12
REMARK SMILES IDX 13 13 11 14 8 15 9 16 10 18 7 20 6 21 1 22 2 23 3 24 4 25
REMARK SMILES IDX 5 26 22 27 23 28 24 29 25 30 26 32 27 33 28 34 89 35 29 36
REMARK SMILES IDX 88 37 30 38 31 39 32 40 82 41 33 42 87 43 81 44 83 45 34 46
REMARK SMILES IDX 86 47 80 48 79 49 35 51 67 52 47 53 66 54 48 55 51 56 65 57
REMARK SMILES IDX 84 58 49 59 50 60 64 62 85 63 52 64 36 65 37 66 45 67 38 68
REMARK SMILES IDX 44 69 46 70 43 71 39 72 40 73 41 74 42 75 68 76 69 77 77 78
REMARK SMILES IDX 70 79 76 80 78 81 75 82 71 83 72 84 73 85 74 86 53 87 54 88
REMARK SMILES IDX 62 89 55 90 61 91 63 92 60 93 56 94 57 95 58 96 59 97
REMARK H PARENT 19 6 8 17 11 19 24 31 83 50 51 61
REMARK Flexibility Score: inf
ROOT
ATOM      1  C   UNL A   1      35.721  20.564  25.426  1.00  0.00     0.023 C 
ENDROOT
BRANCH   1   2
ATOM      2  C   UNL A   1      35.429  19.266  24.676  1.00  0.00     0.116 C 
BRANCH   2   3
ATOM      3  N   UNL A   1      34.227  18.626  25.175  1.00  0.00    -0.351 N 
ATOM      4  C   UNL A   1      32.899  18.910  24.948  1.00  0.00     0.270 C 
ATOM      5  O   UNL A   1      32.059  18.192  25.487  1.00  0.00    -0.267 OA
ATOM      6  H   UNL A   1      34.386  17.863  25.775  1.00  0.00     0.163 HD
BRANCH   4   7
ATOM      7  C   UNL A   1      32.505  20.008  24.053  1.00  0.00     0.139 A 
ATOM      8  C   UNL A   1      32.146  22.113  23.409  1.00  0.00     0.116 A 
ATOM      9  N   UNL A   1      32.401  21.340  24.443  1.00  0.00    -0.234 NA
ATOM     10  S   UNL A   1      31.911  21.290  21.923  1.00  0.00    -0.124 S 
ATOM     11  C   UNL A   1      32.211  19.803  22.713  1.00  0.00     0.101 A 
BRANCH   8  12
ATOM     12  C   UNL A   1      32.089  23.621  23.483  1.00  0.00     0.140 C 
ATOM     13  C   UNL A   1      30.692  24.071  23.914  1.00  0.00     0.039 C 
BRANCH  12  14
ATOM     14  N   UNL A   1      32.377  24.143  22.155  1.00  0.00    -0.329 N 
ATOM     15  N   UNL A   1      33.471  26.222  22.390  1.00  0.00    -0.334 N 
ATOM     16  C   UNL A   1      32.980  25.220  21.659  1.00  0.00     0.315 C 
ATOM     17  H   UNL A   1      33.931  26.895  21.839  1.00  0.00     0.165 HD
ATOM     18  O   UNL A   1      33.110  25.298  20.437  1.00  0.00    -0.249 OA
ATOM     19  H   UNL A   1      32.042  23.550  21.445  1.00  0.00     0.166 HD
BRANCH  15  20
ATOM     20  C   UNL A   1      33.491  26.554  23.793  1.00  0.00     0.154 C 
BRANCH  20  21
ATOM     21  C   UNL A   1      32.587  27.720  24.094  1.00  0.00    -0.015 A 
ATOM     22  C   UNL A   1      34.082  28.719  25.986  1.00  0.00     0.045 C 
ATOM     23  C   UNL A   1      32.867  28.712  25.116  1.00  0.00    -0.035 A 
ATOM     24  C   UNL A   1      31.863  29.659  25.196  1.00  0.00     0.068 A 
ATOM     25  S   UNL A   1      30.613  29.399  24.069  1.00  0.00    -0.152 S 
ATOM     26  C   UNL A   1      31.388  28.006  23.460  1.00  0.00     0.070 A 
ENDBRANCH  20  21
ENDBRANCH  15  20
ENDBRANCH  12  14
ENDBRANCH   8  12
ENDBRANCH   4   7
ENDBRANCH   2   3
ENDBRANCH   1   2
BRANCH   1  27
ATOM     27  C   UNL A   1      36.332  21.664  24.548  1.00  0.00     0.023 C 
BRANCH  27  28
ATOM     28  C   UNL A   1      37.667  22.224  25.036  1.00  0.00     0.116 C 
BRANCH  28  29
ATOM     29  N   UNL A   1      38.537  21.212  25.615  1.00  0.00    -0.352 N 
ATOM     30  C   UNL A   1      39.625  21.383  26.438  1.00  0.00     0.251 C 
ATOM     31  H   UNL A   1      38.318  20.281  25.386  1.00  0.00     0.163 HD
ATOM     32  O   UNL A   1      40.318  20.417  26.743  1.00  0.00    -0.269 OA
BRANCH  30  33
ATOM     33  C   UNL A   1      39.976  22.738  26.915  1.00  0.00     0.039 A 
ATOM     34  C   UNL A   1      40.937  22.867  27.919  1.00  0.00     0.014 A 
ATOM     35  C   UNL A   1      39.385  23.874  26.354  1.00  0.00     0.014 A 
ATOM     36  C   UNL A   1      41.358  24.139  28.312  1.00  0.00     0.010 A 
ATOM     37  C   UNL A   1      39.855  25.139  26.698  1.00  0.00     0.010 A 
ATOM     38  C   UNL A   1      40.852  25.285  27.675  1.00  0.00    -0.014 A 
BRANCH  38  39
ATOM     39  C   UNL A   1      41.378  26.634  28.006  1.00  0.00     0.031 A 
ATOM     40  C   UNL A   1      42.789  27.013  27.646  1.00  0.00     0.074 A 
ATOM     41  C   UNL A   1      40.598  27.500  28.684  1.00  0.00     0.049 A 
ATOM     42  N   UNL A   1      43.431  28.129  27.878  1.00  0.00    -0.248 NA
ATOM     43  C   UNL A   1      43.591  25.989  26.961  1.00  0.00     0.031 C 
ATOM     44  C   UNL A   1      39.232  27.224  29.138  1.00  0.00     0.029 A 
ATOM     45  N   UNL A   1      40.837  28.780  29.113  1.00  0.00    -0.354 N 
ATOM     46  C   UNL A   1      44.714  27.941  27.375  1.00  0.00     0.074 A 
ATOM     47  C   UNL A   1      44.774  26.579  26.887  1.00  0.00     0.031 C 
ATOM     48  C   UNL A   1      38.747  28.313  29.755  1.00  0.00     0.029 A 
ATOM     49  C   UNL A   1      39.775  29.348  29.778  1.00  0.00     0.049 A 
ATOM     50  H   UNL A   1      41.689  29.249  28.960  1.00  0.00     0.167 HD
ATOM     51  C   UNL A   1      45.738  28.830  27.306  1.00  0.00     0.034 A 
ATOM     52  C   UNL A   1      39.646  30.563  30.348  1.00  0.00     0.034 A 
ATOM     53  C   UNL A   1      45.656  30.186  27.796  1.00  0.00     0.049 A 
ATOM     54  C   UNL A   1      40.799  31.528  30.271  1.00  0.00     0.074 A 
ATOM     55  C   UNL A   1      46.607  31.189  27.718  1.00  0.00     0.029 A 
ATOM     56  N   UNL A   1      44.567  30.727  28.466  1.00  0.00    -0.354 N 
ATOM     57  N   UNL A   1      41.984  31.359  29.729  1.00  0.00    -0.248 NA
ATOM     58  C   UNL A   1      40.592  32.853  30.870  1.00  0.00     0.031 C 
ATOM     59  C   UNL A   1      46.122  32.310  28.402  1.00  0.00     0.029 A 
ATOM     60  C   UNL A   1      44.835  32.036  28.840  1.00  0.00     0.049 A 
ATOM     61  H   UNL A   1      43.724  30.251  28.649  1.00  0.00     0.167 HD
ATOM     62  C   UNL A   1      42.655  32.566  29.904  1.00  0.00     0.074 A 
ATOM     63  C   UNL A   1      41.734  33.458  30.579  1.00  0.00     0.031 C 
ATOM     64  C   UNL A   1      43.917  32.908  29.537  1.00  0.00     0.034 A 
BRANCH  51  65
ATOM     65  C   UNL A   1      47.036  28.346  26.702  1.00  0.00     0.023 A 
ATOM     66  C   UNL A   1      47.237  28.311  25.310  1.00  0.00     0.031 A 
ATOM     67  C   UNL A   1      48.076  27.879  27.525  1.00  0.00     0.131 A 
ATOM     68  C   UNL A   1      48.408  27.747  24.782  1.00  0.00     0.055 A 
ATOM     69  C   UNL A   1      49.276  27.398  26.996  1.00  0.00     0.041 A 
ATOM     70  F   UNL A   1      47.939  27.867  28.860  1.00  0.00    -0.206 F 
ATOM     71  C   UNL A   1      49.441  27.313  25.616  1.00  0.00     0.022 A 
BRANCH  68  72
ATOM     72  S   UNL A   1      48.494  27.446  22.996  1.00  0.00     0.124 S 
ATOM     73  O   UNL A   1      47.326  28.181  22.516  1.00  0.00    -0.237 OA
ATOM     74  O   UNL A   1      49.793  28.007  22.643  1.00  0.00    -0.237 OA
ATOM     75  O   UNL A   1      48.392  25.993  22.888  1.00  0.00    -0.744 OA
ENDBRANCH  68  72
ENDBRANCH  51  65
BRANCH  52  76
ATOM     76  C   UNL A   1      38.381  30.936  31.044  1.00  0.00     0.023 A 
ATOM     77  C   UNL A   1      37.348  31.598  30.363  1.00  0.00     0.031 A 
ATOM     78  C   UNL A   1      38.200  30.662  32.411  1.00  0.00     0.131 A 
ATOM     79  C   UNL A   1      36.197  32.002  31.058  1.00  0.00     0.055 A 
ATOM     80  C   UNL A   1      37.033  31.020  33.087  1.00  0.00     0.041 A 
ATOM     81  F   UNL A   1      39.155  30.024  33.107  1.00  0.00    -0.206 F 
ATOM     82  C   UNL A   1      36.027  31.706  32.412  1.00  0.00     0.022 A 
BRANCH  79  83
ATOM     83  S   UNL A   1      34.953  32.989  30.181  1.00  0.00     0.124 S 
ATOM     84  O   UNL A   1      34.037  33.341  31.261  1.00  0.00    -0.237 OA
ATOM     85  O   UNL A   1      35.758  34.080  29.642  1.00  0.00    -0.237 OA
ATOM     86  O   UNL A   1      34.421  32.059  29.187  1.00  0.00    -0.744 OA
ENDBRANCH  79  83
ENDBRANCH  52  76
BRANCH  64  87
ATOM     87  C   UNL A   1      44.356  34.321  29.840  1.00  0.00     0.023 A 
ATOM     88  C   UNL A   1      44.157  35.369  28.923  1.00  0.00     0.031 A 
ATOM     89  C   UNL A   1      45.007  34.617  31.050  1.00  0.00     0.131 A 
ATOM     90  C   UNL A   1      44.662  36.648  29.203  1.00  0.00     0.055 A 
ATOM     91  C   UNL A   1      45.450  35.906  31.351  1.00  0.00     0.041 A 
ATOM     92  F   UNL A   1      45.228  33.655  31.962  1.00  0.00    -0.206 F 
ATOM     93  C   UNL A   1      45.292  36.927  30.419  1.00  0.00     0.022 A 
BRANCH  90  94
ATOM     94  S   UNL A   1      44.578  37.918  27.911  1.00  0.00     0.124 S 
ATOM     95  O   UNL A   1      43.174  37.861  27.520  1.00  0.00    -0.237 OA
ATOM     96  O   UNL A   1      44.992  39.121  28.627  1.00  0.00    -0.237 OA
ATOM     97  O   UNL A   1      45.522  37.444  26.901  1.00  0.00    -0.744 OA
ENDBRANCH  90  94
ENDBRANCH  64  87
ENDBRANCH  38  39
ENDBRANCH  30  33
ENDBRANCH  28  29
ENDBRANCH  27  28
ENDBRANCH   1  27
TORSDOF 18
ENDMDL
