MODEL 1
REMARK VINA RESULT:     -13.0      0.000      0.000
REMARK SMILES Cc1cccc(-c2ccc(Cl)c(C(=O)NCCCCNC(=O)c3ccc(-c4c5nc(c(-c6cc(S(=O)(=O)[O-])ccc6F)c6ccc([nH]6)c(-c6cc(S(=O)(=O)[O-])ccc6F)c6nc(c(-c7cc(S(=O)(=O)[O-])ccc7F)c7ccc4[nH]7)C=C6)C=C5)cc3)c2)c1
REMARK SMILES IDX 18 1 17 2 16 3 15 4 13 5 14 6 12 8 7 9 8 10 86 11 9 12 10 13
REMARK SMILES IDX 11 14 6 15 1 16 2 17 3 18 87 19 4 20 5 21 19 22 20 23 21 24
REMARK SMILES IDX 22 26 23 27 24 28 85 29 25 30 84 31 26 32 27 33 28 34 78 35
REMARK SMILES IDX 29 36 83 37 77 38 79 39 30 40 82 41 76 42 75 43 31 45 63 46
REMARK SMILES IDX 43 47 62 48 44 49 47 50 61 51 80 52 45 53 46 54 60 56 81 57
REMARK SMILES IDX 48 58 32 59 33 60 41 61 34 62 40 63 42 64 39 65 35 66 36 67
REMARK SMILES IDX 37 68 38 69 64 70 65 71 73 72 66 73 72 74 74 75 71 76 67 77
REMARK SMILES IDX 68 78 69 79 70 80 49 81 50 82 58 83 51 84 57 85 59 86 56 87
REMARK SMILES IDX 52 88 53 89 54 90 55 91
REMARK H PARENT 15 7 20 25 79 44 47 55
REMARK Flexibility Score: inf
ROOT
ATOM      1  C   UNL A   1      32.871  30.639  26.979  1.00  0.00     0.023 C 
ENDROOT
BRANCH   1   2
ATOM      2  C   UNL A   1      31.821  29.547  26.808  1.00  0.00     0.023 C 
BRANCH   2   3
ATOM      3  C   UNL A   1      32.239  28.132  27.209  1.00  0.00     0.116 C 
BRANCH   3   4
ATOM      4  N   UNL A   1      31.180  27.130  27.094  1.00  0.00    -0.352 N 
ATOM      5  C   UNL A   1      31.071  26.021  26.284  1.00  0.00     0.252 C 
ATOM      6  O   UNL A   1      30.062  25.320  26.372  1.00  0.00    -0.269 OA
ATOM      7  H   UNL A   1      30.416  27.271  27.699  1.00  0.00     0.163 HD
BRANCH   5   8
ATOM      8  C   UNL A   1      32.068  25.705  25.230  1.00  0.00     0.059 A 
ATOM      9  C   UNL A   1      34.041  24.376  24.619  1.00  0.00    -0.017 A 
ATOM     10  C   UNL A   1      33.909  24.861  23.307  1.00  0.00     0.010 A 
ATOM     11  C   UNL A   1      33.063  24.753  25.554  1.00  0.00     0.024 A 
ATOM     12  C   UNL A   1      32.986  25.859  23.003  1.00  0.00     0.022 A 
ATOM     13  C   UNL A   1      32.135  26.351  23.993  1.00  0.00     0.053 A 
ATOM     14  Cl  UNL A   1      31.358  27.857  23.666  1.00  0.00    -0.083 Cl
BRANCH   9  15
ATOM     15  C   UNL A   1      35.258  23.633  24.998  1.00  0.00    -0.018 A 
ATOM     16  C   UNL A   1      36.401  19.979  24.842  1.00  0.00     0.044 C 
ATOM     17  C   UNL A   1      36.414  21.459  25.091  1.00  0.00    -0.051 A 
ATOM     18  C   UNL A   1      37.531  22.085  25.645  1.00  0.00     0.003 A 
ATOM     19  C   UNL A   1      35.296  22.239  24.774  1.00  0.00     0.012 A 
ATOM     20  C   UNL A   1      37.525  23.465  25.863  1.00  0.00     0.001 A 
ATOM     21  C   UNL A   1      36.399  24.235  25.539  1.00  0.00     0.009 A 
ENDBRANCH   9  15
ENDBRANCH   5   8
ENDBRANCH   3   4
ENDBRANCH   2   3
ENDBRANCH   1   2
BRANCH   1  22
ATOM     22  C   UNL A   1      34.199  30.199  27.585  1.00  0.00     0.116 C 
BRANCH  22  23
ATOM     23  N   UNL A   1      34.952  31.247  28.259  1.00  0.00    -0.352 N 
ATOM     24  C   UNL A   1      36.169  31.167  28.936  1.00  0.00     0.251 C 
ATOM     25  H   UNL A   1      34.544  32.143  28.233  1.00  0.00     0.163 HD
ATOM     26  O   UNL A   1      36.615  32.122  29.532  1.00  0.00    -0.269 OA
BRANCH  24  27
ATOM     27  C   UNL A   1      36.973  29.916  28.831  1.00  0.00     0.039 A 
ATOM     28  C   UNL A   1      37.129  29.140  29.987  1.00  0.00     0.014 A 
ATOM     29  C   UNL A   1      37.714  29.623  27.694  1.00  0.00     0.014 A 
ATOM     30  C   UNL A   1      38.199  28.250  30.077  1.00  0.00     0.010 A 
ATOM     31  C   UNL A   1      38.842  28.840  27.821  1.00  0.00     0.010 A 
ATOM     32  C   UNL A   1      39.122  28.205  29.034  1.00  0.00    -0.014 A 
BRANCH  32  33
ATOM     33  C   UNL A   1      40.470  27.660  29.163  1.00  0.00     0.031 A 
ATOM     34  C   UNL A   1      40.779  26.279  28.744  1.00  0.00     0.074 A 
ATOM     35  C   UNL A   1      41.473  28.495  29.509  1.00  0.00     0.049 A 
ATOM     36  N   UNL A   1      41.846  25.634  29.074  1.00  0.00    -0.248 NA
ATOM     37  C   UNL A   1      39.864  25.494  27.927  1.00  0.00     0.031 C 
ATOM     38  C   UNL A   1      42.909  28.274  29.372  1.00  0.00     0.029 A 
ATOM     39  N   UNL A   1      41.372  29.644  30.294  1.00  0.00    -0.354 N 
ATOM     40  C   UNL A   1      41.914  24.507  28.287  1.00  0.00     0.074 A 
ATOM     41  C   UNL A   1      40.619  24.427  27.653  1.00  0.00     0.031 C 
ATOM     42  C   UNL A   1      43.551  29.057  30.252  1.00  0.00     0.029 A 
ATOM     43  C   UNL A   1      42.541  29.688  31.083  1.00  0.00     0.049 A 
ATOM     44  H   UNL A   1      40.633  30.295  30.297  1.00  0.00     0.167 HD
ATOM     45  C   UNL A   1      43.107  23.853  28.161  1.00  0.00     0.034 A 
ATOM     46  C   UNL A   1      42.447  29.566  32.441  1.00  0.00     0.034 A 
ATOM     47  C   UNL A   1      44.121  24.402  29.071  1.00  0.00     0.049 A 
ATOM     48  C   UNL A   1      43.107  28.317  33.001  1.00  0.00     0.074 A 
ATOM     49  C   UNL A   1      45.225  25.228  28.925  1.00  0.00     0.029 A 
ATOM     50  N   UNL A   1      43.900  24.313  30.436  1.00  0.00    -0.354 N 
ATOM     51  N   UNL A   1      43.710  27.406  32.284  1.00  0.00    -0.248 NA
ATOM     52  C   UNL A   1      43.060  27.958  34.419  1.00  0.00     0.031 C 
ATOM     53  C   UNL A   1      45.620  25.675  30.223  1.00  0.00     0.029 A 
ATOM     54  C   UNL A   1      44.777  25.100  31.156  1.00  0.00     0.049 A 
ATOM     55  H   UNL A   1      43.200  23.753  30.844  1.00  0.00     0.167 HD
ATOM     56  C   UNL A   1      44.052  26.345  33.083  1.00  0.00     0.074 A 
ATOM     57  C   UNL A   1      43.633  26.743  34.415  1.00  0.00     0.031 C 
ATOM     58  C   UNL A   1      44.607  25.194  32.600  1.00  0.00     0.034 A 
BRANCH  45  59
ATOM     59  C   UNL A   1      43.438  22.885  27.041  1.00  0.00     0.023 A 
ATOM     60  C   UNL A   1      42.864  21.596  27.059  1.00  0.00     0.031 A 
ATOM     61  C   UNL A   1      44.330  23.121  25.975  1.00  0.00     0.131 A 
ATOM     62  C   UNL A   1      43.253  20.600  26.142  1.00  0.00     0.055 A 
ATOM     63  C   UNL A   1      44.767  22.115  25.102  1.00  0.00     0.041 A 
ATOM     64  F   UNL A   1      44.770  24.348  25.676  1.00  0.00    -0.206 F 
ATOM     65  C   UNL A   1      44.238  20.840  25.191  1.00  0.00     0.022 A 
BRANCH  62  66
ATOM     66  S   UNL A   1      42.441  18.980  26.200  1.00  0.00     0.124 S 
ATOM     67  O   UNL A   1      41.096  19.290  25.728  1.00  0.00    -0.237 OA
ATOM     68  O   UNL A   1      43.277  18.186  25.307  1.00  0.00    -0.237 OA
ATOM     69  O   UNL A   1      42.527  18.610  27.614  1.00  0.00    -0.744 OA
ENDBRANCH  62  66
ENDBRANCH  45  59
BRANCH  46  70
ATOM     70  C   UNL A   1      41.221  30.230  32.981  1.00  0.00     0.023 A 
ATOM     71  C   UNL A   1      41.192  31.645  32.970  1.00  0.00     0.031 A 
ATOM     72  C   UNL A   1      40.000  29.552  33.103  1.00  0.00     0.131 A 
ATOM     73  C   UNL A   1      39.970  32.328  32.915  1.00  0.00     0.055 A 
ATOM     74  C   UNL A   1      38.782  30.244  33.115  1.00  0.00     0.041 A 
ATOM     75  F   UNL A   1      39.954  28.212  33.074  1.00  0.00    -0.206 F 
ATOM     76  C   UNL A   1      38.762  31.631  32.973  1.00  0.00     0.022 A 
BRANCH  73  77
ATOM     77  S   UNL A   1      39.955  34.101  32.504  1.00  0.00     0.124 S 
ATOM     78  O   UNL A   1      41.309  34.307  32.000  1.00  0.00    -0.237 OA
ATOM     79  O   UNL A   1      38.887  34.211  31.513  1.00  0.00    -0.237 OA
ATOM     80  O   UNL A   1      39.653  34.739  33.783  1.00  0.00    -0.744 OA
ENDBRANCH  73  77
ENDBRANCH  46  70
BRANCH  58  81
ATOM     81  C   UNL A   1      45.004  24.044  33.491  1.00  0.00     0.023 A 
ATOM     82  C   UNL A   1      46.344  23.817  33.846  1.00  0.00     0.031 A 
ATOM     83  C   UNL A   1      44.065  23.097  33.955  1.00  0.00     0.131 A 
ATOM     84  C   UNL A   1      46.693  22.745  34.686  1.00  0.00     0.055 A 
ATOM     85  C   UNL A   1      44.428  21.980  34.712  1.00  0.00     0.041 A 
ATOM     86  F   UNL A   1      42.750  23.241  33.734  1.00  0.00    -0.206 F 
ATOM     87  C   UNL A   1      45.750  21.806  35.096  1.00  0.00     0.022 A 
BRANCH  84  88
ATOM     88  S   UNL A   1      48.391  22.652  35.310  1.00  0.00     0.124 S 
ATOM     89  O   UNL A   1      48.279  23.257  36.634  1.00  0.00    -0.237 OA
ATOM     90  O   UNL A   1      48.632  21.211  35.290  1.00  0.00    -0.237 OA
ATOM     91  O   UNL A   1      49.160  23.422  34.336  1.00  0.00    -0.744 OA
ENDBRANCH  84  88
ENDBRANCH  58  81
ENDBRANCH  32  33
ENDBRANCH  24  27
ENDBRANCH  22  23
ENDBRANCH   1  22
TORSDOF 15
ENDMDL
MODEL 2
REMARK VINA RESULT:     -13.0      2.015      3.915
REMARK SMILES Cc1cccc(-c2ccc(Cl)c(C(=O)NCCCCNC(=O)c3ccc(-c4c5nc(c(-c6cc(S(=O)(=O)[O-])ccc6F)c6ccc([nH]6)c(-c6cc(S(=O)(=O)[O-])ccc6F)c6nc(c(-c7cc(S(=O)(=O)[O-])ccc7F)c7ccc4[nH]7)C=C6)C=C5)cc3)c2)c1
REMARK SMILES IDX 18 1 17 2 16 3 15 4 13 5 14 6 12 8 7 9 8 10 86 11 9 12 10 13
REMARK SMILES IDX 11 14 6 15 1 16 2 17 3 18 87 19 4 20 5 21 19 22 20 23 21 24
REMARK SMILES IDX 22 26 23 27 24 28 85 29 25 30 84 31 26 32 27 33 28 34 78 35
REMARK SMILES IDX 29 36 83 37 77 38 79 39 30 40 82 41 76 42 75 43 31 45 63 46
REMARK SMILES IDX 43 47 62 48 44 49 47 50 61 51 80 52 45 53 46 54 60 56 81 57
REMARK SMILES IDX 48 58 32 59 33 60 41 61 34 62 40 63 42 64 39 65 35 66 36 67
REMARK SMILES IDX 37 68 38 69 64 70 65 71 73 72 66 73 72 74 74 75 71 76 67 77
REMARK SMILES IDX 68 78 69 79 70 80 49 81 50 82 58 83 51 84 57 85 59 86 56 87
REMARK SMILES IDX 52 88 53 89 54 90 55 91
REMARK H PARENT 15 7 20 25 79 44 47 55
REMARK Flexibility Score: inf
ROOT
ATOM      1  C   UNL A   1      32.937  30.633  27.057  1.00  0.00     0.023 C 
ENDROOT
BRANCH   1   2
ATOM      2  C   UNL A   1      31.774  29.653  27.173  1.00  0.00     0.023 C 
BRANCH   2   3
ATOM      3  C   UNL A   1      32.140  28.191  27.431  1.00  0.00     0.116 C 
BRANCH   3   4
ATOM      4  N   UNL A   1      32.948  27.572  26.381  1.00  0.00    -0.352 N 
ATOM      5  C   UNL A   1      32.637  27.242  25.080  1.00  0.00     0.252 C 
ATOM      6  O   UNL A   1      33.503  26.717  24.379  1.00  0.00    -0.269 OA
ATOM      7  H   UNL A   1      33.870  27.354  26.649  1.00  0.00     0.163 HD
BRANCH   5   8
ATOM      8  C   UNL A   1      31.267  27.391  24.527  1.00  0.00     0.059 A 
ATOM      9  C   UNL A   1      29.695  28.851  23.331  1.00  0.00    -0.017 A 
ATOM     10  C   UNL A   1      28.799  27.770  23.276  1.00  0.00     0.010 A 
ATOM     11  C   UNL A   1      30.960  28.620  23.899  1.00  0.00     0.024 A 
ATOM     12  C   UNL A   1      29.062  26.588  23.963  1.00  0.00     0.022 A 
ATOM     13  C   UNL A   1      30.254  26.440  24.672  1.00  0.00     0.053 A 
ATOM     14  Cl  UNL A   1      30.308  25.167  25.838  1.00  0.00    -0.083 Cl
BRANCH   9  15
ATOM     15  C   UNL A   1      29.231  30.198  22.945  1.00  0.00    -0.018 A 
ATOM     16  C   UNL A   1      27.824  31.804  19.764  1.00  0.00     0.044 C 
ATOM     17  C   UNL A   1      28.298  31.639  21.178  1.00  0.00    -0.051 A 
ATOM     18  C   UNL A   1      28.286  32.712  22.070  1.00  0.00     0.003 A 
ATOM     19  C   UNL A   1      28.768  30.399  21.626  1.00  0.00     0.012 A 
ATOM     20  C   UNL A   1      28.726  32.536  23.384  1.00  0.00     0.001 A 
ATOM     21  C   UNL A   1      29.192  31.288  23.821  1.00  0.00     0.009 A 
ENDBRANCH   9  15
ENDBRANCH   5   8
ENDBRANCH   3   4
ENDBRANCH   2   3
ENDBRANCH   1   2
BRANCH   1  22
ATOM     22  C   UNL A   1      34.250  30.189  27.690  1.00  0.00     0.116 C 
BRANCH  22  23
ATOM     23  N   UNL A   1      35.057  31.258  28.262  1.00  0.00    -0.352 N 
ATOM     24  C   UNL A   1      36.330  31.199  28.830  1.00  0.00     0.251 C 
ATOM     25  H   UNL A   1      34.645  32.152  28.244  1.00  0.00     0.163 HD
ATOM     26  O   UNL A   1      36.825  32.172  29.353  1.00  0.00    -0.269 OA
BRANCH  24  27
ATOM     27  C   UNL A   1      37.125  29.946  28.691  1.00  0.00     0.039 A 
ATOM     28  C   UNL A   1      37.238  29.116  29.814  1.00  0.00     0.014 A 
ATOM     29  C   UNL A   1      37.899  29.698  27.565  1.00  0.00     0.014 A 
ATOM     30  C   UNL A   1      38.297  28.212  29.896  1.00  0.00     0.010 A 
ATOM     31  C   UNL A   1      39.016  28.899  27.690  1.00  0.00     0.010 A 
ATOM     32  C   UNL A   1      39.252  28.206  28.881  1.00  0.00    -0.014 A 
BRANCH  32  33
ATOM     33  C   UNL A   1      40.590  27.641  29.026  1.00  0.00     0.031 A 
ATOM     34  C   UNL A   1      40.880  26.251  28.626  1.00  0.00     0.074 A 
ATOM     35  C   UNL A   1      41.604  28.464  29.368  1.00  0.00     0.049 A 
ATOM     36  N   UNL A   1      41.934  25.593  28.971  1.00  0.00    -0.248 NA
ATOM     37  C   UNL A   1      39.959  25.470  27.813  1.00  0.00     0.031 C 
ATOM     38  C   UNL A   1      43.037  28.219  29.244  1.00  0.00     0.029 A 
ATOM     39  N   UNL A   1      41.516  29.625  30.138  1.00  0.00    -0.354 N 
ATOM     40  C   UNL A   1      41.990  24.455  28.199  1.00  0.00     0.074 A 
ATOM     41  C   UNL A   1      40.698  24.388  27.557  1.00  0.00     0.031 C 
ATOM     42  C   UNL A   1      43.685  29.004  30.119  1.00  0.00     0.029 A 
ATOM     43  C   UNL A   1      42.680  29.660  30.935  1.00  0.00     0.049 A 
ATOM     44  H   UNL A   1      40.787  30.287  30.128  1.00  0.00     0.167 HD
ATOM     45  C   UNL A   1      43.174  23.782  28.090  1.00  0.00     0.034 A 
ATOM     46  C   UNL A   1      42.575  29.557  32.293  1.00  0.00     0.034 A 
ATOM     47  C   UNL A   1      44.191  24.326  29.000  1.00  0.00     0.049 A 
ATOM     48  C   UNL A   1      43.211  28.305  32.874  1.00  0.00     0.074 A 
ATOM     49  C   UNL A   1      45.307  25.133  28.851  1.00  0.00     0.029 A 
ATOM     50  N   UNL A   1      43.959  24.257  30.364  1.00  0.00    -0.354 N 
ATOM     51  N   UNL A   1      43.804  27.375  32.173  1.00  0.00    -0.248 NA
ATOM     52  C   UNL A   1      43.149  27.964  34.296  1.00  0.00     0.031 C 
ATOM     53  C   UNL A   1      45.701  25.589  30.146  1.00  0.00     0.029 A 
ATOM     54  C   UNL A   1      44.843  25.040  31.081  1.00  0.00     0.049 A 
ATOM     55  H   UNL A   1      43.248  23.714  30.774  1.00  0.00     0.167 HD
ATOM     56  C   UNL A   1      44.124  26.320  32.987  1.00  0.00     0.074 A 
ATOM     57  C   UNL A   1      43.702  26.740  34.311  1.00  0.00     0.031 C 
ATOM     58  C   UNL A   1      44.665  25.154  32.521  1.00  0.00     0.034 A 
BRANCH  45  59
ATOM     59  C   UNL A   1      43.497  22.794  26.984  1.00  0.00     0.023 A 
ATOM     60  C   UNL A   1      42.928  21.504  27.031  1.00  0.00     0.031 A 
ATOM     61  C   UNL A   1      44.378  23.014  25.906  1.00  0.00     0.131 A 
ATOM     62  C   UNL A   1      43.311  20.493  26.128  1.00  0.00     0.055 A 
ATOM     63  C   UNL A   1      44.810  21.994  25.046  1.00  0.00     0.041 A 
ATOM     64  F   UNL A   1      44.811  24.236  25.580  1.00  0.00    -0.206 F 
ATOM     65  C   UNL A   1      44.285  20.719  25.163  1.00  0.00     0.022 A 
BRANCH  62  66
ATOM     66  S   UNL A   1      42.505  18.872  26.224  1.00  0.00     0.124 S 
ATOM     67  O   UNL A   1      42.583  18.570  27.649  1.00  0.00    -0.237 OA
ATOM     68  O   UNL A   1      41.178  19.157  25.691  1.00  0.00    -0.237 OA
ATOM     69  O   UNL A   1      43.342  18.028  25.370  1.00  0.00    -0.744 OA
ENDBRANCH  62  66
ENDBRANCH  45  59
BRANCH  46  70
ATOM     70  C   UNL A   1      41.356  30.247  32.816  1.00  0.00     0.023 A 
ATOM     71  C   UNL A   1      41.370  31.662  32.837  1.00  0.00     0.031 A 
ATOM     72  C   UNL A   1      40.112  29.604  32.892  1.00  0.00     0.131 A 
ATOM     73  C   UNL A   1      40.171  32.384  32.766  1.00  0.00     0.055 A 
ATOM     74  C   UNL A   1      38.916  30.333  32.888  1.00  0.00     0.041 A 
ATOM     75  F   UNL A   1      40.026  28.268  32.832  1.00  0.00    -0.206 F 
ATOM     76  C   UNL A   1      38.941  31.723  32.778  1.00  0.00     0.022 A 
BRANCH  73  77
ATOM     77  S   UNL A   1      40.221  34.164  32.395  1.00  0.00     0.124 S 
ATOM     78  O   UNL A   1      39.229  34.696  33.324  1.00  0.00    -0.237 OA
ATOM     79  O   UNL A   1      41.608  34.530  32.671  1.00  0.00    -0.237 OA
ATOM     80  O   UNL A   1      39.857  34.222  30.981  1.00  0.00    -0.744 OA
ENDBRANCH  73  77
ENDBRANCH  46  70
BRANCH  58  81
ATOM     81  C   UNL A   1      45.037  24.009  33.430  1.00  0.00     0.023 A 
ATOM     82  C   UNL A   1      46.372  23.765  33.796  1.00  0.00     0.031 A 
ATOM     83  C   UNL A   1      44.080  23.084  33.900  1.00  0.00     0.131 A 
ATOM     84  C   UNL A   1      46.698  22.699  34.652  1.00  0.00     0.055 A 
ATOM     85  C   UNL A   1      44.421  21.971  34.673  1.00  0.00     0.041 A 
ATOM     86  F   UNL A   1      42.769  23.246  33.669  1.00  0.00    -0.206 F 
ATOM     87  C   UNL A   1      45.737  21.780  35.067  1.00  0.00     0.022 A 
BRANCH  84  88
ATOM     88  S   UNL A   1      48.390  22.586  35.288  1.00  0.00     0.124 S 
ATOM     89  O   UNL A   1      49.180  23.156  34.201  1.00  0.00    -0.237 OA
ATOM     90  O   UNL A   1      48.302  23.396  36.501  1.00  0.00    -0.237 OA
ATOM     91  O   UNL A   1      48.580  21.155  35.512  1.00  0.00    -0.744 OA
ENDBRANCH  84  88
ENDBRANCH  58  81
ENDBRANCH  32  33
ENDBRANCH  24  27
ENDBRANCH  22  23
ENDBRANCH   1  22
TORSDOF 15
ENDMDL
MODEL 3
REMARK VINA RESULT:     -12.2      2.909      4.654
REMARK SMILES Cc1cccc(-c2ccc(Cl)c(C(=O)NCCCCNC(=O)c3ccc(-c4c5nc(c(-c6cc(S(=O)(=O)[O-])ccc6F)c6ccc([nH]6)c(-c6cc(S(=O)(=O)[O-])ccc6F)c6nc(c(-c7cc(S(=O)(=O)[O-])ccc7F)c7ccc4[nH]7)C=C6)C=C5)cc3)c2)c1
REMARK SMILES IDX 18 1 17 2 16 3 15 4 13 5 14 6 12 8 7 9 8 10 86 11 9 12 10 13
REMARK SMILES IDX 11 14 6 15 1 16 2 17 3 18 87 19 4 20 5 21 19 22 20 23 21 24
REMARK SMILES IDX 22 26 23 27 24 28 85 29 25 30 84 31 26 32 27 33 28 34 78 35
REMARK SMILES IDX 29 36 83 37 77 38 79 39 30 40 82 41 76 42 75 43 31 45 63 46
REMARK SMILES IDX 43 47 62 48 44 49 47 50 61 51 80 52 45 53 46 54 60 56 81 57
REMARK SMILES IDX 48 58 32 59 33 60 41 61 34 62 40 63 42 64 39 65 35 66 36 67
REMARK SMILES IDX 37 68 38 69 64 70 65 71 73 72 66 73 72 74 74 75 71 76 67 77
REMARK SMILES IDX 68 78 69 79 70 80 49 81 50 82 58 83 51 84 57 85 59 86 56 87
REMARK SMILES IDX 52 88 53 89 54 90 55 91
REMARK H PARENT 15 7 20 25 79 44 47 55
REMARK Flexibility Score: inf
ROOT
ATOM      1  C   UNL A   1      33.311  29.630  27.493  1.00  0.00     0.023 C 
ENDROOT
BRANCH   1   2
ATOM      2  C   UNL A   1      32.652  28.813  26.387  1.00  0.00     0.023 C 
BRANCH   2   3
ATOM      3  C   UNL A   1      33.171  29.047  24.967  1.00  0.00     0.116 C 
BRANCH   3   4
ATOM      4  N   UNL A   1      33.361  27.829  24.181  1.00  0.00    -0.352 N 
ATOM      5  C   UNL A   1      32.469  27.082  23.443  1.00  0.00     0.252 C 
ATOM      6  O   UNL A   1      32.877  26.076  22.861  1.00  0.00    -0.269 OA
ATOM      7  H   UNL A   1      34.283  27.484  24.179  1.00  0.00     0.163 HD
BRANCH   5   8
ATOM      8  C   UNL A   1      31.015  27.380  23.416  1.00  0.00     0.059 A 
ATOM      9  C   UNL A   1      29.252  28.881  22.595  1.00  0.00    -0.017 A 
ATOM     10  C   UNL A   1      28.304  27.982  23.112  1.00  0.00     0.010 A 
ATOM     11  C   UNL A   1      30.608  28.525  22.693  1.00  0.00     0.024 A 
ATOM     12  C   UNL A   1      28.698  26.899  23.895  1.00  0.00     0.022 A 
ATOM     13  C   UNL A   1      30.052  26.660  24.129  1.00  0.00     0.053 A 
ATOM     14  Cl  UNL A   1      30.435  25.605  25.441  1.00  0.00    -0.083 Cl
BRANCH   9  15
ATOM     15  C   UNL A   1      28.811  30.207  22.122  1.00  0.00    -0.018 A 
ATOM     16  C   UNL A   1      29.171  33.818  23.351  1.00  0.00     0.044 C 
ATOM     17  C   UNL A   1      28.789  32.641  22.502  1.00  0.00    -0.051 A 
ATOM     18  C   UNL A   1      28.061  32.812  21.324  1.00  0.00     0.003 A 
ATOM     19  C   UNL A   1      29.155  31.345  22.884  1.00  0.00     0.012 A 
ATOM     20  C   UNL A   1      27.720  31.703  20.544  1.00  0.00     0.001 A 
ATOM     21  C   UNL A   1      28.095  30.410  20.937  1.00  0.00     0.009 A 
ENDBRANCH   9  15
ENDBRANCH   5   8
ENDBRANCH   3   4
ENDBRANCH   2   3
ENDBRANCH   1   2
BRANCH   1  22
ATOM     22  C   UNL A   1      33.901  30.971  27.071  1.00  0.00     0.116 C 
BRANCH  22  23
ATOM     23  N   UNL A   1      34.358  31.820  28.163  1.00  0.00    -0.352 N 
ATOM     24  C   UNL A   1      35.342  31.576  29.121  1.00  0.00     0.251 C 
ATOM     25  H   UNL A   1      33.907  32.692  28.235  1.00  0.00     0.163 HD
ATOM     26  O   UNL A   1      35.534  32.353  30.029  1.00  0.00    -0.269 OA
BRANCH  24  27
ATOM     27  C   UNL A   1      36.235  30.394  28.954  1.00  0.00     0.039 A 
ATOM     28  C   UNL A   1      36.630  29.705  30.109  1.00  0.00     0.014 A 
ATOM     29  C   UNL A   1      36.827  30.097  27.734  1.00  0.00     0.014 A 
ATOM     30  C   UNL A   1      37.780  28.917  30.078  1.00  0.00     0.010 A 
ATOM     31  C   UNL A   1      38.029  29.422  27.725  1.00  0.00     0.010 A 
ATOM     32  C   UNL A   1      38.541  28.888  28.911  1.00  0.00    -0.014 A 
BRANCH  32  33
ATOM     33  C   UNL A   1      39.938  28.468  28.862  1.00  0.00     0.031 A 
ATOM     34  C   UNL A   1      40.304  27.054  28.648  1.00  0.00     0.074 A 
ATOM     35  C   UNL A   1      40.897  29.418  28.838  1.00  0.00     0.049 A 
ATOM     36  N   UNL A   1      41.474  26.559  28.867  1.00  0.00    -0.248 NA
ATOM     37  C   UNL A   1      39.339  26.064  28.192  1.00  0.00     0.031 C 
ATOM     38  C   UNL A   1      42.297  29.268  28.455  1.00  0.00     0.029 A 
ATOM     39  N   UNL A   1      40.826  30.692  29.403  1.00  0.00    -0.354 N 
ATOM     40  C   UNL A   1      41.510  25.304  28.302  1.00  0.00     0.074 A 
ATOM     41  C   UNL A   1      40.135  25.015  27.971  1.00  0.00     0.031 C 
ATOM     42  C   UNL A   1      43.007  30.251  29.028  1.00  0.00     0.029 A 
ATOM     43  C   UNL A   1      42.111  30.968  29.916  1.00  0.00     0.049 A 
ATOM     44  H   UNL A   1      40.038  31.281  29.437  1.00  0.00     0.167 HD
ATOM     45  C   UNL A   1      42.720  24.717  28.059  1.00  0.00     0.034 A 
ATOM     46  C   UNL A   1      42.286  31.114  31.264  1.00  0.00     0.034 A 
ATOM     47  C   UNL A   1      43.824  25.502  28.628  1.00  0.00     0.049 A 
ATOM     48  C   UNL A   1      43.163  30.048  31.898  1.00  0.00     0.074 A 
ATOM     49  C   UNL A   1      44.789  26.351  28.112  1.00  0.00     0.029 A 
ATOM     50  N   UNL A   1      43.872  25.672  30.002  1.00  0.00    -0.354 N 
ATOM     51  N   UNL A   1      43.712  29.053  31.253  1.00  0.00    -0.248 NA
ATOM     52  C   UNL A   1      43.419  29.977  33.337  1.00  0.00     0.031 C 
ATOM     53  C   UNL A   1      45.372  27.073  29.199  1.00  0.00     0.029 A 
ATOM     54  C   UNL A   1      44.782  26.643  30.372  1.00  0.00     0.049 A 
ATOM     55  H   UNL A   1      43.322  25.161  30.639  1.00  0.00     0.167 HD
ATOM     56  C   UNL A   1      44.305  28.198  32.146  1.00  0.00     0.074 A 
ATOM     57  C   UNL A   1      44.103  28.825  33.439  1.00  0.00     0.031 C 
ATOM     58  C   UNL A   1      44.876  27.011  31.778  1.00  0.00     0.034 A 
BRANCH  45  59
ATOM     59  C   UNL A   1      42.934  23.568  27.092  1.00  0.00     0.023 A 
ATOM     60  C   UNL A   1      42.322  22.325  27.359  1.00  0.00     0.031 A 
ATOM     61  C   UNL A   1      43.748  23.591  25.942  1.00  0.00     0.131 A 
ATOM     62  C   UNL A   1      42.608  21.179  26.592  1.00  0.00     0.055 A 
ATOM     63  C   UNL A   1      44.086  22.440  25.216  1.00  0.00     0.041 A 
ATOM     64  F   UNL A   1      44.203  24.734  25.416  1.00  0.00    -0.206 F 
ATOM     65  C   UNL A   1      43.525  21.220  25.548  1.00  0.00     0.022 A 
BRANCH  62  66
ATOM     66  S   UNL A   1      41.752  19.626  26.971  1.00  0.00     0.124 S 
ATOM     67  O   UNL A   1      41.547  19.053  25.645  1.00  0.00    -0.237 OA
ATOM     68  O   UNL A   1      42.715  18.947  27.830  1.00  0.00    -0.237 OA
ATOM     69  O   UNL A   1      40.532  20.069  27.646  1.00  0.00    -0.744 OA
ENDBRANCH  62  66
ENDBRANCH  45  59
BRANCH  46  70
ATOM     70  C   UNL A   1      41.120  31.792  31.911  1.00  0.00     0.023 A 
ATOM     71  C   UNL A   1      40.240  30.984  32.669  1.00  0.00     0.031 A 
ATOM     72  C   UNL A   1      41.093  33.175  32.134  1.00  0.00     0.131 A 
ATOM     73  C   UNL A   1      39.494  31.538  33.718  1.00  0.00     0.055 A 
ATOM     74  C   UNL A   1      40.295  33.734  33.141  1.00  0.00     0.041 A 
ATOM     75  F   UNL A   1      41.933  33.992  31.482  1.00  0.00    -0.206 F 
ATOM     76  C   UNL A   1      39.530  32.911  33.967  1.00  0.00     0.022 A 
BRANCH  73  77
ATOM     77  S   UNL A   1      38.687  30.436  34.920  1.00  0.00     0.124 S 
ATOM     78  O   UNL A   1      38.174  29.374  34.061  1.00  0.00    -0.237 OA
ATOM     79  O   UNL A   1      39.776  30.055  35.817  1.00  0.00    -0.237 OA
ATOM     80  O   UNL A   1      37.678  31.294  35.536  1.00  0.00    -0.744 OA
ENDBRANCH  73  77
ENDBRANCH  46  70
BRANCH  58  81
ATOM     81  C   UNL A   1      45.548  26.091  32.766  1.00  0.00     0.023 A 
ATOM     82  C   UNL A   1      44.829  25.101  33.455  1.00  0.00     0.031 A 
ATOM     83  C   UNL A   1      46.913  26.222  33.102  1.00  0.00     0.131 A 
ATOM     84  C   UNL A   1      45.476  24.246  34.365  1.00  0.00     0.055 A 
ATOM     85  C   UNL A   1      47.531  25.432  34.075  1.00  0.00     0.041 A 
ATOM     86  F   UNL A   1      47.716  27.089  32.468  1.00  0.00    -0.206 F 
ATOM     87  C   UNL A   1      46.815  24.425  34.704  1.00  0.00     0.022 A 
BRANCH  84  88
ATOM     88  S   UNL A   1      44.556  22.834  35.030  1.00  0.00     0.124 S 
ATOM     89  O   UNL A   1      45.179  21.700  34.355  1.00  0.00    -0.237 OA
ATOM     90  O   UNL A   1      44.833  22.952  36.460  1.00  0.00    -0.237 OA
ATOM     91  O   UNL A   1      43.175  23.108  34.642  1.00  0.00    -0.744 OA
ENDBRANCH  84  88
ENDBRANCH  58  81
ENDBRANCH  32  33
ENDBRANCH  24  27
ENDBRANCH  22  23
ENDBRANCH   1  22
TORSDOF 15
ENDMDL
