MODEL 1
REMARK VINA RESULT:     -12.9      0.000      0.000
REMARK SMILES Cc1cc(C)n(C)c(=O)c1C(=O)N1CCC2(CC1)C[NH2+][C@@H](C(=O)NCCCCNC(=O)c1ccc(-c3c4nc(c(-c5cc(S(=O)(=O)[O-])ccc5F)c5ccc([nH]5)c(-c5cc(S(=O)(=O)[O-])ccc5F)c5nc(c(-c6cc(S(=O)(=O)[O-])ccc6F)c6ccc3[nH]6)C=C5)C=C4)cc1)C2
REMARK SMILES IDX 27 1 26 2 25 3 24 4 22 5 23 6 21 8 11 9 12 10 13 11 14 12
REMARK SMILES IDX 18 13 15 14 17 15 16 16 19 17 95 18 20 19 10 22 1 23 2 24
REMARK SMILES IDX 3 25 4 26 8 27 5 28 6 29 9 30 7 31 28 32 29 33 30 34 31 36
REMARK SMILES IDX 32 37 33 38 94 39 34 40 93 41 35 42 36 43 37 44 87 45 38 46
REMARK SMILES IDX 92 47 86 48 88 49 39 50 91 51 85 52 84 53 40 55 72 56 52 57
REMARK SMILES IDX 71 58 53 59 56 60 70 61 89 62 54 63 55 64 69 66 90 67 57 68
REMARK SMILES IDX 41 69 42 70 50 71 43 72 49 73 51 74 48 75 44 76 45 77 46 78
REMARK SMILES IDX 47 79 73 80 74 81 82 82 75 83 81 84 83 85 80 86 76 87 77 88
REMARK SMILES IDX 78 89 79 90 58 91 59 92 67 93 60 94 66 95 68 96 65 97 61 98
REMARK SMILES IDX 62 99 63 100 64 101
REMARK H PARENT 24 7 20 20 20 21 29 35 88 54 56 65
REMARK Flexibility Score: inf
ROOT
ATOM      1  C   UNL A   1      38.245  20.527  25.021  1.00  0.00     0.023 C 
ENDROOT
BRANCH   1   2
ATOM      2  C   UNL A   1      37.525  19.187  24.908  1.00  0.00     0.023 C 
BRANCH   2   3
ATOM      3  C   UNL A   1      36.014  19.293  24.731  1.00  0.00     0.116 C 
BRANCH   3   4
ATOM      4  N   UNL A   1      35.364  17.998  24.790  1.00  0.00    -0.351 N 
ATOM      5  C   UNL A   1      34.036  17.686  24.776  1.00  0.00     0.278 C 
ATOM      6  O   UNL A   1      33.722  16.491  24.794  1.00  0.00    -0.268 OA
ATOM      7  H   UNL A   1      35.973  17.226  24.849  1.00  0.00     0.163 HD
BRANCH   5   8
ATOM      8  C   UNL A   1      32.950  18.767  24.771  1.00  0.00     0.273 C 
ATOM      9  C   UNL A   1      32.027  25.101  26.117  1.00  0.00     0.259 C 
ATOM     10  O   UNL A   1      31.135  25.325  26.944  1.00  0.00    -0.269 OA
ATOM     11  N   UNL A   1      32.651  23.862  26.077  1.00  0.00    -0.338 N 
ATOM     12  C   UNL A   1      32.011  22.766  26.789  1.00  0.00     0.120 C 
ATOM     13  C   UNL A   1      33.889  23.476  25.411  1.00  0.00     0.120 C 
ATOM     14  C   UNL A   1      31.490  21.796  25.744  1.00  0.00     0.034 C 
ATOM     15  C   UNL A   1      33.724  22.240  24.499  1.00  0.00     0.034 C 
ATOM     16  C   UNL A   1      32.629  21.192  24.895  1.00  0.00     0.029 C 
ATOM     17  C   UNL A   1      31.992  20.548  23.636  1.00  0.00     0.268 C 
ATOM     18  C   UNL A   1      33.267  19.985  25.632  1.00  0.00     0.088 C 
ATOM     19  N   UNL A   1      32.713  19.306  23.420  1.00  0.00    -0.336 N 
ATOM     20  H   UNL A   1      33.598  19.482  22.943  1.00  0.00     0.346 HD
ATOM     21  H   UNL A   1      32.191  18.655  22.833  1.00  0.00     0.346 HD
BRANCH   9  22
ATOM     22  C   UNL A   1      32.282  26.173  25.097  1.00  0.00     0.108 A 
ATOM     23  C   UNL A   1      33.649  27.691  26.639  1.00  0.00     0.045 C 
ATOM     24  C   UNL A   1      33.055  27.257  25.335  1.00  0.00    -0.031 A 
ATOM     25  C   UNL A   1      33.557  28.057  24.233  1.00  0.00     0.026 A 
ATOM     26  C   UNL A   1      33.512  27.616  22.969  1.00  0.00     0.018 A 
ATOM     27  C   UNL A   1      32.003  25.821  23.652  1.00  0.00     0.263 A 
ATOM     28  C   UNL A   1      34.261  28.381  21.911  1.00  0.00     0.064 C 
ATOM     29  N   UNL A   1      32.780  26.472  22.676  1.00  0.00    -0.315 N 
ATOM     30  O   UNL A   1      31.144  24.986  23.367  1.00  0.00    -0.268 OA
ATOM     31  C   UNL A   1      32.749  25.934  21.323  1.00  0.00     0.153 C 
ENDBRANCH   9  22
ENDBRANCH   5   8
ENDBRANCH   3   4
ENDBRANCH   2   3
ENDBRANCH   1   2
BRANCH   1  32
ATOM     32  C   UNL A   1      39.300  20.595  26.117  1.00  0.00     0.116 C 
BRANCH  32  33
ATOM     33  N   UNL A   1      40.261  19.505  26.046  1.00  0.00    -0.352 N 
ATOM     34  C   UNL A   1      41.635  19.568  26.088  1.00  0.00     0.251 C 
ATOM     35  H   UNL A   1      39.877  18.603  25.956  1.00  0.00     0.163 HD
ATOM     36  O   UNL A   1      42.304  18.568  25.877  1.00  0.00    -0.269 OA
BRANCH  34  37
ATOM     37  C   UNL A   1      42.279  20.871  26.356  1.00  0.00     0.039 A 
ATOM     38  C   UNL A   1      42.544  21.726  25.285  1.00  0.00     0.014 A 
ATOM     39  C   UNL A   1      42.569  21.262  27.667  1.00  0.00     0.014 A 
ATOM     40  C   UNL A   1      43.037  23.007  25.536  1.00  0.00     0.010 A 
ATOM     41  C   UNL A   1      42.995  22.562  27.920  1.00  0.00     0.010 A 
ATOM     42  C   UNL A   1      43.231  23.447  26.857  1.00  0.00    -0.014 A 
BRANCH  42  43
ATOM     43  C   UNL A   1      43.705  24.825  27.144  1.00  0.00     0.031 A 
ATOM     44  C   UNL A   1      42.746  25.842  27.694  1.00  0.00     0.074 A 
ATOM     45  C   UNL A   1      44.981  25.165  26.874  1.00  0.00     0.049 A 
ATOM     46  N   UNL A   1      42.943  27.110  27.946  1.00  0.00    -0.248 NA
ATOM     47  C   UNL A   1      41.377  25.379  27.981  1.00  0.00     0.031 C 
ATOM     48  C   UNL A   1      45.997  24.270  26.313  1.00  0.00     0.029 A 
ATOM     49  N   UNL A   1      45.646  26.355  27.036  1.00  0.00    -0.354 N 
ATOM     50  C   UNL A   1      41.728  27.596  28.413  1.00  0.00     0.074 A 
ATOM     51  C   UNL A   1      40.783  26.501  28.360  1.00  0.00     0.031 C 
ATOM     52  C   UNL A   1      47.161  24.933  26.211  1.00  0.00     0.029 A 
ATOM     53  C   UNL A   1      46.968  26.310  26.656  1.00  0.00     0.049 A 
ATOM     54  H   UNL A   1      45.216  27.167  27.392  1.00  0.00     0.167 HD
ATOM     55  C   UNL A   1      41.434  28.835  28.870  1.00  0.00     0.034 A 
ATOM     56  C   UNL A   1      47.913  27.271  26.660  1.00  0.00     0.034 A 
ATOM     57  C   UNL A   1      42.387  29.910  28.949  1.00  0.00     0.049 A 
ATOM     58  C   UNL A   1      47.549  28.650  27.146  1.00  0.00     0.074 A 
ATOM     59  C   UNL A   1      42.199  31.191  29.440  1.00  0.00     0.029 A 
ATOM     60  N   UNL A   1      43.707  29.833  28.532  1.00  0.00    -0.354 N 
ATOM     61  N   UNL A   1      46.396  29.087  27.595  1.00  0.00    -0.248 NA
ATOM     62  C   UNL A   1      48.611  29.665  27.125  1.00  0.00     0.031 C 
ATOM     63  C   UNL A   1      43.390  31.901  29.275  1.00  0.00     0.029 A 
ATOM     64  C   UNL A   1      44.339  31.048  28.732  1.00  0.00     0.049 A 
ATOM     65  H   UNL A   1      44.133  29.031  28.149  1.00  0.00     0.167 HD
ATOM     66  C   UNL A   1      46.600  30.423  27.926  1.00  0.00     0.074 A 
ATOM     67  C   UNL A   1      47.988  30.718  27.636  1.00  0.00     0.031 C 
ATOM     68  C   UNL A   1      45.720  31.325  28.426  1.00  0.00     0.034 A 
BRANCH  55  69
ATOM     69  C   UNL A   1      40.023  29.099  29.320  1.00  0.00     0.023 A 
ATOM     70  C   UNL A   1      39.672  29.057  30.680  1.00  0.00     0.031 A 
ATOM     71  C   UNL A   1      39.027  29.427  28.385  1.00  0.00     0.131 A 
ATOM     72  C   UNL A   1      38.347  29.305  31.065  1.00  0.00     0.055 A 
ATOM     73  C   UNL A   1      37.724  29.730  28.780  1.00  0.00     0.041 A 
ATOM     74  F   UNL A   1      39.308  29.463  27.073  1.00  0.00    -0.206 F 
ATOM     75  C   UNL A   1      37.376  29.666  30.126  1.00  0.00     0.022 A 
BRANCH  72  76
ATOM     76  S   UNL A   1      37.893  29.095  32.807  1.00  0.00     0.124 S 
ATOM     77  O   UNL A   1      36.662  29.876  32.885  1.00  0.00    -0.237 OA
ATOM     78  O   UNL A   1      37.739  27.649  32.925  1.00  0.00    -0.237 OA
ATOM     79  O   UNL A   1      39.031  29.661  33.527  1.00  0.00    -0.744 OA
ENDBRANCH  72  76
ENDBRANCH  55  69
BRANCH  56  80
ATOM     80  C   UNL A   1      49.291  26.976  26.178  1.00  0.00     0.023 A 
ATOM     81  C   UNL A   1      49.720  27.407  24.912  1.00  0.00     0.031 A 
ATOM     82  C   UNL A   1      50.189  26.231  26.963  1.00  0.00     0.131 A 
ATOM     83  C   UNL A   1      51.000  27.060  24.453  1.00  0.00     0.055 A 
ATOM     84  C   UNL A   1      51.477  25.924  26.518  1.00  0.00     0.041 A 
ATOM     85  F   UNL A   1      49.829  25.801  28.182  1.00  0.00    -0.206 F 
ATOM     86  C   UNL A   1      51.885  26.331  25.252  1.00  0.00     0.022 A 
BRANCH  83  87
ATOM     87  S   UNL A   1      51.477  27.532  22.768  1.00  0.00     0.124 S 
ATOM     88  O   UNL A   1      50.494  26.809  21.969  1.00  0.00    -0.237 OA
ATOM     89  O   UNL A   1      51.333  28.983  22.805  1.00  0.00    -0.237 OA
ATOM     90  O   UNL A   1      52.851  27.048  22.656  1.00  0.00    -0.744 OA
ENDBRANCH  83  87
ENDBRANCH  56  80
BRANCH  68  91
ATOM     91  C   UNL A   1      46.234  32.709  28.711  1.00  0.00     0.023 A 
ATOM     92  C   UNL A   1      46.256  33.699  27.716  1.00  0.00     0.031 A 
ATOM     93  C   UNL A   1      46.662  33.053  30.005  1.00  0.00     0.131 A 
ATOM     94  C   UNL A   1      46.723  34.984  28.024  1.00  0.00     0.055 A 
ATOM     95  C   UNL A   1      47.083  34.345  30.317  1.00  0.00     0.041 A 
ATOM     96  F   UNL A   1      46.654  32.140  30.991  1.00  0.00    -0.206 F 
ATOM     97  C   UNL A   1      47.120  35.318  29.322  1.00  0.00     0.022 A 
BRANCH  94  98
ATOM     98  S   UNL A   1      46.829  36.214  26.696  1.00  0.00     0.124 S 
ATOM     99  O   UNL A   1      45.628  37.011  26.928  1.00  0.00    -0.237 OA
ATOM    100  O   UNL A   1      48.098  36.878  26.981  1.00  0.00    -0.237 OA
ATOM    101  O   UNL A   1      46.815  35.407  25.478  1.00  0.00    -0.744 OA
ENDBRANCH  94  98
ENDBRANCH  68  91
ENDBRANCH  42  43
ENDBRANCH  34  37
ENDBRANCH  32  33
ENDBRANCH   1  32
TORSDOF 15
ENDMDL
MODEL 2
REMARK VINA RESULT:     -12.7      0.427      7.513
REMARK SMILES Cc1cc(C)n(C)c(=O)c1C(=O)N1CCC2(CC1)C[NH2+][C@@H](C(=O)NCCCCNC(=O)c1ccc(-c3c4nc(c(-c5cc(S(=O)(=O)[O-])ccc5F)c5ccc([nH]5)c(-c5cc(S(=O)(=O)[O-])ccc5F)c5nc(c(-c6cc(S(=O)(=O)[O-])ccc6F)c6ccc3[nH]6)C=C5)C=C4)cc1)C2
REMARK SMILES IDX 27 1 26 2 25 3 24 4 22 5 23 6 21 8 11 9 12 10 13 11 14 12
REMARK SMILES IDX 18 13 15 14 17 15 16 16 19 17 95 18 20 19 10 22 1 23 2 24
REMARK SMILES IDX 3 25 4 26 8 27 5 28 6 29 9 30 7 31 28 32 29 33 30 34 31 36
REMARK SMILES IDX 32 37 33 38 94 39 34 40 93 41 35 42 36 43 37 44 87 45 38 46
REMARK SMILES IDX 92 47 86 48 88 49 39 50 91 51 85 52 84 53 40 55 72 56 52 57
REMARK SMILES IDX 71 58 53 59 56 60 70 61 89 62 54 63 55 64 69 66 90 67 57 68
REMARK SMILES IDX 41 69 42 70 50 71 43 72 49 73 51 74 48 75 44 76 45 77 46 78
REMARK SMILES IDX 47 79 73 80 74 81 82 82 75 83 81 84 83 85 80 86 76 87 77 88
REMARK SMILES IDX 78 89 79 90 58 91 59 92 67 93 60 94 66 95 68 96 65 97 61 98
REMARK SMILES IDX 62 99 63 100 64 101
REMARK H PARENT 24 7 20 20 20 21 29 35 88 54 56 65
REMARK Flexibility Score: inf
ROOT
ATOM      1  C   UNL A   1      38.208  20.669  25.078  1.00  0.00     0.023 C 
ENDROOT
BRANCH   1   2
ATOM      2  C   UNL A   1      37.545  19.314  24.853  1.00  0.00     0.023 C 
BRANCH   2   3
ATOM      3  C   UNL A   1      36.032  19.371  24.673  1.00  0.00     0.116 C 
BRANCH   3   4
ATOM      4  N   UNL A   1      35.407  18.078  24.879  1.00  0.00    -0.351 N 
ATOM      5  C   UNL A   1      34.085  17.742  24.915  1.00  0.00     0.278 C 
ATOM      6  O   UNL A   1      33.794  16.552  25.065  1.00  0.00    -0.268 OA
ATOM      7  H   UNL A   1      36.032  17.329  25.014  1.00  0.00     0.163 HD
BRANCH   5   8
ATOM      8  C   UNL A   1      32.979  18.797  24.805  1.00  0.00     0.273 C 
ATOM      9  C   UNL A   1      31.771  25.100  26.071  1.00  0.00     0.259 C 
ATOM     10  O   UNL A   1      30.797  25.297  26.807  1.00  0.00    -0.269 OA
ATOM     11  N   UNL A   1      32.427  23.876  26.090  1.00  0.00    -0.338 N 
ATOM     12  C   UNL A   1      31.747  22.762  26.732  1.00  0.00     0.120 C 
ATOM     13  C   UNL A   1      33.734  23.524  25.548  1.00  0.00     0.120 C 
ATOM     14  C   UNL A   1      31.356  21.784  25.638  1.00  0.00     0.034 C 
ATOM     15  C   UNL A   1      33.690  22.289  24.621  1.00  0.00     0.034 C 
ATOM     16  C   UNL A   1      32.588  21.213  24.904  1.00  0.00     0.029 C 
ATOM     17  C   UNL A   1      32.094  20.560  23.586  1.00  0.00     0.268 C 
ATOM     18  C   UNL A   1      33.179  20.018  25.697  1.00  0.00     0.088 C 
ATOM     19  N   UNL A   1      32.863  19.337  23.439  1.00  0.00    -0.336 N 
ATOM     20  H   UNL A   1      33.786  19.537  23.053  1.00  0.00     0.346 HD
ATOM     21  H   UNL A   1      32.418  18.677  22.802  1.00  0.00     0.346 HD
BRANCH   9  22
ATOM     22  C   UNL A   1      32.099  26.183  25.085  1.00  0.00     0.108 A 
ATOM     23  C   UNL A   1      33.417  27.646  26.720  1.00  0.00     0.045 C 
ATOM     24  C   UNL A   1      32.881  27.247  25.380  1.00  0.00    -0.031 A 
ATOM     25  C   UNL A   1      33.454  28.054  24.319  1.00  0.00     0.026 A 
ATOM     26  C   UNL A   1      33.465  27.635  23.047  1.00  0.00     0.018 A 
ATOM     27  C   UNL A   1      31.887  25.861  23.621  1.00  0.00     0.263 A 
ATOM     28  C   UNL A   1      34.281  28.401  22.041  1.00  0.00     0.064 C 
ATOM     29  N   UNL A   1      32.725  26.511  22.697  1.00  0.00    -0.315 N 
ATOM     30  O   UNL A   1      31.027  25.049  23.279  1.00  0.00    -0.268 OA
ATOM     31  C   UNL A   1      32.752  25.997  21.336  1.00  0.00     0.153 C 
ENDBRANCH   9  22
ENDBRANCH   5   8
ENDBRANCH   3   4
ENDBRANCH   2   3
ENDBRANCH   1   2
BRANCH   1  32
ATOM     32  C   UNL A   1      39.223  20.704  26.212  1.00  0.00     0.116 C 
BRANCH  32  33
ATOM     33  N   UNL A   1      40.238  19.668  26.094  1.00  0.00    -0.352 N 
ATOM     34  C   UNL A   1      41.608  19.804  26.093  1.00  0.00     0.251 C 
ATOM     35  H   UNL A   1      39.900  18.748  26.003  1.00  0.00     0.163 HD
ATOM     36  O   UNL A   1      42.322  18.844  25.846  1.00  0.00    -0.269 OA
BRANCH  34  37
ATOM     37  C   UNL A   1      42.190  21.136  26.360  1.00  0.00     0.039 A 
ATOM     38  C   UNL A   1      42.384  22.014  25.292  1.00  0.00     0.014 A 
ATOM     39  C   UNL A   1      42.491  21.530  27.668  1.00  0.00     0.014 A 
ATOM     40  C   UNL A   1      42.817  23.316  25.545  1.00  0.00     0.010 A 
ATOM     41  C   UNL A   1      42.855  22.847  27.924  1.00  0.00     0.010 A 
ATOM     42  C   UNL A   1      43.020  23.753  26.865  1.00  0.00    -0.014 A 
BRANCH  42  43
ATOM     43  C   UNL A   1      43.429  25.151  27.156  1.00  0.00     0.031 A 
ATOM     44  C   UNL A   1      44.843  25.584  26.886  1.00  0.00     0.074 A 
ATOM     45  C   UNL A   1      42.542  26.012  27.693  1.00  0.00     0.049 A 
ATOM     46  N   UNL A   1      45.414  26.733  27.133  1.00  0.00    -0.248 NA
ATOM     47  C   UNL A   1      45.739  24.587  26.276  1.00  0.00     0.031 C 
ATOM     48  C   UNL A   1      41.149  25.697  28.024  1.00  0.00     0.029 A 
ATOM     49  N   UNL A   1      42.677  27.328  28.057  1.00  0.00    -0.354 N 
ATOM     50  C   UNL A   1      46.733  26.597  26.717  1.00  0.00     0.074 A 
ATOM     51  C   UNL A   1      46.893  25.237  26.250  1.00  0.00     0.031 C 
ATOM     52  C   UNL A   1      40.552  26.799  28.508  1.00  0.00     0.029 A 
ATOM     53  C   UNL A   1      41.525  27.886  28.565  1.00  0.00     0.049 A 
ATOM     54  H   UNL A   1      43.520  27.828  27.963  1.00  0.00     0.167 HD
ATOM     55  C   UNL A   1      47.714  27.529  26.701  1.00  0.00     0.034 A 
ATOM     56  C   UNL A   1      41.285  29.128  29.029  1.00  0.00     0.034 A 
ATOM     57  C   UNL A   1      47.539  28.888  27.137  1.00  0.00     0.049 A 
ATOM     58  C   UNL A   1      42.405  30.137  29.026  1.00  0.00     0.074 A 
ATOM     59  C   UNL A   1      48.459  29.923  27.117  1.00  0.00     0.029 A 
ATOM     60  N   UNL A   1      46.366  29.407  27.667  1.00  0.00    -0.354 N 
ATOM     61  N   UNL A   1      43.643  29.991  28.618  1.00  0.00    -0.248 NA
ATOM     62  C   UNL A   1      42.096  31.475  29.549  1.00  0.00     0.031 C 
ATOM     63  C   UNL A   1      47.859  31.051  27.681  1.00  0.00     0.029 A 
ATOM     64  C   UNL A   1      46.547  30.738  28.000  1.00  0.00     0.049 A 
ATOM     65  H   UNL A   1      45.530  28.902  27.790  1.00  0.00     0.167 HD
ATOM     66  C   UNL A   1      44.255  31.225  28.817  1.00  0.00     0.074 A 
ATOM     67  C   UNL A   1      43.249  32.106  29.372  1.00  0.00     0.031 C 
ATOM     68  C   UNL A   1      45.534  31.596  28.563  1.00  0.00     0.034 A 
BRANCH  55  69
ATOM     69  C   UNL A   1      49.068  27.112  26.195  1.00  0.00     0.023 A 
ATOM     70  C   UNL A   1      49.517  27.488  24.917  1.00  0.00     0.031 A 
ATOM     71  C   UNL A   1      49.931  26.358  27.008  1.00  0.00     0.131 A 
ATOM     72  C   UNL A   1      50.783  27.080  24.476  1.00  0.00     0.055 A 
ATOM     73  C   UNL A   1      51.212  26.005  26.585  1.00  0.00     0.041 A 
ATOM     74  F   UNL A   1      49.541  25.959  28.229  1.00  0.00    -0.206 F 
ATOM     75  C   UNL A   1      51.643  26.362  25.311  1.00  0.00     0.022 A 
BRANCH  72  76
ATOM     76  S   UNL A   1      51.272  27.452  22.770  1.00  0.00     0.124 S 
ATOM     77  O   UNL A   1      50.194  26.823  22.013  1.00  0.00    -0.237 OA
ATOM     78  O   UNL A   1      51.295  28.910  22.756  1.00  0.00    -0.237 OA
ATOM     79  O   UNL A   1      52.577  26.807  22.642  1.00  0.00    -0.744 OA
ENDBRANCH  72  76
ENDBRANCH  55  69
BRANCH  56  80
ATOM     80  C   UNL A   1      39.938  29.492  29.549  1.00  0.00     0.023 A 
ATOM     81  C   UNL A   1      39.669  29.480  30.928  1.00  0.00     0.031 A 
ATOM     82  C   UNL A   1      38.889  29.826  28.674  1.00  0.00     0.131 A 
ATOM     83  C   UNL A   1      38.374  29.762  31.389  1.00  0.00     0.055 A 
ATOM     84  C   UNL A   1      37.613  30.147  29.141  1.00  0.00     0.041 A 
ATOM     85  F   UNL A   1      39.097  29.858  27.348  1.00  0.00    -0.206 F 
ATOM     86  C   UNL A   1      37.348  30.106  30.505  1.00  0.00     0.022 A 
BRANCH  83  87
ATOM     87  S   UNL A   1      38.034  29.621  33.165  1.00  0.00     0.124 S 
ATOM     88  O   UNL A   1      37.197  30.792  33.400  1.00  0.00    -0.237 OA
ATOM     89  O   UNL A   1      37.365  28.327  33.246  1.00  0.00    -0.237 OA
ATOM     90  O   UNL A   1      39.363  29.670  33.770  1.00  0.00    -0.744 OA
ENDBRANCH  83  87
ENDBRANCH  56  80
BRANCH  68  91
ATOM     91  C   UNL A   1      45.913  33.021  28.863  1.00  0.00     0.023 A 
ATOM     92  C   UNL A   1      45.756  34.035  27.905  1.00  0.00     0.031 A 
ATOM     93  C   UNL A   1      46.393  33.372  30.136  1.00  0.00     0.131 A 
ATOM     94  C   UNL A   1      46.101  35.354  28.227  1.00  0.00     0.055 A 
ATOM     95  C   UNL A   1      46.692  34.693  30.466  1.00  0.00     0.041 A 
ATOM     96  F   UNL A   1      46.555  32.436  31.086  1.00  0.00    -0.206 F 
ATOM     97  C   UNL A   1      46.552  35.693  29.507  1.00  0.00     0.022 A 
BRANCH  94  98
ATOM     98  S   UNL A   1      45.977  36.627  26.942  1.00  0.00     0.124 S 
ATOM     99  O   UNL A   1      46.461  35.913  25.765  1.00  0.00    -0.237 OA
ATOM    100  O   UNL A   1      44.554  36.949  26.951  1.00  0.00    -0.237 OA
ATOM    101  O   UNL A   1      46.854  37.691  27.427  1.00  0.00    -0.744 OA
ENDBRANCH  94  98
ENDBRANCH  68  91
ENDBRANCH  42  43
ENDBRANCH  34  37
ENDBRANCH  32  33
ENDBRANCH   1  32
TORSDOF 15
ENDMDL
MODEL 3
REMARK VINA RESULT:     -12.7      5.613     11.660
REMARK SMILES Cc1cc(C)n(C)c(=O)c1C(=O)N1CCC2(CC1)C[NH2+][C@@H](C(=O)NCCCCNC(=O)c1ccc(-c3c4nc(c(-c5cc(S(=O)(=O)[O-])ccc5F)c5ccc([nH]5)c(-c5cc(S(=O)(=O)[O-])ccc5F)c5nc(c(-c6cc(S(=O)(=O)[O-])ccc6F)c6ccc3[nH]6)C=C5)C=C4)cc1)C2
REMARK SMILES IDX 27 1 26 2 25 3 24 4 22 5 23 6 21 8 11 9 12 10 13 11 14 12
REMARK SMILES IDX 18 13 15 14 17 15 16 16 19 17 95 18 20 19 10 22 1 23 2 24
REMARK SMILES IDX 3 25 4 26 8 27 5 28 6 29 9 30 7 31 28 32 29 33 30 34 31 36
REMARK SMILES IDX 32 37 33 38 94 39 34 40 93 41 35 42 36 43 37 44 87 45 38 46
REMARK SMILES IDX 92 47 86 48 88 49 39 50 91 51 85 52 84 53 40 55 72 56 52 57
REMARK SMILES IDX 71 58 53 59 56 60 70 61 89 62 54 63 55 64 69 66 90 67 57 68
REMARK SMILES IDX 41 69 42 70 50 71 43 72 49 73 51 74 48 75 44 76 45 77 46 78
REMARK SMILES IDX 47 79 73 80 74 81 82 82 75 83 81 84 83 85 80 86 76 87 77 88
REMARK SMILES IDX 78 89 79 90 58 91 59 92 67 93 60 94 66 95 68 96 65 97 61 98
REMARK SMILES IDX 62 99 63 100 64 101
REMARK H PARENT 24 7 20 20 20 21 29 35 88 54 56 65
REMARK Flexibility Score: inf
ROOT
ATOM      1  C   UNL A   1      32.047  31.436  27.097  1.00  0.00     0.023 C 
ENDROOT
BRANCH   1   2
ATOM      2  C   UNL A   1      31.035  32.014  26.112  1.00  0.00     0.023 C 
BRANCH   2   3
ATOM      3  C   UNL A   1      30.611  31.055  25.004  1.00  0.00     0.116 C 
BRANCH   3   4
ATOM      4  N   UNL A   1      29.618  31.641  24.124  1.00  0.00    -0.351 N 
ATOM      5  C   UNL A   1      28.926  31.079  23.091  1.00  0.00     0.278 C 
ATOM      6  O   UNL A   1      28.090  31.776  22.508  1.00  0.00    -0.268 OA
ATOM      7  H   UNL A   1      29.411  32.587  24.299  1.00  0.00     0.163 HD
BRANCH   5   8
ATOM      8  C   UNL A   1      29.185  29.640  22.632  1.00  0.00     0.273 C 
ATOM      9  C   UNL A   1      33.577  24.818  23.130  1.00  0.00     0.259 C 
ATOM     10  O   UNL A   1      34.008  24.403  22.048  1.00  0.00    -0.269 OA
ATOM     11  N   UNL A   1      33.034  26.092  23.227  1.00  0.00    -0.338 N 
ATOM     12  C   UNL A   1      32.692  26.770  21.986  1.00  0.00     0.120 C 
ATOM     13  C   UNL A   1      32.743  26.881  24.418  1.00  0.00     0.120 C 
ATOM     14  C   UNL A   1      31.177  26.850  21.921  1.00  0.00     0.034 C 
ATOM     15  C   UNL A   1      31.292  27.409  24.453  1.00  0.00     0.034 C 
ATOM     16  C   UNL A   1      30.591  27.685  23.080  1.00  0.00     0.029 C 
ATOM     17  C   UNL A   1      29.071  27.385  23.159  1.00  0.00     0.268 C 
ATOM     18  C   UNL A   1      30.641  29.196  22.733  1.00  0.00     0.088 C 
ATOM     19  N   UNL A   1      28.430  28.659  23.431  1.00  0.00    -0.336 N 
ATOM     20  H   UNL A   1      28.488  28.886  24.425  1.00  0.00     0.346 HD
ATOM     21  H   UNL A   1      27.439  28.650  23.193  1.00  0.00     0.346 HD
BRANCH   9  22
ATOM     22  C   UNL A   1      33.547  23.834  24.263  1.00  0.00     0.108 A 
ATOM     23  C   UNL A   1      36.000  24.120  24.934  1.00  0.00     0.045 C 
ATOM     24  C   UNL A   1      34.602  23.604  25.078  1.00  0.00    -0.031 A 
ATOM     25  C   UNL A   1      34.415  22.932  26.351  1.00  0.00     0.026 A 
ATOM     26  C   UNL A   1      33.198  22.764  26.883  1.00  0.00     0.018 A 
ATOM     27  C   UNL A   1      32.183  23.396  24.752  1.00  0.00     0.263 A 
ATOM     28  C   UNL A   1      33.091  22.280  28.304  1.00  0.00     0.064 C 
ATOM     29  N   UNL A   1      32.076  23.040  26.110  1.00  0.00    -0.315 N 
ATOM     30  O   UNL A   1      31.220  23.378  23.985  1.00  0.00    -0.268 OA
ATOM     31  C   UNL A   1      30.738  22.918  26.669  1.00  0.00     0.153 C 
ENDBRANCH   9  22
ENDBRANCH   5   8
ENDBRANCH   3   4
ENDBRANCH   2   3
ENDBRANCH   1   2
BRANCH   1  32
ATOM     32  C   UNL A   1      33.237  32.338  27.393  1.00  0.00     0.116 C 
BRANCH  32  33
ATOM     33  N   UNL A   1      32.844  33.683  27.785  1.00  0.00    -0.352 N 
ATOM     34  C   UNL A   1      33.337  34.457  28.811  1.00  0.00     0.251 C 
ATOM     35  H   UNL A   1      32.131  34.094  27.245  1.00  0.00     0.163 HD
ATOM     36  O   UNL A   1      32.801  35.517  29.095  1.00  0.00    -0.269 OA
BRANCH  34  37
ATOM     37  C   UNL A   1      34.499  33.962  29.579  1.00  0.00     0.039 A 
ATOM     38  C   UNL A   1      34.279  33.106  30.660  1.00  0.00     0.014 A 
ATOM     39  C   UNL A   1      35.800  34.304  29.196  1.00  0.00     0.014 A 
ATOM     40  C   UNL A   1      35.370  32.535  31.315  1.00  0.00     0.010 A 
ATOM     41  C   UNL A   1      36.883  33.680  29.806  1.00  0.00     0.010 A 
ATOM     42  C   UNL A   1      36.678  32.789  30.870  1.00  0.00    -0.014 A 
BRANCH  42  43
ATOM     43  C   UNL A   1      37.849  32.148  31.523  1.00  0.00     0.031 A 
ATOM     44  C   UNL A   1      38.562  31.021  30.830  1.00  0.00     0.074 A 
ATOM     45  C   UNL A   1      38.240  32.554  32.747  1.00  0.00     0.049 A 
ATOM     46  N   UNL A   1      39.556  30.288  31.259  1.00  0.00    -0.248 NA
ATOM     47  C   UNL A   1      38.083  30.657  29.485  1.00  0.00     0.031 C 
ATOM     48  C   UNL A   1      37.607  33.620  33.528  1.00  0.00     0.029 A 
ATOM     49  N   UNL A   1      39.265  32.121  33.551  1.00  0.00    -0.354 N 
ATOM     50  C   UNL A   1      39.817  29.374  30.243  1.00  0.00     0.074 A 
ATOM     51  C   UNL A   1      38.843  29.610  29.200  1.00  0.00     0.031 C 
ATOM     52  C   UNL A   1      38.278  33.779  34.681  1.00  0.00     0.029 A 
ATOM     53  C   UNL A   1      39.360  32.801  34.744  1.00  0.00     0.049 A 
ATOM     54  H   UNL A   1      39.874  31.391  33.297  1.00  0.00     0.167 HD
ATOM     55  C   UNL A   1      40.795  28.442  30.178  1.00  0.00     0.034 A 
ATOM     56  C   UNL A   1      40.219  32.648  35.772  1.00  0.00     0.034 A 
ATOM     57  C   UNL A   1      41.779  28.235  31.207  1.00  0.00     0.049 A 
ATOM     58  C   UNL A   1      41.281  31.582  35.683  1.00  0.00     0.074 A 
ATOM     59  C   UNL A   1      42.841  27.347  31.214  1.00  0.00     0.029 A 
ATOM     60  N   UNL A   1      41.828  28.926  32.408  1.00  0.00    -0.354 N 
ATOM     61  N   UNL A   1      41.518  30.735  34.709  1.00  0.00    -0.248 NA
ATOM     62  C   UNL A   1      42.188  31.449  36.831  1.00  0.00     0.031 C 
ATOM     63  C   UNL A   1      43.501  27.466  32.439  1.00  0.00     0.029 A 
ATOM     64  C   UNL A   1      42.887  28.467  33.174  1.00  0.00     0.049 A 
ATOM     65  H   UNL A   1      41.202  29.637  32.677  1.00  0.00     0.167 HD
ATOM     66  C   UNL A   1      42.613  29.982  35.120  1.00  0.00     0.074 A 
ATOM     67  C   UNL A   1      42.997  30.480  36.424  1.00  0.00     0.031 C 
ATOM     68  C   UNL A   1      43.246  28.970  34.477  1.00  0.00     0.034 A 
BRANCH  55  69
ATOM     69  C   UNL A   1      40.852  27.573  28.951  1.00  0.00     0.023 A 
ATOM     70  C   UNL A   1      41.817  27.785  27.951  1.00  0.00     0.031 A 
ATOM     71  C   UNL A   1      39.956  26.502  28.795  1.00  0.00     0.131 A 
ATOM     72  C   UNL A   1      41.840  26.958  26.820  1.00  0.00     0.055 A 
ATOM     73  C   UNL A   1      40.022  25.647  27.696  1.00  0.00     0.041 A 
ATOM     74  F   UNL A   1      39.005  26.269  29.714  1.00  0.00    -0.206 F 
ATOM     75  C   UNL A   1      40.965  25.875  26.697  1.00  0.00     0.022 A 
BRANCH  72  76
ATOM     76  S   UNL A   1      42.995  27.350  25.479  1.00  0.00     0.124 S 
ATOM     77  O   UNL A   1      43.187  26.038  24.866  1.00  0.00    -0.237 OA
ATOM     78  O   UNL A   1      42.248  28.320  24.687  1.00  0.00    -0.237 OA
ATOM     79  O   UNL A   1      44.161  27.883  26.178  1.00  0.00    -0.744 OA
ENDBRANCH  72  76
ENDBRANCH  55  69
BRANCH  56  80
ATOM     80  C   UNL A   1      40.110  33.511  36.981  1.00  0.00     0.023 A 
ATOM     81  C   UNL A   1      39.501  33.034  38.153  1.00  0.00     0.031 A 
ATOM     82  C   UNL A   1      40.583  34.834  36.972  1.00  0.00     0.131 A 
ATOM     83  C   UNL A   1      39.350  33.888  39.257  1.00  0.00     0.055 A 
ATOM     84  C   UNL A   1      40.469  35.666  38.087  1.00  0.00     0.041 A 
ATOM     85  F   UNL A   1      41.179  35.334  35.877  1.00  0.00    -0.206 F 
ATOM     86  C   UNL A   1      39.840  35.196  39.236  1.00  0.00     0.022 A 
BRANCH  83  87
ATOM     87  S   UNL A   1      38.453  33.278  40.712  1.00  0.00     0.124 S 
ATOM     88  O   UNL A   1      37.071  33.324  40.248  1.00  0.00    -0.237 OA
ATOM     89  O   UNL A   1      39.028  31.949  40.888  1.00  0.00    -0.237 OA
ATOM     90  O   UNL A   1      38.796  34.245  41.752  1.00  0.00    -0.744 OA
ENDBRANCH  83  87
ENDBRANCH  56  80
BRANCH  68  91
ATOM     91  C   UNL A   1      44.430  28.347  35.163  1.00  0.00     0.023 A 
ATOM     92  C   UNL A   1      44.290  27.206  35.968  1.00  0.00     0.031 A 
ATOM     93  C   UNL A   1      45.718  28.874  34.969  1.00  0.00     0.131 A 
ATOM     94  C   UNL A   1      45.420  26.640  36.575  1.00  0.00     0.055 A 
ATOM     95  C   UNL A   1      46.844  28.282  35.539  1.00  0.00     0.041 A 
ATOM     96  F   UNL A   1      45.902  29.962  34.202  1.00  0.00    -0.206 F 
ATOM     97  C   UNL A   1      46.698  27.161  36.351  1.00  0.00     0.022 A 
BRANCH  94  98
ATOM     98  S   UNL A   1      45.197  25.225  37.686  1.00  0.00     0.124 S 
ATOM     99  O   UNL A   1      44.667  24.212  36.779  1.00  0.00    -0.237 OA
ATOM    100  O   UNL A   1      46.551  24.993  38.179  1.00  0.00    -0.237 OA
ATOM    101  O   UNL A   1      44.252  25.719  38.686  1.00  0.00    -0.744 OA
ENDBRANCH  94  98
ENDBRANCH  68  91
ENDBRANCH  42  43
ENDBRANCH  34  37
ENDBRANCH  32  33
ENDBRANCH   1  32
TORSDOF 15
ENDMDL
