MODEL 1
REMARK VINA RESULT:     -12.5      0.000      0.000
REMARK SMILES C[C@H]1CN(C(=O)N2CC[NH+]([C@@H](C)C(=O)NCCCCNC(=O)c3ccc(-c4c5nc(c(-c6cc(S(=O)(=O)[O-])ccc6F)c6ccc([nH]6)c(-c6cc(S(=O)(=O)[O-])ccc6F)c6nc(c(-c7cc(S(=O)(=O)[O-])ccc7F)c7ccc4[nH]7)C=C6)C=C5)cc3)CC2)C[C@@H]1C
REMARK SMILES IDX 18 1 17 2 16 3 15 4 13 5 14 6 11 8 12 9 10 10 1 11 2 12 3 13
REMARK SMILES IDX 89 14 4 15 88 16 90 17 5 18 6 19 7 20 8 21 87 22 9 23 86 24
REMARK SMILES IDX 19 26 20 27 21 28 22 30 23 31 24 32 85 33 25 34 84 35 26 36
REMARK SMILES IDX 27 37 28 38 78 39 29 40 83 41 77 42 79 43 30 44 82 45 76 46
REMARK SMILES IDX 75 47 31 49 63 50 43 51 62 52 44 53 47 54 61 55 80 56 45 57
REMARK SMILES IDX 46 58 60 60 81 61 48 62 32 63 33 64 41 65 34 66 40 67 42 68
REMARK SMILES IDX 39 69 35 70 36 71 37 72 38 73 64 74 65 75 73 76 66 77 72 78
REMARK SMILES IDX 74 79 71 80 67 81 68 82 69 83 70 84 49 85 50 86 58 87 51 88
REMARK SMILES IDX 57 89 59 90 56 91 52 92 53 93 54 94 55 95
REMARK H PARENT 15 7 10 25 20 29 79 48 47 59
REMARK Flexibility Score: inf
ROOT
ATOM      1  C   UNL A   1      31.381  31.956  26.879  1.00  0.00     0.023 C 
ENDROOT
BRANCH   1   2
ATOM      2  C   UNL A   1      31.424  30.962  25.730  1.00  0.00     0.023 C 
BRANCH   2   3
ATOM      3  C   UNL A   1      32.412  29.802  25.909  1.00  0.00     0.116 C 
BRANCH   3   4
ATOM      4  N   UNL A   1      33.263  29.663  24.744  1.00  0.00    -0.351 N 
ATOM      5  C   UNL A   1      33.117  28.965  23.583  1.00  0.00     0.278 C 
ATOM      6  O   UNL A   1      34.120  28.910  22.857  1.00  0.00    -0.268 OA
ATOM      7  H   UNL A   1      34.106  30.168  24.803  1.00  0.00     0.163 HD
BRANCH   5   8
ATOM      8  C   UNL A   1      31.788  28.303  23.122  1.00  0.00     0.271 C 
ATOM      9  C   UNL A   1      30.734  29.300  22.642  1.00  0.00     0.086 C 
BRANCH   8  10
ATOM     10  N   UNL A   1      31.391  27.133  23.945  1.00  0.00    -0.322 N 
ATOM     11  C   UNL A   1      34.350  21.726  27.368  1.00  0.00     0.010 C 
ATOM     12  C   UNL A   1      33.276  21.332  26.353  1.00  0.00     0.010 C 
ATOM     13  C   UNL A   1      32.820  22.551  25.554  1.00  0.00     0.125 C 
ATOM     14  C   UNL A   1      33.824  20.391  25.262  1.00  0.00     0.010 C 
ATOM     15  N   UNL A   1      33.689  22.579  24.387  1.00  0.00    -0.324 N 
ATOM     16  C   UNL A   1      34.460  21.355  24.257  1.00  0.00     0.125 C 
ATOM     17  C   UNL A   1      32.708  19.580  24.599  1.00  0.00     0.010 C 
ATOM     18  C   UNL A   1      33.579  23.470  23.349  1.00  0.00     0.320 C 
ATOM     19  O   UNL A   1      34.059  23.274  22.235  1.00  0.00    -0.248 OA
ATOM     20  N   UNL A   1      32.815  24.583  23.637  1.00  0.00    -0.313 N 
ATOM     21  C   UNL A   1      31.853  25.007  22.639  1.00  0.00     0.183 C 
ATOM     22  C   UNL A   1      33.433  25.662  24.402  1.00  0.00     0.183 C 
ATOM     23  C   UNL A   1      30.830  25.962  23.268  1.00  0.00     0.284 C 
ATOM     24  C   UNL A   1      32.405  26.691  24.921  1.00  0.00     0.284 C 
ATOM     25  H   UNL A   1      30.605  27.561  24.433  1.00  0.00     0.348 HD
ENDBRANCH   8  10
ENDBRANCH   5   8
ENDBRANCH   3   4
ENDBRANCH   2   3
ENDBRANCH   1   2
BRANCH   1  26
ATOM     26  C   UNL A   1      32.726  32.564  27.234  1.00  0.00     0.116 C 
BRANCH  26  27
ATOM     27  N   UNL A   1      32.649  33.951  27.671  1.00  0.00    -0.352 N 
ATOM     28  C   UNL A   1      33.475  34.602  28.567  1.00  0.00     0.251 C 
ATOM     29  H   UNL A   1      31.922  34.489  27.283  1.00  0.00     0.163 HD
ATOM     30  O   UNL A   1      33.241  35.746  28.912  1.00  0.00    -0.269 OA
BRANCH  28  31
ATOM     31  C   UNL A   1      34.616  33.848  29.133  1.00  0.00     0.039 A 
ATOM     32  C   UNL A   1      35.915  34.235  28.804  1.00  0.00     0.014 A 
ATOM     33  C   UNL A   1      34.389  32.840  30.072  1.00  0.00     0.014 A 
ATOM     34  C   UNL A   1      36.992  33.659  29.481  1.00  0.00     0.010 A 
ATOM     35  C   UNL A   1      35.450  32.351  30.819  1.00  0.00     0.010 A 
ATOM     36  C   UNL A   1      36.765  32.744  30.522  1.00  0.00    -0.014 A 
BRANCH  36  37
ATOM     37  C   UNL A   1      37.886  32.144  31.290  1.00  0.00     0.031 A 
ATOM     38  C   UNL A   1      38.695  31.039  30.667  1.00  0.00     0.074 A 
ATOM     39  C   UNL A   1      38.114  32.523  32.562  1.00  0.00     0.049 A 
ATOM     40  N   UNL A   1      39.639  30.302  31.191  1.00  0.00    -0.248 NA
ATOM     41  C   UNL A   1      38.350  30.677  29.284  1.00  0.00     0.031 C 
ATOM     42  C   UNL A   1      37.344  33.527  33.300  1.00  0.00     0.029 A 
ATOM     43  N   UNL A   1      39.053  32.096  33.465  1.00  0.00    -0.354 N 
ATOM     44  C   UNL A   1      39.972  29.368  30.216  1.00  0.00     0.074 A 
ATOM     45  C   UNL A   1      39.067  29.581  29.107  1.00  0.00     0.031 C 
ATOM     46  C   UNL A   1      37.860  33.657  34.534  1.00  0.00     0.029 A 
ATOM     47  C   UNL A   1      38.973  32.725  34.686  1.00  0.00     0.049 A 
ATOM     48  H   UNL A   1      39.722  31.403  33.260  1.00  0.00     0.167 HD
ATOM     49  C   UNL A   1      40.965  28.443  30.226  1.00  0.00     0.034 A 
ATOM     50  C   UNL A   1      39.714  32.565  35.800  1.00  0.00     0.034 A 
ATOM     51  C   UNL A   1      41.879  28.277  31.329  1.00  0.00     0.049 A 
ATOM     52  C   UNL A   1      40.847  31.573  35.778  1.00  0.00     0.074 A 
ATOM     53  C   UNL A   1      42.967  27.430  31.431  1.00  0.00     0.029 A 
ATOM     54  N   UNL A   1      41.809  28.978  32.527  1.00  0.00    -0.354 N 
ATOM     55  N   UNL A   1      41.199  30.741  34.824  1.00  0.00    -0.248 NA
ATOM     56  C   UNL A   1      41.696  31.515  36.975  1.00  0.00     0.031 C 
ATOM     57  C   UNL A   1      43.523  27.581  32.708  1.00  0.00     0.029 A 
ATOM     58  C   UNL A   1      42.823  28.572  33.379  1.00  0.00     0.049 A 
ATOM     59  H   UNL A   1      41.136  29.666  32.739  1.00  0.00     0.167 HD
ATOM     60  C   UNL A   1      42.329  30.079  35.296  1.00  0.00     0.074 A 
ATOM     61  C   UNL A   1      42.604  30.618  36.613  1.00  0.00     0.031 C 
ATOM     62  C   UNL A   1      43.075  29.117  34.694  1.00  0.00     0.034 A 
BRANCH  49  63
ATOM     63  C   UNL A   1      41.080  27.546  29.014  1.00  0.00     0.023 A 
ATOM     64  C   UNL A   1      42.094  27.728  28.055  1.00  0.00     0.031 A 
ATOM     65  C   UNL A   1      40.116  26.554  28.764  1.00  0.00     0.131 A 
ATOM     66  C   UNL A   1      42.051  27.025  26.843  1.00  0.00     0.055 A 
ATOM     67  C   UNL A   1      40.140  25.782  27.599  1.00  0.00     0.041 A 
ATOM     68  F   UNL A   1      39.113  26.340  29.629  1.00  0.00    -0.206 F 
ATOM     69  C   UNL A   1      41.096  26.032  26.619  1.00  0.00     0.022 A 
BRANCH  66  70
ATOM     70  S   UNL A   1      43.132  27.570  25.491  1.00  0.00     0.124 S 
ATOM     71  O   UNL A   1      43.635  26.294  24.986  1.00  0.00    -0.237 OA
ATOM     72  O   UNL A   1      42.209  28.284  24.617  1.00  0.00    -0.237 OA
ATOM     73  O   UNL A   1      44.128  28.401  26.163  1.00  0.00    -0.744 OA
ENDBRANCH  66  70
ENDBRANCH  49  63
BRANCH  50  74
ATOM     74  C   UNL A   1      39.421  33.374  37.014  1.00  0.00     0.023 A 
ATOM     75  C   UNL A   1      38.776  32.806  38.124  1.00  0.00     0.031 A 
ATOM     76  C   UNL A   1      39.782  34.731  37.081  1.00  0.00     0.131 A 
ATOM     77  C   UNL A   1      38.479  33.602  39.243  1.00  0.00     0.055 A 
ATOM     78  C   UNL A   1      39.520  35.507  38.212  1.00  0.00     0.041 A 
ATOM     79  F   UNL A   1      40.415  35.316  36.052  1.00  0.00    -0.206 F 
ATOM     80  C   UNL A   1      38.857  34.945  39.298  1.00  0.00     0.022 A 
BRANCH  77  81
ATOM     81  S   UNL A   1      37.552  32.862  40.616  1.00  0.00     0.124 S 
ATOM     82  O   UNL A   1      37.989  33.676  41.743  1.00  0.00    -0.237 OA
ATOM     83  O   UNL A   1      36.170  33.050  40.186  1.00  0.00    -0.237 OA
ATOM     84  O   UNL A   1      38.013  31.476  40.630  1.00  0.00    -0.744 OA
ENDBRANCH  77  81
ENDBRANCH  50  74
BRANCH  62  85
ATOM     85  C   UNL A   1      44.287  28.625  35.444  1.00  0.00     0.023 A 
ATOM     86  C   UNL A   1      44.201  27.602  36.404  1.00  0.00     0.031 A 
ATOM     87  C   UNL A   1      45.547  29.199  35.196  1.00  0.00     0.131 A 
ATOM     88  C   UNL A   1      45.343  27.222  37.122  1.00  0.00     0.055 A 
ATOM     89  C   UNL A   1      46.691  28.777  35.873  1.00  0.00     0.041 A 
ATOM     90  F   UNL A   1      45.685  30.180  34.291  1.00  0.00    -0.206 F 
ATOM     91  C   UNL A   1      46.591  27.791  36.852  1.00  0.00     0.022 A 
BRANCH  88  92
ATOM     92  S   UNL A   1      45.163  26.034  38.480  1.00  0.00     0.124 S 
ATOM     93  O   UNL A   1      43.953  26.510  39.142  1.00  0.00    -0.237 OA
ATOM     94  O   UNL A   1      45.045  24.764  37.770  1.00  0.00    -0.237 OA
ATOM     95  O   UNL A   1      46.395  26.201  39.248  1.00  0.00    -0.744 OA
ENDBRANCH  88  92
ENDBRANCH  62  85
ENDBRANCH  36  37
ENDBRANCH  28  31
ENDBRANCH  26  27
ENDBRANCH   1  26
TORSDOF 15
ENDMDL
MODEL 2
REMARK VINA RESULT:     -12.5      1.784      7.565
REMARK SMILES C[C@H]1CN(C(=O)N2CC[NH+]([C@@H](C)C(=O)NCCCCNC(=O)c3ccc(-c4c5nc(c(-c6cc(S(=O)(=O)[O-])ccc6F)c6ccc([nH]6)c(-c6cc(S(=O)(=O)[O-])ccc6F)c6nc(c(-c7cc(S(=O)(=O)[O-])ccc7F)c7ccc4[nH]7)C=C6)C=C5)cc3)CC2)C[C@@H]1C
REMARK SMILES IDX 18 1 17 2 16 3 15 4 13 5 14 6 11 8 12 9 10 10 1 11 2 12 3 13
REMARK SMILES IDX 89 14 4 15 88 16 90 17 5 18 6 19 7 20 8 21 87 22 9 23 86 24
REMARK SMILES IDX 19 26 20 27 21 28 22 30 23 31 24 32 85 33 25 34 84 35 26 36
REMARK SMILES IDX 27 37 28 38 78 39 29 40 83 41 77 42 79 43 30 44 82 45 76 46
REMARK SMILES IDX 75 47 31 49 63 50 43 51 62 52 44 53 47 54 61 55 80 56 45 57
REMARK SMILES IDX 46 58 60 60 81 61 48 62 32 63 33 64 41 65 34 66 40 67 42 68
REMARK SMILES IDX 39 69 35 70 36 71 37 72 38 73 64 74 65 75 73 76 66 77 72 78
REMARK SMILES IDX 74 79 71 80 67 81 68 82 69 83 70 84 49 85 50 86 58 87 51 88
REMARK SMILES IDX 57 89 59 90 56 91 52 92 53 93 54 94 55 95
REMARK H PARENT 15 7 10 25 20 29 79 48 47 59
REMARK Flexibility Score: inf
ROOT
ATOM      1  C   UNL A   1      31.874  32.144  26.828  1.00  0.00     0.023 C 
ENDROOT
BRANCH   1   2
ATOM      2  C   UNL A   1      32.043  30.634  26.865  1.00  0.00     0.023 C 
BRANCH   2   3
ATOM      3  C   UNL A   1      31.604  29.899  25.592  1.00  0.00     0.116 C 
BRANCH   3   4
ATOM      4  N   UNL A   1      32.723  29.712  24.691  1.00  0.00    -0.351 N 
ATOM      5  C   UNL A   1      32.898  28.910  23.602  1.00  0.00     0.278 C 
ATOM      6  O   UNL A   1      34.051  28.853  23.154  1.00  0.00    -0.268 OA
ATOM      7  H   UNL A   1      33.506  30.269  24.905  1.00  0.00     0.163 HD
BRANCH   5   8
ATOM      8  C   UNL A   1      31.751  28.132  22.897  1.00  0.00     0.271 C 
ATOM      9  C   UNL A   1      30.711  29.033  22.232  1.00  0.00     0.086 C 
BRANCH   8  10
ATOM     10  N   UNL A   1      31.326  26.910  23.624  1.00  0.00    -0.322 N 
ATOM     11  C   UNL A   1      34.131  21.693  27.449  1.00  0.00     0.010 C 
ATOM     12  C   UNL A   1      33.290  21.234  26.257  1.00  0.00     0.010 C 
ATOM     13  C   UNL A   1      32.868  22.430  25.405  1.00  0.00     0.125 C 
ATOM     14  C   UNL A   1      34.102  20.375  25.268  1.00  0.00     0.010 C 
ATOM     15  N   UNL A   1      33.920  22.566  24.408  1.00  0.00    -0.324 N 
ATOM     16  C   UNL A   1      34.811  21.419  24.401  1.00  0.00     0.125 C 
ATOM     17  C   UNL A   1      33.196  19.488  24.411  1.00  0.00     0.010 C 
ATOM     18  C   UNL A   1      33.910  23.472  23.377  1.00  0.00     0.320 C 
ATOM     19  O   UNL A   1      34.591  23.350  22.362  1.00  0.00    -0.248 OA
ATOM     20  N   UNL A   1      33.010  24.504  23.540  1.00  0.00    -0.313 N 
ATOM     21  C   UNL A   1      32.199  24.869  22.395  1.00  0.00     0.183 C 
ATOM     22  C   UNL A   1      33.384  25.613  24.413  1.00  0.00     0.183 C 
ATOM     23  C   UNL A   1      31.001  25.713  22.846  1.00  0.00     0.284 C 
ATOM     24  C   UNL A   1      32.193  26.532  24.757  1.00  0.00     0.284 C 
ATOM     25  H   UNL A   1      30.432  27.254  23.973  1.00  0.00     0.348 HD
ENDBRANCH   8  10
ENDBRANCH   5   8
ENDBRANCH   3   4
ENDBRANCH   2   3
ENDBRANCH   1   2
BRANCH   1  26
ATOM     26  C   UNL A   1      32.972  32.916  27.537  1.00  0.00     0.116 C 
BRANCH  26  27
ATOM     27  N   UNL A   1      32.605  34.283  27.881  1.00  0.00    -0.352 N 
ATOM     28  C   UNL A   1      33.185  35.099  28.833  1.00  0.00     0.251 C 
ATOM     29  H   UNL A   1      31.855  34.671  27.377  1.00  0.00     0.163 HD
ATOM     30  O   UNL A   1      32.717  36.196  29.081  1.00  0.00    -0.269 OA
BRANCH  28  31
ATOM     31  C   UNL A   1      34.353  34.578  29.577  1.00  0.00     0.039 A 
ATOM     32  C   UNL A   1      34.144  33.902  30.780  1.00  0.00     0.014 A 
ATOM     33  C   UNL A   1      35.630  34.663  29.019  1.00  0.00     0.014 A 
ATOM     34  C   UNL A   1      35.214  33.240  31.386  1.00  0.00     0.010 A 
ATOM     35  C   UNL A   1      36.663  33.915  29.563  1.00  0.00     0.010 A 
ATOM     36  C   UNL A   1      36.471  33.207  30.761  1.00  0.00    -0.014 A 
BRANCH  36  37
ATOM     37  C   UNL A   1      37.619  32.479  31.357  1.00  0.00     0.031 A 
ATOM     38  C   UNL A   1      38.219  32.978  32.644  1.00  0.00     0.074 A 
ATOM     39  C   UNL A   1      38.173  31.438  30.706  1.00  0.00     0.049 A 
ATOM     40  N   UNL A   1      39.285  32.568  33.280  1.00  0.00    -0.248 NA
ATOM     41  C   UNL A   1      37.561  34.139  33.263  1.00  0.00     0.031 C 
ATOM     42  C   UNL A   1      37.729  30.912  29.413  1.00  0.00     0.029 A 
ATOM     43  N   UNL A   1      39.241  30.644  31.038  1.00  0.00    -0.354 N 
ATOM     44  C   UNL A   1      39.443  33.442  34.351  1.00  0.00     0.074 A 
ATOM     45  C   UNL A   1      38.415  34.452  34.221  1.00  0.00     0.031 C 
ATOM     46  C   UNL A   1      38.502  29.866  29.075  1.00  0.00     0.029 A 
ATOM     47  C   UNL A   1      39.514  29.668  30.108  1.00  0.00     0.049 A 
ATOM     48  H   UNL A   1      39.763  30.761  31.864  1.00  0.00     0.167 HD
ATOM     49  C   UNL A   1      40.338  33.387  35.369  1.00  0.00     0.034 A 
ATOM     50  C   UNL A   1      40.473  28.722  30.093  1.00  0.00     0.034 A 
ATOM     51  C   UNL A   1      41.328  32.346  35.496  1.00  0.00     0.049 A 
ATOM     52  C   UNL A   1      41.426  28.639  31.256  1.00  0.00     0.074 A 
ATOM     53  C   UNL A   1      42.240  32.139  36.514  1.00  0.00     0.029 A 
ATOM     54  N   UNL A   1      41.535  31.334  34.567  1.00  0.00    -0.354 N 
ATOM     55  N   UNL A   1      41.525  29.430  32.301  1.00  0.00    -0.248 NA
ATOM     56  C   UNL A   1      42.381  27.524  31.250  1.00  0.00     0.031 C 
ATOM     57  C   UNL A   1      43.031  31.033  36.177  1.00  0.00     0.029 A 
ATOM     58  C   UNL A   1      42.569  30.509  34.979  1.00  0.00     0.049 A 
ATOM     59  H   UNL A   1      41.020  31.218  33.735  1.00  0.00     0.167 HD
ATOM     60  C   UNL A   1      42.536  28.890  33.091  1.00  0.00     0.074 A 
ATOM     61  C   UNL A   1      43.005  27.702  32.406  1.00  0.00     0.031 C 
ATOM     62  C   UNL A   1      43.029  29.333  34.276  1.00  0.00     0.034 A 
BRANCH  49  63
ATOM     63  C   UNL A   1      40.279  34.496  36.395  1.00  0.00     0.023 A 
ATOM     64  C   UNL A   1      41.334  35.416  36.548  1.00  0.00     0.031 A 
ATOM     65  C   UNL A   1      39.201  34.586  37.291  1.00  0.00     0.131 A 
ATOM     66  C   UNL A   1      41.348  36.295  37.640  1.00  0.00     0.055 A 
ATOM     67  C   UNL A   1      39.171  35.537  38.316  1.00  0.00     0.041 A 
ATOM     68  F   UNL A   1      38.170  33.730  37.211  1.00  0.00    -0.206 F 
ATOM     69  C   UNL A   1      40.260  36.382  38.510  1.00  0.00     0.022 A 
BRANCH  66  70
ATOM     70  S   UNL A   1      42.890  37.173  38.020  1.00  0.00     0.124 S 
ATOM     71  O   UNL A   1      43.711  36.096  38.570  1.00  0.00    -0.237 OA
ATOM     72  O   UNL A   1      43.293  37.681  36.714  1.00  0.00    -0.237 OA
ATOM     73  O   UNL A   1      42.477  38.187  38.987  1.00  0.00    -0.744 OA
ENDBRANCH  66  70
ENDBRANCH  49  63
BRANCH  50  74
ATOM     74  C   UNL A   1      40.567  27.771  28.952  1.00  0.00     0.023 A 
ATOM     75  C   UNL A   1      41.500  27.965  27.921  1.00  0.00     0.031 A 
ATOM     76  C   UNL A   1      39.719  26.651  28.875  1.00  0.00     0.131 A 
ATOM     77  C   UNL A   1      41.541  27.072  26.838  1.00  0.00     0.055 A 
ATOM     78  C   UNL A   1      39.792  25.745  27.816  1.00  0.00     0.041 A 
ATOM     79  F   UNL A   1      38.821  26.413  29.843  1.00  0.00    -0.206 F 
ATOM     80  C   UNL A   1      40.702  25.957  26.784  1.00  0.00     0.022 A 
BRANCH  77  81
ATOM     81  S   UNL A   1      42.688  27.411  25.474  1.00  0.00     0.124 S 
ATOM     82  O   UNL A   1      42.047  28.547  24.822  1.00  0.00    -0.237 OA
ATOM     83  O   UNL A   1      43.930  27.698  26.184  1.00  0.00    -0.237 OA
ATOM     84  O   UNL A   1      42.684  26.167  24.709  1.00  0.00    -0.744 OA
ENDBRANCH  77  81
ENDBRANCH  50  74
BRANCH  62  85
ATOM     85  C   UNL A   1      44.101  28.494  34.925  1.00  0.00     0.023 A 
ATOM     86  C   UNL A   1      43.793  27.487  35.856  1.00  0.00     0.031 A 
ATOM     87  C   UNL A   1      45.453  28.717  34.611  1.00  0.00     0.131 A 
ATOM     88  C   UNL A   1      44.827  26.776  36.481  1.00  0.00     0.055 A 
ATOM     89  C   UNL A   1      46.475  27.968  35.194  1.00  0.00     0.041 A 
ATOM     90  F   UNL A   1      45.803  29.668  33.730  1.00  0.00    -0.206 F 
ATOM     91  C   UNL A   1      46.166  26.999  36.145  1.00  0.00     0.022 A 
BRANCH  88  92
ATOM     92  S   UNL A   1      44.407  25.615  37.810  1.00  0.00     0.124 S 
ATOM     93  O   UNL A   1      43.215  24.962  37.277  1.00  0.00    -0.237 OA
ATOM     94  O   UNL A   1      45.605  24.788  37.892  1.00  0.00    -0.237 OA
ATOM     95  O   UNL A   1      44.173  26.483  38.962  1.00  0.00    -0.744 OA
ENDBRANCH  88  92
ENDBRANCH  62  85
ENDBRANCH  36  37
ENDBRANCH  28  31
ENDBRANCH  26  27
ENDBRANCH   1  26
TORSDOF 15
ENDMDL
MODEL 3
REMARK VINA RESULT:     -12.5      6.030     11.564
REMARK SMILES C[C@H]1CN(C(=O)N2CC[NH+]([C@@H](C)C(=O)NCCCCNC(=O)c3ccc(-c4c5nc(c(-c6cc(S(=O)(=O)[O-])ccc6F)c6ccc([nH]6)c(-c6cc(S(=O)(=O)[O-])ccc6F)c6nc(c(-c7cc(S(=O)(=O)[O-])ccc7F)c7ccc4[nH]7)C=C6)C=C5)cc3)CC2)C[C@@H]1C
REMARK SMILES IDX 18 1 17 2 16 3 15 4 13 5 14 6 11 8 12 9 10 10 1 11 2 12 3 13
REMARK SMILES IDX 89 14 4 15 88 16 90 17 5 18 6 19 7 20 8 21 87 22 9 23 86 24
REMARK SMILES IDX 19 26 20 27 21 28 22 30 23 31 24 32 85 33 25 34 84 35 26 36
REMARK SMILES IDX 27 37 28 38 78 39 29 40 83 41 77 42 79 43 30 44 82 45 76 46
REMARK SMILES IDX 75 47 31 49 63 50 43 51 62 52 44 53 47 54 61 55 80 56 45 57
REMARK SMILES IDX 46 58 60 60 81 61 48 62 32 63 33 64 41 65 34 66 40 67 42 68
REMARK SMILES IDX 39 69 35 70 36 71 37 72 38 73 64 74 65 75 73 76 66 77 72 78
REMARK SMILES IDX 74 79 71 80 67 81 68 82 69 83 70 84 49 85 50 86 58 87 51 88
REMARK SMILES IDX 57 89 59 90 56 91 52 92 53 93 54 94 55 95
REMARK H PARENT 15 7 10 25 20 29 79 48 47 59
REMARK Flexibility Score: inf
ROOT
ATOM      1  C   UNL A   1      38.496  19.972  24.751  1.00  0.00     0.023 C 
ENDROOT
BRANCH   1   2
ATOM      2  C   UNL A   1      37.436  21.062  24.723  1.00  0.00     0.023 C 
BRANCH   2   3
ATOM      3  C   UNL A   1      35.997  20.578  24.942  1.00  0.00     0.116 C 
BRANCH   3   4
ATOM      4  N   UNL A   1      35.462  21.095  26.185  1.00  0.00    -0.351 N 
ATOM      5  C   UNL A   1      34.210  21.494  26.547  1.00  0.00     0.278 C 
ATOM      6  O   UNL A   1      34.120  22.063  27.644  1.00  0.00    -0.268 OA
ATOM      7  H   UNL A   1      36.130  21.175  26.905  1.00  0.00     0.163 HD
BRANCH   5   8
ATOM      8  C   UNL A   1      32.931  21.233  25.701  1.00  0.00     0.271 C 
ATOM      9  C   UNL A   1      32.625  19.752  25.485  1.00  0.00     0.086 C 
BRANCH   8  10
ATOM     10  N   UNL A   1      32.742  22.205  24.595  1.00  0.00    -0.322 N 
ATOM     11  C   UNL A   1      33.700  29.059  23.250  1.00  0.00     0.010 C 
ATOM     12  C   UNL A   1      32.281  28.548  22.998  1.00  0.00     0.010 C 
ATOM     13  C   UNL A   1      32.138  27.104  23.473  1.00  0.00     0.125 C 
ATOM     14  C   UNL A   1      31.234  29.295  23.847  1.00  0.00     0.010 C 
ATOM     15  N   UNL A   1      31.686  27.208  24.852  1.00  0.00    -0.324 N 
ATOM     16  C   UNL A   1      31.288  28.563  25.190  1.00  0.00     0.125 C 
ATOM     17  C   UNL A   1      29.833  29.198  23.236  1.00  0.00     0.010 C 
ATOM     18  C   UNL A   1      31.348  26.142  25.650  1.00  0.00     0.320 C 
ATOM     19  O   UNL A   1      30.646  26.243  26.652  1.00  0.00    -0.248 OA
ATOM     20  N   UNL A   1      31.806  24.925  25.189  1.00  0.00    -0.313 N 
ATOM     21  C   UNL A   1      30.878  23.811  25.215  1.00  0.00     0.183 C 
ATOM     22  C   UNL A   1      33.202  24.575  25.437  1.00  0.00     0.183 C 
ATOM     23  C   UNL A   1      31.387  22.682  24.310  1.00  0.00     0.284 C 
ATOM     24  C   UNL A   1      33.668  23.354  24.616  1.00  0.00     0.284 C 
ATOM     25  H   UNL A   1      32.977  21.586  23.819  1.00  0.00     0.348 HD
ENDBRANCH   8  10
ENDBRANCH   5   8
ENDBRANCH   3   4
ENDBRANCH   2   3
ENDBRANCH   1   2
BRANCH   1  26
ATOM     26  C   UNL A   1      39.160  19.777  26.101  1.00  0.00     0.116 C 
BRANCH  26  27
ATOM     27  N   UNL A   1      40.385  18.991  26.049  1.00  0.00    -0.352 N 
ATOM     28  C   UNL A   1      41.681  19.431  26.240  1.00  0.00     0.251 C 
ATOM     29  H   UNL A   1      40.278  18.033  25.853  1.00  0.00     0.163 HD
ATOM     30  O   UNL A   1      42.624  18.679  26.077  1.00  0.00    -0.269 OA
BRANCH  28  31
ATOM     31  C   UNL A   1      41.886  20.854  26.592  1.00  0.00     0.039 A 
ATOM     32  C   UNL A   1      42.391  21.175  27.852  1.00  0.00     0.014 A 
ATOM     33  C   UNL A   1      41.684  21.847  25.631  1.00  0.00     0.014 A 
ATOM     34  C   UNL A   1      42.769  22.491  28.122  1.00  0.00     0.010 A 
ATOM     35  C   UNL A   1      42.162  23.127  25.863  1.00  0.00     0.010 A 
ATOM     36  C   UNL A   1      42.697  23.469  27.115  1.00  0.00    -0.014 A 
BRANCH  36  37
ATOM     37  C   UNL A   1      43.130  24.868  27.356  1.00  0.00     0.031 A 
ATOM     38  C   UNL A   1      42.188  25.823  28.039  1.00  0.00     0.074 A 
ATOM     39  C   UNL A   1      44.315  25.300  26.886  1.00  0.00     0.049 A 
ATOM     40  N   UNL A   1      42.312  27.107  28.250  1.00  0.00    -0.248 NA
ATOM     41  C   UNL A   1      40.905  25.262  28.489  1.00  0.00     0.031 C 
ATOM     42  C   UNL A   1      45.279  24.489  26.139  1.00  0.00     0.029 A 
ATOM     43  N   UNL A   1      44.906  26.536  26.956  1.00  0.00    -0.354 N 
ATOM     44  C   UNL A   1      41.111  27.511  28.824  1.00  0.00     0.074 A 
ATOM     45  C   UNL A   1      40.245  26.352  28.843  1.00  0.00     0.031 C 
ATOM     46  C   UNL A   1      46.352  25.242  25.843  1.00  0.00     0.029 A 
ATOM     47  C   UNL A   1      46.139  26.595  26.348  1.00  0.00     0.049 A 
ATOM     48  H   UNL A   1      44.487  27.309  27.398  1.00  0.00     0.167 HD
ATOM     49  C   UNL A   1      40.772  28.726  29.323  1.00  0.00     0.034 A 
ATOM     50  C   UNL A   1      46.998  27.625  26.216  1.00  0.00     0.034 A 
ATOM     51  C   UNL A   1      41.668  29.856  29.328  1.00  0.00     0.049 A 
ATOM     52  C   UNL A   1      46.632  28.953  26.823  1.00  0.00     0.074 A 
ATOM     53  C   UNL A   1      41.472  31.114  29.867  1.00  0.00     0.029 A 
ATOM     54  N   UNL A   1      42.938  29.861  28.761  1.00  0.00    -0.354 N 
ATOM     55  N   UNL A   1      45.520  29.309  27.426  1.00  0.00    -0.248 NA
ATOM     56  C   UNL A   1      47.646  30.013  26.753  1.00  0.00     0.031 C 
ATOM     57  C   UNL A   1      42.600  31.895  29.582  1.00  0.00     0.029 A 
ATOM     58  C   UNL A   1      43.529  31.104  28.923  1.00  0.00     0.049 A 
ATOM     59  H   UNL A   1      43.357  29.093  28.310  1.00  0.00     0.167 HD
ATOM     60  C   UNL A   1      45.712  30.627  27.830  1.00  0.00     0.074 A 
ATOM     61  C   UNL A   1      47.051  30.996  27.413  1.00  0.00     0.031 C 
ATOM     62  C   UNL A   1      44.863  31.455  28.491  1.00  0.00     0.034 A 
BRANCH  49  63
ATOM     63  C   UNL A   1      39.374  28.875  29.879  1.00  0.00     0.023 A 
ATOM     64  C   UNL A   1      38.336  29.445  29.119  1.00  0.00     0.031 A 
ATOM     65  C   UNL A   1      39.092  28.527  31.211  1.00  0.00     0.131 A 
ATOM     66  C   UNL A   1      37.113  29.765  29.727  1.00  0.00     0.055 A 
ATOM     67  C   UNL A   1      37.836  28.751  31.781  1.00  0.00     0.041 A 
ATOM     68  F   UNL A   1      40.042  27.994  31.995  1.00  0.00    -0.206 F 
ATOM     69  C   UNL A   1      36.845  29.396  31.046  1.00  0.00     0.022 A 
BRANCH  66  70
ATOM     70  S   UNL A   1      35.962  30.845  28.832  1.00  0.00     0.124 S 
ATOM     71  O   UNL A   1      36.883  31.675  28.057  1.00  0.00    -0.237 OA
ATOM     72  O   UNL A   1      35.164  29.893  28.069  1.00  0.00    -0.237 OA
ATOM     73  O   UNL A   1      35.251  31.546  29.898  1.00  0.00    -0.744 OA
ENDBRANCH  66  70
ENDBRANCH  49  63
BRANCH  50  74
ATOM     74  C   UNL A   1      48.288  27.434  25.499  1.00  0.00     0.023 A 
ATOM     75  C   UNL A   1      48.382  27.627  24.112  1.00  0.00     0.031 A 
ATOM     76  C   UNL A   1      49.450  27.052  26.194  1.00  0.00     0.131 A 
ATOM     77  C   UNL A   1      49.603  27.405  23.456  1.00  0.00     0.055 A 
ATOM     78  C   UNL A   1      50.671  26.871  25.542  1.00  0.00     0.041 A 
ATOM     79  F   UNL A   1      49.415  26.870  27.523  1.00  0.00    -0.206 F 
ATOM     80  C   UNL A   1      50.750  27.039  24.163  1.00  0.00     0.022 A 
BRANCH  77  81
ATOM     81  S   UNL A   1      49.662  27.563  21.649  1.00  0.00     0.124 S 
ATOM     82  O   UNL A   1      50.800  26.715  21.313  1.00  0.00    -0.237 OA
ATOM     83  O   UNL A   1      48.349  27.059  21.257  1.00  0.00    -0.237 OA
ATOM     84  O   UNL A   1      49.864  28.994  21.439  1.00  0.00    -0.744 OA
ENDBRANCH  77  81
ENDBRANCH  50  74
BRANCH  62  85
ATOM     85  C   UNL A   1      45.383  32.827  28.842  1.00  0.00     0.023 A 
ATOM     86  C   UNL A   1      45.205  33.928  27.986  1.00  0.00     0.031 A 
ATOM     87  C   UNL A   1      46.075  33.028  30.049  1.00  0.00     0.131 A 
ATOM     88  C   UNL A   1      45.761  35.170  28.325  1.00  0.00     0.055 A 
ATOM     89  C   UNL A   1      46.577  34.280  30.407  1.00  0.00     0.041 A 
ATOM     90  F   UNL A   1      46.274  32.010  30.901  1.00  0.00    -0.206 F 
ATOM     91  C   UNL A   1      46.432  35.357  29.536  1.00  0.00     0.022 A 
BRANCH  88  92
ATOM     92  S   UNL A   1      45.675  36.520  27.118  1.00  0.00     0.124 S 
ATOM     93  O   UNL A   1      44.234  36.722  26.989  1.00  0.00    -0.237 OA
ATOM     94  O   UNL A   1      46.410  37.586  27.789  1.00  0.00    -0.237 OA
ATOM     95  O   UNL A   1      46.329  35.966  25.935  1.00  0.00    -0.744 OA
ENDBRANCH  88  92
ENDBRANCH  62  85
ENDBRANCH  36  37
ENDBRANCH  28  31
ENDBRANCH  26  27
ENDBRANCH   1  26
TORSDOF 15
ENDMDL
