MODEL 1
REMARK VINA RESULT:     -12.0      0.000      0.000
REMARK SMILES COC(=O)[C@@H]1CCN(S(=O)(=O)N2CCC(C(=O)NCCCCNC(=O)c3ccc(-c4c5nc(c(-c6cc(S(=O)(=O)[O-])ccc6F)c6ccc([nH]6)c(-c6cc(S(=O)(=O)[O-])ccc6F)c6nc(c(-c7cc(S(=O)(=O)[O-])ccc7F)c7ccc4[nH]7)C=C6)C=C5)cc3)CC2)C1
REMARK SMILES IDX 20 1 19 2 18 3 16 4 17 5 15 7 12 8 13 9 90 10 14 11 89 12
REMARK SMILES IDX 9 13 10 14 11 15 8 16 5 17 6 18 91 19 7 20 3 21 4 22 2 23
REMARK SMILES IDX 1 24 21 25 22 26 23 27 24 28 25 30 26 31 27 32 88 33 28 34
REMARK SMILES IDX 87 35 29 36 30 37 31 38 81 39 32 40 86 41 80 42 82 43 33 44
REMARK SMILES IDX 85 45 79 46 78 47 34 49 66 50 46 51 65 52 47 53 50 54 64 55
REMARK SMILES IDX 83 56 48 57 49 58 63 60 84 61 51 62 35 63 36 64 44 65 37 66
REMARK SMILES IDX 43 67 45 68 42 69 38 70 39 71 40 72 41 73 67 74 68 75 76 76
REMARK SMILES IDX 69 77 75 78 77 79 74 80 70 81 71 82 72 83 73 84 52 85 53 86
REMARK SMILES IDX 61 87 54 88 60 89 62 90 59 91 55 92 56 93 57 94 58 95
REMARK H PARENT 18 6 23 29 82 48 50 59
REMARK Flexibility Score: inf
ROOT
ATOM      1  C   UNL A   1      34.778  22.990  26.632  1.00  0.00     0.023 C 
ENDROOT
BRANCH   1   2
ATOM      2  C   UNL A   1      33.268  22.836  26.748  1.00  0.00     0.116 C 
BRANCH   2   3
ATOM      3  N   UNL A   1      32.830  21.524  26.300  1.00  0.00    -0.356 N 
ATOM      4  C   UNL A   1      32.212  21.142  25.149  1.00  0.00     0.223 C 
ATOM      5  O   UNL A   1      31.896  19.958  25.015  1.00  0.00    -0.275 OA
ATOM      6  H   UNL A   1      33.009  20.791  26.932  1.00  0.00     0.163 HD
BRANCH   4   7
ATOM      7  C   UNL A   1      31.951  22.134  24.031  1.00  0.00     0.081 C 
ATOM      8  N   UNL A   1      32.421  24.787  23.058  1.00  0.00    -0.189 NA
ATOM      9  C   UNL A   1      31.040  24.445  23.449  1.00  0.00     0.104 C 
ATOM     10  C   UNL A   1      33.117  23.667  22.405  1.00  0.00     0.104 C 
ATOM     11  C   UNL A   1      31.084  23.319  24.480  1.00  0.00     0.030 C 
ATOM     12  C   UNL A   1      33.272  22.503  23.352  1.00  0.00     0.030 C 
BRANCH   8  13
ATOM     13  S   UNL A   1      32.712  26.345  22.493  1.00  0.00     0.281 S 
ATOM     14  O   UNL A   1      31.455  27.040  22.373  1.00  0.00    -0.195 OA
ATOM     15  O   UNL A   1      33.615  26.249  21.365  1.00  0.00    -0.195 OA
BRANCH  13  16
ATOM     16  N   UNL A   1      33.575  27.070  23.770  1.00  0.00    -0.188 NA
ATOM     17  C   UNL A   1      32.571  28.245  25.663  1.00  0.00     0.116 C 
ATOM     18  C   UNL A   1      32.584  26.751  25.912  1.00  0.00     0.033 C 
ATOM     19  C   UNL A   1      33.002  28.400  24.204  1.00  0.00     0.118 C 
ATOM     20  C   UNL A   1      33.719  26.285  25.026  1.00  0.00     0.104 C 
BRANCH  17  21
ATOM     21  C   UNL A   1      33.518  28.947  26.607  1.00  0.00     0.310 C 
ATOM     22  O   UNL A   1      34.639  28.549  26.900  1.00  0.00    -0.252 OA
BRANCH  21  23
ATOM     23  O   UNL A   1      32.932  30.059  27.129  1.00  0.00    -0.469 OA
ATOM     24  C   UNL A   1      33.877  31.021  27.597  1.00  0.00     0.282 C 
ENDBRANCH  21  23
ENDBRANCH  17  21
ENDBRANCH  13  16
ENDBRANCH   8  13
ENDBRANCH   4   7
ENDBRANCH   2   3
ENDBRANCH   1   2
BRANCH   1  25
ATOM     25  C   UNL A   1      35.492  21.743  26.117  1.00  0.00     0.023 C 
BRANCH  25  26
ATOM     26  C   UNL A   1      36.831  22.013  25.443  1.00  0.00     0.116 C 
BRANCH  26  27
ATOM     27  N   UNL A   1      37.791  20.941  25.651  1.00  0.00    -0.352 N 
ATOM     28  C   UNL A   1      39.103  21.027  26.048  1.00  0.00     0.251 C 
ATOM     29  H   UNL A   1      37.455  20.031  25.486  1.00  0.00     0.163 HD
ATOM     30  O   UNL A   1      39.822  20.034  26.003  1.00  0.00    -0.269 OA
BRANCH  28  31
ATOM     31  C   UNL A   1      39.642  22.329  26.494  1.00  0.00     0.039 A 
ATOM     32  C   UNL A   1      40.794  22.349  27.280  1.00  0.00     0.014 A 
ATOM     33  C   UNL A   1      39.024  23.525  26.116  1.00  0.00     0.014 A 
ATOM     34  C   UNL A   1      41.354  23.574  27.646  1.00  0.00     0.010 A 
ATOM     35  C   UNL A   1      39.638  24.739  26.397  1.00  0.00     0.010 A 
ATOM     36  C   UNL A   1      40.799  24.780  27.183  1.00  0.00    -0.014 A 
BRANCH  36  37
ATOM     37  C   UNL A   1      41.399  26.088  27.550  1.00  0.00     0.031 A 
ATOM     38  C   UNL A   1      42.787  26.437  27.075  1.00  0.00     0.074 A 
ATOM     39  C   UNL A   1      40.711  26.947  28.328  1.00  0.00     0.049 A 
ATOM     40  N   UNL A   1      43.493  27.514  27.302  1.00  0.00    -0.248 NA
ATOM     41  C   UNL A   1      43.482  25.425  26.265  1.00  0.00     0.031 C 
ATOM     42  C   UNL A   1      39.379  26.703  28.885  1.00  0.00     0.029 A 
ATOM     43  N   UNL A   1      41.033  28.202  28.782  1.00  0.00    -0.354 N 
ATOM     44  C   UNL A   1      44.715  27.306  26.671  1.00  0.00     0.074 A 
ATOM     45  C   UNL A   1      44.680  25.968  26.122  1.00  0.00     0.031 C 
ATOM     46  C   UNL A   1      38.982  27.787  29.568  1.00  0.00     0.029 A 
ATOM     47  C   UNL A   1      40.045  28.786  29.543  1.00  0.00     0.049 A 
ATOM     48  H   UNL A   1      41.890  28.643  28.582  1.00  0.00     0.167 HD
ATOM     49  C   UNL A   1      45.757  28.163  26.531  1.00  0.00     0.034 A 
ATOM     50  C   UNL A   1      40.005  29.987  30.152  1.00  0.00     0.034 A 
ATOM     51  C   UNL A   1      45.770  29.498  27.078  1.00  0.00     0.049 A 
ATOM     52  C   UNL A   1      41.188  30.912  30.008  1.00  0.00     0.074 A 
ATOM     53  C   UNL A   1      46.750  30.467  26.962  1.00  0.00     0.029 A 
ATOM     54  N   UNL A   1      44.758  30.051  27.854  1.00  0.00    -0.354 N 
ATOM     55  N   UNL A   1      42.315  30.721  29.358  1.00  0.00    -0.248 NA
ATOM     56  C   UNL A   1      41.085  32.219  30.664  1.00  0.00     0.031 C 
ATOM     57  C   UNL A   1      46.370  31.572  27.731  1.00  0.00     0.029 A 
ATOM     58  C   UNL A   1      45.107  31.333  28.251  1.00  0.00     0.049 A 
ATOM     59  H   UNL A   1      43.915  29.598  28.087  1.00  0.00     0.167 HD
ATOM     60  C   UNL A   1      43.039  31.903  29.502  1.00  0.00     0.074 A 
ATOM     61  C   UNL A   1      42.208  32.803  30.275  1.00  0.00     0.031 C 
ATOM     62  C   UNL A   1      44.276  32.216  29.037  1.00  0.00     0.034 A 
BRANCH  49  63
ATOM     63  C   UNL A   1      46.970  27.665  25.781  1.00  0.00     0.023 A 
ATOM     64  C   UNL A   1      47.211  28.019  24.440  1.00  0.00     0.031 A 
ATOM     65  C   UNL A   1      47.887  26.798  26.402  1.00  0.00     0.131 A 
ATOM     66  C   UNL A   1      48.285  27.447  23.744  1.00  0.00     0.055 A 
ATOM     67  C   UNL A   1      49.008  26.305  25.730  1.00  0.00     0.041 A 
ATOM     68  F   UNL A   1      47.702  26.403  27.671  1.00  0.00    -0.206 F 
ATOM     69  C   UNL A   1      49.204  26.614  24.388  1.00  0.00     0.022 A 
BRANCH  66  70
ATOM     70  S   UNL A   1      48.374  27.677  21.947  1.00  0.00     0.124 S 
ATOM     71  O   UNL A   1      49.491  28.612  21.825  1.00  0.00    -0.237 OA
ATOM     72  O   UNL A   1      48.619  26.322  21.467  1.00  0.00    -0.237 OA
ATOM     73  O   UNL A   1      47.066  28.233  21.607  1.00  0.00    -0.744 OA
ENDBRANCH  66  70
ENDBRANCH  49  63
BRANCH  50  74
ATOM     74  C   UNL A   1      38.815  30.392  30.957  1.00  0.00     0.023 A 
ATOM     75  C   UNL A   1      37.858  31.281  30.443  1.00  0.00     0.031 A 
ATOM     76  C   UNL A   1      38.648  29.939  32.279  1.00  0.00     0.131 A 
ATOM     77  C   UNL A   1      36.810  31.734  31.261  1.00  0.00     0.055 A 
ATOM     78  C   UNL A   1      37.569  30.343  33.067  1.00  0.00     0.041 A 
ATOM     79  F   UNL A   1      39.532  29.088  32.823  1.00  0.00    -0.206 F 
ATOM     80  C   UNL A   1      36.651  31.258  32.564  1.00  0.00     0.022 A 
BRANCH  77  81
ATOM     81  S   UNL A   1      35.715  33.036  30.630  1.00  0.00     0.124 S 
ATOM     82  O   UNL A   1      34.398  32.469  30.895  1.00  0.00    -0.237 OA
ATOM     83  O   UNL A   1      36.099  34.179  31.450  1.00  0.00    -0.237 OA
ATOM     84  O   UNL A   1      36.082  33.132  29.218  1.00  0.00    -0.744 OA
ENDBRANCH  77  81
ENDBRANCH  50  74
BRANCH  62  85
ATOM     85  C   UNL A   1      44.779  33.613  29.320  1.00  0.00     0.023 A 
ATOM     86  C   UNL A   1      44.476  34.696  28.475  1.00  0.00     0.031 A 
ATOM     87  C   UNL A   1      45.608  33.858  30.430  1.00  0.00     0.131 A 
ATOM     88  C   UNL A   1      45.067  35.948  28.703  1.00  0.00     0.055 A 
ATOM     89  C   UNL A   1      46.126  35.126  30.699  1.00  0.00     0.041 A 
ATOM     90  F   UNL A   1      45.936  32.864  31.271  1.00  0.00    -0.206 F 
ATOM     91  C   UNL A   1      45.873  36.176  29.821  1.00  0.00     0.022 A 
BRANCH  88  92
ATOM     92  S   UNL A   1      44.884  37.236  27.439  1.00  0.00     0.124 S 
ATOM     93  O   UNL A   1      44.913  38.453  28.242  1.00  0.00    -0.237 OA
ATOM     94  O   UNL A   1      46.047  37.005  26.588  1.00  0.00    -0.237 OA
ATOM     95  O   UNL A   1      43.594  36.930  26.821  1.00  0.00    -0.744 OA
ENDBRANCH  88  92
ENDBRANCH  62  85
ENDBRANCH  36  37
ENDBRANCH  28  31
ENDBRANCH  26  27
ENDBRANCH  25  26
ENDBRANCH   1  25
TORSDOF 18
ENDMDL
MODEL 2
REMARK VINA RESULT:     -11.8      4.847      9.678
REMARK SMILES COC(=O)[C@@H]1CCN(S(=O)(=O)N2CCC(C(=O)NCCCCNC(=O)c3ccc(-c4c5nc(c(-c6cc(S(=O)(=O)[O-])ccc6F)c6ccc([nH]6)c(-c6cc(S(=O)(=O)[O-])ccc6F)c6nc(c(-c7cc(S(=O)(=O)[O-])ccc7F)c7ccc4[nH]7)C=C6)C=C5)cc3)CC2)C1
REMARK SMILES IDX 20 1 19 2 18 3 16 4 17 5 15 7 12 8 13 9 90 10 14 11 89 12
REMARK SMILES IDX 9 13 10 14 11 15 8 16 5 17 6 18 91 19 7 20 3 21 4 22 2 23
REMARK SMILES IDX 1 24 21 25 22 26 23 27 24 28 25 30 26 31 27 32 88 33 28 34
REMARK SMILES IDX 87 35 29 36 30 37 31 38 81 39 32 40 86 41 80 42 82 43 33 44
REMARK SMILES IDX 85 45 79 46 78 47 34 49 66 50 46 51 65 52 47 53 50 54 64 55
REMARK SMILES IDX 83 56 48 57 49 58 63 60 84 61 51 62 35 63 36 64 44 65 37 66
REMARK SMILES IDX 43 67 45 68 42 69 38 70 39 71 40 72 41 73 67 74 68 75 76 76
REMARK SMILES IDX 69 77 75 78 77 79 74 80 70 81 71 82 72 83 73 84 52 85 53 86
REMARK SMILES IDX 61 87 54 88 60 89 62 90 59 91 55 92 56 93 57 94 58 95
REMARK H PARENT 18 6 23 29 82 48 50 59
REMARK Flexibility Score: inf
ROOT
ATOM      1  C   UNL A   1      33.907  27.130  24.043  1.00  0.00     0.023 C 
ENDROOT
BRANCH   1   2
ATOM      2  C   UNL A   1      33.378  26.876  22.638  1.00  0.00     0.116 C 
BRANCH   2   3
ATOM      3  N   UNL A   1      32.287  27.778  22.307  1.00  0.00    -0.356 N 
ATOM      4  C   UNL A   1      30.946  27.649  22.492  1.00  0.00     0.223 C 
ATOM      5  O   UNL A   1      30.206  28.547  22.082  1.00  0.00    -0.275 OA
ATOM      6  H   UNL A   1      32.564  28.620  21.879  1.00  0.00     0.163 HD
BRANCH   4   7
ATOM      7  C   UNL A   1      30.363  26.454  23.224  1.00  0.00     0.081 C 
ATOM      8  N   UNL A   1      30.870  24.341  25.090  1.00  0.00    -0.189 NA
ATOM      9  C   UNL A   1      30.610  23.958  23.690  1.00  0.00     0.104 C 
ATOM     10  C   UNL A   1      30.047  25.480  25.527  1.00  0.00     0.104 C 
ATOM     11  C   UNL A   1      30.991  25.125  22.781  1.00  0.00     0.030 C 
ATOM     12  C   UNL A   1      30.375  26.719  24.731  1.00  0.00     0.030 C 
BRANCH   8  13
ATOM     13  S   UNL A   1      31.179  23.110  26.195  1.00  0.00     0.281 S 
ATOM     14  O   UNL A   1      30.168  22.091  26.051  1.00  0.00    -0.195 OA
ATOM     15  O   UNL A   1      31.435  23.720  27.483  1.00  0.00    -0.195 OA
BRANCH  13  16
ATOM     16  N   UNL A   1      32.649  22.450  25.647  1.00  0.00    -0.188 NA
ATOM     17  C   UNL A   1      34.867  23.363  26.116  1.00  0.00     0.116 C 
ATOM     18  C   UNL A   1      34.395  22.498  27.267  1.00  0.00     0.033 C 
ATOM     19  C   UNL A   1      33.648  23.495  25.202  1.00  0.00     0.118 C 
ATOM     20  C   UNL A   1      33.399  21.579  26.592  1.00  0.00     0.104 C 
BRANCH  17  21
ATOM     21  C   UNL A   1      36.033  22.714  25.409  1.00  0.00     0.310 C 
ATOM     22  O   UNL A   1      36.001  22.266  24.270  1.00  0.00    -0.252 OA
BRANCH  21  23
ATOM     23  O   UNL A   1      37.113  22.648  26.235  1.00  0.00    -0.469 OA
ATOM     24  C   UNL A   1      38.086  23.657  25.963  1.00  0.00     0.282 C 
ENDBRANCH  21  23
ENDBRANCH  17  21
ENDBRANCH  13  16
ENDBRANCH   8  13
ENDBRANCH   4   7
ENDBRANCH   2   3
ENDBRANCH   1   2
BRANCH   1  25
ATOM     25  C   UNL A   1      33.691  28.557  24.540  1.00  0.00     0.023 C 
BRANCH  25  26
ATOM     26  C   UNL A   1      34.086  28.788  25.992  1.00  0.00     0.116 C 
BRANCH  26  27
ATOM     27  N   UNL A   1      33.755  30.126  26.458  1.00  0.00    -0.352 N 
ATOM     28  C   UNL A   1      34.375  30.878  27.425  1.00  0.00     0.251 C 
ATOM     29  H   UNL A   1      32.982  30.550  26.020  1.00  0.00     0.163 HD
ATOM     30  O   UNL A   1      33.857  31.918  27.817  1.00  0.00    -0.269 OA
BRANCH  28  31
ATOM     31  C   UNL A   1      35.648  30.402  28.007  1.00  0.00     0.039 A 
ATOM     32  C   UNL A   1      35.624  29.745  29.238  1.00  0.00     0.014 A 
ATOM     33  C   UNL A   1      36.856  30.585  27.328  1.00  0.00     0.014 A 
ATOM     34  C   UNL A   1      36.809  29.227  29.762  1.00  0.00     0.010 A 
ATOM     35  C   UNL A   1      38.015  29.982  27.803  1.00  0.00     0.010 A 
ATOM     36  C   UNL A   1      38.009  29.314  29.037  1.00  0.00    -0.014 A 
BRANCH  36  37
ATOM     37  C   UNL A   1      39.272  28.747  29.577  1.00  0.00     0.031 A 
ATOM     38  C   UNL A   1      39.899  29.350  30.808  1.00  0.00     0.074 A 
ATOM     39  C   UNL A   1      39.866  27.713  28.948  1.00  0.00     0.049 A 
ATOM     40  N   UNL A   1      41.005  29.015  31.423  1.00  0.00    -0.248 NA
ATOM     41  C   UNL A   1      39.207  30.501  31.407  1.00  0.00     0.031 C 
ATOM     42  C   UNL A   1      39.378  27.075  27.724  1.00  0.00     0.029 A 
ATOM     43  N   UNL A   1      41.006  27.013  29.253  1.00  0.00    -0.354 N 
ATOM     44  C   UNL A   1      41.142  29.917  32.473  1.00  0.00     0.074 A 
ATOM     45  C   UNL A   1      40.051  30.860  32.360  1.00  0.00     0.031 C 
ATOM     46  C   UNL A   1      40.188  26.053  27.408  1.00  0.00     0.029 A 
ATOM     47  C   UNL A   1      41.280  25.990  28.373  1.00  0.00     0.049 A 
ATOM     48  H   UNL A   1      41.575  27.222  30.029  1.00  0.00     0.167 HD
ATOM     49  C   UNL A   1      42.073  29.938  33.459  1.00  0.00     0.034 A 
ATOM     50  C   UNL A   1      42.297  25.106  28.348  1.00  0.00     0.034 A 
ATOM     51  C   UNL A   1      43.149  28.983  33.560  1.00  0.00     0.049 A 
ATOM     52  C   UNL A   1      43.336  25.168  29.439  1.00  0.00     0.074 A 
ATOM     53  C   UNL A   1      44.121  28.881  34.538  1.00  0.00     0.029 A 
ATOM     54  N   UNL A   1      43.403  27.969  32.644  1.00  0.00    -0.354 N 
ATOM     55  N   UNL A   1      43.420  25.993  30.458  1.00  0.00    -0.248 NA
ATOM     56  C   UNL A   1      44.407  24.167  29.385  1.00  0.00     0.031 C 
ATOM     57  C   UNL A   1      45.008  27.861  34.174  1.00  0.00     0.029 A 
ATOM     58  C   UNL A   1      44.536  27.260  33.017  1.00  0.00     0.049 A 
ATOM     59  H   UNL A   1      42.857  27.780  31.846  1.00  0.00     0.167 HD
ATOM     60  C   UNL A   1      44.537  25.584  31.185  1.00  0.00     0.074 A 
ATOM     61  C   UNL A   1      45.072  24.426  30.499  1.00  0.00     0.031 C 
ATOM     62  C   UNL A   1      45.070  26.117  32.315  1.00  0.00     0.034 A 
BRANCH  49  63
ATOM     63  C   UNL A   1      41.973  31.044  34.484  1.00  0.00     0.023 A 
ATOM     64  C   UNL A   1      42.649  32.267  34.324  1.00  0.00     0.031 A 
ATOM     65  C   UNL A   1      41.218  30.863  35.657  1.00  0.00     0.131 A 
ATOM     66  C   UNL A   1      42.624  33.225  35.349  1.00  0.00     0.055 A 
ATOM     67  C   UNL A   1      41.122  31.858  36.633  1.00  0.00     0.041 A 
ATOM     68  F   UNL A   1      40.570  29.710  35.883  1.00  0.00    -0.206 F 
ATOM     69  C   UNL A   1      41.841  33.041  36.491  1.00  0.00     0.022 A 
BRANCH  66  70
ATOM     70  S   UNL A   1      43.755  34.638  35.241  1.00  0.00     0.124 S 
ATOM     71  O   UNL A   1      42.842  35.718  34.871  1.00  0.00    -0.237 OA
ATOM     72  O   UNL A   1      44.308  34.703  36.589  1.00  0.00    -0.237 OA
ATOM     73  O   UNL A   1      44.698  34.245  34.197  1.00  0.00    -0.744 OA
ENDBRANCH  66  70
ENDBRANCH  49  63
BRANCH  50  74
ATOM     74  C   UNL A   1      42.394  24.090  27.258  1.00  0.00     0.023 A 
ATOM     75  C   UNL A   1      41.630  22.913  27.292  1.00  0.00     0.031 A 
ATOM     76  C   UNL A   1      43.299  24.256  26.194  1.00  0.00     0.131 A 
ATOM     77  C   UNL A   1      41.824  21.923  26.315  1.00  0.00     0.055 A 
ATOM     78  C   UNL A   1      43.443  23.296  25.190  1.00  0.00     0.041 A 
ATOM     79  F   UNL A   1      44.055  25.362  26.110  1.00  0.00    -0.206 F 
ATOM     80  C   UNL A   1      42.713  22.114  25.256  1.00  0.00     0.022 A 
BRANCH  77  81
ATOM     81  S   UNL A   1      40.970  20.333  26.507  1.00  0.00     0.124 S 
ATOM     82  O   UNL A   1      40.973  20.169  27.957  1.00  0.00    -0.237 OA
ATOM     83  O   UNL A   1      39.676  20.609  25.895  1.00  0.00    -0.237 OA
ATOM     84  O   UNL A   1      41.821  19.400  25.771  1.00  0.00    -0.744 OA
ENDBRANCH  77  81
ENDBRANCH  50  74
BRANCH  62  85
ATOM     85  C   UNL A   1      46.273  25.413  32.900  1.00  0.00     0.023 A 
ATOM     86  C   UNL A   1      46.141  24.370  33.835  1.00  0.00     0.031 A 
ATOM     87  C   UNL A   1      47.573  25.817  32.548  1.00  0.00     0.131 A 
ATOM     88  C   UNL A   1      47.281  23.831  34.449  1.00  0.00     0.055 A 
ATOM     89  C   UNL A   1      48.707  25.220  33.100  1.00  0.00     0.041 A 
ATOM     90  F   UNL A   1      47.765  26.810  31.663  1.00  0.00    -0.206 F 
ATOM     91  C   UNL A   1      48.565  24.234  34.072  1.00  0.00     0.022 A 
BRANCH  88  92
ATOM     92  S   UNL A   1      47.060  22.699  35.848  1.00  0.00     0.124 S 
ATOM     93  O   UNL A   1      48.400  22.663  36.423  1.00  0.00    -0.237 OA
ATOM     94  O   UNL A   1      46.044  23.381  36.643  1.00  0.00    -0.237 OA
ATOM     95  O   UNL A   1      46.622  21.455  35.217  1.00  0.00    -0.744 OA
ENDBRANCH  88  92
ENDBRANCH  62  85
ENDBRANCH  36  37
ENDBRANCH  28  31
ENDBRANCH  26  27
ENDBRANCH  25  26
ENDBRANCH   1  25
TORSDOF 18
ENDMDL
MODEL 3
REMARK VINA RESULT:     -11.7      4.731      9.889
REMARK SMILES COC(=O)[C@@H]1CCN(S(=O)(=O)N2CCC(C(=O)NCCCCNC(=O)c3ccc(-c4c5nc(c(-c6cc(S(=O)(=O)[O-])ccc6F)c6ccc([nH]6)c(-c6cc(S(=O)(=O)[O-])ccc6F)c6nc(c(-c7cc(S(=O)(=O)[O-])ccc7F)c7ccc4[nH]7)C=C6)C=C5)cc3)CC2)C1
REMARK SMILES IDX 20 1 19 2 18 3 16 4 17 5 15 7 12 8 13 9 90 10 14 11 89 12
REMARK SMILES IDX 9 13 10 14 11 15 8 16 5 17 6 18 91 19 7 20 3 21 4 22 2 23
REMARK SMILES IDX 1 24 21 25 22 26 23 27 24 28 25 30 26 31 27 32 88 33 28 34
REMARK SMILES IDX 87 35 29 36 30 37 31 38 81 39 32 40 86 41 80 42 82 43 33 44
REMARK SMILES IDX 85 45 79 46 78 47 34 49 66 50 46 51 65 52 47 53 50 54 64 55
REMARK SMILES IDX 83 56 48 57 49 58 63 60 84 61 51 62 35 63 36 64 44 65 37 66
REMARK SMILES IDX 43 67 45 68 42 69 38 70 39 71 40 72 41 73 67 74 68 75 76 76
REMARK SMILES IDX 69 77 75 78 77 79 74 80 70 81 71 82 72 83 73 84 52 85 53 86
REMARK SMILES IDX 61 87 54 88 60 89 62 90 59 91 55 92 56 93 57 94 58 95
REMARK H PARENT 18 6 23 29 82 48 50 59
REMARK Flexibility Score: inf
ROOT
ATOM      1  C   UNL A   1      33.927  27.711  23.846  1.00  0.00     0.023 C 
ENDROOT
BRANCH   1   2
ATOM      2  C   UNL A   1      33.238  27.101  22.632  1.00  0.00     0.116 C 
BRANCH   2   3
ATOM      3  N   UNL A   1      32.041  27.841  22.270  1.00  0.00    -0.356 N 
ATOM      4  C   UNL A   1      30.729  27.582  22.525  1.00  0.00     0.223 C 
ATOM      5  O   UNL A   1      29.878  28.349  22.069  1.00  0.00    -0.275 OA
ATOM      6  H   UNL A   1      32.205  28.665  21.757  1.00  0.00     0.163 HD
BRANCH   4   7
ATOM      7  C   UNL A   1      30.313  26.403  23.385  1.00  0.00     0.081 C 
ATOM      8  N   UNL A   1      31.197  24.329  25.151  1.00  0.00    -0.189 NA
ATOM      9  C   UNL A   1      30.657  23.916  23.841  1.00  0.00     0.104 C 
ATOM     10  C   UNL A   1      30.479  25.477  25.723  1.00  0.00     0.104 C 
ATOM     11  C   UNL A   1      30.839  25.064  22.850  1.00  0.00     0.030 C 
ATOM     12  C   UNL A   1      30.633  26.699  24.852  1.00  0.00     0.030 C 
BRANCH   8  13
ATOM     13  S   UNL A   1      31.729  23.120  26.194  1.00  0.00     0.281 S 
ATOM     14  O   UNL A   1      31.301  21.841  25.683  1.00  0.00    -0.195 OA
ATOM     15  O   UNL A   1      31.404  23.523  27.545  1.00  0.00    -0.195 OA
BRANCH  13  16
ATOM     16  N   UNL A   1      33.424  23.188  26.041  1.00  0.00    -0.188 NA
ATOM     17  C   UNL A   1      34.712  22.249  24.189  1.00  0.00     0.116 C 
ATOM     18  C   UNL A   1      34.180  23.620  23.824  1.00  0.00     0.033 C 
ATOM     19  C   UNL A   1      34.032  21.906  25.515  1.00  0.00     0.118 C 
ATOM     20  C   UNL A   1      33.988  24.263  25.181  1.00  0.00     0.104 C 
BRANCH  17  21
ATOM     21  C   UNL A   1      36.216  22.283  24.320  1.00  0.00     0.310 C 
ATOM     22  O   UNL A   1      36.969  22.914  23.589  1.00  0.00    -0.252 OA
BRANCH  21  23
ATOM     23  O   UNL A   1      36.623  21.471  25.334  1.00  0.00    -0.469 OA
ATOM     24  C   UNL A   1      37.570  20.488  24.916  1.00  0.00     0.282 C 
ENDBRANCH  21  23
ENDBRANCH  17  21
ENDBRANCH  13  16
ENDBRANCH   8  13
ENDBRANCH   4   7
ENDBRANCH   2   3
ENDBRANCH   1   2
BRANCH   1  25
ATOM     25  C   UNL A   1      33.370  29.071  24.257  1.00  0.00     0.023 C 
BRANCH  25  26
ATOM     26  C   UNL A   1      33.286  29.292  25.762  1.00  0.00     0.116 C 
BRANCH  26  27
ATOM     27  N   UNL A   1      32.832  30.629  26.109  1.00  0.00    -0.352 N 
ATOM     28  C   UNL A   1      33.305  31.473  27.083  1.00  0.00     0.251 C 
ATOM     29  H   UNL A   1      32.083  30.977  25.572  1.00  0.00     0.163 HD
ATOM     30  O   UNL A   1      32.690  32.498  27.357  1.00  0.00    -0.269 OA
BRANCH  28  31
ATOM     31  C   UNL A   1      34.539  31.115  27.815  1.00  0.00     0.039 A 
ATOM     32  C   UNL A   1      34.657  29.831  28.350  1.00  0.00     0.014 A 
ATOM     33  C   UNL A   1      35.582  32.035  27.950  1.00  0.00     0.014 A 
ATOM     34  C   UNL A   1      35.845  29.457  28.978  1.00  0.00     0.010 A 
ATOM     35  C   UNL A   1      36.798  31.627  28.486  1.00  0.00     0.010 A 
ATOM     36  C   UNL A   1      36.937  30.341  29.026  1.00  0.00    -0.014 A 
BRANCH  36  37
ATOM     37  C   UNL A   1      38.214  29.944  29.675  1.00  0.00     0.031 A 
ATOM     38  C   UNL A   1      38.570  30.496  31.031  1.00  0.00     0.074 A 
ATOM     39  C   UNL A   1      39.060  29.112  29.035  1.00  0.00     0.049 A 
ATOM     40  N   UNL A   1      39.641  30.290  31.754  1.00  0.00    -0.248 NA
ATOM     41  C   UNL A   1      37.609  31.429  31.638  1.00  0.00     0.031 C 
ATOM     42  C   UNL A   1      38.845  28.548  27.701  1.00  0.00     0.029 A 
ATOM     43  N   UNL A   1      40.269  28.591  29.423  1.00  0.00    -0.354 N 
ATOM     44  C   UNL A   1      39.484  31.071  32.894  1.00  0.00     0.074 A 
ATOM     45  C   UNL A   1      38.255  31.815  32.727  1.00  0.00     0.031 C 
ATOM     46  C   UNL A   1      39.865  27.729  27.400  1.00  0.00     0.029 A 
ATOM     47  C   UNL A   1      40.831  27.744  28.493  1.00  0.00     0.049 A 
ATOM     48  H   UNL A   1      40.696  28.803  30.284  1.00  0.00     0.167 HD
ATOM     49  C   UNL A   1      40.275  31.138  33.994  1.00  0.00     0.034 A 
ATOM     50  C   UNL A   1      41.992  27.062  28.521  1.00  0.00     0.034 A 
ATOM     51  C   UNL A   1      41.494  30.382  34.147  1.00  0.00     0.049 A 
ATOM     52  C   UNL A   1      42.870  27.175  29.743  1.00  0.00     0.074 A 
ATOM     53  C   UNL A   1      42.349  30.337  35.233  1.00  0.00     0.029 A 
ATOM     54  N   UNL A   1      42.038  29.544  33.181  1.00  0.00    -0.354 N 
ATOM     55  N   UNL A   1      42.678  27.875  30.838  1.00  0.00    -0.248 NA
ATOM     56  C   UNL A   1      44.109  26.391  29.737  1.00  0.00     0.031 C 
ATOM     57  C   UNL A   1      43.448  29.538  34.895  1.00  0.00     0.029 A 
ATOM     58  C   UNL A   1      43.234  29.006  33.633  1.00  0.00     0.049 A 
ATOM     59  H   UNL A   1      41.633  29.358  32.302  1.00  0.00     0.167 HD
ATOM     60  C   UNL A   1      43.761  27.585  31.666  1.00  0.00     0.074 A 
ATOM     61  C   UNL A   1      44.581  26.629  30.951  1.00  0.00     0.031 C 
ATOM     62  C   UNL A   1      44.052  28.065  32.904  1.00  0.00     0.034 A 
BRANCH  49  63
ATOM     63  C   UNL A   1      39.852  32.079  35.098  1.00  0.00     0.023 A 
ATOM     64  C   UNL A   1      40.296  33.414  35.146  1.00  0.00     0.031 A 
ATOM     65  C   UNL A   1      39.017  31.631  36.137  1.00  0.00     0.131 A 
ATOM     66  C   UNL A   1      39.973  34.223  36.245  1.00  0.00     0.055 A 
ATOM     67  C   UNL A   1      38.623  32.470  37.181  1.00  0.00     0.041 A 
ATOM     68  F   UNL A   1      38.579  30.363  36.163  1.00  0.00    -0.206 F 
ATOM     69  C   UNL A   1      39.115  33.770  37.250  1.00  0.00     0.022 A 
BRANCH  66  70
ATOM     70  S   UNL A   1      40.820  35.817  36.425  1.00  0.00     0.124 S 
ATOM     71  O   UNL A   1      39.784  36.751  35.988  1.00  0.00    -0.237 OA
ATOM     72  O   UNL A   1      41.146  35.843  37.846  1.00  0.00    -0.237 OA
ATOM     73  O   UNL A   1      41.964  35.703  35.523  1.00  0.00    -0.744 OA
ENDBRANCH  66  70
ENDBRANCH  49  63
BRANCH  50  74
ATOM     74  C   UNL A   1      42.404  26.215  27.362  1.00  0.00     0.023 A 
ATOM     75  C   UNL A   1      42.006  24.873  27.265  1.00  0.00     0.031 A 
ATOM     76  C   UNL A   1      43.254  26.723  26.361  1.00  0.00     0.131 A 
ATOM     77  C   UNL A   1      42.500  24.068  26.225  1.00  0.00     0.055 A 
ATOM     78  C   UNL A   1      43.691  25.935  25.295  1.00  0.00     0.041 A 
ATOM     79  F   UNL A   1      43.666  27.999  26.403  1.00  0.00    -0.206 F 
ATOM     80  C   UNL A   1      43.327  24.595  25.231  1.00  0.00     0.022 A 
BRANCH  77  81
ATOM     81  S   UNL A   1      42.128  22.292  26.250  1.00  0.00     0.124 S 
ATOM     82  O   UNL A   1      42.931  21.806  25.133  1.00  0.00    -0.237 OA
ATOM     83  O   UNL A   1      42.581  21.906  27.581  1.00  0.00    -0.237 OA
ATOM     84  O   UNL A   1      40.682  22.246  26.047  1.00  0.00    -0.744 OA
ENDBRANCH  77  81
ENDBRANCH  50  74
BRANCH  62  85
ATOM     85  C   UNL A   1      45.291  27.518  33.575  1.00  0.00     0.023 A 
ATOM     86  C   UNL A   1      45.253  26.361  34.374  1.00  0.00     0.031 A 
ATOM     87  C   UNL A   1      46.521  28.188  33.447  1.00  0.00     0.131 A 
ATOM     88  C   UNL A   1      46.396  25.962  35.081  1.00  0.00     0.055 A 
ATOM     89  C   UNL A   1      47.677  27.737  34.087  1.00  0.00     0.041 A 
ATOM     90  F   UNL A   1      46.621  29.300  32.700  1.00  0.00    -0.206 F 
ATOM     91  C   UNL A   1      47.614  26.629  34.926  1.00  0.00     0.022 A 
BRANCH  88  92
ATOM     92  S   UNL A   1      46.234  24.644  36.317  1.00  0.00     0.124 S 
ATOM     93  O   UNL A   1      46.800  23.498  35.613  1.00  0.00    -0.237 OA
ATOM     94  O   UNL A   1      47.024  25.162  37.430  1.00  0.00    -0.237 OA
ATOM     95  O   UNL A   1      44.794  24.575  36.559  1.00  0.00    -0.744 OA
ENDBRANCH  88  92
ENDBRANCH  62  85
ENDBRANCH  36  37
ENDBRANCH  28  31
ENDBRANCH  26  27
ENDBRANCH  25  26
ENDBRANCH   1  25
TORSDOF 18
ENDMDL
