MODEL 1
REMARK VINA RESULT:     -12.5      0.000      0.000
REMARK SMILES Cn1ccc(-c2n[nH]c(=O)n2-c2ccc(C(=O)NCCCCNC(=O)c3ccc(-c4c5nc(c(-c6cc(S(=O)(=O)[O-])ccc6F)c6ccc([nH]6)c(-c6cc(S(=O)(=O)[O-])ccc6F)c6nc(c(-c7cc(S(=O)(=O)[O-])ccc7F)c7ccc4[nH]7)C=C6)C=C5)cc3)cc2)n1
REMARK SMILES IDX 21 1 20 2 19 3 18 4 16 5 17 6 15 8 12 9 13 10 90 11 14 12
REMARK SMILES IDX 89 13 11 14 6 15 7 16 8 17 9 18 10 20 5 21 1 22 2 23 3 24
REMARK SMILES IDX 91 25 4 26 22 27 23 28 24 29 25 31 26 32 27 33 88 34 28 35
REMARK SMILES IDX 87 36 29 37 30 38 31 39 81 40 32 41 86 42 80 43 82 44 33 45
REMARK SMILES IDX 85 46 79 47 78 48 34 50 66 51 46 52 65 53 47 54 50 55 64 56
REMARK SMILES IDX 83 57 48 58 49 59 63 61 84 62 51 63 35 64 36 65 44 66 37 67
REMARK SMILES IDX 43 68 45 69 42 70 38 71 39 72 40 73 41 74 67 75 68 76 76 77
REMARK SMILES IDX 69 78 75 79 77 80 74 81 70 82 71 83 72 84 73 85 52 86 53 87
REMARK SMILES IDX 61 88 54 89 60 90 62 91 59 92 55 93 56 94 57 95 58 96
REMARK H PARENT 18 7 8 19 23 30 82 49 50 60
REMARK Flexibility Score: inf
ROOT
ATOM      1  C   UNL A   1      42.334  25.030  27.393  1.00  0.00     0.023 C 
ENDROOT
BRANCH   1   2
ATOM      2  C   UNL A   1      42.994  26.130  28.240  1.00  0.00     0.023 C 
BRANCH   2   3
ATOM      3  C   UNL A   1      44.525  26.203  28.134  1.00  0.00     0.116 C 
BRANCH   3   4
ATOM      4  N   UNL A   1      44.935  26.606  26.800  1.00  0.00    -0.352 N 
ATOM      5  C   UNL A   1      45.328  25.909  25.683  1.00  0.00     0.251 C 
ATOM      6  O   UNL A   1      45.661  26.569  24.697  1.00  0.00    -0.269 OA
ATOM      7  H   UNL A   1      44.930  27.581  26.668  1.00  0.00     0.163 HD
BRANCH   5   8
ATOM      8  C   UNL A   1      45.336  24.419  25.584  1.00  0.00     0.039 A 
ATOM      9  C   UNL A   1      45.120  21.617  25.312  1.00  0.00     0.052 A 
ATOM     10  C   UNL A   1      44.669  22.448  24.290  1.00  0.00     0.028 A 
ATOM     11  C   UNL A   1      45.747  22.182  26.426  1.00  0.00     0.028 A 
ATOM     12  C   UNL A   1      44.747  23.841  24.443  1.00  0.00     0.016 A 
ATOM     13  C   UNL A   1      45.896  23.565  26.532  1.00  0.00     0.016 A 
BRANCH   9  14
ATOM     14  N   UNL A   1      45.032  20.223  25.216  1.00  0.00    -0.242 N 
ATOM     15  C   UNL A   1      44.053  19.404  25.699  1.00  0.00     0.189 A 
ATOM     16  N   UNL A   1      44.399  18.150  25.830  1.00  0.00    -0.150 NA
ATOM     17  N   UNL A   1      45.688  18.125  25.368  1.00  0.00    -0.226 N 
ATOM     18  C   UNL A   1      46.107  19.400  24.982  1.00  0.00     0.348 A 
ATOM     19  H   UNL A   1      46.244  17.315  25.314  1.00  0.00     0.195 HD
ATOM     20  O   UNL A   1      47.240  19.676  24.618  1.00  0.00    -0.246 OA
BRANCH  15  21
ATOM     21  C   UNL A   1      42.706  19.863  25.995  1.00  0.00     0.130 A 
ATOM     22  C   UNL A   1      39.233  19.481  25.684  1.00  0.00     0.173 C 
ATOM     23  N   UNL A   1      40.577  19.920  25.985  1.00  0.00    -0.275 N 
ATOM     24  C   UNL A   1      40.940  20.901  26.861  1.00  0.00     0.109 A 
ATOM     25  N   UNL A   1      41.628  19.306  25.411  1.00  0.00    -0.170 NA
ATOM     26  C   UNL A   1      42.314  20.866  26.917  1.00  0.00     0.054 A 
ENDBRANCH  15  21
ENDBRANCH   9  14
ENDBRANCH   5   8
ENDBRANCH   3   4
ENDBRANCH   2   3
ENDBRANCH   1   2
BRANCH   1  27
ATOM     27  C   UNL A   1      41.732  25.516  26.081  1.00  0.00     0.116 C 
BRANCH  27  28
ATOM     28  N   UNL A   1      40.364  25.033  25.859  1.00  0.00    -0.352 N 
ATOM     29  C   UNL A   1      39.279  25.094  26.730  1.00  0.00     0.251 C 
ATOM     30  H   UNL A   1      40.192  24.614  24.985  1.00  0.00     0.163 HD
ATOM     31  O   UNL A   1      38.340  24.328  26.622  1.00  0.00    -0.269 OA
BRANCH  29  32
ATOM     32  C   UNL A   1      39.296  26.147  27.762  1.00  0.00     0.039 A 
ATOM     33  C   UNL A   1      39.151  25.898  29.130  1.00  0.00     0.014 A 
ATOM     34  C   UNL A   1      39.540  27.430  27.291  1.00  0.00     0.014 A 
ATOM     35  C   UNL A   1      39.317  26.962  30.020  1.00  0.00     0.010 A 
ATOM     36  C   UNL A   1      39.960  28.387  28.161  1.00  0.00     0.010 A 
ATOM     37  C   UNL A   1      39.726  28.204  29.515  1.00  0.00    -0.014 A 
BRANCH  37  38
ATOM     38  C   UNL A   1      39.981  29.375  30.341  1.00  0.00     0.031 A 
ATOM     39  C   UNL A   1      38.774  30.185  30.659  1.00  0.00     0.074 A 
ATOM     40  C   UNL A   1      41.150  29.487  31.016  1.00  0.00     0.049 A 
ATOM     41  N   UNL A   1      38.515  31.393  30.290  1.00  0.00    -0.248 NA
ATOM     42  C   UNL A   1      37.643  29.524  31.333  1.00  0.00     0.031 C 
ATOM     43  C   UNL A   1      42.286  28.551  31.051  1.00  0.00     0.029 A 
ATOM     44  N   UNL A   1      41.521  30.407  31.940  1.00  0.00    -0.354 N 
ATOM     45  C   UNL A   1      37.300  31.730  30.881  1.00  0.00     0.074 A 
ATOM     46  C   UNL A   1      36.718  30.488  31.308  1.00  0.00     0.031 C 
ATOM     47  C   UNL A   1      43.073  28.819  32.118  1.00  0.00     0.029 A 
ATOM     48  C   UNL A   1      42.606  30.045  32.739  1.00  0.00     0.049 A 
ATOM     49  H   UNL A   1      41.057  31.268  32.041  1.00  0.00     0.167 HD
ATOM     50  C   UNL A   1      36.991  33.028  31.170  1.00  0.00     0.034 A 
ATOM     51  C   UNL A   1      43.056  30.695  33.849  1.00  0.00     0.034 A 
ATOM     52  C   UNL A   1      37.930  33.922  30.528  1.00  0.00     0.049 A 
ATOM     53  C   UNL A   1      42.516  32.079  33.753  1.00  0.00     0.074 A 
ATOM     54  C   UNL A   1      38.268  34.183  29.215  1.00  0.00     0.029 A 
ATOM     55  N   UNL A   1      38.985  34.391  31.283  1.00  0.00    -0.354 N 
ATOM     56  N   UNL A   1      42.839  32.902  32.789  1.00  0.00    -0.248 NA
ATOM     57  C   UNL A   1      41.230  32.347  34.385  1.00  0.00     0.031 C 
ATOM     58  C   UNL A   1      39.691  34.289  29.225  1.00  0.00     0.029 A 
ATOM     59  C   UNL A   1      40.132  34.203  30.548  1.00  0.00     0.049 A 
ATOM     60  H   UNL A   1      38.929  34.788  32.181  1.00  0.00     0.167 HD
ATOM     61  C   UNL A   1      41.647  33.501  32.405  1.00  0.00     0.074 A 
ATOM     62  C   UNL A   1      40.702  33.177  33.477  1.00  0.00     0.031 C 
ATOM     63  C   UNL A   1      41.442  33.935  31.123  1.00  0.00     0.034 A 
BRANCH  50  64
ATOM     64  C   UNL A   1      36.083  33.509  32.282  1.00  0.00     0.023 A 
ATOM     65  C   UNL A   1      34.944  34.248  31.903  1.00  0.00     0.031 A 
ATOM     66  C   UNL A   1      36.389  33.529  33.661  1.00  0.00     0.131 A 
ATOM     67  C   UNL A   1      34.243  35.036  32.831  1.00  0.00     0.055 A 
ATOM     68  C   UNL A   1      35.648  34.262  34.594  1.00  0.00     0.041 A 
ATOM     69  F   UNL A   1      37.461  32.921  34.176  1.00  0.00    -0.206 F 
ATOM     70  C   UNL A   1      34.590  35.050  34.177  1.00  0.00     0.022 A 
BRANCH  67  71
ATOM     71  S   UNL A   1      32.987  36.183  32.209  1.00  0.00     0.124 S 
ATOM     72  O   UNL A   1      33.191  37.342  33.073  1.00  0.00    -0.237 OA
ATOM     73  O   UNL A   1      33.389  36.339  30.815  1.00  0.00    -0.237 OA
ATOM     74  O   UNL A   1      31.735  35.462  32.421  1.00  0.00    -0.744 OA
ENDBRANCH  67  71
ENDBRANCH  50  64
BRANCH  51  75
ATOM     75  C   UNL A   1      43.541  30.068  35.122  1.00  0.00     0.023 A 
ATOM     76  C   UNL A   1      43.088  28.820  35.608  1.00  0.00     0.031 A 
ATOM     77  C   UNL A   1      44.671  30.619  35.773  1.00  0.00     0.131 A 
ATOM     78  C   UNL A   1      43.752  28.186  36.693  1.00  0.00     0.055 A 
ATOM     79  C   UNL A   1      45.323  29.988  36.836  1.00  0.00     0.041 A 
ATOM     80  F   UNL A   1      45.231  31.761  35.343  1.00  0.00    -0.206 F 
ATOM     81  C   UNL A   1      44.871  28.764  37.296  1.00  0.00     0.022 A 
BRANCH  78  82
ATOM     82  S   UNL A   1      43.210  26.552  37.307  1.00  0.00     0.124 S 
ATOM     83  O   UNL A   1      43.817  25.643  36.342  1.00  0.00    -0.237 OA
ATOM     84  O   UNL A   1      43.758  26.527  38.658  1.00  0.00    -0.237 OA
ATOM     85  O   UNL A   1      41.750  26.627  37.241  1.00  0.00    -0.744 OA
ENDBRANCH  78  82
ENDBRANCH  51  75
BRANCH  63  86
ATOM     86  C   UNL A   1      42.617  33.965  30.160  1.00  0.00     0.023 A 
ATOM     87  C   UNL A   1      42.968  32.931  29.256  1.00  0.00     0.031 A 
ATOM     88  C   UNL A   1      43.311  35.184  30.050  1.00  0.00     0.131 A 
ATOM     89  C   UNL A   1      43.976  33.149  28.291  1.00  0.00     0.055 A 
ATOM     90  C   UNL A   1      44.286  35.402  29.078  1.00  0.00     0.041 A 
ATOM     91  F   UNL A   1      43.009  36.211  30.861  1.00  0.00    -0.206 F 
ATOM     92  C   UNL A   1      44.624  34.385  28.197  1.00  0.00     0.022 A 
BRANCH  89  93
ATOM     93  S   UNL A   1      44.480  31.825  27.140  1.00  0.00     0.124 S 
ATOM     94  O   UNL A   1      45.927  31.753  27.314  1.00  0.00    -0.237 OA
ATOM     95  O   UNL A   1      43.721  30.674  27.623  1.00  0.00    -0.237 OA
ATOM     96  O   UNL A   1      44.050  32.327  25.832  1.00  0.00    -0.744 OA
ENDBRANCH  89  93
ENDBRANCH  63  86
ENDBRANCH  37  38
ENDBRANCH  29  32
ENDBRANCH  27  28
ENDBRANCH   1  27
TORSDOF 16
ENDMDL
MODEL 2
REMARK VINA RESULT:     -12.4      4.632      8.532
REMARK SMILES Cn1ccc(-c2n[nH]c(=O)n2-c2ccc(C(=O)NCCCCNC(=O)c3ccc(-c4c5nc(c(-c6cc(S(=O)(=O)[O-])ccc6F)c6ccc([nH]6)c(-c6cc(S(=O)(=O)[O-])ccc6F)c6nc(c(-c7cc(S(=O)(=O)[O-])ccc7F)c7ccc4[nH]7)C=C6)C=C5)cc3)cc2)n1
REMARK SMILES IDX 21 1 20 2 19 3 18 4 16 5 17 6 15 8 12 9 13 10 90 11 14 12
REMARK SMILES IDX 89 13 11 14 6 15 7 16 8 17 9 18 10 20 5 21 1 22 2 23 3 24
REMARK SMILES IDX 91 25 4 26 22 27 23 28 24 29 25 31 26 32 27 33 88 34 28 35
REMARK SMILES IDX 87 36 29 37 30 38 31 39 81 40 32 41 86 42 80 43 82 44 33 45
REMARK SMILES IDX 85 46 79 47 78 48 34 50 66 51 46 52 65 53 47 54 50 55 64 56
REMARK SMILES IDX 83 57 48 58 49 59 63 61 84 62 51 63 35 64 36 65 44 66 37 67
REMARK SMILES IDX 43 68 45 69 42 70 38 71 39 72 40 73 41 74 67 75 68 76 76 77
REMARK SMILES IDX 69 78 75 79 77 80 74 81 70 82 71 83 72 84 73 85 52 86 53 87
REMARK SMILES IDX 61 88 54 89 60 90 62 91 59 92 55 93 56 94 57 95 58 96
REMARK H PARENT 18 7 8 19 23 30 82 49 50 60
REMARK Flexibility Score: inf
ROOT
ATOM      1  C   UNL A   1      37.503  19.855  24.942  1.00  0.00     0.023 C 
ENDROOT
BRANCH   1   2
ATOM      2  C   UNL A   1      36.373  20.890  25.065  1.00  0.00     0.023 C 
BRANCH   2   3
ATOM      3  C   UNL A   1      34.951  20.306  25.053  1.00  0.00     0.116 C 
BRANCH   3   4
ATOM      4  N   UNL A   1      34.228  20.676  26.257  1.00  0.00    -0.352 N 
ATOM      5  C   UNL A   1      33.675  21.853  26.702  1.00  0.00     0.251 C 
ATOM      6  O   UNL A   1      33.154  21.842  27.818  1.00  0.00    -0.269 OA
ATOM      7  H   UNL A   1      34.109  19.928  26.886  1.00  0.00     0.163 HD
BRANCH   5   8
ATOM      8  C   UNL A   1      33.635  23.115  25.904  1.00  0.00     0.039 A 
ATOM      9  C   UNL A   1      33.447  25.371  24.218  1.00  0.00     0.052 A 
ATOM     10  C   UNL A   1      32.348  24.532  24.376  1.00  0.00     0.028 A 
ATOM     11  C   UNL A   1      34.606  25.128  24.961  1.00  0.00     0.028 A 
ATOM     12  C   UNL A   1      32.456  23.392  25.187  1.00  0.00     0.016 A 
ATOM     13  C   UNL A   1      34.675  24.040  25.831  1.00  0.00     0.016 A 
BRANCH   9  14
ATOM     14  N   UNL A   1      33.395  26.501  23.392  1.00  0.00    -0.242 N 
ATOM     15  C   UNL A   1      32.945  27.751  23.702  1.00  0.00     0.189 A 
ATOM     16  N   UNL A   1      32.632  28.494  22.673  1.00  0.00    -0.150 NA
ATOM     17  N   UNL A   1      32.927  27.695  21.600  1.00  0.00    -0.226 N 
ATOM     18  C   UNL A   1      33.401  26.449  22.019  1.00  0.00     0.348 A 
ATOM     19  H   UNL A   1      32.820  27.963  20.659  1.00  0.00     0.195 HD
ATOM     20  O   UNL A   1      33.653  25.517  21.271  1.00  0.00    -0.246 OA
BRANCH  15  21
ATOM     21  C   UNL A   1      32.869  28.256  25.063  1.00  0.00     0.130 A 
ATOM     22  C   UNL A   1      31.281  28.331  28.189  1.00  0.00     0.173 C 
ATOM     23  N   UNL A   1      32.139  28.536  27.043  1.00  0.00    -0.275 N 
ATOM     24  C   UNL A   1      33.320  29.217  27.017  1.00  0.00     0.109 A 
ATOM     25  N   UNL A   1      31.819  27.983  25.858  1.00  0.00    -0.170 NA
ATOM     26  C   UNL A   1      33.837  29.026  25.757  1.00  0.00     0.054 A 
ENDBRANCH  15  21
ENDBRANCH   9  14
ENDBRANCH   5   8
ENDBRANCH   3   4
ENDBRANCH   2   3
ENDBRANCH   1   2
BRANCH   1  27
ATOM     27  C   UNL A   1      38.862  20.341  25.427  1.00  0.00     0.116 C 
BRANCH  27  28
ATOM     28  N   UNL A   1      39.779  19.247  25.768  1.00  0.00    -0.352 N 
ATOM     29  C   UNL A   1      41.140  19.324  26.050  1.00  0.00     0.251 C 
ATOM     30  H   UNL A   1      39.382  18.347  25.802  1.00  0.00     0.163 HD
ATOM     31  O   UNL A   1      41.867  18.358  25.917  1.00  0.00    -0.269 OA
BRANCH  29  32
ATOM     32  C   UNL A   1      41.657  20.611  26.552  1.00  0.00     0.039 A 
ATOM     33  C   UNL A   1      42.408  21.502  25.780  1.00  0.00     0.014 A 
ATOM     34  C   UNL A   1      41.288  20.928  27.851  1.00  0.00     0.014 A 
ATOM     35  C   UNL A   1      42.728  22.747  26.325  1.00  0.00     0.010 A 
ATOM     36  C   UNL A   1      41.369  22.220  28.267  1.00  0.00     0.010 A 
ATOM     37  C   UNL A   1      42.195  23.092  27.575  1.00  0.00    -0.014 A 
BRANCH  37  38
ATOM     38  C   UNL A   1      42.411  24.374  28.229  1.00  0.00     0.031 A 
ATOM     39  C   UNL A   1      41.343  25.380  27.990  1.00  0.00     0.074 A 
ATOM     40  C   UNL A   1      43.325  24.482  29.223  1.00  0.00     0.049 A 
ATOM     41  N   UNL A   1      41.440  26.500  27.358  1.00  0.00    -0.248 NA
ATOM     42  C   UNL A   1      39.957  25.033  28.354  1.00  0.00     0.031 C 
ATOM     43  C   UNL A   1      44.199  23.440  29.788  1.00  0.00     0.029 A 
ATOM     44  N   UNL A   1      43.572  25.529  30.049  1.00  0.00    -0.354 N 
ATOM     45  C   UNL A   1      40.191  27.111  27.450  1.00  0.00     0.074 A 
ATOM     46  C   UNL A   1      39.283  26.077  27.863  1.00  0.00     0.031 C 
ATOM     47  C   UNL A   1      44.669  23.835  30.993  1.00  0.00     0.029 A 
ATOM     48  C   UNL A   1      44.280  25.217  31.210  1.00  0.00     0.049 A 
ATOM     49  H   UNL A   1      43.272  26.443  29.845  1.00  0.00     0.167 HD
ATOM     50  C   UNL A   1      40.064  28.468  27.398  1.00  0.00     0.034 A 
ATOM     51  C   UNL A   1      44.495  26.032  32.280  1.00  0.00     0.034 A 
ATOM     52  C   UNL A   1      41.304  29.073  26.961  1.00  0.00     0.049 A 
ATOM     53  C   UNL A   1      44.282  27.419  31.780  1.00  0.00     0.074 A 
ATOM     54  C   UNL A   1      42.061  28.993  25.809  1.00  0.00     0.029 A 
ATOM     55  N   UNL A   1      42.156  29.559  27.931  1.00  0.00    -0.354 N 
ATOM     56  N   UNL A   1      45.028  27.961  30.852  1.00  0.00    -0.248 NA
ATOM     57  C   UNL A   1      42.942  27.980  31.897  1.00  0.00     0.031 C 
ATOM     58  C   UNL A   1      43.410  28.916  26.269  1.00  0.00     0.029 A 
ATOM     59  C   UNL A   1      43.412  29.069  27.659  1.00  0.00     0.049 A 
ATOM     60  H   UNL A   1      41.911  30.148  28.680  1.00  0.00     0.167 HD
ATOM     61  C   UNL A   1      44.141  28.607  30.002  1.00  0.00     0.074 A 
ATOM     62  C   UNL A   1      42.877  28.649  30.740  1.00  0.00     0.031 C 
ATOM     63  C   UNL A   1      44.414  28.771  28.670  1.00  0.00     0.034 A 
BRANCH  50  64
ATOM     64  C   UNL A   1      38.976  29.294  28.050  1.00  0.00     0.023 A 
ATOM     65  C   UNL A   1      38.959  29.331  29.459  1.00  0.00     0.031 A 
ATOM     66  C   UNL A   1      37.824  29.809  27.415  1.00  0.00     0.131 A 
ATOM     67  C   UNL A   1      37.818  29.750  30.165  1.00  0.00     0.055 A 
ATOM     68  C   UNL A   1      36.715  30.287  28.121  1.00  0.00     0.041 A 
ATOM     69  F   UNL A   1      37.660  29.802  26.089  1.00  0.00    -0.206 F 
ATOM     70  C   UNL A   1      36.692  30.227  29.504  1.00  0.00     0.022 A 
BRANCH  67  71
ATOM     71  S   UNL A   1      37.770  29.483  31.955  1.00  0.00     0.124 S 
ATOM     72  O   UNL A   1      38.826  30.378  32.417  1.00  0.00    -0.237 OA
ATOM     73  O   UNL A   1      36.403  29.877  32.280  1.00  0.00    -0.237 OA
ATOM     74  O   UNL A   1      38.058  28.057  32.092  1.00  0.00    -0.744 OA
ENDBRANCH  67  71
ENDBRANCH  50  64
BRANCH  51  75
ATOM     75  C   UNL A   1      44.450  25.645  33.728  1.00  0.00     0.023 A 
ATOM     76  C   UNL A   1      43.415  26.026  34.613  1.00  0.00     0.031 A 
ATOM     77  C   UNL A   1      45.352  24.665  34.206  1.00  0.00     0.131 A 
ATOM     78  C   UNL A   1      43.321  25.438  35.904  1.00  0.00     0.055 A 
ATOM     79  C   UNL A   1      45.250  24.087  35.475  1.00  0.00     0.041 A 
ATOM     80  F   UNL A   1      46.325  24.175  33.421  1.00  0.00    -0.206 F 
ATOM     81  C   UNL A   1      44.228  24.465  36.327  1.00  0.00     0.022 A 
BRANCH  78  82
ATOM     82  S   UNL A   1      41.965  25.883  37.046  1.00  0.00     0.124 S 
ATOM     83  O   UNL A   1      42.689  26.246  38.259  1.00  0.00    -0.237 OA
ATOM     84  O   UNL A   1      41.300  26.969  36.337  1.00  0.00    -0.237 OA
ATOM     85  O   UNL A   1      41.182  24.650  37.147  1.00  0.00    -0.744 OA
ENDBRANCH  78  82
ENDBRANCH  51  75
BRANCH  63  86
ATOM     86  C   UNL A   1      45.807  28.438  28.158  1.00  0.00     0.023 A 
ATOM     87  C   UNL A   1      46.210  27.190  27.621  1.00  0.00     0.031 A 
ATOM     88  C   UNL A   1      46.716  29.507  28.066  1.00  0.00     0.131 A 
ATOM     89  C   UNL A   1      47.481  27.059  27.018  1.00  0.00     0.055 A 
ATOM     90  C   UNL A   1      47.958  29.379  27.447  1.00  0.00     0.041 A 
ATOM     91  F   UNL A   1      46.384  30.721  28.535  1.00  0.00    -0.206 F 
ATOM     92  C   UNL A   1      48.346  28.153  26.923  1.00  0.00     0.022 A 
BRANCH  89  93
ATOM     93  S   UNL A   1      48.047  25.456  26.353  1.00  0.00     0.124 S 
ATOM     94  O   UNL A   1      49.293  25.789  25.672  1.00  0.00    -0.237 OA
ATOM     95  O   UNL A   1      48.177  24.638  27.556  1.00  0.00    -0.237 OA
ATOM     96  O   UNL A   1      46.957  25.052  25.462  1.00  0.00    -0.744 OA
ENDBRANCH  89  93
ENDBRANCH  63  86
ENDBRANCH  37  38
ENDBRANCH  29  32
ENDBRANCH  27  28
ENDBRANCH   1  27
TORSDOF 16
ENDMDL
MODEL 3
REMARK VINA RESULT:     -12.3      3.978     13.031
REMARK SMILES Cn1ccc(-c2n[nH]c(=O)n2-c2ccc(C(=O)NCCCCNC(=O)c3ccc(-c4c5nc(c(-c6cc(S(=O)(=O)[O-])ccc6F)c6ccc([nH]6)c(-c6cc(S(=O)(=O)[O-])ccc6F)c6nc(c(-c7cc(S(=O)(=O)[O-])ccc7F)c7ccc4[nH]7)C=C6)C=C5)cc3)cc2)n1
REMARK SMILES IDX 21 1 20 2 19 3 18 4 16 5 17 6 15 8 12 9 13 10 90 11 14 12
REMARK SMILES IDX 89 13 11 14 6 15 7 16 8 17 9 18 10 20 5 21 1 22 2 23 3 24
REMARK SMILES IDX 91 25 4 26 22 27 23 28 24 29 25 31 26 32 27 33 88 34 28 35
REMARK SMILES IDX 87 36 29 37 30 38 31 39 81 40 32 41 86 42 80 43 82 44 33 45
REMARK SMILES IDX 85 46 79 47 78 48 34 50 66 51 46 52 65 53 47 54 50 55 64 56
REMARK SMILES IDX 83 57 48 58 49 59 63 61 84 62 51 63 35 64 36 65 44 66 37 67
REMARK SMILES IDX 43 68 45 69 42 70 38 71 39 72 40 73 41 74 67 75 68 76 76 77
REMARK SMILES IDX 69 78 75 79 77 80 74 81 70 82 71 83 72 84 73 85 52 86 53 87
REMARK SMILES IDX 61 88 54 89 60 90 62 91 59 92 55 93 56 94 57 95 58 96
REMARK H PARENT 18 7 8 19 23 30 82 49 50 60
REMARK Flexibility Score: inf
ROOT
ATOM      1  C   UNL A   1      37.575  31.363  30.558  1.00  0.00     0.023 C 
ENDROOT
BRANCH   1   2
ATOM      2  C   UNL A   1      39.045  31.279  31.000  1.00  0.00     0.023 C 
BRANCH   2   3
ATOM      3  C   UNL A   1      39.425  32.194  32.175  1.00  0.00     0.116 C 
BRANCH   3   4
ATOM      4  N   UNL A   1      38.782  31.757  33.402  1.00  0.00    -0.352 N 
ATOM      5  C   UNL A   1      37.652  32.163  34.071  1.00  0.00     0.251 C 
ATOM      6  O   UNL A   1      37.398  31.599  35.137  1.00  0.00    -0.269 OA
ATOM      7  H   UNL A   1      39.253  31.018  33.848  1.00  0.00     0.163 HD
BRANCH   5   8
ATOM      8  C   UNL A   1      36.706  33.202  33.566  1.00  0.00     0.039 A 
ATOM      9  C   UNL A   1      34.795  34.986  32.499  1.00  0.00     0.052 A 
ATOM     10  C   UNL A   1      34.378  33.790  33.079  1.00  0.00     0.028 A 
ATOM     11  C   UNL A   1      36.151  35.322  32.526  1.00  0.00     0.028 A 
ATOM     12  C   UNL A   1      35.333  32.891  33.577  1.00  0.00     0.016 A 
ATOM     13  C   UNL A   1      37.085  34.459  33.100  1.00  0.00     0.016 A 
BRANCH   9  14
ATOM     14  N   UNL A   1      33.879  35.898  31.960  1.00  0.00    -0.242 N 
ATOM     15  C   UNL A   1      33.483  36.027  30.661  1.00  0.00     0.189 A 
ATOM     16  N   UNL A   1      32.946  37.180  30.361  1.00  0.00    -0.150 NA
ATOM     17  N   UNL A   1      32.953  37.855  31.553  1.00  0.00    -0.226 N 
ATOM     18  C   UNL A   1      33.529  37.082  32.563  1.00  0.00     0.348 A 
ATOM     19  H   UNL A   1      32.598  38.764  31.680  1.00  0.00     0.195 HD
ATOM     20  O   UNL A   1      33.741  37.474  33.700  1.00  0.00    -0.246 OA
BRANCH  15  21
ATOM     21  C   UNL A   1      33.588  34.953  29.686  1.00  0.00     0.130 A 
ATOM     22  C   UNL A   1      32.196  33.092  27.059  1.00  0.00     0.173 C 
ATOM     23  N   UNL A   1      33.029  33.639  28.107  1.00  0.00    -0.275 N 
ATOM     24  C   UNL A   1      34.337  33.340  28.352  1.00  0.00     0.109 A 
ATOM     25  N   UNL A   1      32.536  34.581  28.933  1.00  0.00    -0.170 NA
ATOM     26  C   UNL A   1      34.740  34.200  29.347  1.00  0.00     0.054 A 
ENDBRANCH  15  21
ENDBRANCH   9  14
ENDBRANCH   5   8
ENDBRANCH   3   4
ENDBRANCH   2   3
ENDBRANCH   1   2
BRANCH   1  27
ATOM     27  C   UNL A   1      36.760  30.106  30.827  1.00  0.00     0.116 C 
BRANCH  27  28
ATOM     28  N   UNL A   1      35.936  29.695  29.684  1.00  0.00    -0.352 N 
ATOM     29  C   UNL A   1      36.351  29.392  28.390  1.00  0.00     0.251 C 
ATOM     30  H   UNL A   1      34.969  29.625  29.854  1.00  0.00     0.163 HD
ATOM     31  O   UNL A   1      35.585  29.464  27.449  1.00  0.00    -0.269 OA
BRANCH  29  32
ATOM     32  C   UNL A   1      37.745  28.942  28.213  1.00  0.00     0.039 A 
ATOM     33  C   UNL A   1      38.649  29.541  27.331  1.00  0.00     0.014 A 
ATOM     34  C   UNL A   1      38.140  27.904  29.045  1.00  0.00     0.014 A 
ATOM     35  C   UNL A   1      39.978  29.111  27.349  1.00  0.00     0.010 A 
ATOM     36  C   UNL A   1      39.466  27.682  29.245  1.00  0.00     0.010 A 
ATOM     37  C   UNL A   1      40.370  28.178  28.318  1.00  0.00    -0.014 A 
BRANCH  37  38
ATOM     38  C   UNL A   1      41.732  27.688  28.474  1.00  0.00     0.031 A 
ATOM     39  C   UNL A   1      42.060  26.497  27.647  1.00  0.00     0.074 A 
ATOM     40  C   UNL A   1      42.672  28.471  29.055  1.00  0.00     0.049 A 
ATOM     41  N   UNL A   1      42.353  25.309  28.055  1.00  0.00    -0.248 NA
ATOM     42  C   UNL A   1      41.888  26.586  26.186  1.00  0.00     0.031 C 
ATOM     43  C   UNL A   1      42.530  29.833  29.597  1.00  0.00     0.029 A 
ATOM     44  N   UNL A   1      44.009  28.269  29.162  1.00  0.00    -0.354 N 
ATOM     45  C   UNL A   1      42.635  24.561  26.914  1.00  0.00     0.074 A 
ATOM     46  C   UNL A   1      42.117  25.324  25.812  1.00  0.00     0.031 C 
ATOM     47  C   UNL A   1      43.747  30.408  29.726  1.00  0.00     0.029 A 
ATOM     48  C   UNL A   1      44.761  29.408  29.451  1.00  0.00     0.049 A 
ATOM     49  H   UNL A   1      44.418  27.383  29.043  1.00  0.00     0.167 HD
ATOM     50  C   UNL A   1      43.476  23.488  26.964  1.00  0.00     0.034 A 
ATOM     51  C   UNL A   1      46.120  29.516  29.428  1.00  0.00     0.034 A 
ATOM     52  C   UNL A   1      43.744  23.123  28.338  1.00  0.00     0.049 A 
ATOM     53  C   UNL A   1      46.638  28.124  29.533  1.00  0.00     0.074 A 
ATOM     54  C   UNL A   1      42.960  22.691  29.390  1.00  0.00     0.029 A 
ATOM     55  N   UNL A   1      44.907  23.594  28.911  1.00  0.00    -0.354 N 
ATOM     56  N   UNL A   1      46.430  27.366  30.578  1.00  0.00    -0.248 NA
ATOM     57  C   UNL A   1      46.892  27.403  28.292  1.00  0.00     0.031 C 
ATOM     58  C   UNL A   1      43.453  23.408  30.521  1.00  0.00     0.029 A 
ATOM     59  C   UNL A   1      44.574  24.143  30.126  1.00  0.00     0.049 A 
ATOM     60  H   UNL A   1      45.810  23.545  28.522  1.00  0.00     0.167 HD
ATOM     61  C   UNL A   1      46.098  26.120  30.065  1.00  0.00     0.074 A 
ATOM     62  C   UNL A   1      46.476  26.183  28.652  1.00  0.00     0.031 C 
ATOM     63  C   UNL A   1      45.271  25.263  30.740  1.00  0.00     0.034 A 
BRANCH  50  64
ATOM     64  C   UNL A   1      44.336  22.968  25.831  1.00  0.00     0.023 A 
ATOM     65  C   UNL A   1      44.373  21.571  25.645  1.00  0.00     0.031 A 
ATOM     66  C   UNL A   1      45.308  23.702  25.114  1.00  0.00     0.131 A 
ATOM     67  C   UNL A   1      45.386  20.962  24.885  1.00  0.00     0.055 A 
ATOM     68  C   UNL A   1      46.275  23.097  24.306  1.00  0.00     0.041 A 
ATOM     69  F   UNL A   1      45.439  25.028  25.218  1.00  0.00    -0.206 F 
ATOM     70  C   UNL A   1      46.342  21.717  24.215  1.00  0.00     0.022 A 
BRANCH  67  71
ATOM     71  S   UNL A   1      45.539  19.159  24.946  1.00  0.00     0.124 S 
ATOM     72  O   UNL A   1      45.658  18.824  23.530  1.00  0.00    -0.237 OA
ATOM     73  O   UNL A   1      46.742  18.986  25.753  1.00  0.00    -0.237 OA
ATOM     74  O   UNL A   1      44.294  18.736  25.582  1.00  0.00    -0.744 OA
ENDBRANCH  67  71
ENDBRANCH  50  64
BRANCH  51  75
ATOM     75  C   UNL A   1      46.919  30.674  28.909  1.00  0.00     0.023 A 
ATOM     76  C   UNL A   1      47.956  31.304  29.636  1.00  0.00     0.031 A 
ATOM     77  C   UNL A   1      46.809  31.029  27.544  1.00  0.00     0.131 A 
ATOM     78  C   UNL A   1      48.816  32.239  28.998  1.00  0.00     0.055 A 
ATOM     79  C   UNL A   1      47.662  31.946  26.921  1.00  0.00     0.041 A 
ATOM     80  F   UNL A   1      45.911  30.435  26.742  1.00  0.00    -0.206 F 
ATOM     81  C   UNL A   1      48.675  32.548  27.644  1.00  0.00     0.022 A 
BRANCH  78  82
ATOM     82  S   UNL A   1      50.190  33.030  29.908  1.00  0.00     0.124 S 
ATOM     83  O   UNL A   1      50.901  31.881  30.455  1.00  0.00    -0.237 OA
ATOM     84  O   UNL A   1      50.872  33.777  28.858  1.00  0.00    -0.237 OA
ATOM     85  O   UNL A   1      49.510  33.860  30.904  1.00  0.00    -0.744 OA
ENDBRANCH  78  82
ENDBRANCH  51  75
BRANCH  63  86
ATOM     86  C   UNL A   1      44.886  25.588  32.175  1.00  0.00     0.023 A 
ATOM     87  C   UNL A   1      43.760  26.351  32.572  1.00  0.00     0.031 A 
ATOM     88  C   UNL A   1      45.621  24.944  33.185  1.00  0.00     0.131 A 
ATOM     89  C   UNL A   1      43.412  26.437  33.939  1.00  0.00     0.055 A 
ATOM     90  C   UNL A   1      45.257  25.009  34.529  1.00  0.00     0.041 A 
ATOM     91  F   UNL A   1      46.685  24.186  32.872  1.00  0.00    -0.206 F 
ATOM     92  C   UNL A   1      44.153  25.759  34.911  1.00  0.00     0.022 A 
BRANCH  89  93
ATOM     93  S   UNL A   1      41.992  27.445  34.488  1.00  0.00     0.124 S 
ATOM     94  O   UNL A   1      41.175  26.501  35.243  1.00  0.00    -0.237 OA
ATOM     95  O   UNL A   1      42.631  28.502  35.267  1.00  0.00    -0.237 OA
ATOM     96  O   UNL A   1      41.390  27.899  33.232  1.00  0.00    -0.744 OA
ENDBRANCH  89  93
ENDBRANCH  63  86
ENDBRANCH  37  38
ENDBRANCH  29  32
ENDBRANCH  27  28
ENDBRANCH   1  27
TORSDOF 16
ENDMDL
