MODEL 1
REMARK VINA RESULT:     -10.3      0.000      0.000
REMARK SMILES CCCC1(C(=O)N2CCO[C@@H](CC(=O)NCCCCNC(=O)c3ccc(-c4c5nc(c(-c6cc(S(=O)(=O)[O-])ccc6F)c6ccc([nH]6)c(-c6cc(S(=O)(=O)[O-])ccc6F)c6nc(c(-c7cc(S(=O)(=O)[O-])ccc7F)c7ccc4[nH]7)C=C6)C=C5)cc3)C2)CC[NH2+]CC1
REMARK SMILES IDX 16 1 15 2 13 3 14 4 12 6 11 7 7 8 8 9 86 10 9 11 10 12 5 13
REMARK SMILES IDX 6 14 4 15 87 16 91 17 88 18 90 19 89 20 3 23 2 24 1 25 17 26
REMARK SMILES IDX 18 27 19 28 20 29 21 30 22 32 23 33 24 34 85 35 25 36 84 37
REMARK SMILES IDX 26 38 27 39 28 40 78 41 29 42 83 43 77 44 79 45 30 46 82 47
REMARK SMILES IDX 76 48 75 49 31 51 63 52 43 53 62 54 44 55 47 56 61 57 80 58
REMARK SMILES IDX 45 59 46 60 60 62 81 63 48 64 32 65 33 66 41 67 34 68 40 69
REMARK SMILES IDX 42 70 39 71 35 72 36 73 37 74 38 75 64 76 65 77 73 78 66 79
REMARK SMILES IDX 72 80 74 81 71 82 67 83 68 84 69 85 70 86 49 87 50 88 58 89
REMARK SMILES IDX 51 90 57 91 59 92 56 93 52 94 53 95 54 96 55 97
REMARK H PARENT 15 5 89 21 89 22 20 31 79 50 47 61
REMARK Flexibility Score: inf
ROOT
ATOM      1  C   UNL A   1      34.260  32.136  28.031  1.00  0.00     0.116 C 
ENDROOT
BRANCH   1   2
ATOM      2  N   UNL A   1      35.498  31.446  27.700  1.00  0.00    -0.356 N 
ATOM      3  C   UNL A   1      35.771  30.113  27.595  1.00  0.00     0.222 C 
ATOM      4  O   UNL A   1      36.939  29.762  27.425  1.00  0.00    -0.275 OA
ATOM      5  H   UNL A   1      36.265  32.038  27.523  1.00  0.00     0.163 HD
BRANCH   3   6
ATOM      6  C   UNL A   1      34.666  29.085  27.705  1.00  0.00     0.133 C 
BRANCH   6   7
ATOM      7  C   UNL A   1      34.122  28.625  26.349  1.00  0.00     0.147 C 
ATOM      8  N   UNL A   1      32.344  27.148  25.355  1.00  0.00    -0.337 N 
ATOM      9  C   UNL A   1      31.679  28.347  24.864  1.00  0.00     0.148 C 
ATOM     10  C   UNL A   1      33.171  27.431  26.512  1.00  0.00     0.152 C 
ATOM     11  C   UNL A   1      32.734  29.412  24.570  1.00  0.00     0.182 C 
ATOM     12  O   UNL A   1      33.435  29.764  25.774  1.00  0.00    -0.374 OA
BRANCH   8  13
ATOM     13  C   UNL A   1      31.614  25.960  25.421  1.00  0.00     0.229 C 
ATOM     14  O   UNL A   1      30.472  25.944  25.874  1.00  0.00    -0.274 OA
BRANCH  13  15
ATOM     15  C   UNL A   1      32.317  24.720  24.808  1.00  0.00     0.060 C 
ATOM     16  C   UNL A   1      31.188  23.875  24.150  1.00  0.00     0.078 C 
ATOM     17  C   UNL A   1      33.313  25.146  23.702  1.00  0.00     0.078 C 
ATOM     18  C   UNL A   1      31.703  22.779  23.220  1.00  0.00     0.261 C 
ATOM     19  C   UNL A   1      33.759  23.979  22.827  1.00  0.00     0.261 C 
ATOM     20  N   UNL A   1      32.604  23.327  22.210  1.00  0.00    -0.346 N 
ATOM     21  H   UNL A   1      32.097  24.010  21.647  1.00  0.00     0.346 HD
ATOM     22  H   UNL A   1      32.940  22.560  21.627  1.00  0.00     0.346 HD
BRANCH  15  23
ATOM     23  C   UNL A   1      32.984  23.841  25.923  1.00  0.00     0.017 C 
BRANCH  23  24
ATOM     24  C   UNL A   1      34.513  23.711  25.964  1.00  0.00    -0.002 C 
ATOM     25  C   UNL A   1      35.019  22.412  26.555  1.00  0.00     0.004 C 
ENDBRANCH  23  24
ENDBRANCH  15  23
ENDBRANCH  13  15
ENDBRANCH   8  13
ENDBRANCH   6   7
ENDBRANCH   3   6
ENDBRANCH   1   2
BRANCH   1  26
ATOM     26  C   UNL A   1      34.541  33.428  28.802  1.00  0.00     0.023 C 
BRANCH  26  27
ATOM     27  C   UNL A   1      33.418  34.450  28.776  1.00  0.00     0.023 C 
BRANCH  27  28
ATOM     28  C   UNL A   1      33.724  35.717  29.548  1.00  0.00     0.116 C 
BRANCH  28  29
ATOM     29  N   UNL A   1      32.667  36.091  30.482  1.00  0.00    -0.352 N 
ATOM     30  C   UNL A   1      32.563  35.852  31.835  1.00  0.00     0.251 C 
ATOM     31  H   UNL A   1      31.916  36.589  30.085  1.00  0.00     0.163 HD
ATOM     32  O   UNL A   1      31.543  36.154  32.437  1.00  0.00    -0.269 OA
BRANCH  30  33
ATOM     33  C   UNL A   1      33.681  35.182  32.533  1.00  0.00     0.039 A 
ATOM     34  C   UNL A   1      33.479  33.909  33.072  1.00  0.00     0.014 A 
ATOM     35  C   UNL A   1      34.942  35.774  32.577  1.00  0.00     0.014 A 
ATOM     36  C   UNL A   1      34.572  33.192  33.563  1.00  0.00     0.010 A 
ATOM     37  C   UNL A   1      36.042  35.014  32.944  1.00  0.00     0.010 A 
ATOM     38  C   UNL A   1      35.870  33.715  33.446  1.00  0.00    -0.014 A 
BRANCH  38  39
ATOM     39  C   UNL A   1      37.069  32.936  33.847  1.00  0.00     0.031 A 
ATOM     40  C   UNL A   1      37.834  33.330  35.081  1.00  0.00     0.074 A 
ATOM     41  C   UNL A   1      37.527  31.951  33.048  1.00  0.00     0.049 A 
ATOM     42  N   UNL A   1      38.974  32.875  35.533  1.00  0.00    -0.248 NA
ATOM     43  C   UNL A   1      37.265  34.424  35.882  1.00  0.00     0.031 C 
ATOM     44  C   UNL A   1      36.914  31.529  31.785  1.00  0.00     0.029 A 
ATOM     45  N   UNL A   1      38.624  31.137  33.170  1.00  0.00    -0.354 N 
ATOM     46  C   UNL A   1      39.272  33.651  36.650  1.00  0.00     0.074 A 
ATOM     47  C   UNL A   1      38.235  34.654  36.751  1.00  0.00     0.031 C 
ATOM     48  C   UNL A   1      37.626  30.517  31.266  1.00  0.00     0.029 A 
ATOM     49  C   UNL A   1      38.772  30.250  32.129  1.00  0.00     0.049 A 
ATOM     50  H   UNL A   1      39.248  31.183  33.930  1.00  0.00     0.167 HD
ATOM     51  C   UNL A   1      40.298  33.516  37.527  1.00  0.00     0.034 A 
ATOM     52  C   UNL A   1      39.730  29.333  31.890  1.00  0.00     0.034 A 
ATOM     53  C   UNL A   1      41.300  32.485  37.422  1.00  0.00     0.049 A 
ATOM     54  C   UNL A   1      40.853  29.187  32.881  1.00  0.00     0.074 A 
ATOM     55  C   UNL A   1      42.327  32.186  38.299  1.00  0.00     0.029 A 
ATOM     56  N   UNL A   1      41.404  31.585  36.368  1.00  0.00    -0.354 N 
ATOM     57  N   UNL A   1      41.084  29.876  33.975  1.00  0.00    -0.248 NA
ATOM     58  C   UNL A   1      41.840  28.135  32.610  1.00  0.00     0.031 C 
ATOM     59  C   UNL A   1      43.090  31.153  37.743  1.00  0.00     0.029 A 
ATOM     60  C   UNL A   1      42.499  30.756  36.553  1.00  0.00     0.049 A 
ATOM     61  H   UNL A   1      40.789  31.542  35.600  1.00  0.00     0.167 HD
ATOM     62  C   UNL A   1      42.237  29.332  34.530  1.00  0.00     0.074 A 
ATOM     63  C   UNL A   1      42.640  28.243  33.662  1.00  0.00     0.031 C 
ATOM     64  C   UNL A   1      42.903  29.696  35.658  1.00  0.00     0.034 A 
BRANCH  51  65
ATOM     65  C   UNL A   1      40.381  34.525  38.650  1.00  0.00     0.023 A 
ATOM     66  C   UNL A   1      39.755  34.305  39.891  1.00  0.00     0.031 A 
ATOM     67  C   UNL A   1      41.033  35.755  38.458  1.00  0.00     0.131 A 
ATOM     68  C   UNL A   1      39.696  35.334  40.842  1.00  0.00     0.055 A 
ATOM     69  C   UNL A   1      41.056  36.740  39.449  1.00  0.00     0.041 A 
ATOM     70  F   UNL A   1      41.635  36.036  37.292  1.00  0.00    -0.206 F 
ATOM     71  C   UNL A   1      40.365  36.542  40.641  1.00  0.00     0.022 A 
BRANCH  68  72
ATOM     72  S   UNL A   1      38.575  35.140  42.255  1.00  0.00     0.124 S 
ATOM     73  O   UNL A   1      37.269  35.148  41.598  1.00  0.00    -0.237 OA
ATOM     74  O   UNL A   1      38.997  33.863  42.820  1.00  0.00    -0.237 OA
ATOM     75  O   UNL A   1      38.855  36.313  43.080  1.00  0.00    -0.744 OA
ENDBRANCH  68  72
ENDBRANCH  51  65
BRANCH  52  76
ATOM     76  C   UNL A   1      39.672  28.495  30.660  1.00  0.00     0.023 A 
ATOM     77  C   UNL A   1      40.356  28.871  29.494  1.00  0.00     0.031 A 
ATOM     78  C   UNL A   1      38.933  27.299  30.636  1.00  0.00     0.131 A 
ATOM     79  C   UNL A   1      40.265  28.075  28.341  1.00  0.00     0.055 A 
ATOM     80  C   UNL A   1      38.878  26.489  29.499  1.00  0.00     0.041 A 
ATOM     81  F   UNL A   1      38.271  26.888  31.729  1.00  0.00    -0.206 F 
ATOM     82  C   UNL A   1      39.541  26.880  28.340  1.00  0.00     0.022 A 
BRANCH  79  83
ATOM     83  S   UNL A   1      41.075  28.644  26.822  1.00  0.00     0.124 S 
ATOM     84  O   UNL A   1      39.977  29.313  26.131  1.00  0.00    -0.237 OA
ATOM     85  O   UNL A   1      42.128  29.509  27.344  1.00  0.00    -0.237 OA
ATOM     86  O   UNL A   1      41.542  27.406  26.200  1.00  0.00    -0.744 OA
ENDBRANCH  79  83
ENDBRANCH  52  76
BRANCH  64  87
ATOM     87  C   UNL A   1      44.130  28.893  36.011  1.00  0.00     0.023 A 
ATOM     88  C   UNL A   1      44.083  27.859  36.962  1.00  0.00     0.031 A 
ATOM     89  C   UNL A   1      45.363  29.173  35.396  1.00  0.00     0.131 A 
ATOM     90  C   UNL A   1      45.257  27.177  37.310  1.00  0.00     0.055 A 
ATOM     91  C   UNL A   1      46.516  28.450  35.703  1.00  0.00     0.041 A 
ATOM     92  F   UNL A   1      45.464  30.152  34.483  1.00  0.00    -0.206 F 
ATOM     93  C   UNL A   1      46.470  27.455  36.675  1.00  0.00     0.022 A 
BRANCH  90  94
ATOM     94  S   UNL A   1      45.197  25.980  38.672  1.00  0.00     0.124 S 
ATOM     95  O   UNL A   1      44.905  24.735  37.967  1.00  0.00    -0.237 OA
ATOM     96  O   UNL A   1      46.534  26.090  39.245  1.00  0.00    -0.237 OA
ATOM     97  O   UNL A   1      44.117  26.479  39.520  1.00  0.00    -0.744 OA
ENDBRANCH  90  94
ENDBRANCH  64  87
ENDBRANCH  38  39
ENDBRANCH  30  33
ENDBRANCH  28  29
ENDBRANCH  27  28
ENDBRANCH  26  27
ENDBRANCH   1  26
TORSDOF 19
ENDMDL
MODEL 2
REMARK VINA RESULT:     -10.2      5.148     11.049
REMARK SMILES CCCC1(C(=O)N2CCO[C@@H](CC(=O)NCCCCNC(=O)c3ccc(-c4c5nc(c(-c6cc(S(=O)(=O)[O-])ccc6F)c6ccc([nH]6)c(-c6cc(S(=O)(=O)[O-])ccc6F)c6nc(c(-c7cc(S(=O)(=O)[O-])ccc7F)c7ccc4[nH]7)C=C6)C=C5)cc3)C2)CC[NH2+]CC1
REMARK SMILES IDX 16 1 15 2 13 3 14 4 12 6 11 7 7 8 8 9 86 10 9 11 10 12 5 13
REMARK SMILES IDX 6 14 4 15 87 16 91 17 88 18 90 19 89 20 3 23 2 24 1 25 17 26
REMARK SMILES IDX 18 27 19 28 20 29 21 30 22 32 23 33 24 34 85 35 25 36 84 37
REMARK SMILES IDX 26 38 27 39 28 40 78 41 29 42 83 43 77 44 79 45 30 46 82 47
REMARK SMILES IDX 76 48 75 49 31 51 63 52 43 53 62 54 44 55 47 56 61 57 80 58
REMARK SMILES IDX 45 59 46 60 60 62 81 63 48 64 32 65 33 66 41 67 34 68 40 69
REMARK SMILES IDX 42 70 39 71 35 72 36 73 37 74 38 75 64 76 65 77 73 78 66 79
REMARK SMILES IDX 72 80 74 81 71 82 67 83 68 84 69 85 70 86 49 87 50 88 58 89
REMARK SMILES IDX 51 90 57 91 59 92 56 93 52 94 53 95 54 96 55 97
REMARK H PARENT 15 5 89 21 89 22 20 31 79 50 47 61
REMARK Flexibility Score: inf
ROOT
ATOM      1  C   UNL A   1      42.656  20.578  25.846  1.00  0.00     0.116 C 
ENDROOT
BRANCH   1   2
ATOM      2  N   UNL A   1      43.302  19.544  25.049  1.00  0.00    -0.356 N 
ATOM      3  C   UNL A   1      44.621  19.332  24.770  1.00  0.00     0.222 C 
ATOM      4  O   UNL A   1      44.918  18.455  23.958  1.00  0.00    -0.275 OA
ATOM      5  H   UNL A   1      42.686  18.891  24.645  1.00  0.00     0.163 HD
BRANCH   3   6
ATOM      6  C   UNL A   1      45.696  20.169  25.428  1.00  0.00     0.133 C 
BRANCH   6   7
ATOM      7  C   UNL A   1      45.637  21.651  25.044  1.00  0.00     0.147 C 
ATOM      8  N   UNL A   1      45.902  23.942  26.050  1.00  0.00    -0.337 N 
ATOM      9  C   UNL A   1      47.110  24.107  25.254  1.00  0.00     0.148 C 
ATOM     10  C   UNL A   1      45.608  22.543  26.294  1.00  0.00     0.152 C 
ATOM     11  C   UNL A   1      46.960  23.316  23.956  1.00  0.00     0.182 C 
ATOM     12  O   UNL A   1      46.812  21.916  24.241  1.00  0.00    -0.374 OA
BRANCH   8  13
ATOM     13  C   UNL A   1      45.698  24.792  27.138  1.00  0.00     0.229 C 
ATOM     14  O   UNL A   1      46.448  24.765  28.111  1.00  0.00    -0.274 OA
BRANCH  13  15
ATOM     15  C   UNL A   1      44.531  25.802  26.977  1.00  0.00     0.060 C 
ATOM     16  C   UNL A   1      45.077  27.165  27.493  1.00  0.00     0.078 C 
ATOM     17  C   UNL A   1      44.150  25.964  25.485  1.00  0.00     0.078 C 
ATOM     18  C   UNL A   1      44.196  28.357  27.128  1.00  0.00     0.261 C 
ATOM     19  C   UNL A   1      43.276  27.187  25.229  1.00  0.00     0.261 C 
ATOM     20  N   UNL A   1      43.945  28.404  25.690  1.00  0.00    -0.346 N 
ATOM     21  H   UNL A   1      44.834  28.502  25.200  1.00  0.00     0.346 HD
ATOM     22  H   UNL A   1      43.336  29.200  25.495  1.00  0.00     0.346 HD
BRANCH  15  23
ATOM     23  C   UNL A   1      43.311  25.403  27.878  1.00  0.00     0.017 C 
BRANCH  23  24
ATOM     24  C   UNL A   1      42.891  23.928  27.964  1.00  0.00    -0.002 C 
ATOM     25  C   UNL A   1      42.950  23.337  29.357  1.00  0.00     0.004 C 
ENDBRANCH  23  24
ENDBRANCH  15  23
ENDBRANCH  13  15
ENDBRANCH   8  13
ENDBRANCH   6   7
ENDBRANCH   3   6
ENDBRANCH   1   2
BRANCH   1  26
ATOM     26  C   UNL A   1      41.514  19.994  26.681  1.00  0.00     0.023 C 
BRANCH  26  27
ATOM     27  C   UNL A   1      40.502  21.008  27.184  1.00  0.00     0.023 C 
BRANCH  27  28
ATOM     28  C   UNL A   1      40.531  22.325  26.437  1.00  0.00     0.116 C 
BRANCH  28  29
ATOM     29  N   UNL A   1      39.212  22.771  26.003  1.00  0.00    -0.352 N 
ATOM     30  C   UNL A   1      38.521  23.919  26.326  1.00  0.00     0.251 C 
ATOM     31  H   UNL A   1      38.746  22.161  25.387  1.00  0.00     0.163 HD
ATOM     32  O   UNL A   1      37.370  24.072  25.945  1.00  0.00    -0.269 OA
BRANCH  30  33
ATOM     33  C   UNL A   1      39.174  24.933  27.181  1.00  0.00     0.039 A 
ATOM     34  C   UNL A   1      39.951  25.927  26.582  1.00  0.00     0.014 A 
ATOM     35  C   UNL A   1      38.949  24.947  28.557  1.00  0.00     0.014 A 
ATOM     36  C   UNL A   1      40.414  26.994  27.355  1.00  0.00     0.010 A 
ATOM     37  C   UNL A   1      39.298  26.068  29.294  1.00  0.00     0.010 A 
ATOM     38  C   UNL A   1      40.039  27.103  28.705  1.00  0.00    -0.014 A 
BRANCH  38  39
ATOM     39  C   UNL A   1      40.411  28.280  29.530  1.00  0.00     0.031 A 
ATOM     40  C   UNL A   1      41.682  28.253  30.334  1.00  0.00     0.074 A 
ATOM     41  C   UNL A   1      39.560  29.320  29.638  1.00  0.00     0.049 A 
ATOM     42  N   UNL A   1      42.125  29.110  31.217  1.00  0.00    -0.248 NA
ATOM     43  C   UNL A   1      42.541  27.071  30.161  1.00  0.00     0.031 C 
ATOM     44  C   UNL A   1      38.261  29.427  28.966  1.00  0.00     0.029 A 
ATOM     45  N   UNL A   1      39.649  30.479  30.367  1.00  0.00    -0.354 N 
ATOM     46  C   UNL A   1      43.294  28.553  31.727  1.00  0.00     0.074 A 
ATOM     47  C   UNL A   1      43.440  27.251  31.114  1.00  0.00     0.031 C 
ATOM     48  C   UNL A   1      37.691  30.597  29.290  1.00  0.00     0.029 A 
ATOM     49  C   UNL A   1      38.556  31.303  30.230  1.00  0.00     0.049 A 
ATOM     50  H   UNL A   1      40.422  30.700  30.935  1.00  0.00     0.167 HD
ATOM     51  C   UNL A   1      44.180  29.093  32.601  1.00  0.00     0.034 A 
ATOM     52  C   UNL A   1      38.276  32.488  30.807  1.00  0.00     0.034 A 
ATOM     53  C   UNL A   1      44.028  30.407  33.173  1.00  0.00     0.049 A 
ATOM     54  C   UNL A   1      39.277  33.080  31.763  1.00  0.00     0.074 A 
ATOM     55  C   UNL A   1      44.903  31.101  33.990  1.00  0.00     0.029 A 
ATOM     56  N   UNL A   1      42.920  31.228  32.991  1.00  0.00    -0.354 N 
ATOM     57  N   UNL A   1      40.417  32.579  32.180  1.00  0.00    -0.248 NA
ATOM     58  C   UNL A   1      38.958  34.400  32.320  1.00  0.00     0.031 C 
ATOM     59  C   UNL A   1      44.296  32.308  34.356  1.00  0.00     0.029 A 
ATOM     60  C   UNL A   1      43.072  32.403  33.711  1.00  0.00     0.049 A 
ATOM     61  H   UNL A   1      42.140  31.006  32.434  1.00  0.00     0.167 HD
ATOM     62  C   UNL A   1      40.958  33.529  33.040  1.00  0.00     0.074 A 
ATOM     63  C   UNL A   1      40.029  34.641  33.063  1.00  0.00     0.031 C 
ATOM     64  C   UNL A   1      42.119  33.488  33.746  1.00  0.00     0.034 A 
BRANCH  51  65
ATOM     65  C   UNL A   1      45.367  28.242  32.994  1.00  0.00     0.023 A 
ATOM     66  C   UNL A   1      46.582  28.295  32.286  1.00  0.00     0.031 A 
ATOM     67  C   UNL A   1      45.264  27.313  34.043  1.00  0.00     0.131 A 
ATOM     68  C   UNL A   1      47.596  27.366  32.558  1.00  0.00     0.055 A 
ATOM     69  C   UNL A   1      46.316  26.456  34.376  1.00  0.00     0.041 A 
ATOM     70  F   UNL A   1      44.127  27.199  34.747  1.00  0.00    -0.206 F 
ATOM     71  C   UNL A   1      47.483  26.463  33.617  1.00  0.00     0.022 A 
BRANCH  68  72
ATOM     72  S   UNL A   1      48.978  27.229  31.391  1.00  0.00     0.124 S 
ATOM     73  O   UNL A   1      50.130  27.397  32.276  1.00  0.00    -0.237 OA
ATOM     74  O   UNL A   1      48.790  25.894  30.834  1.00  0.00    -0.237 OA
ATOM     75  O   UNL A   1      48.752  28.333  30.461  1.00  0.00    -0.744 OA
ENDBRANCH  68  72
ENDBRANCH  51  65
BRANCH  52  76
ATOM     76  C   UNL A   1      36.994  33.183  30.503  1.00  0.00     0.023 A 
ATOM     77  C   UNL A   1      36.072  33.477  31.519  1.00  0.00     0.031 A 
ATOM     78  C   UNL A   1      36.676  33.568  29.189  1.00  0.00     0.131 A 
ATOM     79  C   UNL A   1      34.860  34.111  31.201  1.00  0.00     0.055 A 
ATOM     80  C   UNL A   1      35.488  34.236  28.884  1.00  0.00     0.041 A 
ATOM     81  F   UNL A   1      37.530  33.321  28.183  1.00  0.00    -0.206 F 
ATOM     82  C   UNL A   1      34.568  34.504  29.893  1.00  0.00     0.022 A 
BRANCH  79  83
ATOM     83  S   UNL A   1      33.646  34.382  32.521  1.00  0.00     0.124 S 
ATOM     84  O   UNL A   1      34.372  35.279  33.414  1.00  0.00    -0.237 OA
ATOM     85  O   UNL A   1      32.528  34.969  31.790  1.00  0.00    -0.237 OA
ATOM     86  O   UNL A   1      33.407  33.039  33.045  1.00  0.00    -0.744 OA
ENDBRANCH  79  83
ENDBRANCH  52  76
BRANCH  64  87
ATOM     87  C   UNL A   1      42.442  34.695  34.590  1.00  0.00     0.023 A 
ATOM     88  C   UNL A   1      41.871  34.877  35.861  1.00  0.00     0.031 A 
ATOM     89  C   UNL A   1      43.325  35.680  34.111  1.00  0.00     0.131 A 
ATOM     90  C   UNL A   1      42.147  36.043  36.589  1.00  0.00     0.055 A 
ATOM     91  C   UNL A   1      43.642  36.809  34.867  1.00  0.00     0.041 A 
ATOM     92  F   UNL A   1      43.895  35.557  32.902  1.00  0.00    -0.206 F 
ATOM     93  C   UNL A   1      43.042  37.002  36.107  1.00  0.00     0.022 A 
BRANCH  90  94
ATOM     94  S   UNL A   1      41.251  36.334  38.139  1.00  0.00     0.124 S 
ATOM     95  O   UNL A   1      39.973  36.849  37.657  1.00  0.00    -0.237 OA
ATOM     96  O   UNL A   1      41.219  35.004  38.737  1.00  0.00    -0.237 OA
ATOM     97  O   UNL A   1      42.086  37.308  38.840  1.00  0.00    -0.744 OA
ENDBRANCH  90  94
ENDBRANCH  64  87
ENDBRANCH  38  39
ENDBRANCH  30  33
ENDBRANCH  28  29
ENDBRANCH  27  28
ENDBRANCH  26  27
ENDBRANCH   1  26
TORSDOF 19
ENDMDL
MODEL 3
REMARK VINA RESULT:     -10.0      6.951     11.190
REMARK SMILES CCCC1(C(=O)N2CCO[C@@H](CC(=O)NCCCCNC(=O)c3ccc(-c4c5nc(c(-c6cc(S(=O)(=O)[O-])ccc6F)c6ccc([nH]6)c(-c6cc(S(=O)(=O)[O-])ccc6F)c6nc(c(-c7cc(S(=O)(=O)[O-])ccc7F)c7ccc4[nH]7)C=C6)C=C5)cc3)C2)CC[NH2+]CC1
REMARK SMILES IDX 16 1 15 2 13 3 14 4 12 6 11 7 7 8 8 9 86 10 9 11 10 12 5 13
REMARK SMILES IDX 6 14 4 15 87 16 91 17 88 18 90 19 89 20 3 23 2 24 1 25 17 26
REMARK SMILES IDX 18 27 19 28 20 29 21 30 22 32 23 33 24 34 85 35 25 36 84 37
REMARK SMILES IDX 26 38 27 39 28 40 78 41 29 42 83 43 77 44 79 45 30 46 82 47
REMARK SMILES IDX 76 48 75 49 31 51 63 52 43 53 62 54 44 55 47 56 61 57 80 58
REMARK SMILES IDX 45 59 46 60 60 62 81 63 48 64 32 65 33 66 41 67 34 68 40 69
REMARK SMILES IDX 42 70 39 71 35 72 36 73 37 74 38 75 64 76 65 77 73 78 66 79
REMARK SMILES IDX 72 80 74 81 71 82 67 83 68 84 69 85 70 86 49 87 50 88 58 89
REMARK SMILES IDX 51 90 57 91 59 92 56 93 52 94 53 95 54 96 55 97
REMARK H PARENT 15 5 89 21 89 22 20 31 79 50 47 61
REMARK Flexibility Score: inf
ROOT
ATOM      1  C   UNL A   1      36.109  22.331  23.848  1.00  0.00     0.116 C 
ENDROOT
BRANCH   1   2
ATOM      2  N   UNL A   1      34.807  22.126  24.467  1.00  0.00    -0.356 N 
ATOM      3  C   UNL A   1      33.552  22.399  24.006  1.00  0.00     0.222 C 
ATOM      4  O   UNL A   1      32.598  22.253  24.772  1.00  0.00    -0.275 OA
ATOM      5  H   UNL A   1      34.837  21.723  25.365  1.00  0.00     0.163 HD
BRANCH   3   6
ATOM      6  C   UNL A   1      33.336  22.894  22.592  1.00  0.00     0.133 C 
BRANCH   6   7
ATOM      7  C   UNL A   1      32.626  24.249  22.521  1.00  0.00     0.147 C 
ATOM      8  N   UNL A   1      32.990  26.678  23.068  1.00  0.00    -0.337 N 
ATOM      9  C   UNL A   1      32.993  26.957  21.638  1.00  0.00     0.148 C 
ATOM     10  C   UNL A   1      33.373  25.307  23.346  1.00  0.00     0.152 C 
ATOM     11  C   UNL A   1      32.083  25.952  20.935  1.00  0.00     0.182 C 
ATOM     12  O   UNL A   1      32.579  24.616  21.121  1.00  0.00    -0.374 OA
BRANCH   8  13
ATOM     13  C   UNL A   1      33.522  27.633  23.935  1.00  0.00     0.229 C 
ATOM     14  O   UNL A   1      34.641  28.105  23.746  1.00  0.00    -0.274 OA
BRANCH  13  15
ATOM     15  C   UNL A   1      32.571  28.095  25.071  1.00  0.00     0.060 C 
ATOM     16  C   UNL A   1      33.228  27.610  26.396  1.00  0.00     0.078 C 
ATOM     17  C   UNL A   1      32.477  29.639  25.111  1.00  0.00     0.078 C 
ATOM     18  C   UNL A   1      32.618  28.235  27.648  1.00  0.00     0.261 C 
ATOM     19  C   UNL A   1      31.860  30.159  26.405  1.00  0.00     0.261 C 
ATOM     20  N   UNL A   1      32.623  29.693  27.564  1.00  0.00    -0.346 N 
ATOM     21  H   UNL A   1      33.586  30.018  27.482  1.00  0.00     0.346 HD
ATOM     22  H   UNL A   1      32.187  30.066  28.408  1.00  0.00     0.346 HD
BRANCH  15  23
ATOM     23  C   UNL A   1      31.170  27.400  24.950  1.00  0.00     0.017 C 
BRANCH  23  24
ATOM     24  C   UNL A   1      30.122  27.984  23.990  1.00  0.00    -0.002 C 
ATOM     25  C   UNL A   1      29.099  26.985  23.493  1.00  0.00     0.004 C 
ENDBRANCH  23  24
ENDBRANCH  15  23
ENDBRANCH  13  15
ENDBRANCH   8  13
ENDBRANCH   6   7
ENDBRANCH   3   6
ENDBRANCH   1   2
BRANCH   1  26
ATOM     26  C   UNL A   1      37.230  22.253  24.888  1.00  0.00     0.023 C 
BRANCH  26  27
ATOM     27  C   UNL A   1      37.866  20.885  25.046  1.00  0.00     0.023 C 
BRANCH  27  28
ATOM     28  C   UNL A   1      38.905  20.815  26.147  1.00  0.00     0.116 C 
BRANCH  28  29
ATOM     29  N   UNL A   1      39.811  19.680  26.013  1.00  0.00    -0.352 N 
ATOM     30  C   UNL A   1      41.188  19.642  26.069  1.00  0.00     0.251 C 
ATOM     31  H   UNL A   1      39.374  18.811  25.859  1.00  0.00     0.163 HD
ATOM     32  O   UNL A   1      41.785  18.604  25.826  1.00  0.00    -0.269 OA
BRANCH  30  33
ATOM     33  C   UNL A   1      41.928  20.884  26.376  1.00  0.00     0.039 A 
ATOM     34  C   UNL A   1      42.262  21.751  25.333  1.00  0.00     0.014 A 
ATOM     35  C   UNL A   1      42.212  21.228  27.697  1.00  0.00     0.014 A 
ATOM     36  C   UNL A   1      42.788  23.010  25.631  1.00  0.00     0.010 A 
ATOM     37  C   UNL A   1      42.613  22.521  27.996  1.00  0.00     0.010 A 
ATOM     38  C   UNL A   1      42.911  23.427  26.967  1.00  0.00    -0.014 A 
BRANCH  38  39
ATOM     39  C   UNL A   1      43.354  24.798  27.323  1.00  0.00     0.031 A 
ATOM     40  C   UNL A   1      42.381  25.752  27.963  1.00  0.00     0.074 A 
ATOM     41  C   UNL A   1      44.588  25.216  26.977  1.00  0.00     0.049 A 
ATOM     42  N   UNL A   1      42.519  27.024  28.230  1.00  0.00    -0.248 NA
ATOM     43  C   UNL A   1      41.054  25.209  28.292  1.00  0.00     0.031 C 
ATOM     44  C   UNL A   1      45.595  24.406  26.284  1.00  0.00     0.029 A 
ATOM     45  N   UNL A   1      45.202  26.431  27.144  1.00  0.00    -0.354 N 
ATOM     46  C   UNL A   1      41.287  27.440  28.726  1.00  0.00     0.074 A 
ATOM     47  C   UNL A   1      40.397  26.303  28.641  1.00  0.00     0.031 C 
ATOM     48  C   UNL A   1      46.707  25.136  26.113  1.00  0.00     0.029 A 
ATOM     49  C   UNL A   1      46.480  26.479  26.637  1.00  0.00     0.049 A 
ATOM     50  H   UNL A   1      44.769  27.197  27.585  1.00  0.00     0.167 HD
ATOM     51  C   UNL A   1      40.940  28.649  29.235  1.00  0.00     0.034 A 
ATOM     52  C   UNL A   1      47.365  27.495  26.588  1.00  0.00     0.034 A 
ATOM     53  C   UNL A   1      41.857  29.757  29.339  1.00  0.00     0.049 A 
ATOM     54  C   UNL A   1      46.969  28.825  27.171  1.00  0.00     0.074 A 
ATOM     55  C   UNL A   1      41.655  30.994  29.923  1.00  0.00     0.029 A 
ATOM     56  N   UNL A   1      43.155  29.761  28.839  1.00  0.00    -0.354 N 
ATOM     57  N   UNL A   1      45.826  29.185  27.707  1.00  0.00    -0.248 NA
ATOM     58  C   UNL A   1      47.986  29.883  27.149  1.00  0.00     0.031 C 
ATOM     59  C   UNL A   1      42.802  31.769  29.716  1.00  0.00     0.029 A 
ATOM     60  C   UNL A   1      43.750  30.993  29.066  1.00  0.00     0.049 A 
ATOM     61  H   UNL A   1      43.588  29.002  28.387  1.00  0.00     0.167 HD
ATOM     62  C   UNL A   1      45.990  30.509  28.098  1.00  0.00     0.074 A 
ATOM     63  C   UNL A   1      47.350  30.876  27.756  1.00  0.00     0.031 C 
ATOM     64  C   UNL A   1      45.099  31.348  28.689  1.00  0.00     0.034 A 
BRANCH  51  65
ATOM     65  C   UNL A   1      39.509  28.821  29.689  1.00  0.00     0.023 A 
ATOM     66  C   UNL A   1      38.546  29.448  28.877  1.00  0.00     0.031 A 
ATOM     67  C   UNL A   1      39.114  28.418  30.976  1.00  0.00     0.131 A 
ATOM     68  C   UNL A   1      37.280  29.756  29.397  1.00  0.00     0.055 A 
ATOM     69  C   UNL A   1      37.819  28.638  31.453  1.00  0.00     0.041 A 
ATOM     70  F   UNL A   1      39.988  27.829  31.807  1.00  0.00    -0.206 F 
ATOM     71  C   UNL A   1      36.900  29.332  30.671  1.00  0.00     0.022 A 
BRANCH  68  72
ATOM     72  S   UNL A   1      36.211  30.881  28.457  1.00  0.00     0.124 S 
ATOM     73  O   UNL A   1      35.232  31.272  29.470  1.00  0.00    -0.237 OA
ATOM     74  O   UNL A   1      37.142  31.922  28.035  1.00  0.00    -0.237 OA
ATOM     75  O   UNL A   1      35.684  30.040  27.386  1.00  0.00    -0.744 OA
ENDBRANCH  68  72
ENDBRANCH  51  65
BRANCH  52  76
ATOM     76  C   UNL A   1      48.699  27.294  25.957  1.00  0.00     0.023 A 
ATOM     77  C   UNL A   1      48.893  27.517  24.586  1.00  0.00     0.031 A 
ATOM     78  C   UNL A   1      49.803  26.878  26.722  1.00  0.00     0.131 A 
ATOM     79  C   UNL A   1      50.155  27.297  24.013  1.00  0.00     0.055 A 
ATOM     80  C   UNL A   1      51.067  26.699  26.156  1.00  0.00     0.041 A 
ATOM     81  F   UNL A   1      49.673  26.662  28.041  1.00  0.00    -0.206 F 
ATOM     82  C   UNL A   1      51.246  26.902  24.791  1.00  0.00     0.022 A 
BRANCH  79  83
ATOM     83  S   UNL A   1      50.346  27.495  22.220  1.00  0.00     0.124 S 
ATOM     84  O   UNL A   1      50.239  28.942  22.068  1.00  0.00    -0.237 OA
ATOM     85  O   UNL A   1      51.667  26.920  21.989  1.00  0.00    -0.237 OA
ATOM     86  O   UNL A   1      49.231  26.725  21.672  1.00  0.00    -0.744 OA
ENDBRANCH  79  83
ENDBRANCH  52  76
BRANCH  64  87
ATOM     87  C   UNL A   1      45.585  32.740  29.009  1.00  0.00     0.023 A 
ATOM     88  C   UNL A   1      45.433  33.799  28.098  1.00  0.00     0.031 A 
ATOM     89  C   UNL A   1      46.219  33.005  30.236  1.00  0.00     0.131 A 
ATOM     90  C   UNL A   1      45.954  35.064  28.405  1.00  0.00     0.055 A 
ATOM     91  C   UNL A   1      46.683  34.280  30.560  1.00  0.00     0.041 A 
ATOM     92  F   UNL A   1      46.394  32.028  31.140  1.00  0.00    -0.206 F 
ATOM     93  C   UNL A   1      46.564  35.315  29.638  1.00  0.00     0.022 A 
BRANCH  90  94
ATOM     94  S   UNL A   1      45.905  36.358  27.135  1.00  0.00     0.124 S 
ATOM     95  O   UNL A   1      46.320  37.537  27.889  1.00  0.00    -0.237 OA
ATOM     96  O   UNL A   1      46.859  35.863  26.148  1.00  0.00    -0.237 OA
ATOM     97  O   UNL A   1      44.510  36.359  26.701  1.00  0.00    -0.744 OA
ENDBRANCH  90  94
ENDBRANCH  64  87
ENDBRANCH  38  39
ENDBRANCH  30  33
ENDBRANCH  28  29
ENDBRANCH  27  28
ENDBRANCH  26  27
ENDBRANCH   1  26
TORSDOF 19
ENDMDL
