MODEL 1
REMARK VINA RESULT:     -10.9      0.000      0.000
REMARK SMILES CCCO[C@@H]1CCC[C@]([NH3+])(C(=O)NCCCCNC(=O)c2ccc(-c3c4nc(c(-c5cc(S(=O)(=O)[O-])ccc5F)c5ccc([nH]5)c(-c5cc(S(=O)(=O)[O-])ccc5F)c5nc(c(-c6cc(S(=O)(=O)[O-])ccc6F)c6ccc3[nH]6)C=C5)C=C4)cc2)C1
REMARK SMILES IDX 15 1 14 2 13 3 11 4 12 5 9 7 5 8 6 9 84 10 7 11 8 12 4 13
REMARK SMILES IDX 3 14 2 15 1 16 10 17 16 21 17 22 18 23 19 24 20 26 21 27
REMARK SMILES IDX 22 28 83 29 23 30 82 31 24 32 25 33 26 34 76 35 27 36 81 37
REMARK SMILES IDX 75 38 77 39 28 40 80 41 74 42 73 43 29 45 61 46 41 47 60 48
REMARK SMILES IDX 42 49 45 50 59 51 78 52 43 53 44 54 58 56 79 57 46 58 30 59
REMARK SMILES IDX 31 60 39 61 32 62 38 63 40 64 37 65 33 66 34 67 35 68 36 69
REMARK SMILES IDX 62 70 63 71 71 72 64 73 70 74 72 75 69 76 65 77 66 78 67 79
REMARK SMILES IDX 68 80 47 81 48 82 56 83 49 84 55 85 57 86 54 87 50 88 51 89
REMARK SMILES IDX 52 90 53 91
REMARK H PARENT 13 6 10 18 10 19 10 20 18 25 77 44 45 55
REMARK Flexibility Score: inf
ROOT
ATOM      1  C   UNL A   1      31.021  28.617  23.824  1.00  0.00     0.023 C 
ENDROOT
BRANCH   1   2
ATOM      2  C   UNL A   1      30.644  27.539  22.807  1.00  0.00     0.116 C 
BRANCH   2   3
ATOM      3  N   UNL A   1      31.777  27.099  22.014  1.00  0.00    -0.351 N 
ATOM      4  C   UNL A   1      32.594  26.010  22.037  1.00  0.00     0.281 C 
ATOM      5  O   UNL A   1      33.362  25.909  21.070  1.00  0.00    -0.268 OA
ATOM      6  H   UNL A   1      32.008  27.732  21.295  1.00  0.00     0.163 HD
BRANCH   4   7
ATOM      7  C   UNL A   1      32.673  24.965  23.194  1.00  0.00     0.176 C 
ATOM      8  C   UNL A   1      34.052  22.991  23.991  1.00  0.00     0.125 C 
ATOM      9  C   UNL A   1      32.794  22.108  24.030  1.00  0.00     0.032 C 
ATOM     10  C   UNL A   1      33.877  24.055  22.902  1.00  0.00     0.111 C 
ATOM     11  C   UNL A   1      31.504  22.917  24.190  1.00  0.00     0.010 C 
ATOM     12  C   UNL A   1      31.406  24.087  23.201  1.00  0.00     0.079 C 
BRANCH   8  13
ATOM     13  O   UNL A   1      35.182  22.156  23.709  1.00  0.00    -0.378 OA
BRANCH  13  14
ATOM     14  C   UNL A   1      36.442  22.840  23.690  1.00  0.00     0.160 C 
BRANCH  14  15
ATOM     15  C   UNL A   1      37.281  22.578  24.942  1.00  0.00     0.025 C 
ATOM     16  C   UNL A   1      37.195  23.702  25.969  1.00  0.00     0.006 C 
ENDBRANCH  14  15
ENDBRANCH  13  14
ENDBRANCH   8  13
BRANCH   7  17
ATOM     17  N   UNL A   1      32.842  25.545  24.538  1.00  0.00    -0.345 N 
ATOM     18  H   UNL A   1      33.307  24.869  25.144  1.00  0.00     0.345 HD
ATOM     19  H   UNL A   1      31.929  25.777  24.927  1.00  0.00     0.345 HD
ATOM     20  H   UNL A   1      33.410  26.390  24.475  1.00  0.00     0.345 HD
ENDBRANCH   7  17
ENDBRANCH   4   7
ENDBRANCH   2   3
ENDBRANCH   1   2
BRANCH   1  21
ATOM     21  C   UNL A   1      32.513  28.966  23.860  1.00  0.00     0.023 C 
BRANCH  21  22
ATOM     22  C   UNL A   1      33.072  29.336  25.233  1.00  0.00     0.116 C 
BRANCH  22  23
ATOM     23  N   UNL A   1      32.473  30.525  25.812  1.00  0.00    -0.352 N 
ATOM     24  C   UNL A   1      32.949  31.295  26.857  1.00  0.00     0.251 C 
ATOM     25  H   UNL A   1      31.624  30.820  25.411  1.00  0.00     0.163 HD
ATOM     26  O   UNL A   1      32.286  32.216  27.294  1.00  0.00    -0.269 OA
BRANCH  24  27
ATOM     27  C   UNL A   1      34.250  30.935  27.464  1.00  0.00     0.039 A 
ATOM     28  C   UNL A   1      35.165  31.952  27.744  1.00  0.00     0.014 A 
ATOM     29  C   UNL A   1      34.531  29.613  27.811  1.00  0.00     0.014 A 
ATOM     30  C   UNL A   1      36.333  31.651  28.446  1.00  0.00     0.010 A 
ATOM     31  C   UNL A   1      35.661  29.327  28.571  1.00  0.00     0.010 A 
ATOM     32  C   UNL A   1      36.569  30.344  28.901  1.00  0.00    -0.014 A 
BRANCH  32  33
ATOM     33  C   UNL A   1      37.757  30.019  29.732  1.00  0.00     0.031 A 
ATOM     34  C   UNL A   1      38.824  29.108  29.193  1.00  0.00     0.074 A 
ATOM     35  C   UNL A   1      37.831  30.478  30.997  1.00  0.00     0.049 A 
ATOM     36  N   UNL A   1      39.894  28.644  29.785  1.00  0.00    -0.248 NA
ATOM     37  C   UNL A   1      38.638  28.626  27.818  1.00  0.00     0.031 C 
ATOM     38  C   UNL A   1      36.833  31.331  31.646  1.00  0.00     0.029 A 
ATOM     39  N   UNL A   1      38.783  30.287  31.965  1.00  0.00    -0.354 N 
ATOM     40  C   UNL A   1      40.501  27.798  28.862  1.00  0.00     0.074 A 
ATOM     41  C   UNL A   1      39.638  27.767  27.698  1.00  0.00     0.031 C 
ATOM     42  C   UNL A   1      37.242  31.615  32.893  1.00  0.00     0.029 A 
ATOM     43  C   UNL A   1      38.508  30.934  33.147  1.00  0.00     0.049 A 
ATOM     44  H   UNL A   1      39.589  29.739  31.827  1.00  0.00     0.167 HD
ATOM     45  C   UNL A   1      41.677  27.129  28.966  1.00  0.00     0.034 A 
ATOM     46  C   UNL A   1      39.197  30.972  34.304  1.00  0.00     0.034 A 
ATOM     47  C   UNL A   1      42.528  27.190  30.129  1.00  0.00     0.049 A 
ATOM     48  C   UNL A   1      40.491  30.209  34.406  1.00  0.00     0.074 A 
ATOM     49  C   UNL A   1      43.778  26.623  30.314  1.00  0.00     0.029 A 
ATOM     50  N   UNL A   1      42.214  27.849  31.311  1.00  0.00    -0.354 N 
ATOM     51  N   UNL A   1      41.086  29.464  33.501  1.00  0.00    -0.248 NA
ATOM     52  C   UNL A   1      41.209  30.296  35.683  1.00  0.00     0.031 C 
ATOM     53  C   UNL A   1      44.187  26.880  31.628  1.00  0.00     0.029 A 
ATOM     54  C   UNL A   1      43.228  27.671  32.242  1.00  0.00     0.049 A 
ATOM     55  H   UNL A   1      41.391  28.366  31.466  1.00  0.00     0.167 HD
ATOM     56  C   UNL A   1      42.267  29.023  34.092  1.00  0.00     0.074 A 
ATOM     57  C   UNL A   1      42.301  29.589  35.426  1.00  0.00     0.031 C 
ATOM     58  C   UNL A   1      43.239  28.228  33.575  1.00  0.00     0.034 A 
BRANCH  45  59
ATOM     59  C   UNL A   1      42.078  26.257  27.799  1.00  0.00     0.023 A 
ATOM     60  C   UNL A   1      41.604  24.939  27.664  1.00  0.00     0.031 A 
ATOM     61  C   UNL A   1      42.994  26.724  26.841  1.00  0.00     0.131 A 
ATOM     62  C   UNL A   1      42.127  24.104  26.664  1.00  0.00     0.055 A 
ATOM     63  C   UNL A   1      43.439  25.917  25.790  1.00  0.00     0.041 A 
ATOM     64  F   UNL A   1      43.496  27.966  26.923  1.00  0.00    -0.206 F 
ATOM     65  C   UNL A   1      43.022  24.591  25.710  1.00  0.00     0.022 A 
BRANCH  62  66
ATOM     66  S   UNL A   1      41.760  22.329  26.746  1.00  0.00     0.124 S 
ATOM     67  O   UNL A   1      42.167  21.882  25.416  1.00  0.00    -0.237 OA
ATOM     68  O   UNL A   1      42.597  21.884  27.854  1.00  0.00    -0.237 OA
ATOM     69  O   UNL A   1      40.321  22.288  26.994  1.00  0.00    -0.744 OA
ENDBRANCH  62  66
ENDBRANCH  45  59
BRANCH  46  70
ATOM     70  C   UNL A   1      38.691  31.769  35.456  1.00  0.00     0.023 A 
ATOM     71  C   UNL A   1      38.138  31.133  36.578  1.00  0.00     0.031 A 
ATOM     72  C   UNL A   1      38.733  33.174  35.445  1.00  0.00     0.131 A 
ATOM     73  C   UNL A   1      37.613  31.901  37.628  1.00  0.00     0.055 A 
ATOM     74  C   UNL A   1      38.249  33.933  36.512  1.00  0.00     0.041 A 
ATOM     75  F   UNL A   1      39.262  33.829  34.399  1.00  0.00    -0.206 F 
ATOM     76  C   UNL A   1      37.675  33.296  37.608  1.00  0.00     0.022 A 
BRANCH  73  77
ATOM     77  S   UNL A   1      36.796  31.046  39.005  1.00  0.00     0.124 S 
ATOM     78  O   UNL A   1      37.779  31.200  40.073  1.00  0.00    -0.237 OA
ATOM     79  O   UNL A   1      35.565  31.815  39.150  1.00  0.00    -0.237 OA
ATOM     80  O   UNL A   1      36.623  29.685  38.505  1.00  0.00    -0.744 OA
ENDBRANCH  73  77
ENDBRANCH  46  70
BRANCH  58  81
ATOM     81  C   UNL A   1      44.439  27.965  34.449  1.00  0.00     0.023 A 
ATOM     82  C   UNL A   1      44.497  26.861  35.317  1.00  0.00     0.031 A 
ATOM     83  C   UNL A   1      45.535  28.846  34.426  1.00  0.00     0.131 A 
ATOM     84  C   UNL A   1      45.603  26.695  36.163  1.00  0.00     0.055 A 
ATOM     85  C   UNL A   1      46.658  28.645  35.228  1.00  0.00     0.041 A 
ATOM     86  F   UNL A   1      45.531  29.920  33.618  1.00  0.00    -0.206 F 
ATOM     87  C   UNL A   1      46.691  27.571  36.114  1.00  0.00     0.022 A 
BRANCH  84  88
ATOM     88  S   UNL A   1      45.564  25.367  37.399  1.00  0.00     0.124 S 
ATOM     89  O   UNL A   1      46.226  24.275  36.691  1.00  0.00    -0.237 OA
ATOM     90  O   UNL A   1      46.307  25.951  38.510  1.00  0.00    -0.237 OA
ATOM     91  O   UNL A   1      44.137  25.169  37.645  1.00  0.00    -0.744 OA
ENDBRANCH  84  88
ENDBRANCH  58  81
ENDBRANCH  32  33
ENDBRANCH  24  27
ENDBRANCH  22  23
ENDBRANCH  21  22
ENDBRANCH   1  21
TORSDOF 18
ENDMDL
MODEL 2
REMARK VINA RESULT:     -10.8      5.256     10.507
REMARK SMILES CCCO[C@@H]1CCC[C@]([NH3+])(C(=O)NCCCCNC(=O)c2ccc(-c3c4nc(c(-c5cc(S(=O)(=O)[O-])ccc5F)c5ccc([nH]5)c(-c5cc(S(=O)(=O)[O-])ccc5F)c5nc(c(-c6cc(S(=O)(=O)[O-])ccc6F)c6ccc3[nH]6)C=C5)C=C4)cc2)C1
REMARK SMILES IDX 15 1 14 2 13 3 11 4 12 5 9 7 5 8 6 9 84 10 7 11 8 12 4 13
REMARK SMILES IDX 3 14 2 15 1 16 10 17 16 21 17 22 18 23 19 24 20 26 21 27
REMARK SMILES IDX 22 28 83 29 23 30 82 31 24 32 25 33 26 34 76 35 27 36 81 37
REMARK SMILES IDX 75 38 77 39 28 40 80 41 74 42 73 43 29 45 61 46 41 47 60 48
REMARK SMILES IDX 42 49 45 50 59 51 78 52 43 53 44 54 58 56 79 57 46 58 30 59
REMARK SMILES IDX 31 60 39 61 32 62 38 63 40 64 37 65 33 66 34 67 35 68 36 69
REMARK SMILES IDX 62 70 63 71 71 72 64 73 70 74 72 75 69 76 65 77 66 78 67 79
REMARK SMILES IDX 68 80 47 81 48 82 56 83 49 84 55 85 57 86 54 87 50 88 51 89
REMARK SMILES IDX 52 90 53 91
REMARK H PARENT 13 6 10 18 10 19 10 20 18 25 77 44 45 55
REMARK Flexibility Score: inf
ROOT
ATOM      1  C   UNL A   1      34.110  22.584  24.775  1.00  0.00     0.023 C 
ENDROOT
BRANCH   1   2
ATOM      2  C   UNL A   1      34.727  23.956  24.497  1.00  0.00     0.116 C 
BRANCH   2   3
ATOM      3  N   UNL A   1      34.388  24.464  23.181  1.00  0.00    -0.351 N 
ATOM      4  C   UNL A   1      33.558  25.439  22.718  1.00  0.00     0.281 C 
ATOM      5  O   UNL A   1      33.668  25.693  21.510  1.00  0.00    -0.268 OA
ATOM      6  H   UNL A   1      34.867  23.998  22.458  1.00  0.00     0.163 HD
BRANCH   4   7
ATOM      7  C   UNL A   1      32.470  26.174  23.561  1.00  0.00     0.176 C 
ATOM      8  C   UNL A   1      30.427  27.657  23.301  1.00  0.00     0.125 C 
ATOM      9  C   UNL A   1      31.057  28.713  24.224  1.00  0.00     0.032 C 
ATOM     10  C   UNL A   1      31.545  26.905  22.572  1.00  0.00     0.111 C 
ATOM     11  C   UNL A   1      32.099  28.123  25.179  1.00  0.00     0.010 C 
ATOM     12  C   UNL A   1      33.128  27.235  24.466  1.00  0.00     0.079 C 
BRANCH   8  13
ATOM     13  O   UNL A   1      29.571  28.324  22.367  1.00  0.00    -0.378 OA
BRANCH  13  14
ATOM     14  C   UNL A   1      28.232  28.542  22.831  1.00  0.00     0.160 C 
BRANCH  14  15
ATOM     15  C   UNL A   1      27.779  29.995  22.685  1.00  0.00     0.025 C 
ATOM     16  C   UNL A   1      28.229  30.637  21.376  1.00  0.00     0.006 C 
ENDBRANCH  14  15
ENDBRANCH  13  14
ENDBRANCH   8  13
BRANCH   7  17
ATOM     17  N   UNL A   1      31.644  25.292  24.405  1.00  0.00    -0.345 N 
ATOM     18  H   UNL A   1      31.945  24.325  24.284  1.00  0.00     0.345 HD
ATOM     19  H   UNL A   1      30.665  25.380  24.134  1.00  0.00     0.345 HD
ATOM     20  H   UNL A   1      31.751  25.560  25.384  1.00  0.00     0.345 HD
ENDBRANCH   7  17
ENDBRANCH   4   7
ENDBRANCH   2   3
ENDBRANCH   1   2
BRANCH   1  21
ATOM     21  C   UNL A   1      35.126  21.446  24.920  1.00  0.00     0.023 C 
BRANCH  21  22
ATOM     22  C   UNL A   1      36.534  21.867  25.338  1.00  0.00     0.116 C 
BRANCH  22  23
ATOM     23  N   UNL A   1      37.486  20.772  25.390  1.00  0.00    -0.352 N 
ATOM     24  C   UNL A   1      38.800  20.807  25.817  1.00  0.00     0.251 C 
ATOM     25  H   UNL A   1      37.155  19.897  25.084  1.00  0.00     0.163 HD
ATOM     26  O   UNL A   1      39.506  19.822  25.716  1.00  0.00    -0.269 OA
BRANCH  24  27
ATOM     27  C   UNL A   1      39.339  22.082  26.342  1.00  0.00     0.039 A 
ATOM     28  C   UNL A   1      40.397  22.040  27.253  1.00  0.00     0.014 A 
ATOM     29  C   UNL A   1      38.844  23.304  25.886  1.00  0.00     0.014 A 
ATOM     30  C   UNL A   1      41.011  23.229  27.648  1.00  0.00     0.010 A 
ATOM     31  C   UNL A   1      39.501  24.482  26.226  1.00  0.00     0.010 A 
ATOM     32  C   UNL A   1      40.596  24.456  27.104  1.00  0.00    -0.014 A 
BRANCH  32  33
ATOM     33  C   UNL A   1      41.296  25.723  27.435  1.00  0.00     0.031 A 
ATOM     34  C   UNL A   1      40.602  26.772  28.258  1.00  0.00     0.074 A 
ATOM     35  C   UNL A   1      42.521  25.959  26.925  1.00  0.00     0.049 A 
ATOM     36  N   UNL A   1      41.011  27.970  28.589  1.00  0.00    -0.248 NA
ATOM     37  C   UNL A   1      39.254  26.440  28.737  1.00  0.00     0.031 C 
ATOM     38  C   UNL A   1      43.275  25.037  26.073  1.00  0.00     0.029 A 
ATOM     39  N   UNL A   1      43.345  27.050  27.042  1.00  0.00    -0.354 N 
ATOM     40  C   UNL A   1      39.961  28.544  29.299  1.00  0.00     0.074 A 
ATOM     41  C   UNL A   1      38.877  27.583  29.289  1.00  0.00     0.031 C 
ATOM     42  C   UNL A   1      44.463  25.587  25.774  1.00  0.00     0.029 A 
ATOM     43  C   UNL A   1      44.539  26.914  26.374  1.00  0.00     0.049 A 
ATOM     44  H   UNL A   1      43.104  27.853  27.557  1.00  0.00     0.167 HD
ATOM     45  C   UNL A   1      39.914  29.750  29.920  1.00  0.00     0.034 A 
ATOM     46  C   UNL A   1      45.577  27.766  26.258  1.00  0.00     0.034 A 
ATOM     47  C   UNL A   1      41.014  30.684  29.932  1.00  0.00     0.049 A 
ATOM     48  C   UNL A   1      45.499  29.106  26.940  1.00  0.00     0.074 A 
ATOM     49  C   UNL A   1      41.111  31.895  30.596  1.00  0.00     0.029 A 
ATOM     50  N   UNL A   1      42.206  30.518  29.238  1.00  0.00    -0.354 N 
ATOM     51  N   UNL A   1      44.525  29.611  27.664  1.00  0.00    -0.248 NA
ATOM     52  C   UNL A   1      46.663  29.989  26.794  1.00  0.00     0.031 C 
ATOM     53  C   UNL A   1      42.329  32.491  30.249  1.00  0.00     0.029 A 
ATOM     54  C   UNL A   1      43.028  31.620  29.427  1.00  0.00     0.049 A 
ATOM     55  H   UNL A   1      42.435  29.732  28.691  1.00  0.00     0.167 HD
ATOM     56  C   UNL A   1      44.976  30.858  28.087  1.00  0.00     0.074 A 
ATOM     57  C   UNL A   1      46.309  31.024  27.543  1.00  0.00     0.031 C 
ATOM     58  C   UNL A   1      44.348  31.779  28.863  1.00  0.00     0.034 A 
BRANCH  45  59
ATOM     59  C   UNL A   1      38.619  30.122  30.603  1.00  0.00     0.023 A 
ATOM     60  C   UNL A   1      37.629  30.879  29.949  1.00  0.00     0.031 A 
ATOM     61  C   UNL A   1      38.394  29.771  31.945  1.00  0.00     0.131 A 
ATOM     62  C   UNL A   1      36.517  31.348  30.664  1.00  0.00     0.055 A 
ATOM     63  C   UNL A   1      37.237  30.162  32.626  1.00  0.00     0.041 A 
ATOM     64  F   UNL A   1      39.307  29.066  32.631  1.00  0.00    -0.206 F 
ATOM     65  C   UNL A   1      36.301  30.974  31.992  1.00  0.00     0.022 A 
BRANCH  62  66
ATOM     66  S   UNL A   1      35.461  32.602  29.888  1.00  0.00     0.124 S 
ATOM     67  O   UNL A   1      34.375  32.716  30.860  1.00  0.00    -0.237 OA
ATOM     68  O   UNL A   1      36.353  33.751  29.791  1.00  0.00    -0.237 OA
ATOM     69  O   UNL A   1      35.085  31.993  28.615  1.00  0.00    -0.744 OA
ENDBRANCH  62  66
ENDBRANCH  45  59
BRANCH  46  70
ATOM     70  C   UNL A   1      46.786  27.378  25.480  1.00  0.00     0.023 A 
ATOM     71  C   UNL A   1      46.953  27.808  24.154  1.00  0.00     0.031 A 
ATOM     72  C   UNL A   1      47.780  26.556  26.039  1.00  0.00     0.131 A 
ATOM     73  C   UNL A   1      48.068  27.385  23.417  1.00  0.00     0.055 A 
ATOM     74  C   UNL A   1      48.911  26.173  25.315  1.00  0.00     0.041 A 
ATOM     75  F   UNL A   1      47.672  26.126  27.306  1.00  0.00    -0.206 F 
ATOM     76  C   UNL A   1      49.055  26.579  23.992  1.00  0.00     0.022 A 
BRANCH  73  77
ATOM     77  S   UNL A   1      48.187  27.862  21.671  1.00  0.00     0.124 S 
ATOM     78  O   UNL A   1      46.854  28.398  21.419  1.00  0.00    -0.237 OA
ATOM     79  O   UNL A   1      49.276  28.833  21.696  1.00  0.00    -0.237 OA
ATOM     80  O   UNL A   1      48.494  26.604  20.995  1.00  0.00    -0.744 OA
ENDBRANCH  73  77
ENDBRANCH  46  70
BRANCH  58  81
ATOM     81  C   UNL A   1      45.123  33.028  29.199  1.00  0.00     0.023 A 
ATOM     82  C   UNL A   1      45.042  34.187  28.406  1.00  0.00     0.031 A 
ATOM     83  C   UNL A   1      45.971  33.052  30.320  1.00  0.00     0.131 A 
ATOM     84  C   UNL A   1      45.835  35.301  28.716  1.00  0.00     0.055 A 
ATOM     85  C   UNL A   1      46.714  34.183  30.657  1.00  0.00     0.041 A 
ATOM     86  F   UNL A   1      46.090  31.972  31.110  1.00  0.00    -0.206 F 
ATOM     87  C   UNL A   1      46.659  35.313  29.845  1.00  0.00     0.022 A 
BRANCH  84  88
ATOM     88  S   UNL A   1      45.844  36.709  27.572  1.00  0.00     0.124 S 
ATOM     89  O   UNL A   1      46.010  36.049  26.280  1.00  0.00    -0.237 OA
ATOM     90  O   UNL A   1      44.541  37.318  27.815  1.00  0.00    -0.237 OA
ATOM     91  O   UNL A   1      46.990  37.502  28.013  1.00  0.00    -0.744 OA
ENDBRANCH  84  88
ENDBRANCH  58  81
ENDBRANCH  32  33
ENDBRANCH  24  27
ENDBRANCH  22  23
ENDBRANCH  21  22
ENDBRANCH   1  21
TORSDOF 18
ENDMDL
MODEL 3
REMARK VINA RESULT:     -10.8      1.325      1.889
REMARK SMILES CCCO[C@@H]1CCC[C@]([NH3+])(C(=O)NCCCCNC(=O)c2ccc(-c3c4nc(c(-c5cc(S(=O)(=O)[O-])ccc5F)c5ccc([nH]5)c(-c5cc(S(=O)(=O)[O-])ccc5F)c5nc(c(-c6cc(S(=O)(=O)[O-])ccc6F)c6ccc3[nH]6)C=C5)C=C4)cc2)C1
REMARK SMILES IDX 15 1 14 2 13 3 11 4 12 5 9 7 5 8 6 9 84 10 7 11 8 12 4 13
REMARK SMILES IDX 3 14 2 15 1 16 10 17 16 21 17 22 18 23 19 24 20 26 21 27
REMARK SMILES IDX 22 28 83 29 23 30 82 31 24 32 25 33 26 34 76 35 27 36 81 37
REMARK SMILES IDX 75 38 77 39 28 40 80 41 74 42 73 43 29 45 61 46 41 47 60 48
REMARK SMILES IDX 42 49 45 50 59 51 78 52 43 53 44 54 58 56 79 57 46 58 30 59
REMARK SMILES IDX 31 60 39 61 32 62 38 63 40 64 37 65 33 66 34 67 35 68 36 69
REMARK SMILES IDX 62 70 63 71 71 72 64 73 70 74 72 75 69 76 65 77 66 78 67 79
REMARK SMILES IDX 68 80 47 81 48 82 56 83 49 84 55 85 57 86 54 87 50 88 51 89
REMARK SMILES IDX 52 90 53 91
REMARK H PARENT 13 6 10 18 10 19 10 20 18 25 77 44 45 55
REMARK Flexibility Score: inf
ROOT
ATOM      1  C   UNL A   1      30.941  28.613  24.140  1.00  0.00     0.023 C 
ENDROOT
BRANCH   1   2
ATOM      2  C   UNL A   1      30.393  27.222  23.816  1.00  0.00     0.116 C 
BRANCH   2   3
ATOM      3  N   UNL A   1      30.239  26.394  24.998  1.00  0.00    -0.351 N 
ATOM      4  C   UNL A   1      30.630  25.135  25.340  1.00  0.00     0.281 C 
ATOM      5  O   UNL A   1      30.450  24.834  26.528  1.00  0.00    -0.268 OA
ATOM      6  H   UNL A   1      29.738  26.844  25.716  1.00  0.00     0.163 HD
BRANCH   4   7
ATOM      7  C   UNL A   1      31.199  24.067  24.354  1.00  0.00     0.176 C 
ATOM      8  C   UNL A   1      31.883  21.626  24.256  1.00  0.00     0.125 C 
ATOM      9  C   UNL A   1      33.281  22.021  23.752  1.00  0.00     0.032 C 
ATOM     10  C   UNL A   1      31.337  22.752  25.140  1.00  0.00     0.111 C 
ATOM     11  C   UNL A   1      33.298  23.386  23.057  1.00  0.00     0.010 C 
ATOM     12  C   UNL A   1      32.605  24.483  23.876  1.00  0.00     0.079 C 
BRANCH   8  13
ATOM     13  O   UNL A   1      31.998  20.407  24.999  1.00  0.00    -0.378 OA
BRANCH  13  14
ATOM     14  C   UNL A   1      33.050  19.536  24.564  1.00  0.00     0.160 C 
BRANCH  14  15
ATOM     15  C   UNL A   1      32.531  18.250  23.918  1.00  0.00     0.025 C 
ATOM     16  C   UNL A   1      33.645  17.313  23.465  1.00  0.00     0.006 C 
ENDBRANCH  14  15
ENDBRANCH  13  14
ENDBRANCH   8  13
BRANCH   7  17
ATOM     17  N   UNL A   1      30.362  23.815  23.168  1.00  0.00    -0.345 N 
ATOM     18  H   UNL A   1      29.389  23.709  23.455  1.00  0.00     0.345 HD
ATOM     19  H   UNL A   1      30.674  22.961  22.706  1.00  0.00     0.345 HD
ATOM     20  H   UNL A   1      30.442  24.600  22.522  1.00  0.00     0.345 HD
ENDBRANCH   7  17
ENDBRANCH   4   7
ENDBRANCH   2   3
ENDBRANCH   1   2
BRANCH   1  21
ATOM     21  C   UNL A   1      32.459  28.753  23.981  1.00  0.00     0.023 C 
BRANCH  21  22
ATOM     22  C   UNL A   1      33.200  29.312  25.194  1.00  0.00     0.116 C 
BRANCH  22  23
ATOM     23  N   UNL A   1      32.567  30.476  25.788  1.00  0.00    -0.352 N 
ATOM     24  C   UNL A   1      33.012  31.236  26.854  1.00  0.00     0.251 C 
ATOM     25  H   UNL A   1      31.718  30.760  25.380  1.00  0.00     0.163 HD
ATOM     26  O   UNL A   1      32.322  32.134  27.299  1.00  0.00    -0.269 OA
BRANCH  24  27
ATOM     27  C   UNL A   1      34.312  30.893  27.473  1.00  0.00     0.039 A 
ATOM     28  C   UNL A   1      35.227  31.917  27.724  1.00  0.00     0.014 A 
ATOM     29  C   UNL A   1      34.591  29.581  27.858  1.00  0.00     0.014 A 
ATOM     30  C   UNL A   1      36.394  31.636  28.435  1.00  0.00     0.010 A 
ATOM     31  C   UNL A   1      35.720  29.316  28.627  1.00  0.00     0.010 A 
ATOM     32  C   UNL A   1      36.629  30.342  28.929  1.00  0.00    -0.014 A 
BRANCH  32  33
ATOM     33  C   UNL A   1      37.815  30.040  29.771  1.00  0.00     0.031 A 
ATOM     34  C   UNL A   1      38.904  29.150  29.241  1.00  0.00     0.074 A 
ATOM     35  C   UNL A   1      37.869  30.501  31.035  1.00  0.00     0.049 A 
ATOM     36  N   UNL A   1      39.978  28.707  29.843  1.00  0.00    -0.248 NA
ATOM     37  C   UNL A   1      38.740  28.664  27.865  1.00  0.00     0.031 C 
ATOM     38  C   UNL A   1      36.849  31.335  31.676  1.00  0.00     0.029 A 
ATOM     39  N   UNL A   1      38.817  30.329  32.012  1.00  0.00    -0.354 N 
ATOM     40  C   UNL A   1      40.609  27.872  28.925  1.00  0.00     0.074 A 
ATOM     41  C   UNL A   1      39.757  27.824  27.754  1.00  0.00     0.031 C 
ATOM     42  C   UNL A   1      37.242  31.628  32.926  1.00  0.00     0.029 A 
ATOM     43  C   UNL A   1      38.518  30.972  33.191  1.00  0.00     0.049 A 
ATOM     44  H   UNL A   1      39.634  29.797  31.881  1.00  0.00     0.167 HD
ATOM     45  C   UNL A   1      41.796  27.227  29.040  1.00  0.00     0.034 A 
ATOM     46  C   UNL A   1      39.197  31.023  34.354  1.00  0.00     0.034 A 
ATOM     47  C   UNL A   1      42.637  27.304  30.210  1.00  0.00     0.049 A 
ATOM     48  C   UNL A   1      40.505  30.285  34.467  1.00  0.00     0.074 A 
ATOM     49  C   UNL A   1      43.895  26.761  30.407  1.00  0.00     0.029 A 
ATOM     50  N   UNL A   1      42.300  27.957  31.390  1.00  0.00    -0.354 N 
ATOM     51  N   UNL A   1      41.122  29.552  33.568  1.00  0.00    -0.248 NA
ATOM     52  C   UNL A   1      41.210  30.387  35.751  1.00  0.00     0.031 C 
ATOM     53  C   UNL A   1      44.288  27.028  31.724  1.00  0.00     0.029 A 
ATOM     54  C   UNL A   1      43.309  27.800  32.329  1.00  0.00     0.049 A 
ATOM     55  H   UNL A   1      41.466  28.459  31.537  1.00  0.00     0.167 HD
ATOM     56  C   UNL A   1      42.305  29.133  34.170  1.00  0.00     0.074 A 
ATOM     57  C   UNL A   1      42.317  29.701  35.503  1.00  0.00     0.031 C 
ATOM     58  C   UNL A   1      43.297  28.357  33.662  1.00  0.00     0.034 A 
BRANCH  45  59
ATOM     59  C   UNL A   1      42.225  26.361  27.877  1.00  0.00     0.023 A 
ATOM     60  C   UNL A   1      41.872  25.002  27.798  1.00  0.00     0.031 A 
ATOM     61  C   UNL A   1      43.048  26.884  26.865  1.00  0.00     0.131 A 
ATOM     62  C   UNL A   1      42.424  24.190  26.795  1.00  0.00     0.055 A 
ATOM     63  C   UNL A   1      43.519  26.091  25.814  1.00  0.00     0.041 A 
ATOM     64  F   UNL A   1      43.435  28.169  26.892  1.00  0.00    -0.206 F 
ATOM     65  C   UNL A   1      43.225  24.731  25.787  1.00  0.00     0.022 A 
BRANCH  62  66
ATOM     66  S   UNL A   1      42.230  22.392  26.938  1.00  0.00     0.124 S 
ATOM     67  O   UNL A   1      43.479  21.913  26.349  1.00  0.00    -0.237 OA
ATOM     68  O   UNL A   1      42.088  22.203  28.377  1.00  0.00    -0.237 OA
ATOM     69  O   UNL A   1      41.032  22.114  26.149  1.00  0.00    -0.744 OA
ENDBRANCH  62  66
ENDBRANCH  45  59
BRANCH  46  70
ATOM     70  C   UNL A   1      38.666  31.810  35.501  1.00  0.00     0.023 A 
ATOM     71  C   UNL A   1      38.130  31.165  36.626  1.00  0.00     0.031 A 
ATOM     72  C   UNL A   1      38.666  33.216  35.482  1.00  0.00     0.131 A 
ATOM     73  C   UNL A   1      37.580  31.921  37.671  1.00  0.00     0.055 A 
ATOM     74  C   UNL A   1      38.158  33.966  36.545  1.00  0.00     0.041 A 
ATOM     75  F   UNL A   1      39.177  33.881  34.434  1.00  0.00    -0.206 F 
ATOM     76  C   UNL A   1      37.601  33.318  37.644  1.00  0.00     0.022 A 
BRANCH  73  77
ATOM     77  S   UNL A   1      36.787  31.050  39.051  1.00  0.00     0.124 S 
ATOM     78  O   UNL A   1      36.633  29.707  38.503  1.00  0.00    -0.237 OA
ATOM     79  O   UNL A   1      37.777  31.201  40.112  1.00  0.00    -0.237 OA
ATOM     80  O   UNL A   1      35.545  31.791  39.251  1.00  0.00    -0.744 OA
ENDBRANCH  73  77
ENDBRANCH  46  70
BRANCH  58  81
ATOM     81  C   UNL A   1      44.495  28.118  34.546  1.00  0.00     0.023 A 
ATOM     82  C   UNL A   1      44.522  27.080  35.494  1.00  0.00     0.031 A 
ATOM     83  C   UNL A   1      45.620  28.956  34.451  1.00  0.00     0.131 A 
ATOM     84  C   UNL A   1      45.628  26.939  36.344  1.00  0.00     0.055 A 
ATOM     85  C   UNL A   1      46.742  28.776  35.260  1.00  0.00     0.041 A 
ATOM     86  F   UNL A   1      45.647  29.966  33.566  1.00  0.00    -0.206 F 
ATOM     87  C   UNL A   1      46.745  27.770  36.223  1.00  0.00     0.022 A 
BRANCH  84  88
ATOM     88  S   UNL A   1      45.553  25.708  37.675  1.00  0.00     0.124 S 
ATOM     89  O   UNL A   1      44.660  26.352  38.634  1.00  0.00    -0.237 OA
ATOM     90  O   UNL A   1      45.016  24.538  36.988  1.00  0.00    -0.237 OA
ATOM     91  O   UNL A   1      46.943  25.587  38.109  1.00  0.00    -0.744 OA
ENDBRANCH  84  88
ENDBRANCH  58  81
ENDBRANCH  32  33
ENDBRANCH  24  27
ENDBRANCH  22  23
ENDBRANCH  21  22
ENDBRANCH   1  21
TORSDOF 18
ENDMDL
