MODEL 1
REMARK VINA RESULT:     -11.4      0.000      0.000
REMARK SMILES CC(=O)Nc1ccc(/C(=C\c2ccc(S(C)(=O)=O)cc2)C(=O)NCCCCNC(=O)c2ccc(-c3c4nc(c(-c5cc(S(=O)(=O)[O-])ccc5F)c5ccc([nH]5)c(-c5cc(S(=O)(=O)[O-])ccc5F)c5nc(c(-c6cc(S(=O)(=O)[O-])ccc6F)c6ccc3[nH]6)C=C5)C=C4)cc2)cc1
REMARK SMILES IDX 26 1 25 2 24 3 23 4 21 5 22 6 9 8 10 9 8 10 5 11 6 12 95 13
REMARK SMILES IDX 7 14 94 15 4 16 1 17 2 18 3 19 11 21 12 22 20 23 13 24 19 25
REMARK SMILES IDX 14 26 15 27 16 28 17 29 18 30 27 31 28 32 29 33 30 35 31 36
REMARK SMILES IDX 32 37 93 38 33 39 92 40 34 41 35 42 36 43 86 44 37 45 91 46
REMARK SMILES IDX 85 47 87 48 38 49 90 50 84 51 83 52 39 54 71 55 51 56 70 57
REMARK SMILES IDX 52 58 55 59 69 60 88 61 53 62 54 63 68 65 89 66 56 67 40 68
REMARK SMILES IDX 41 69 49 70 42 71 48 72 50 73 47 74 43 75 44 76 45 77 46 78
REMARK SMILES IDX 72 79 73 80 81 81 74 82 80 83 82 84 79 85 75 86 76 87 77 88
REMARK SMILES IDX 78 89 57 90 58 91 66 92 59 93 65 94 67 95 64 96 60 97 61 98
REMARK SMILES IDX 62 99 63 100
REMARK H PARENT 23 7 4 20 28 34 87 53 55 64
REMARK Flexibility Score: inf
ROOT
ATOM      1  C   UNL A   1      42.491  21.464  26.601  1.00  0.00     0.023 C 
ENDROOT
BRANCH   1   2
ATOM      2  C   UNL A   1      41.216  21.462  27.453  1.00  0.00     0.023 C 
BRANCH   2   3
ATOM      3  C   UNL A   1      39.919  21.562  26.643  1.00  0.00     0.116 C 
BRANCH   3   4
ATOM      4  N   UNL A   1      39.388  22.909  26.699  1.00  0.00    -0.352 N 
ATOM      5  C   UNL A   1      38.194  23.496  26.426  1.00  0.00     0.251 C 
ATOM      6  O   UNL A   1      38.184  24.708  26.658  1.00  0.00    -0.269 OA
ATOM      7  H   UNL A   1      40.058  23.559  27.012  1.00  0.00     0.163 HD
BRANCH   5   8
ATOM      8  C   UNL A   1      36.936  22.769  25.939  1.00  0.00     0.047 C 
ATOM      9  C   UNL A   1      37.069  21.524  25.421  1.00  0.00     0.022 C 
BRANCH   8  10
ATOM     10  C   UNL A   1      35.620  23.514  25.873  1.00  0.00    -0.013 A 
ATOM     11  C   UNL A   1      33.008  24.592  25.394  1.00  0.00     0.041 A 
ATOM     12  C   UNL A   1      33.284  23.854  26.547  1.00  0.00     0.027 A 
ATOM     13  C   UNL A   1      34.072  24.913  24.570  1.00  0.00     0.027 A 
ATOM     14  C   UNL A   1      34.578  23.357  26.798  1.00  0.00     0.011 A 
ATOM     15  C   UNL A   1      35.337  24.356  24.786  1.00  0.00     0.011 A 
BRANCH  11  16
ATOM     16  N   UNL A   1      31.676  24.964  25.154  1.00  0.00    -0.326 N 
ATOM     17  C   UNL A   1      31.438  26.989  26.612  1.00  0.00     0.114 C 
ATOM     18  C   UNL A   1      30.885  25.947  25.678  1.00  0.00     0.221 C 
ATOM     19  O   UNL A   1      29.700  25.994  25.333  1.00  0.00    -0.275 OA
ATOM     20  H   UNL A   1      31.224  24.409  24.476  1.00  0.00     0.169 HD
ENDBRANCH  11  16
ENDBRANCH   8  10
BRANCH   9  21
ATOM     21  C   UNL A   1      36.053  20.541  25.021  1.00  0.00    -0.025 A 
ATOM     22  C   UNL A   1      36.457  19.201  24.887  1.00  0.00     0.009 A 
ATOM     23  C   UNL A   1      34.716  20.886  24.805  1.00  0.00     0.009 A 
ATOM     24  C   UNL A   1      35.525  18.206  24.587  1.00  0.00     0.021 A 
ATOM     25  C   UNL A   1      33.777  19.893  24.510  1.00  0.00     0.021 A 
ATOM     26  C   UNL A   1      34.187  18.560  24.405  1.00  0.00     0.067 A 
BRANCH  26  27
ATOM     27  S   UNL A   1      32.990  17.278  24.122  1.00  0.00     0.175 S 
ATOM     28  C   UNL A   1      33.746  15.833  24.816  1.00  0.00     0.163 C 
ATOM     29  O   UNL A   1      31.818  17.602  24.910  1.00  0.00    -0.224 OA
ATOM     30  O   UNL A   1      32.886  17.079  22.687  1.00  0.00    -0.224 OA
ENDBRANCH  26  27
ENDBRANCH   9  21
ENDBRANCH   5   8
ENDBRANCH   3   4
ENDBRANCH   2   3
ENDBRANCH   1   2
BRANCH   1  31
ATOM     31  C   UNL A   1      42.449  22.373  25.378  1.00  0.00     0.116 C 
BRANCH  31  32
ATOM     32  N   UNL A   1      43.726  22.451  24.684  1.00  0.00    -0.352 N 
ATOM     33  C   UNL A   1      44.616  23.497  24.645  1.00  0.00     0.251 C 
ATOM     34  H   UNL A   1      43.986  21.650  24.174  1.00  0.00     0.163 HD
ATOM     35  O   UNL A   1      45.590  23.447  23.901  1.00  0.00    -0.269 OA
BRANCH  33  36
ATOM     36  C   UNL A   1      44.355  24.689  25.476  1.00  0.00     0.039 A 
ATOM     37  C   UNL A   1      44.775  24.687  26.808  1.00  0.00     0.014 A 
ATOM     38  C   UNL A   1      43.756  25.822  24.922  1.00  0.00     0.014 A 
ATOM     39  C   UNL A   1      44.661  25.854  27.563  1.00  0.00     0.010 A 
ATOM     40  C   UNL A   1      43.713  27.004  25.653  1.00  0.00     0.010 A 
ATOM     41  C   UNL A   1      44.172  27.035  26.979  1.00  0.00    -0.014 A 
BRANCH  41  42
ATOM     42  C   UNL A   1      44.154  28.314  27.734  1.00  0.00     0.031 A 
ATOM     43  C   UNL A   1      42.870  28.825  28.325  1.00  0.00     0.074 A 
ATOM     44  C   UNL A   1      45.284  29.043  27.827  1.00  0.00     0.049 A 
ATOM     45  N   UNL A   1      42.641  29.944  28.960  1.00  0.00    -0.248 NA
ATOM     46  C   UNL A   1      41.680  27.979  28.149  1.00  0.00     0.031 C 
ATOM     47  C   UNL A   1      46.579  28.671  27.250  1.00  0.00     0.029 A 
ATOM     48  N   UNL A   1      45.528  30.251  28.431  1.00  0.00    -0.354 N 
ATOM     49  C   UNL A   1      41.281  29.944  29.251  1.00  0.00     0.074 A 
ATOM     50  C   UNL A   1      40.729  28.741  28.665  1.00  0.00     0.031 C 
ATOM     51  C   UNL A   1      47.482  29.617  27.550  1.00  0.00     0.029 A 
ATOM     52  C   UNL A   1      46.826  30.687  28.293  1.00  0.00     0.049 A 
ATOM     53  H   UNL A   1      44.838  30.760  28.916  1.00  0.00     0.167 HD
ATOM     54  C   UNL A   1      40.566  30.853  29.959  1.00  0.00     0.034 A 
ATOM     55  C   UNL A   1      47.417  31.828  28.700  1.00  0.00     0.034 A 
ATOM     56  C   UNL A   1      41.139  32.043  30.541  1.00  0.00     0.049 A 
ATOM     57  C   UNL A   1      46.595  32.839  29.460  1.00  0.00     0.074 A 
ATOM     58  C   UNL A   1      40.525  32.994  31.336  1.00  0.00     0.029 A 
ATOM     59  N   UNL A   1      42.456  32.457  30.375  1.00  0.00    -0.354 N 
ATOM     60  N   UNL A   1      45.324  32.789  29.790  1.00  0.00    -0.248 NA
ATOM     61  C   UNL A   1      47.287  34.052  29.911  1.00  0.00     0.031 C 
ATOM     62  C   UNL A   1      41.442  34.022  31.579  1.00  0.00     0.029 A 
ATOM     63  C   UNL A   1      42.658  33.672  31.014  1.00  0.00     0.049 A 
ATOM     64  H   UNL A   1      43.145  31.960  29.877  1.00  0.00     0.167 HD
ATOM     65  C   UNL A   1      45.074  33.954  30.508  1.00  0.00     0.074 A 
ATOM     66  C   UNL A   1      46.329  34.675  30.581  1.00  0.00     0.031 C 
ATOM     67  C   UNL A   1      43.912  34.390  31.061  1.00  0.00     0.034 A 
BRANCH  54  68
ATOM     68  C   UNL A   1      39.083  30.608  30.113  1.00  0.00     0.023 A 
ATOM     69  C   UNL A   1      38.140  31.208  29.259  1.00  0.00     0.031 A 
ATOM     70  C   UNL A   1      38.601  29.784  31.145  1.00  0.00     0.131 A 
ATOM     71  C   UNL A   1      36.767  31.041  29.502  1.00  0.00     0.055 A 
ATOM     72  C   UNL A   1      37.236  29.550  31.326  1.00  0.00     0.041 A 
ATOM     73  F   UNL A   1      39.448  29.202  32.008  1.00  0.00    -0.206 F 
ATOM     74  C   UNL A   1      36.309  30.194  30.511  1.00  0.00     0.022 A 
BRANCH  71  75
ATOM     75  S   UNL A   1      35.595  32.072  28.577  1.00  0.00     0.124 S 
ATOM     76  O   UNL A   1      34.611  32.396  29.608  1.00  0.00    -0.237 OA
ATOM     77  O   UNL A   1      36.433  33.175  28.124  1.00  0.00    -0.237 OA
ATOM     78  O   UNL A   1      35.111  31.180  27.525  1.00  0.00    -0.744 OA
ENDBRANCH  71  75
ENDBRANCH  54  68
BRANCH  55  79
ATOM     79  C   UNL A   1      48.850  32.091  28.382  1.00  0.00     0.023 A 
ATOM     80  C   UNL A   1      49.223  32.790  27.223  1.00  0.00     0.031 A 
ATOM     81  C   UNL A   1      49.876  31.612  29.218  1.00  0.00     0.131 A 
ATOM     82  C   UNL A   1      50.582  32.952  26.909  1.00  0.00     0.055 A 
ATOM     83  C   UNL A   1      51.225  31.826  28.932  1.00  0.00     0.041 A 
ATOM     84  F   UNL A   1      49.577  30.938  30.341  1.00  0.00    -0.206 F 
ATOM     85  C   UNL A   1      51.585  32.489  27.764  1.00  0.00     0.022 A 
BRANCH  82  86
ATOM     86  S   UNL A   1      51.023  33.705  25.318  1.00  0.00     0.124 S 
ATOM     87  O   UNL A   1      51.342  32.531  24.514  1.00  0.00    -0.237 OA
ATOM     88  O   UNL A   1      49.797  34.411  24.966  1.00  0.00    -0.237 OA
ATOM     89  O   UNL A   1      52.159  34.561  25.651  1.00  0.00    -0.744 OA
ENDBRANCH  82  86
ENDBRANCH  55  79
BRANCH  67  90
ATOM     90  C   UNL A   1      43.959  35.693  31.823  1.00  0.00     0.023 A 
ATOM     91  C   UNL A   1      43.856  36.935  31.172  1.00  0.00     0.031 A 
ATOM     92  C   UNL A   1      44.113  35.692  33.221  1.00  0.00     0.131 A 
ATOM     93  C   UNL A   1      43.968  38.123  31.910  1.00  0.00     0.055 A 
ATOM     94  C   UNL A   1      44.154  36.875  33.958  1.00  0.00     0.041 A 
ATOM     95  F   UNL A   1      44.222  34.535  33.895  1.00  0.00    -0.206 F 
ATOM     96  C   UNL A   1      44.095  38.101  33.301  1.00  0.00     0.022 A 
BRANCH  93  97
ATOM     97  S   UNL A   1      44.046  39.700  31.017  1.00  0.00     0.124 S 
ATOM     98  O   UNL A   1      43.150  39.453  29.891  1.00  0.00    -0.237 OA
ATOM     99  O   UNL A   1      43.567  40.649  32.016  1.00  0.00    -0.237 OA
ATOM    100  O   UNL A   1      45.460  39.827  30.669  1.00  0.00    -0.744 OA
ENDBRANCH  93  97
ENDBRANCH  67  90
ENDBRANCH  41  42
ENDBRANCH  33  36
ENDBRANCH  31  32
ENDBRANCH   1  31
TORSDOF 18
ENDMDL
MODEL 2
REMARK VINA RESULT:     -11.0      6.230     15.099
REMARK SMILES CC(=O)Nc1ccc(/C(=C\c2ccc(S(C)(=O)=O)cc2)C(=O)NCCCCNC(=O)c2ccc(-c3c4nc(c(-c5cc(S(=O)(=O)[O-])ccc5F)c5ccc([nH]5)c(-c5cc(S(=O)(=O)[O-])ccc5F)c5nc(c(-c6cc(S(=O)(=O)[O-])ccc6F)c6ccc3[nH]6)C=C5)C=C4)cc2)cc1
REMARK SMILES IDX 26 1 25 2 24 3 23 4 21 5 22 6 9 8 10 9 8 10 5 11 6 12 95 13
REMARK SMILES IDX 7 14 94 15 4 16 1 17 2 18 3 19 11 21 12 22 20 23 13 24 19 25
REMARK SMILES IDX 14 26 15 27 16 28 17 29 18 30 27 31 28 32 29 33 30 35 31 36
REMARK SMILES IDX 32 37 93 38 33 39 92 40 34 41 35 42 36 43 86 44 37 45 91 46
REMARK SMILES IDX 85 47 87 48 38 49 90 50 84 51 83 52 39 54 71 55 51 56 70 57
REMARK SMILES IDX 52 58 55 59 69 60 88 61 53 62 54 63 68 65 89 66 56 67 40 68
REMARK SMILES IDX 41 69 49 70 42 71 48 72 50 73 47 74 43 75 44 76 45 77 46 78
REMARK SMILES IDX 72 79 73 80 81 81 74 82 80 83 82 84 79 85 75 86 76 87 77 88
REMARK SMILES IDX 78 89 57 90 58 91 66 92 59 93 65 94 67 95 64 96 60 97 61 98
REMARK SMILES IDX 62 99 63 100
REMARK H PARENT 23 7 4 20 28 34 87 53 55 64
REMARK Flexibility Score: inf
ROOT
ATOM      1  C   UNL A   1      46.755  42.415  32.645  1.00  0.00     0.023 C 
ENDROOT
BRANCH   1   2
ATOM      2  C   UNL A   1      46.193  41.452  31.593  1.00  0.00     0.023 C 
BRANCH   2   3
ATOM      3  C   UNL A   1      45.452  42.140  30.442  1.00  0.00     0.116 C 
BRANCH   3   4
ATOM      4  N   UNL A   1      44.019  42.047  30.633  1.00  0.00    -0.352 N 
ATOM      5  C   UNL A   1      43.014  41.302  30.106  1.00  0.00     0.251 C 
ATOM      6  O   UNL A   1      41.913  41.545  30.608  1.00  0.00    -0.269 OA
ATOM      7  H   UNL A   1      43.694  42.681  31.312  1.00  0.00     0.163 HD
BRANCH   5   8
ATOM      8  C   UNL A   1      43.179  40.210  29.042  1.00  0.00     0.047 C 
ATOM      9  C   UNL A   1      43.794  39.055  29.393  1.00  0.00     0.022 C 
BRANCH   8  10
ATOM     10  C   UNL A   1      42.832  40.513  27.601  1.00  0.00    -0.013 A 
ATOM     11  C   UNL A   1      42.012  41.526  25.049  1.00  0.00     0.041 A 
ATOM     12  C   UNL A   1      43.363  41.445  25.392  1.00  0.00     0.027 A 
ATOM     13  C   UNL A   1      41.095  40.962  25.917  1.00  0.00     0.027 A 
ATOM     14  C   UNL A   1      43.766  40.912  26.632  1.00  0.00     0.011 A 
ATOM     15  C   UNL A   1      41.493  40.502  27.177  1.00  0.00     0.011 A 
BRANCH  11  16
ATOM     16  N   UNL A   1      41.676  42.167  23.844  1.00  0.00    -0.326 N 
ATOM     17  C   UNL A   1      43.303  44.074  23.807  1.00  0.00     0.114 C 
ATOM     18  C   UNL A   1      42.133  43.309  23.250  1.00  0.00     0.221 C 
ATOM     19  O   UNL A   1      41.589  43.687  22.208  1.00  0.00    -0.275 OA
ATOM     20  H   UNL A   1      40.978  41.702  23.328  1.00  0.00     0.169 HD
ENDBRANCH  11  16
ENDBRANCH   8  10
BRANCH   9  21
ATOM     21  C   UNL A   1      43.960  37.797  28.652  1.00  0.00    -0.025 A 
ATOM     22  C   UNL A   1      42.965  36.814  28.800  1.00  0.00     0.009 A 
ATOM     23  C   UNL A   1      45.039  37.566  27.795  1.00  0.00     0.009 A 
ATOM     24  C   UNL A   1      43.022  35.631  28.064  1.00  0.00     0.021 A 
ATOM     25  C   UNL A   1      45.098  36.383  27.051  1.00  0.00     0.021 A 
ATOM     26  C   UNL A   1      44.089  35.425  27.188  1.00  0.00     0.067 A 
BRANCH  26  27
ATOM     27  S   UNL A   1      44.105  33.961  26.181  1.00  0.00     0.175 S 
ATOM     28  C   UNL A   1      45.802  33.801  25.696  1.00  0.00     0.163 C 
ATOM     29  O   UNL A   1      43.769  32.844  27.040  1.00  0.00    -0.224 OA
ATOM     30  O   UNL A   1      43.326  34.238  24.987  1.00  0.00    -0.224 OA
ENDBRANCH  26  27
ENDBRANCH   9  21
ENDBRANCH   5   8
ENDBRANCH   3   4
ENDBRANCH   2   3
ENDBRANCH   1   2
BRANCH   1  31
ATOM     31  C   UNL A   1      46.814  41.862  34.064  1.00  0.00     0.116 C 
BRANCH  31  32
ATOM     32  N   UNL A   1      45.723  42.334  34.904  1.00  0.00    -0.352 N 
ATOM     33  C   UNL A   1      44.523  41.722  35.171  1.00  0.00     0.251 C 
ATOM     34  H   UNL A   1      45.863  43.208  35.336  1.00  0.00     0.163 HD
ATOM     35  O   UNL A   1      43.655  42.320  35.800  1.00  0.00    -0.269 OA
BRANCH  33  36
ATOM     36  C   UNL A   1      44.284  40.359  34.656  1.00  0.00     0.039 A 
ATOM     37  C   UNL A   1      43.542  40.202  33.483  1.00  0.00     0.014 A 
ATOM     38  C   UNL A   1      44.844  39.252  35.296  1.00  0.00     0.014 A 
ATOM     39  C   UNL A   1      43.427  38.936  32.911  1.00  0.00     0.010 A 
ATOM     40  C   UNL A   1      44.791  38.005  34.683  1.00  0.00     0.010 A 
ATOM     41  C   UNL A   1      44.088  37.835  33.481  1.00  0.00    -0.014 A 
BRANCH  41  42
ATOM     42  C   UNL A   1      44.073  36.505  32.819  1.00  0.00     0.031 A 
ATOM     43  C   UNL A   1      45.178  36.117  31.876  1.00  0.00     0.074 A 
ATOM     44  C   UNL A   1      43.029  35.678  33.020  1.00  0.00     0.049 A 
ATOM     45  N   UNL A   1      45.309  35.032  31.158  1.00  0.00    -0.248 NA
ATOM     46  C   UNL A   1      46.263  37.093  31.694  1.00  0.00     0.031 C 
ATOM     47  C   UNL A   1      41.874  35.968  33.874  1.00  0.00     0.029 A 
ATOM     48  N   UNL A   1      42.759  34.430  32.515  1.00  0.00    -0.354 N 
ATOM     49  C   UNL A   1      46.482  35.198  30.431  1.00  0.00     0.074 A 
ATOM     50  C   UNL A   1      46.989  36.517  30.749  1.00  0.00     0.031 C 
ATOM     51  C   UNL A   1      41.036  34.919  33.854  1.00  0.00     0.029 A 
ATOM     52  C   UNL A   1      41.562  33.905  32.947  1.00  0.00     0.049 A 
ATOM     53  H   UNL A   1      43.364  33.955  31.900  1.00  0.00     0.167 HD
ATOM     54  C   UNL A   1      47.091  34.323  29.592  1.00  0.00     0.034 A 
ATOM     55  C   UNL A   1      40.948  32.746  32.635  1.00  0.00     0.034 A 
ATOM     56  C   UNL A   1      46.571  33.010  29.293  1.00  0.00     0.049 A 
ATOM     57  C   UNL A   1      41.628  31.801  31.676  1.00  0.00     0.074 A 
ATOM     58  C   UNL A   1      47.137  32.016  28.516  1.00  0.00     0.029 A 
ATOM     59  N   UNL A   1      45.353  32.514  29.743  1.00  0.00    -0.354 N 
ATOM     60  N   UNL A   1      42.775  31.942  31.051  1.00  0.00    -0.248 NA
ATOM     61  C   UNL A   1      40.937  30.538  31.388  1.00  0.00     0.031 C 
ATOM     62  C   UNL A   1      46.228  30.957  28.426  1.00  0.00     0.029 A 
ATOM     63  C   UNL A   1      45.131  31.247  29.221  1.00  0.00     0.049 A 
ATOM     64  H   UNL A   1      44.736  32.991  30.345  1.00  0.00     0.167 HD
ATOM     65  C   UNL A   1      42.953  30.774  30.316  1.00  0.00     0.074 A 
ATOM     66  C   UNL A   1      41.806  29.933  30.592  1.00  0.00     0.031 C 
ATOM     67  C   UNL A   1      43.972  30.427  29.489  1.00  0.00     0.034 A 
BRANCH  54  68
ATOM     68  C   UNL A   1      48.365  34.773  28.916  1.00  0.00     0.023 A 
ATOM     69  C   UNL A   1      48.353  35.424  27.669  1.00  0.00     0.031 A 
ATOM     70  C   UNL A   1      49.613  34.526  29.513  1.00  0.00     0.131 A 
ATOM     71  C   UNL A   1      49.562  35.730  27.025  1.00  0.00     0.055 A 
ATOM     72  C   UNL A   1      50.810  34.914  28.909  1.00  0.00     0.041 A 
ATOM     73  F   UNL A   1      49.693  33.889  30.692  1.00  0.00    -0.206 F 
ATOM     74  C   UNL A   1      50.791  35.505  27.649  1.00  0.00     0.022 A 
BRANCH  71  75
ATOM     75  S   UNL A   1      49.506  36.279  25.297  1.00  0.00     0.124 S 
ATOM     76  O   UNL A   1      50.823  36.894  25.141  1.00  0.00    -0.237 OA
ATOM     77  O   UNL A   1      49.294  35.031  24.575  1.00  0.00    -0.237 OA
ATOM     78  O   UNL A   1      48.384  37.215  25.272  1.00  0.00    -0.744 OA
ENDBRANCH  71  75
ENDBRANCH  54  68
BRANCH  55  79
ATOM     79  C   UNL A   1      39.611  32.422  33.210  1.00  0.00     0.023 A 
ATOM     80  C   UNL A   1      38.428  32.683  32.500  1.00  0.00     0.031 A 
ATOM     81  C   UNL A   1      39.493  31.876  34.502  1.00  0.00     0.131 A 
ATOM     82  C   UNL A   1      37.182  32.442  33.100  1.00  0.00     0.055 A 
ATOM     83  C   UNL A   1      38.253  31.583  35.072  1.00  0.00     0.041 A 
ATOM     84  F   UNL A   1      40.591  31.603  35.226  1.00  0.00    -0.206 F 
ATOM     85  C   UNL A   1      37.087  31.878  34.374  1.00  0.00     0.022 A 
BRANCH  82  86
ATOM     86  S   UNL A   1      35.680  32.956  32.222  1.00  0.00     0.124 S 
ATOM     87  O   UNL A   1      34.718  33.051  33.314  1.00  0.00    -0.237 OA
ATOM     88  O   UNL A   1      36.097  34.218  31.621  1.00  0.00    -0.237 OA
ATOM     89  O   UNL A   1      35.448  31.866  31.278  1.00  0.00    -0.744 OA
ENDBRANCH  82  86
ENDBRANCH  55  79
BRANCH  67  90
ATOM     90  C   UNL A   1      43.905  29.059  28.852  1.00  0.00     0.023 A 
ATOM     91  C   UNL A   1      43.329  28.860  27.584  1.00  0.00     0.031 A 
ATOM     92  C   UNL A   1      44.419  27.937  29.525  1.00  0.00     0.131 A 
ATOM     93  C   UNL A   1      43.230  27.564  27.056  1.00  0.00     0.055 A 
ATOM     94  C   UNL A   1      44.381  26.659  28.965  1.00  0.00     0.041 A 
ATOM     95  F   UNL A   1      44.975  28.065  30.741  1.00  0.00    -0.206 F 
ATOM     96  C   UNL A   1      43.771  26.466  27.729  1.00  0.00     0.022 A 
BRANCH  93  97
ATOM     97  S   UNL A   1      42.295  27.318  25.521  1.00  0.00     0.124 S 
ATOM     98  O   UNL A   1      40.999  26.876  26.026  1.00  0.00    -0.237 OA
ATOM     99  O   UNL A   1      42.326  28.647  24.920  1.00  0.00    -0.237 OA
ATOM    100  O   UNL A   1      43.064  26.298  24.811  1.00  0.00    -0.744 OA
ENDBRANCH  93  97
ENDBRANCH  67  90
ENDBRANCH  41  42
ENDBRANCH  33  36
ENDBRANCH  31  32
ENDBRANCH   1  31
TORSDOF 18
ENDMDL
MODEL 3
REMARK VINA RESULT:     -11.0      4.814      6.751
REMARK SMILES CC(=O)Nc1ccc(/C(=C\c2ccc(S(C)(=O)=O)cc2)C(=O)NCCCCNC(=O)c2ccc(-c3c4nc(c(-c5cc(S(=O)(=O)[O-])ccc5F)c5ccc([nH]5)c(-c5cc(S(=O)(=O)[O-])ccc5F)c5nc(c(-c6cc(S(=O)(=O)[O-])ccc6F)c6ccc3[nH]6)C=C5)C=C4)cc2)cc1
REMARK SMILES IDX 26 1 25 2 24 3 23 4 21 5 22 6 9 8 10 9 8 10 5 11 6 12 95 13
REMARK SMILES IDX 7 14 94 15 4 16 1 17 2 18 3 19 11 21 12 22 20 23 13 24 19 25
REMARK SMILES IDX 14 26 15 27 16 28 17 29 18 30 27 31 28 32 29 33 30 35 31 36
REMARK SMILES IDX 32 37 93 38 33 39 92 40 34 41 35 42 36 43 86 44 37 45 91 46
REMARK SMILES IDX 85 47 87 48 38 49 90 50 84 51 83 52 39 54 71 55 51 56 70 57
REMARK SMILES IDX 52 58 55 59 69 60 88 61 53 62 54 63 68 65 89 66 56 67 40 68
REMARK SMILES IDX 41 69 49 70 42 71 48 72 50 73 47 74 43 75 44 76 45 77 46 78
REMARK SMILES IDX 72 79 73 80 81 81 74 82 80 83 82 84 79 85 75 86 76 87 77 88
REMARK SMILES IDX 78 89 57 90 58 91 66 92 59 93 65 94 67 95 64 96 60 97 61 98
REMARK SMILES IDX 62 99 63 100
REMARK H PARENT 23 7 4 20 28 34 87 53 55 64
REMARK Flexibility Score: inf
ROOT
ATOM      1  C   UNL A   1      45.320  22.204  25.299  1.00  0.00     0.023 C 
ENDROOT
BRANCH   1   2
ATOM      2  C   UNL A   1      43.924  21.599  25.111  1.00  0.00     0.023 C 
BRANCH   2   3
ATOM      3  C   UNL A   1      42.786  22.462  25.666  1.00  0.00     0.116 C 
BRANCH   3   4
ATOM      4  N   UNL A   1      42.019  21.721  26.647  1.00  0.00    -0.352 N 
ATOM      5  C   UNL A   1      40.747  21.763  27.121  1.00  0.00     0.251 C 
ATOM      6  O   UNL A   1      40.511  20.889  27.959  1.00  0.00    -0.269 OA
ATOM      7  H   UNL A   1      42.551  21.014  27.077  1.00  0.00     0.163 HD
BRANCH   5   8
ATOM      8  C   UNL A   1      39.654  22.731  26.652  1.00  0.00     0.047 C 
ATOM      9  C   UNL A   1      38.733  22.284  25.765  1.00  0.00     0.022 C 
BRANCH   8  10
ATOM     10  C   UNL A   1      39.737  24.193  27.034  1.00  0.00    -0.013 A 
ATOM     11  C   UNL A   1      40.267  26.816  28.059  1.00  0.00     0.041 A 
ATOM     12  C   UNL A   1      40.650  26.456  26.765  1.00  0.00     0.027 A 
ATOM     13  C   UNL A   1      39.490  25.919  28.770  1.00  0.00     0.027 A 
ATOM     14  C   UNL A   1      40.356  25.178  26.250  1.00  0.00     0.011 A 
ATOM     15  C   UNL A   1      39.265  24.626  28.283  1.00  0.00     0.011 A 
BRANCH  11  16
ATOM     16  N   UNL A   1      40.686  28.065  28.546  1.00  0.00    -0.326 N 
ATOM     17  C   UNL A   1      38.654  29.479  28.150  1.00  0.00     0.114 C 
ATOM     18  C   UNL A   1      40.086  29.292  28.573  1.00  0.00     0.221 C 
ATOM     19  O   UNL A   1      40.734  30.253  28.999  1.00  0.00    -0.275 OA
ATOM     20  H   UNL A   1      41.586  28.054  28.946  1.00  0.00     0.169 HD
ENDBRANCH  11  16
ENDBRANCH   8  10
BRANCH   9  21
ATOM     21  C   UNL A   1      37.507  22.916  25.259  1.00  0.00    -0.025 A 
ATOM     22  C   UNL A   1      37.131  22.645  23.932  1.00  0.00     0.009 A 
ATOM     23  C   UNL A   1      36.701  23.737  26.053  1.00  0.00     0.009 A 
ATOM     24  C   UNL A   1      35.937  23.150  23.415  1.00  0.00     0.021 A 
ATOM     25  C   UNL A   1      35.501  24.241  25.543  1.00  0.00     0.021 A 
ATOM     26  C   UNL A   1      35.126  23.943  24.229  1.00  0.00     0.067 A 
BRANCH  26  27
ATOM     27  S   UNL A   1      33.561  24.501  23.600  1.00  0.00     0.175 S 
ATOM     28  C   UNL A   1      33.271  26.017  24.471  1.00  0.00     0.163 C 
ATOM     29  O   UNL A   1      33.747  24.811  22.197  1.00  0.00    -0.224 OA
ATOM     30  O   UNL A   1      32.550  23.547  24.020  1.00  0.00    -0.224 OA
ENDBRANCH  26  27
ENDBRANCH   9  21
ENDBRANCH   5   8
ENDBRANCH   3   4
ENDBRANCH   2   3
ENDBRANCH   1   2
BRANCH   1  31
ATOM     31  C   UNL A   1      45.340  23.638  25.815  1.00  0.00     0.116 C 
BRANCH  31  32
ATOM     32  N   UNL A   1      46.055  24.549  24.934  1.00  0.00    -0.352 N 
ATOM     33  C   UNL A   1      46.215  25.908  25.057  1.00  0.00     0.251 C 
ATOM     34  H   UNL A   1      46.479  24.139  24.146  1.00  0.00     0.163 HD
ATOM     35  O   UNL A   1      46.740  26.550  24.152  1.00  0.00    -0.269 OA
BRANCH  33  36
ATOM     36  C   UNL A   1      45.710  26.581  26.270  1.00  0.00     0.039 A 
ATOM     37  C   UNL A   1      46.625  27.020  27.229  1.00  0.00     0.014 A 
ATOM     38  C   UNL A   1      44.345  26.831  26.425  1.00  0.00     0.014 A 
ATOM     39  C   UNL A   1      46.175  27.778  28.309  1.00  0.00     0.010 A 
ATOM     40  C   UNL A   1      43.909  27.650  27.461  1.00  0.00     0.010 A 
ATOM     41  C   UNL A   1      44.820  28.138  28.410  1.00  0.00    -0.014 A 
BRANCH  41  42
ATOM     42  C   UNL A   1      44.345  29.042  29.488  1.00  0.00     0.031 A 
ATOM     43  C   UNL A   1      43.998  28.487  30.842  1.00  0.00     0.074 A 
ATOM     44  C   UNL A   1      44.165  30.351  29.223  1.00  0.00     0.049 A 
ATOM     45  N   UNL A   1      43.510  29.102  31.887  1.00  0.00    -0.248 NA
ATOM     46  C   UNL A   1      44.198  27.042  31.033  1.00  0.00     0.031 C 
ATOM     47  C   UNL A   1      44.421  30.994  27.932  1.00  0.00     0.029 A 
ATOM     48  N   UNL A   1      43.716  31.377  30.018  1.00  0.00    -0.354 N 
ATOM     49  C   UNL A   1      43.333  28.121  32.856  1.00  0.00     0.074 A 
ATOM     50  C   UNL A   1      43.707  26.862  32.249  1.00  0.00     0.031 C 
ATOM     51  C   UNL A   1      44.151  32.305  28.031  1.00  0.00     0.029 A 
ATOM     52  C   UNL A   1      43.653  32.590  29.372  1.00  0.00     0.049 A 
ATOM     53  H   UNL A   1      43.463  31.256  30.962  1.00  0.00     0.167 HD
ATOM     54  C   UNL A   1      42.917  28.263  34.139  1.00  0.00     0.034 A 
ATOM     55  C   UNL A   1      43.223  33.793  29.803  1.00  0.00     0.034 A 
ATOM     56  C   UNL A   1      42.555  29.531  34.726  1.00  0.00     0.049 A 
ATOM     57  C   UNL A   1      42.737  33.921  31.225  1.00  0.00     0.074 A 
ATOM     58  C   UNL A   1      42.189  29.802  36.033  1.00  0.00     0.029 A 
ATOM     59  N   UNL A   1      42.495  30.739  34.041  1.00  0.00    -0.354 N 
ATOM     60  N   UNL A   1      42.643  32.996  32.152  1.00  0.00    -0.248 NA
ATOM     61  C   UNL A   1      42.307  35.256  31.661  1.00  0.00     0.031 C 
ATOM     62  C   UNL A   1      41.826  31.150  36.117  1.00  0.00     0.029 A 
ATOM     63  C   UNL A   1      42.053  31.747  34.887  1.00  0.00     0.049 A 
ATOM     64  H   UNL A   1      42.732  30.862  33.093  1.00  0.00     0.167 HD
ATOM     65  C   UNL A   1      42.167  33.644  33.288  1.00  0.00     0.074 A 
ATOM     66  C   UNL A   1      42.014  35.041  32.934  1.00  0.00     0.031 C 
ATOM     67  C   UNL A   1      41.885  33.133  34.514  1.00  0.00     0.034 A 
BRANCH  54  68
ATOM     68  C   UNL A   1      42.801  27.012  34.979  1.00  0.00     0.023 A 
ATOM     69  C   UNL A   1      43.878  26.532  35.746  1.00  0.00     0.031 A 
ATOM     70  C   UNL A   1      41.606  26.273  34.993  1.00  0.00     0.131 A 
ATOM     71  C   UNL A   1      43.764  25.309  36.427  1.00  0.00     0.055 A 
ATOM     72  C   UNL A   1      41.470  25.104  35.745  1.00  0.00     0.041 A 
ATOM     73  F   UNL A   1      40.550  26.666  34.264  1.00  0.00    -0.206 F 
ATOM     74  C   UNL A   1      42.558  24.607  36.455  1.00  0.00     0.022 A 
BRANCH  71  75
ATOM     75  S   UNL A   1      45.261  24.577  37.144  1.00  0.00     0.124 S 
ATOM     76  O   UNL A   1      44.872  24.422  38.544  1.00  0.00    -0.237 OA
ATOM     77  O   UNL A   1      45.405  23.343  36.380  1.00  0.00    -0.237 OA
ATOM     78  O   UNL A   1      46.287  25.588  36.899  1.00  0.00    -0.744 OA
ENDBRANCH  71  75
ENDBRANCH  54  68
BRANCH  55  79
ATOM     79  C   UNL A   1      43.210  34.965  28.880  1.00  0.00     0.023 A 
ATOM     80  C   UNL A   1      44.394  35.635  28.537  1.00  0.00     0.031 A 
ATOM     81  C   UNL A   1      42.001  35.456  28.354  1.00  0.00     0.131 A 
ATOM     82  C   UNL A   1      44.341  36.783  27.730  1.00  0.00     0.055 A 
ATOM     83  C   UNL A   1      41.959  36.563  27.505  1.00  0.00     0.041 A 
ATOM     84  F   UNL A   1      40.837  34.853  28.647  1.00  0.00    -0.206 F 
ATOM     85  C   UNL A   1      43.133  37.242  27.198  1.00  0.00     0.022 A 
BRANCH  82  86
ATOM     86  S   UNL A   1      45.868  37.723  27.452  1.00  0.00     0.124 S 
ATOM     87  O   UNL A   1      45.441  38.692  26.449  1.00  0.00    -0.237 OA
ATOM     88  O   UNL A   1      46.142  38.255  28.783  1.00  0.00    -0.237 OA
ATOM     89  O   UNL A   1      46.810  36.711  26.982  1.00  0.00    -0.744 OA
ENDBRANCH  82  86
ENDBRANCH  55  79
BRANCH  67  90
ATOM     90  C   UNL A   1      41.413  34.102  35.572  1.00  0.00     0.023 A 
ATOM     91  C   UNL A   1      42.316  34.785  36.406  1.00  0.00     0.031 A 
ATOM     92  C   UNL A   1      40.039  34.342  35.752  1.00  0.00     0.131 A 
ATOM     93  C   UNL A   1      41.833  35.629  37.417  1.00  0.00     0.055 A 
ATOM     94  C   UNL A   1      39.567  35.236  36.714  1.00  0.00     0.041 A 
ATOM     95  F   UNL A   1      39.130  33.714  34.989  1.00  0.00    -0.206 F 
ATOM     96  C   UNL A   1      40.466  35.874  37.563  1.00  0.00     0.022 A 
BRANCH  93  97
ATOM     97  S   UNL A   1      43.012  36.325  38.607  1.00  0.00     0.124 S 
ATOM     98  O   UNL A   1      42.435  37.640  38.870  1.00  0.00    -0.237 OA
ATOM     99  O   UNL A   1      42.947  35.369  39.708  1.00  0.00    -0.237 OA
ATOM    100  O   UNL A   1      44.275  36.337  37.872  1.00  0.00    -0.744 OA
ENDBRANCH  93  97
ENDBRANCH  67  90
ENDBRANCH  41  42
ENDBRANCH  33  36
ENDBRANCH  31  32
ENDBRANCH   1  31
TORSDOF 18
ENDMDL
