MODEL 1
REMARK VINA RESULT:     -11.1      0.000      0.000
REMARK SMILES CCCC1(CCC)C[NH+]([C@H]2CCC[C@@H](C(=O)NCCCCNC(=O)c3ccc(-c4c5nc(c(-c6cc(S(=O)(=O)[O-])ccc6F)c6ccc([nH]6)c(-c6cc(S(=O)(=O)[O-])ccc6F)c6nc(c(-c7cc(S(=O)(=O)[O-])ccc7F)c7ccc4[nH]7)C=C6)C=C5)cc3)C2)C1
REMARK SMILES IDX 19 1 18 2 17 3 15 4 16 5 14 7 10 8 11 9 88 10 12 11 13 12
REMARK SMILES IDX 9 13 4 14 8 15 89 16 3 18 2 19 1 20 5 21 6 22 7 23 20 24
REMARK SMILES IDX 21 25 22 26 23 27 24 29 25 30 26 31 87 32 27 33 86 34 28 35
REMARK SMILES IDX 29 36 30 37 80 38 31 39 85 40 79 41 81 42 32 43 84 44 78 45
REMARK SMILES IDX 77 46 33 48 65 49 45 50 64 51 46 52 49 53 63 54 82 55 47 56
REMARK SMILES IDX 48 57 62 59 83 60 50 61 34 62 35 63 43 64 36 65 42 66 44 67
REMARK SMILES IDX 41 68 37 69 38 70 39 71 40 72 66 73 67 74 75 75 68 76 74 77
REMARK SMILES IDX 76 78 73 79 69 80 70 81 71 82 72 83 51 84 52 85 60 86 53 87
REMARK SMILES IDX 59 88 61 89 58 90 54 91 55 92 56 93 57 94
REMARK H PARENT 17 6 9 17 22 28 81 47 49 58
REMARK Flexibility Score: inf
ROOT
ATOM      1  C   UNL A   1      31.822  28.696  27.413  1.00  0.00     0.023 C 
ENDROOT
BRANCH   1   2
ATOM      2  C   UNL A   1      31.456  27.259  26.764  1.00  0.00     0.116 C 
BRANCH   2   3
ATOM      3  N   UNL A   1      32.025  27.019  25.405  1.00  0.00    -0.356 N 
ATOM      4  C   UNL A   1      33.219  26.801  24.738  1.00  0.00     0.223 C 
ATOM      5  O   UNL A   1      34.133  26.085  25.138  1.00  0.00    -0.275 OA
ATOM      6  H   UNL A   1      31.291  27.014  24.750  1.00  0.00     0.163 HD
BRANCH   4   7
ATOM      7  C   UNL A   1      33.440  27.648  23.399  1.00  0.00     0.084 C 
ATOM      8  C   UNL A   1      32.576  25.865  21.782  1.00  0.00     0.184 C 
ATOM      9  C   UNL A   1      31.138  26.643  22.055  1.00  0.00     0.065 C 
ATOM     10  C   UNL A   1      33.559  27.005  21.990  1.00  0.00     0.078 C 
ATOM     11  C   UNL A   1      30.986  27.784  23.133  1.00  0.00     0.007 C 
ATOM     12  C   UNL A   1      32.249  28.608  23.340  1.00  0.00     0.014 C 
BRANCH   8  13
ATOM     13  N   UNL A   1      33.024  24.680  22.593  1.00  0.00    -0.331 N 
ATOM     14  C   UNL A   1      33.313  22.691  23.364  1.00  0.00     0.068 C 
ATOM     15  C   UNL A   1      32.050  23.826  23.348  1.00  0.00     0.275 C 
ATOM     16  C   UNL A   1      33.351  23.328  21.887  1.00  0.00     0.275 C 
ATOM     17  H   UNL A   1      33.711  25.283  23.046  1.00  0.00     0.348 HD
BRANCH  14  18
ATOM     18  C   UNL A   1      34.497  22.912  24.368  1.00  0.00     0.018 C 
BRANCH  18  19
ATOM     19  C   UNL A   1      35.977  23.182  24.050  1.00  0.00    -0.002 C 
ATOM     20  C   UNL A   1      37.103  22.553  24.834  1.00  0.00     0.004 C 
ENDBRANCH  18  19
ENDBRANCH  14  18
BRANCH  14  21
ATOM     21  C   UNL A   1      32.765  21.272  23.618  1.00  0.00     0.018 C 
BRANCH  21  22
ATOM     22  C   UNL A   1      33.641  20.430  24.558  1.00  0.00    -0.002 C 
ATOM     23  C   UNL A   1      33.536  18.908  24.424  1.00  0.00     0.004 C 
ENDBRANCH  21  22
ENDBRANCH  14  21
ENDBRANCH   8  13
ENDBRANCH   4   7
ENDBRANCH   2   3
ENDBRANCH   1   2
BRANCH   1  24
ATOM     24  C   UNL A   1      31.796  30.177  26.886  1.00  0.00     0.023 C 
BRANCH  24  25
ATOM     25  C   UNL A   1      32.970  31.106  26.606  1.00  0.00     0.116 C 
BRANCH  25  26
ATOM     26  N   UNL A   1      32.822  32.454  27.057  1.00  0.00    -0.352 N 
ATOM     27  C   UNL A   1      33.645  33.065  27.965  1.00  0.00     0.251 C 
ATOM     28  H   UNL A   1      32.076  32.979  26.688  1.00  0.00     0.163 HD
ATOM     29  O   UNL A   1      33.296  34.142  28.479  1.00  0.00    -0.269 OA
BRANCH  27  30
ATOM     30  C   UNL A   1      34.921  32.432  28.375  1.00  0.00     0.039 A 
ATOM     31  C   UNL A   1      34.895  31.164  28.960  1.00  0.00     0.014 A 
ATOM     32  C   UNL A   1      36.138  33.112  28.242  1.00  0.00     0.014 A 
ATOM     33  C   UNL A   1      36.077  30.598  29.453  1.00  0.00     0.010 A 
ATOM     34  C   UNL A   1      37.327  32.520  28.697  1.00  0.00     0.010 A 
ATOM     35  C   UNL A   1      37.306  31.273  29.343  1.00  0.00    -0.014 A 
BRANCH  35  36
ATOM     36  C   UNL A   1      38.532  30.689  29.972  1.00  0.00     0.031 A 
ATOM     37  C   UNL A   1      38.919  31.057  31.386  1.00  0.00     0.074 A 
ATOM     38  C   UNL A   1      39.277  29.788  29.299  1.00  0.00     0.049 A 
ATOM     39  N   UNL A   1      39.888  30.585  32.132  1.00  0.00    -0.248 NA
ATOM     40  C   UNL A   1      38.122  32.103  32.041  1.00  0.00     0.031 C 
ATOM     41  C   UNL A   1      39.033  29.363  27.919  1.00  0.00     0.029 A 
ATOM     42  N   UNL A   1      40.376  29.054  29.680  1.00  0.00    -0.354 N 
ATOM     43  C   UNL A   1      39.813  31.272  33.341  1.00  0.00     0.074 A 
ATOM     44  C   UNL A   1      38.747  32.240  33.200  1.00  0.00     0.031 C 
ATOM     45  C   UNL A   1      39.924  28.414  27.587  1.00  0.00     0.029 A 
ATOM     46  C   UNL A   1      40.831  28.187  28.710  1.00  0.00     0.049 A 
ATOM     47  H   UNL A   1      40.799  29.139  30.565  1.00  0.00     0.167 HD
ATOM     48  C   UNL A   1      40.543  31.097  34.473  1.00  0.00     0.034 A 
ATOM     49  C   UNL A   1      41.855  27.309  28.719  1.00  0.00     0.034 A 
ATOM     50  C   UNL A   1      41.607  30.128  34.604  1.00  0.00     0.049 A 
ATOM     51  C   UNL A   1      42.683  27.161  29.975  1.00  0.00     0.074 A 
ATOM     52  C   UNL A   1      42.377  29.839  35.718  1.00  0.00     0.029 A 
ATOM     53  N   UNL A   1      42.062  29.301  33.585  1.00  0.00    -0.354 N 
ATOM     54  N   UNL A   1      42.553  27.776  31.128  1.00  0.00    -0.248 NA
ATOM     55  C   UNL A   1      43.784  26.190  29.934  1.00  0.00     0.031 C 
ATOM     56  C   UNL A   1      43.349  28.904  35.350  1.00  0.00     0.029 A 
ATOM     57  C   UNL A   1      43.128  28.535  34.033  1.00  0.00     0.049 A 
ATOM     58  H   UNL A   1      41.684  29.264  32.677  1.00  0.00     0.167 HD
ATOM     59  C   UNL A   1      43.537  27.242  31.957  1.00  0.00     0.074 A 
ATOM     60  C   UNL A   1      44.237  26.241  31.178  1.00  0.00     0.031 C 
ATOM     61  C   UNL A   1      43.833  27.548  33.246  1.00  0.00     0.034 A 
BRANCH  48  62
ATOM     62  C   UNL A   1      40.235  31.995  35.652  1.00  0.00     0.023 A 
ATOM     63  C   UNL A   1      39.162  31.732  36.523  1.00  0.00     0.031 A 
ATOM     64  C   UNL A   1      41.015  33.137  35.904  1.00  0.00     0.131 A 
ATOM     65  C   UNL A   1      38.852  32.637  37.550  1.00  0.00     0.055 A 
ATOM     66  C   UNL A   1      40.755  33.988  36.980  1.00  0.00     0.041 A 
ATOM     67  F   UNL A   1      42.043  33.455  35.100  1.00  0.00    -0.206 F 
ATOM     68  C   UNL A   1      39.658  33.750  37.802  1.00  0.00     0.022 A 
BRANCH  65  69
ATOM     69  S   UNL A   1      37.295  32.421  38.455  1.00  0.00     0.124 S 
ATOM     70  O   UNL A   1      37.602  33.067  39.728  1.00  0.00    -0.237 OA
ATOM     71  O   UNL A   1      36.337  33.114  37.601  1.00  0.00    -0.237 OA
ATOM     72  O   UNL A   1      37.135  30.970  38.522  1.00  0.00    -0.744 OA
ENDBRANCH  65  69
ENDBRANCH  48  62
BRANCH  49  73
ATOM     73  C   UNL A   1      42.177  26.503  27.501  1.00  0.00     0.023 A 
ATOM     74  C   UNL A   1      41.815  25.149  27.403  1.00  0.00     0.031 A 
ATOM     75  C   UNL A   1      42.901  27.068  26.436  1.00  0.00     0.131 A 
ATOM     76  C   UNL A   1      42.221  24.394  26.289  1.00  0.00     0.055 A 
ATOM     77  C   UNL A   1      43.249  26.329  25.303  1.00  0.00     0.041 A 
ATOM     78  F   UNL A   1      43.277  28.356  26.476  1.00  0.00    -0.206 F 
ATOM     79  C   UNL A   1      42.921  24.979  25.232  1.00  0.00     0.022 A 
BRANCH  76  80
ATOM     80  S   UNL A   1      41.908  22.607  26.287  1.00  0.00     0.124 S 
ATOM     81  O   UNL A   1      40.451  22.561  26.334  1.00  0.00    -0.237 OA
ATOM     82  O   UNL A   1      42.523  22.193  25.031  1.00  0.00    -0.237 OA
ATOM     83  O   UNL A   1      42.587  22.142  27.494  1.00  0.00    -0.744 OA
ENDBRANCH  76  80
ENDBRANCH  49  73
BRANCH  61  84
ATOM     84  C   UNL A   1      44.938  26.759  33.909  1.00  0.00     0.023 A 
ATOM     85  C   UNL A   1      44.717  25.480  34.451  1.00  0.00     0.031 A 
ATOM     86  C   UNL A   1      46.233  27.300  34.009  1.00  0.00     0.131 A 
ATOM     87  C   UNL A   1      45.755  24.813  35.119  1.00  0.00     0.055 A 
ATOM     88  C   UNL A   1      47.280  26.601  34.611  1.00  0.00     0.041 A 
ATOM     89  F   UNL A   1      46.504  28.520  33.516  1.00  0.00    -0.206 F 
ATOM     90  C   UNL A   1      47.041  25.357  35.183  1.00  0.00     0.022 A 
BRANCH  87  91
ATOM     91  S   UNL A   1      45.378  23.271  35.997  1.00  0.00     0.124 S 
ATOM     92  O   UNL A   1      46.533  22.443  35.664  1.00  0.00    -0.237 OA
ATOM     93  O   UNL A   1      45.292  23.715  37.385  1.00  0.00    -0.237 OA
ATOM     94  O   UNL A   1      44.114  22.839  35.405  1.00  0.00    -0.744 OA
ENDBRANCH  87  91
ENDBRANCH  61  84
ENDBRANCH  35  36
ENDBRANCH  27  30
ENDBRANCH  25  26
ENDBRANCH  24  25
ENDBRANCH   1  24
TORSDOF 19
ENDMDL
MODEL 2
REMARK VINA RESULT:     -10.5      4.821     10.256
REMARK SMILES CCCC1(CCC)C[NH+]([C@H]2CCC[C@@H](C(=O)NCCCCNC(=O)c3ccc(-c4c5nc(c(-c6cc(S(=O)(=O)[O-])ccc6F)c6ccc([nH]6)c(-c6cc(S(=O)(=O)[O-])ccc6F)c6nc(c(-c7cc(S(=O)(=O)[O-])ccc7F)c7ccc4[nH]7)C=C6)C=C5)cc3)C2)C1
REMARK SMILES IDX 19 1 18 2 17 3 15 4 16 5 14 7 10 8 11 9 88 10 12 11 13 12
REMARK SMILES IDX 9 13 4 14 8 15 89 16 3 18 2 19 1 20 5 21 6 22 7 23 20 24
REMARK SMILES IDX 21 25 22 26 23 27 24 29 25 30 26 31 87 32 27 33 86 34 28 35
REMARK SMILES IDX 29 36 30 37 80 38 31 39 85 40 79 41 81 42 32 43 84 44 78 45
REMARK SMILES IDX 77 46 33 48 65 49 45 50 64 51 46 52 49 53 63 54 82 55 47 56
REMARK SMILES IDX 48 57 62 59 83 60 50 61 34 62 35 63 43 64 36 65 42 66 44 67
REMARK SMILES IDX 41 68 37 69 38 70 39 71 40 72 66 73 67 74 75 75 68 76 74 77
REMARK SMILES IDX 76 78 73 79 69 80 70 81 71 82 72 83 51 84 52 85 60 86 53 87
REMARK SMILES IDX 59 88 61 89 58 90 54 91 55 92 56 93 57 94
REMARK H PARENT 17 6 9 17 22 28 81 47 49 58
REMARK Flexibility Score: inf
ROOT
ATOM      1  C   UNL A   1      36.653  22.546  23.471  1.00  0.00     0.023 C 
ENDROOT
BRANCH   1   2
ATOM      2  C   UNL A   1      35.287  23.366  23.184  1.00  0.00     0.116 C 
BRANCH   2   3
ATOM      3  N   UNL A   1      34.301  23.358  24.304  1.00  0.00    -0.356 N 
ATOM      4  C   UNL A   1      34.013  23.961  25.517  1.00  0.00     0.223 C 
ATOM      5  O   UNL A   1      34.122  25.161  25.755  1.00  0.00    -0.275 OA
ATOM      6  H   UNL A   1      33.609  22.684  24.114  1.00  0.00     0.163 HD
BRANCH   4   7
ATOM      7  C   UNL A   1      33.615  22.976  26.714  1.00  0.00     0.084 C 
ATOM      8  C   UNL A   1      31.085  23.095  26.358  1.00  0.00     0.184 C 
ATOM      9  C   UNL A   1      31.394  21.799  25.374  1.00  0.00     0.065 C 
ATOM     10  C   UNL A   1      32.208  22.955  27.372  1.00  0.00     0.078 C 
ATOM     11  C   UNL A   1      32.860  21.321  25.041  1.00  0.00     0.007 C 
ATOM     12  C   UNL A   1      33.858  21.569  26.162  1.00  0.00     0.014 C 
BRANCH   8  13
ATOM     13  N   UNL A   1      31.059  24.512  25.850  1.00  0.00    -0.331 N 
ATOM     14  C   UNL A   1      30.461  26.386  24.977  1.00  0.00     0.068 C 
ATOM     15  C   UNL A   1      30.820  24.828  24.404  1.00  0.00     0.275 C 
ATOM     16  C   UNL A   1      29.784  25.389  26.044  1.00  0.00     0.275 C 
ATOM     17  H   UNL A   1      31.952  24.668  26.318  1.00  0.00     0.348 HD
BRANCH  14  18
ATOM     18  C   UNL A   1      31.651  27.320  25.387  1.00  0.00     0.018 C 
BRANCH  18  19
ATOM     19  C   UNL A   1      32.004  27.853  26.786  1.00  0.00    -0.002 C 
ATOM     20  C   UNL A   1      33.286  28.597  27.069  1.00  0.00     0.004 C 
ENDBRANCH  18  19
ENDBRANCH  14  18
BRANCH  14  21
ATOM     21  C   UNL A   1      29.614  27.161  23.947  1.00  0.00     0.018 C 
BRANCH  21  22
ATOM     22  C   UNL A   1      30.247  28.487  23.497  1.00  0.00    -0.002 C 
ATOM     23  C   UNL A   1      29.533  29.252  22.380  1.00  0.00     0.004 C 
ENDBRANCH  21  22
ENDBRANCH  14  21
ENDBRANCH   8  13
ENDBRANCH   4   7
ENDBRANCH   2   3
ENDBRANCH   1   2
BRANCH   1  24
ATOM     24  C   UNL A   1      37.178  21.674  24.668  1.00  0.00     0.023 C 
BRANCH  24  25
ATOM     25  C   UNL A   1      38.165  22.060  25.762  1.00  0.00     0.116 C 
BRANCH  25  26
ATOM     26  N   UNL A   1      39.279  21.182  25.938  1.00  0.00    -0.352 N 
ATOM     27  C   UNL A   1      40.514  21.572  26.382  1.00  0.00     0.251 C 
ATOM     28  H   UNL A   1      39.148  20.229  25.725  1.00  0.00     0.163 HD
ATOM     29  O   UNL A   1      41.479  20.796  26.266  1.00  0.00    -0.269 OA
BRANCH  27  30
ATOM     30  C   UNL A   1      40.720  22.924  26.954  1.00  0.00     0.039 A 
ATOM     31  C   UNL A   1      40.466  24.044  26.160  1.00  0.00     0.014 A 
ATOM     32  C   UNL A   1      41.224  23.089  28.250  1.00  0.00     0.014 A 
ATOM     33  C   UNL A   1      40.758  25.325  26.645  1.00  0.00     0.010 A 
ATOM     34  C   UNL A   1      41.473  24.378  28.748  1.00  0.00     0.010 A 
ATOM     35  C   UNL A   1      41.281  25.510  27.938  1.00  0.00    -0.014 A 
BRANCH  35  36
ATOM     36  C   UNL A   1      41.681  26.880  28.388  1.00  0.00     0.031 A 
ATOM     37  C   UNL A   1      43.107  27.354  28.228  1.00  0.00     0.074 A 
ATOM     38  C   UNL A   1      40.759  27.724  28.896  1.00  0.00     0.049 A 
ATOM     39  N   UNL A   1      43.622  28.535  28.470  1.00  0.00    -0.248 NA
ATOM     40  C   UNL A   1      44.084  26.368  27.748  1.00  0.00     0.031 C 
ATOM     41  C   UNL A   1      39.354  27.387  29.131  1.00  0.00     0.029 A 
ATOM     42  N   UNL A   1      40.852  29.038  29.291  1.00  0.00    -0.354 N 
ATOM     43  C   UNL A   1      44.978  28.433  28.167  1.00  0.00     0.074 A 
ATOM     44  C   UNL A   1      45.214  27.057  27.791  1.00  0.00     0.031 C 
ATOM     45  C   UNL A   1      38.710  28.475  29.583  1.00  0.00     0.029 A 
ATOM     46  C   UNL A   1      39.658  29.579  29.713  1.00  0.00     0.049 A 
ATOM     47  H   UNL A   1      41.695  29.546  29.272  1.00  0.00     0.167 HD
ATOM     48  C   UNL A   1      45.932  29.400  28.175  1.00  0.00     0.034 A 
ATOM     49  C   UNL A   1      39.355  30.819  30.152  1.00  0.00     0.034 A 
ATOM     50  C   UNL A   1      45.686  30.772  28.553  1.00  0.00     0.049 A 
ATOM     51  C   UNL A   1      40.442  31.868  30.194  1.00  0.00     0.074 A 
ATOM     52  C   UNL A   1      46.571  31.838  28.552  1.00  0.00     0.029 A 
ATOM     53  N   UNL A   1      44.473  31.267  29.014  1.00  0.00    -0.354 N 
ATOM     54  N   UNL A   1      41.704  31.766  29.843  1.00  0.00    -0.248 NA
ATOM     55  C   UNL A   1      40.060  33.202  30.676  1.00  0.00     0.031 C 
ATOM     56  C   UNL A   1      45.918  32.951  29.092  1.00  0.00     0.029 A 
ATOM     57  C   UNL A   1      44.599  32.610  29.340  1.00  0.00     0.049 A 
ATOM     58  H   UNL A   1      43.645  30.742  29.098  1.00  0.00     0.167 HD
ATOM     59  C   UNL A   1      42.255  33.031  30.033  1.00  0.00     0.074 A 
ATOM     60  C   UNL A   1      41.185  33.882  30.510  1.00  0.00     0.031 C 
ATOM     61  C   UNL A   1      43.530  33.451  29.830  1.00  0.00     0.034 A 
BRANCH  48  62
ATOM     62  C   UNL A   1      47.340  28.998  27.789  1.00  0.00     0.023 A 
ATOM     63  C   UNL A   1      47.679  28.665  26.466  1.00  0.00     0.031 A 
ATOM     64  C   UNL A   1      48.355  28.934  28.760  1.00  0.00     0.131 A 
ATOM     65  C   UNL A   1      48.972  28.209  26.165  1.00  0.00     0.055 A 
ATOM     66  C   UNL A   1      49.663  28.563  28.438  1.00  0.00     0.041 A 
ATOM     67  F   UNL A   1      48.094  29.222  30.045  1.00  0.00    -0.206 F 
ATOM     68  C   UNL A   1      49.974  28.181  27.137  1.00  0.00     0.022 A 
BRANCH  65  69
ATOM     69  S   UNL A   1      49.283  27.508  24.521  1.00  0.00     0.124 S 
ATOM     70  O   UNL A   1      49.481  26.096  24.835  1.00  0.00    -0.237 OA
ATOM     71  O   UNL A   1      48.059  27.838  23.801  1.00  0.00    -0.237 OA
ATOM     72  O   UNL A   1      50.481  28.213  24.069  1.00  0.00    -0.744 OA
ENDBRANCH  65  69
ENDBRANCH  48  62
BRANCH  49  73
ATOM     73  C   UNL A   1      37.968  31.148  30.603  1.00  0.00     0.023 A 
ATOM     74  C   UNL A   1      37.034  31.732  29.732  1.00  0.00     0.031 A 
ATOM     75  C   UNL A   1      37.575  30.929  31.936  1.00  0.00     0.131 A 
ATOM     76  C   UNL A   1      35.773  32.121  30.215  1.00  0.00     0.055 A 
ATOM     77  C   UNL A   1      36.299  31.262  32.395  1.00  0.00     0.041 A 
ATOM     78  F   UNL A   1      38.427  30.378  32.815  1.00  0.00    -0.206 F 
ATOM     79  C   UNL A   1      35.394  31.876  31.536  1.00  0.00     0.022 A 
BRANCH  76  80
ATOM     80  S   UNL A   1      34.666  33.049  29.115  1.00  0.00     0.124 S 
ATOM     81  O   UNL A   1      35.600  33.944  28.442  1.00  0.00    -0.237 OA
ATOM     82  O   UNL A   1      34.092  31.986  28.297  1.00  0.00    -0.237 OA
ATOM     83  O   UNL A   1      33.736  33.695  30.037  1.00  0.00    -0.744 OA
ENDBRANCH  76  80
ENDBRANCH  49  73
BRANCH  61  84
ATOM     84  C   UNL A   1      43.826  34.912  30.083  1.00  0.00     0.023 A 
ATOM     85  C   UNL A   1      43.542  35.904  29.128  1.00  0.00     0.031 A 
ATOM     86  C   UNL A   1      44.411  35.315  31.297  1.00  0.00     0.131 A 
ATOM     87  C   UNL A   1      43.898  37.239  29.377  1.00  0.00     0.055 A 
ATOM     88  C   UNL A   1      44.696  36.654  31.569  1.00  0.00     0.041 A 
ATOM     89  F   UNL A   1      44.711  34.413  32.245  1.00  0.00    -0.206 F 
ATOM     90  C   UNL A   1      44.454  37.623  30.600  1.00  0.00     0.022 A 
BRANCH  87  91
ATOM     91  S   UNL A   1      43.724  38.452  28.039  1.00  0.00     0.124 S 
ATOM     92  O   UNL A   1      43.600  37.593  26.867  1.00  0.00    -0.237 OA
ATOM     93  O   UNL A   1      42.519  39.176  28.429  1.00  0.00    -0.237 OA
ATOM     94  O   UNL A   1      44.963  39.224  28.113  1.00  0.00    -0.744 OA
ENDBRANCH  87  91
ENDBRANCH  61  84
ENDBRANCH  35  36
ENDBRANCH  27  30
ENDBRANCH  25  26
ENDBRANCH  24  25
ENDBRANCH   1  24
TORSDOF 19
ENDMDL
MODEL 3
REMARK VINA RESULT:     -10.5      5.586     10.556
REMARK SMILES CCCC1(CCC)C[NH+]([C@H]2CCC[C@@H](C(=O)NCCCCNC(=O)c3ccc(-c4c5nc(c(-c6cc(S(=O)(=O)[O-])ccc6F)c6ccc([nH]6)c(-c6cc(S(=O)(=O)[O-])ccc6F)c6nc(c(-c7cc(S(=O)(=O)[O-])ccc7F)c7ccc4[nH]7)C=C6)C=C5)cc3)C2)C1
REMARK SMILES IDX 19 1 18 2 17 3 15 4 16 5 14 7 10 8 11 9 88 10 12 11 13 12
REMARK SMILES IDX 9 13 4 14 8 15 89 16 3 18 2 19 1 20 5 21 6 22 7 23 20 24
REMARK SMILES IDX 21 25 22 26 23 27 24 29 25 30 26 31 87 32 27 33 86 34 28 35
REMARK SMILES IDX 29 36 30 37 80 38 31 39 85 40 79 41 81 42 32 43 84 44 78 45
REMARK SMILES IDX 77 46 33 48 65 49 45 50 64 51 46 52 49 53 63 54 82 55 47 56
REMARK SMILES IDX 48 57 62 59 83 60 50 61 34 62 35 63 43 64 36 65 42 66 44 67
REMARK SMILES IDX 41 68 37 69 38 70 39 71 40 72 66 73 67 74 75 75 68 76 74 77
REMARK SMILES IDX 76 78 73 79 69 80 70 81 71 82 72 83 51 84 52 85 60 86 53 87
REMARK SMILES IDX 59 88 61 89 58 90 54 91 55 92 56 93 57 94
REMARK H PARENT 17 6 9 17 22 28 81 47 49 58
REMARK Flexibility Score: inf
ROOT
ATOM      1  C   UNL A   1      36.882  20.915  25.157  1.00  0.00     0.023 C 
ENDROOT
BRANCH   1   2
ATOM      2  C   UNL A   1      36.359  22.447  25.120  1.00  0.00     0.116 C 
BRANCH   2   3
ATOM      3  N   UNL A   1      34.875  22.604  25.090  1.00  0.00    -0.356 N 
ATOM      4  C   UNL A   1      33.814  23.143  25.798  1.00  0.00     0.223 C 
ATOM      5  O   UNL A   1      33.818  24.236  26.357  1.00  0.00    -0.275 OA
ATOM      6  H   UNL A   1      34.526  22.170  24.278  1.00  0.00     0.163 HD
BRANCH   4   7
ATOM      7  C   UNL A   1      32.536  22.196  25.977  1.00  0.00     0.084 C 
ATOM      8  C   UNL A   1      31.033  23.418  24.307  1.00  0.00     0.184 C 
ATOM      9  C   UNL A   1      31.710  22.332  23.254  1.00  0.00     0.065 C 
ATOM     10  C   UNL A   1      31.092  22.629  25.605  1.00  0.00     0.078 C 
ATOM     11  C   UNL A   1      32.884  21.367  23.675  1.00  0.00     0.007 C 
ATOM     12  C   UNL A   1      32.847  20.953  25.139  1.00  0.00     0.014 C 
BRANCH   8  13
ATOM     13  N   UNL A   1      31.611  24.788  24.542  1.00  0.00    -0.331 N 
ATOM     14  C   UNL A   1      31.984  26.908  24.517  1.00  0.00     0.068 C 
ATOM     15  C   UNL A   1      32.145  25.624  23.418  1.00  0.00     0.275 C 
ATOM     16  C   UNL A   1      30.664  26.013  24.734  1.00  0.00     0.275 C 
ATOM     17  H   UNL A   1      32.200  24.386  25.271  1.00  0.00     0.348 HD
BRANCH  14  18
ATOM     18  C   UNL A   1      33.056  27.053  25.652  1.00  0.00     0.018 C 
BRANCH  18  19
ATOM     19  C   UNL A   1      32.909  27.745  27.017  1.00  0.00    -0.002 C 
ATOM     20  C   UNL A   1      31.655  28.482  27.421  1.00  0.00     0.004 C 
ENDBRANCH  18  19
ENDBRANCH  14  18
BRANCH  14  21
ATOM     21  C   UNL A   1      31.932  28.257  23.772  1.00  0.00     0.018 C 
BRANCH  21  22
ATOM     22  C   UNL A   1      33.296  28.954  23.656  1.00  0.00    -0.002 C 
ATOM     23  C   UNL A   1      34.147  28.612  22.430  1.00  0.00     0.004 C 
ENDBRANCH  21  22
ENDBRANCH  14  21
ENDBRANCH   8  13
ENDBRANCH   4   7
ENDBRANCH   2   3
ENDBRANCH   1   2
BRANCH   1  24
ATOM     24  C   UNL A   1      38.299  20.238  25.088  1.00  0.00     0.023 C 
BRANCH  24  25
ATOM     25  C   UNL A   1      39.447  20.335  26.083  1.00  0.00     0.116 C 
BRANCH  25  26
ATOM     26  N   UNL A   1      40.374  19.248  26.078  1.00  0.00    -0.352 N 
ATOM     27  C   UNL A   1      41.734  19.386  26.158  1.00  0.00     0.251 C 
ATOM     28  H   UNL A   1      40.008  18.336  26.011  1.00  0.00     0.163 HD
ATOM     29  O   UNL A   1      42.464  18.414  25.896  1.00  0.00    -0.269 OA
BRANCH  27  30
ATOM     30  C   UNL A   1      42.343  20.691  26.506  1.00  0.00     0.039 A 
ATOM     31  C   UNL A   1      42.426  21.066  27.849  1.00  0.00     0.014 A 
ATOM     32  C   UNL A   1      42.773  21.575  25.509  1.00  0.00     0.014 A 
ATOM     33  C   UNL A   1      42.896  22.340  28.191  1.00  0.00     0.010 A 
ATOM     34  C   UNL A   1      43.286  22.834  25.860  1.00  0.00     0.010 A 
ATOM     35  C   UNL A   1      43.317  23.248  27.202  1.00  0.00    -0.014 A 
BRANCH  35  36
ATOM     36  C   UNL A   1      43.715  24.637  27.591  1.00  0.00     0.031 A 
ATOM     37  C   UNL A   1      45.161  25.071  27.516  1.00  0.00     0.074 A 
ATOM     38  C   UNL A   1      42.778  25.533  27.964  1.00  0.00     0.049 A 
ATOM     39  N   UNL A   1      45.685  26.255  27.719  1.00  0.00    -0.248 NA
ATOM     40  C   UNL A   1      46.148  24.034  27.185  1.00  0.00     0.031 C 
ATOM     41  C   UNL A   1      41.350  25.241  28.105  1.00  0.00     0.029 A 
ATOM     42  N   UNL A   1      42.873  26.869  28.276  1.00  0.00    -0.354 N 
ATOM     43  C   UNL A   1      47.058  26.105  27.536  1.00  0.00     0.074 A 
ATOM     44  C   UNL A   1      47.289  24.701  27.274  1.00  0.00     0.031 C 
ATOM     45  C   UNL A   1      40.700  26.371  28.430  1.00  0.00     0.029 A 
ATOM     46  C   UNL A   1      41.663  27.462  28.562  1.00  0.00     0.049 A 
ATOM     47  H   UNL A   1      43.728  27.357  28.292  1.00  0.00     0.167 HD
ATOM     48  C   UNL A   1      48.033  27.051  27.556  1.00  0.00     0.034 A 
ATOM     49  C   UNL A   1      41.357  28.735  28.890  1.00  0.00     0.034 A 
ATOM     50  C   UNL A   1      47.793  28.450  27.820  1.00  0.00     0.049 A 
ATOM     51  C   UNL A   1      42.464  29.762  28.950  1.00  0.00     0.074 A 
ATOM     52  C   UNL A   1      48.702  29.495  27.820  1.00  0.00     0.029 A 
ATOM     53  N   UNL A   1      46.560  29.001  28.146  1.00  0.00    -0.354 N 
ATOM     54  N   UNL A   1      43.747  29.611  28.711  1.00  0.00    -0.248 NA
ATOM     55  C   UNL A   1      42.079  31.133  29.309  1.00  0.00     0.031 C 
ATOM     56  C   UNL A   1      48.037  30.657  28.228  1.00  0.00     0.029 A 
ATOM     57  C   UNL A   1      46.694  30.360  28.391  1.00  0.00     0.049 A 
ATOM     58  H   UNL A   1      45.715  28.500  28.198  1.00  0.00     0.167 HD
ATOM     59  C   UNL A   1      44.314  30.874  28.860  1.00  0.00     0.074 A 
ATOM     60  C   UNL A   1      43.231  31.778  29.190  1.00  0.00     0.031 C 
ATOM     61  C   UNL A   1      45.611  31.254  28.733  1.00  0.00     0.034 A 
BRANCH  48  62
ATOM     62  C   UNL A   1      49.456  26.595  27.315  1.00  0.00     0.023 A 
ATOM     63  C   UNL A   1      50.416  26.585  28.343  1.00  0.00     0.031 A 
ATOM     64  C   UNL A   1      49.864  26.174  26.037  1.00  0.00     0.131 A 
ATOM     65  C   UNL A   1      51.747  26.242  28.059  1.00  0.00     0.055 A 
ATOM     66  C   UNL A   1      51.171  25.750  25.780  1.00  0.00     0.041 A 
ATOM     67  F   UNL A   1      49.002  26.175  25.007  1.00  0.00    -0.206 F 
ATOM     68  C   UNL A   1      52.126  25.798  26.790  1.00  0.00     0.022 A 
BRANCH  65  69
ATOM     69  S   UNL A   1      53.007  26.530  29.332  1.00  0.00     0.124 S 
ATOM     70  O   UNL A   1      54.144  25.789  28.795  1.00  0.00    -0.237 OA
ATOM     71  O   UNL A   1      53.131  27.983  29.329  1.00  0.00    -0.237 OA
ATOM     72  O   UNL A   1      52.413  25.958  30.538  1.00  0.00    -0.744 OA
ENDBRANCH  65  69
ENDBRANCH  48  62
BRANCH  49  73
ATOM     73  C   UNL A   1      39.948  29.122  29.204  1.00  0.00     0.023 A 
ATOM     74  C   UNL A   1      39.495  29.225  30.530  1.00  0.00     0.031 A 
ATOM     75  C   UNL A   1      39.016  29.342  28.173  1.00  0.00     0.131 A 
ATOM     76  C   UNL A   1      38.139  29.491  30.789  1.00  0.00     0.055 A 
ATOM     77  C   UNL A   1      37.684  29.666  28.436  1.00  0.00     0.041 A 
ATOM     78  F   UNL A   1      39.392  29.253  26.887  1.00  0.00    -0.206 F 
ATOM     79  C   UNL A   1      37.236  29.728  29.751  1.00  0.00     0.022 A 
BRANCH  76  80
ATOM     80  S   UNL A   1      37.549  29.424  32.504  1.00  0.00     0.124 S 
ATOM     81  O   UNL A   1      37.650  27.998  32.795  1.00  0.00    -0.237 OA
ATOM     82  O   UNL A   1      38.505  30.288  33.187  1.00  0.00    -0.237 OA
ATOM     83  O   UNL A   1      36.189  29.949  32.415  1.00  0.00    -0.744 OA
ENDBRANCH  76  80
ENDBRANCH  49  73
BRANCH  61  84
ATOM     84  C   UNL A   1      45.924  32.722  28.911  1.00  0.00     0.023 A 
ATOM     85  C   UNL A   1      46.001  33.603  27.818  1.00  0.00     0.031 A 
ATOM     86  C   UNL A   1      46.157  33.246  30.196  1.00  0.00     0.131 A 
ATOM     87  C   UNL A   1      46.362  34.944  28.022  1.00  0.00     0.055 A 
ATOM     88  C   UNL A   1      46.445  34.596  30.400  1.00  0.00     0.041 A 
ATOM     89  F   UNL A   1      46.103  32.452  31.278  1.00  0.00    -0.206 F 
ATOM     90  C   UNL A   1      46.564  35.450  29.310  1.00  0.00     0.022 A 
BRANCH  87  91
ATOM     91  S   UNL A   1      46.671  35.995  26.576  1.00  0.00     0.124 S 
ATOM     92  O   UNL A   1      46.066  37.258  26.986  1.00  0.00    -0.237 OA
ATOM     93  O   UNL A   1      48.128  35.985  26.489  1.00  0.00    -0.237 OA
ATOM     94  O   UNL A   1      45.980  35.299  25.493  1.00  0.00    -0.744 OA
ENDBRANCH  87  91
ENDBRANCH  61  84
ENDBRANCH  35  36
ENDBRANCH  27  30
ENDBRANCH  25  26
ENDBRANCH  24  25
ENDBRANCH   1  24
TORSDOF 19
ENDMDL
