MODEL 1
REMARK VINA RESULT:     -12.4      0.000      0.000
REMARK SMILES O=C(NCCCCNC(=O)c1ccc(-c2c3nc(c(-c4cc(S(=O)(=O)[O-])ccc4F)c4ccc([nH]4)c(-c4cc(S(=O)(=O)[O-])ccc4F)c4nc(c(-c5cc(S(=O)(=O)[O-])ccc5F)c5ccc2[nH]5)C=C4)C=C3)cc1)C1=Cc2cc(Cl)c(Cl)cc2O[C@@H]1C(F)(F)F
REMARK SMILES IDX 6 1 5 2 4 3 3 4 1 5 2 6 74 8 75 9 85 10 76 11 84 12 77 13
REMARK SMILES IDX 83 14 78 15 82 16 79 17 80 18 81 19 86 20 87 21 88 22 89 23
REMARK SMILES IDX 7 24 8 25 9 26 10 28 11 29 12 30 73 31 13 32 72 33 14 34
REMARK SMILES IDX 15 35 16 36 66 37 17 38 71 39 65 40 67 41 18 42 70 43 64 44
REMARK SMILES IDX 63 45 19 47 51 48 31 49 50 50 32 51 35 52 49 53 68 54 33 55
REMARK SMILES IDX 34 56 48 58 69 59 36 60 20 61 21 62 29 63 22 64 28 65 30 66
REMARK SMILES IDX 27 67 23 68 24 69 25 70 26 71 52 72 53 73 61 74 54 75 60 76
REMARK SMILES IDX 62 77 59 78 55 79 56 80 57 81 58 82 37 83 38 84 46 85 39 86
REMARK SMILES IDX 45 87 47 88 44 89 40 90 41 91 42 92 43 93
REMARK H PARENT 3 7 8 27 67 46 35 57
REMARK Flexibility Score: inf
ROOT
ATOM      1  C   UNL A   1      32.904  29.166  27.173  1.00  0.00     0.023 C 
ENDROOT
BRANCH   1   2
ATOM      2  C   UNL A   1      33.669  27.875  26.885  1.00  0.00     0.023 C 
BRANCH   2   3
ATOM      3  C   UNL A   1      33.161  27.085  25.678  1.00  0.00     0.116 C 
BRANCH   3   4
ATOM      4  N   UNL A   1      33.545  27.657  24.384  1.00  0.00    -0.352 N 
ATOM      5  O   UNL A   1      33.301  28.965  22.543  1.00  0.00    -0.270 OA
ATOM      6  C   UNL A   1      32.785  28.344  23.464  1.00  0.00     0.251 C 
ATOM      7  H   UNL A   1      34.488  27.531  24.134  1.00  0.00     0.163 HD
BRANCH   6   8
ATOM      8  C   UNL A   1      31.326  28.411  23.685  1.00  0.00     0.067 C 
ATOM      9  C   UNL A   1      30.805  29.441  24.366  1.00  0.00     0.025 C 
ATOM     10  C   UNL A   1      30.468  27.501  22.861  1.00  0.00     0.314 C 
ATOM     11  C   UNL A   1      29.711  30.086  23.616  1.00  0.00     0.019 A 
ATOM     12  O   UNL A   1      29.575  28.246  21.997  1.00  0.00    -0.475 OA
ATOM     13  C   UNL A   1      29.472  31.443  23.862  1.00  0.00     0.034 A 
ATOM     14  C   UNL A   1      29.253  29.515  22.412  1.00  0.00     0.129 A 
ATOM     15  C   UNL A   1      28.848  32.234  22.890  1.00  0.00     0.060 A 
ATOM     16  C   UNL A   1      28.591  30.295  21.465  1.00  0.00     0.069 A 
ATOM     17  Cl  UNL A   1      28.756  33.932  23.193  1.00  0.00    -0.083 Cl
ATOM     18  C   UNL A   1      28.413  31.661  21.689  1.00  0.00     0.063 A 
ATOM     19  Cl  UNL A   1      27.724  32.597  20.413  1.00  0.00    -0.083 Cl
BRANCH  10  20
ATOM     20  C   UNL A   1      29.675  26.523  23.747  1.00  0.00     0.429 C 
ATOM     21  F   UNL A   1      29.888  25.238  23.374  1.00  0.00    -0.167 F 
ATOM     22  F   UNL A   1      30.030  26.617  25.050  1.00  0.00    -0.167 F 
ATOM     23  F   UNL A   1      28.338  26.736  23.683  1.00  0.00    -0.167 F 
ENDBRANCH  10  20
ENDBRANCH   6   8
ENDBRANCH   3   4
ENDBRANCH   2   3
ENDBRANCH   1   2
BRANCH   1  24
ATOM     24  C   UNL A   1      33.516  30.458  26.633  1.00  0.00     0.116 C 
BRANCH  24  25
ATOM     25  N   UNL A   1      33.519  31.572  27.572  1.00  0.00    -0.352 N 
ATOM     26  C   UNL A   1      34.454  31.879  28.540  1.00  0.00     0.251 C 
ATOM     27  H   UNL A   1      32.753  32.187  27.508  1.00  0.00     0.163 HD
ATOM     28  O   UNL A   1      34.274  32.836  29.288  1.00  0.00    -0.269 OA
BRANCH  26  29
ATOM     29  C   UNL A   1      35.636  31.006  28.713  1.00  0.00     0.039 A 
ATOM     30  C   UNL A   1      36.842  31.381  28.116  1.00  0.00     0.014 A 
ATOM     31  C   UNL A   1      35.580  29.886  29.546  1.00  0.00     0.014 A 
ATOM     32  C   UNL A   1      38.018  30.706  28.454  1.00  0.00     0.010 A 
ATOM     33  C   UNL A   1      36.763  29.270  29.946  1.00  0.00     0.010 A 
ATOM     34  C   UNL A   1      37.998  29.689  29.424  1.00  0.00    -0.014 A 
BRANCH  34  35
ATOM     35  C   UNL A   1      39.257  29.087  29.938  1.00  0.00     0.031 A 
ATOM     36  C   UNL A   1      39.949  29.687  31.131  1.00  0.00     0.074 A 
ATOM     37  C   UNL A   1      39.819  28.054  29.278  1.00  0.00     0.049 A 
ATOM     38  N   UNL A   1      41.097  29.366  31.670  1.00  0.00    -0.248 NA
ATOM     39  C   UNL A   1      39.277  30.824  31.777  1.00  0.00     0.031 C 
ATOM     40  C   UNL A   1      39.274  27.422  28.072  1.00  0.00     0.029 A 
ATOM     41  N   UNL A   1      40.978  27.356  29.515  1.00  0.00    -0.354 N 
ATOM     42  C   UNL A   1      41.293  30.270  32.710  1.00  0.00     0.074 A 
ATOM     43  C   UNL A   1      40.175  31.190  32.679  1.00  0.00     0.031 C 
ATOM     44  C   UNL A   1      40.080  26.416  27.696  1.00  0.00     0.029 A 
ATOM     45  C   UNL A   1      41.222  26.356  28.603  1.00  0.00     0.049 A 
ATOM     46  H   UNL A   1      41.579  27.554  30.271  1.00  0.00     0.167 HD
ATOM     47  C   UNL A   1      42.298  30.312  33.620  1.00  0.00     0.034 A 
ATOM     48  C   UNL A   1      42.254  25.494  28.499  1.00  0.00     0.034 A 
ATOM     49  C   UNL A   1      43.395  29.377  33.647  1.00  0.00     0.049 A 
ATOM     50  C   UNL A   1      43.358  25.559  29.523  1.00  0.00     0.074 A 
ATOM     51  C   UNL A   1      44.436  29.293  34.555  1.00  0.00     0.029 A 
ATOM     52  N   UNL A   1      43.597  28.363  32.718  1.00  0.00    -0.354 N 
ATOM     53  N   UNL A   1      43.499  26.386  30.533  1.00  0.00    -0.248 NA
ATOM     54  C   UNL A   1      44.435  24.569  29.399  1.00  0.00     0.031 C 
ATOM     55  C   UNL A   1      45.296  28.268  34.143  1.00  0.00     0.029 A 
ATOM     56  C   UNL A   1      44.758  27.665  33.018  1.00  0.00     0.049 A 
ATOM     57  H   UNL A   1      43.002  28.167  31.958  1.00  0.00     0.167 HD
ATOM     58  C   UNL A   1      44.667  25.997  31.181  1.00  0.00     0.074 A 
ATOM     59  C   UNL A   1      45.182  24.851  30.457  1.00  0.00     0.031 C 
ATOM     60  C   UNL A   1      45.261  26.532  32.277  1.00  0.00     0.034 A 
BRANCH  47  61
ATOM     61  C   UNL A   1      42.255  31.423  34.644  1.00  0.00     0.023 A 
ATOM     62  C   UNL A   1      41.291  31.444  35.668  1.00  0.00     0.031 A 
ATOM     63  C   UNL A   1      43.161  32.496  34.573  1.00  0.00     0.131 A 
ATOM     64  C   UNL A   1      41.200  32.551  36.523  1.00  0.00     0.055 A 
ATOM     65  C   UNL A   1      43.119  33.556  35.481  1.00  0.00     0.041 A 
ATOM     66  F   UNL A   1      44.091  32.542  33.606  1.00  0.00    -0.206 F 
ATOM     67  C   UNL A   1      42.123  33.597  36.453  1.00  0.00     0.022 A 
BRANCH  64  68
ATOM     68  S   UNL A   1      39.764  32.677  37.624  1.00  0.00     0.124 S 
ATOM     69  O   UNL A   1      40.400  32.649  38.939  1.00  0.00    -0.237 OA
ATOM     70  O   UNL A   1      39.172  33.949  37.226  1.00  0.00    -0.237 OA
ATOM     71  O   UNL A   1      38.976  31.491  37.296  1.00  0.00    -0.744 OA
ENDBRANCH  64  68
ENDBRANCH  47  61
BRANCH  48  72
ATOM     72  C   UNL A   1      42.302  24.495  27.392  1.00  0.00     0.023 A 
ATOM     73  C   UNL A   1      41.596  23.285  27.478  1.00  0.00     0.031 A 
ATOM     74  C   UNL A   1      43.088  24.719  26.248  1.00  0.00     0.131 A 
ATOM     75  C   UNL A   1      41.728  22.323  26.463  1.00  0.00     0.055 A 
ATOM     76  C   UNL A   1      43.175  23.781  25.217  1.00  0.00     0.041 A 
ATOM     77  F   UNL A   1      43.776  25.864  26.109  1.00  0.00    -0.206 F 
ATOM     78  C   UNL A   1      42.503  22.568  25.328  1.00  0.00     0.022 A 
BRANCH  75  79
ATOM     79  S   UNL A   1      40.931  20.708  26.688  1.00  0.00     0.124 S 
ATOM     80  O   UNL A   1      39.656  20.910  26.010  1.00  0.00    -0.237 OA
ATOM     81  O   UNL A   1      41.874  19.811  26.028  1.00  0.00    -0.237 OA
ATOM     82  O   UNL A   1      40.852  20.567  28.141  1.00  0.00    -0.744 OA
ENDBRANCH  75  79
ENDBRANCH  48  72
BRANCH  60  83
ATOM     83  C   UNL A   1      46.511  25.852  32.778  1.00  0.00     0.023 A 
ATOM     84  C   UNL A   1      47.759  26.059  32.167  1.00  0.00     0.031 A 
ATOM     85  C   UNL A   1      46.445  24.975  33.875  1.00  0.00     0.131 A 
ATOM     86  C   UNL A   1      48.884  25.354  32.623  1.00  0.00     0.055 A 
ATOM     87  C   UNL A   1      47.578  24.320  34.360  1.00  0.00     0.041 A 
ATOM     88  F   UNL A   1      45.277  24.741  34.494  1.00  0.00    -0.206 F 
ATOM     89  C   UNL A   1      48.804  24.498  33.725  1.00  0.00     0.022 A 
BRANCH  86  90
ATOM     90  S   UNL A   1      50.438  25.506  31.701  1.00  0.00     0.124 S 
ATOM     91  O   UNL A   1      50.807  24.109  31.496  1.00  0.00    -0.237 OA
ATOM     92  O   UNL A   1      50.024  26.237  30.508  1.00  0.00    -0.237 OA
ATOM     93  O   UNL A   1      51.306  26.249  32.612  1.00  0.00    -0.744 OA
ENDBRANCH  86  90
ENDBRANCH  60  83
ENDBRANCH  34  35
ENDBRANCH  26  29
ENDBRANCH  24  25
ENDBRANCH   1  24
TORSDOF 15
ENDMDL
MODEL 2
REMARK VINA RESULT:     -12.4      6.575      9.581
REMARK SMILES O=C(NCCCCNC(=O)c1ccc(-c2c3nc(c(-c4cc(S(=O)(=O)[O-])ccc4F)c4ccc([nH]4)c(-c4cc(S(=O)(=O)[O-])ccc4F)c4nc(c(-c5cc(S(=O)(=O)[O-])ccc5F)c5ccc2[nH]5)C=C4)C=C3)cc1)C1=Cc2cc(Cl)c(Cl)cc2O[C@@H]1C(F)(F)F
REMARK SMILES IDX 6 1 5 2 4 3 3 4 1 5 2 6 74 8 75 9 85 10 76 11 84 12 77 13
REMARK SMILES IDX 83 14 78 15 82 16 79 17 80 18 81 19 86 20 87 21 88 22 89 23
REMARK SMILES IDX 7 24 8 25 9 26 10 28 11 29 12 30 73 31 13 32 72 33 14 34
REMARK SMILES IDX 15 35 16 36 66 37 17 38 71 39 65 40 67 41 18 42 70 43 64 44
REMARK SMILES IDX 63 45 19 47 51 48 31 49 50 50 32 51 35 52 49 53 68 54 33 55
REMARK SMILES IDX 34 56 48 58 69 59 36 60 20 61 21 62 29 63 22 64 28 65 30 66
REMARK SMILES IDX 27 67 23 68 24 69 25 70 26 71 52 72 53 73 61 74 54 75 60 76
REMARK SMILES IDX 62 77 59 78 55 79 56 80 57 81 58 82 37 83 38 84 46 85 39 86
REMARK SMILES IDX 45 87 47 88 44 89 40 90 41 91 42 92 43 93
REMARK H PARENT 3 7 8 27 67 46 35 57
REMARK Flexibility Score: inf
ROOT
ATOM      1  C   UNL A   1      38.117  21.641  25.445  1.00  0.00     0.023 C 
ENDROOT
BRANCH   1   2
ATOM      2  C   UNL A   1      37.716  23.113  25.371  1.00  0.00     0.023 C 
BRANCH   2   3
ATOM      3  C   UNL A   1      36.209  23.363  25.300  1.00  0.00     0.116 C 
BRANCH   3   4
ATOM      4  N   UNL A   1      35.470  22.915  26.484  1.00  0.00    -0.352 N 
ATOM      5  O   UNL A   1      34.222  21.481  27.727  1.00  0.00    -0.270 OA
ATOM      6  C   UNL A   1      34.573  21.880  26.623  1.00  0.00     0.251 C 
ATOM      7  H   UNL A   1      35.642  23.432  27.304  1.00  0.00     0.163 HD
BRANCH   6   8
ATOM      8  C   UNL A   1      34.130  21.181  25.400  1.00  0.00     0.067 C 
ATOM      9  C   UNL A   1      34.931  20.269  24.831  1.00  0.00     0.025 C 
ATOM     10  C   UNL A   1      32.679  21.284  25.042  1.00  0.00     0.314 C 
ATOM     11  C   UNL A   1      34.224  18.992  24.613  1.00  0.00     0.019 A 
ATOM     12  O   UNL A   1      32.029  19.990  25.068  1.00  0.00    -0.475 OA
ATOM     13  C   UNL A   1      34.994  17.823  24.598  1.00  0.00     0.034 A 
ATOM     14  C   UNL A   1      32.842  18.901  24.868  1.00  0.00     0.129 A 
ATOM     15  C   UNL A   1      34.406  16.590  24.906  1.00  0.00     0.060 A 
ATOM     16  C   UNL A   1      32.249  17.666  25.128  1.00  0.00     0.069 A 
ATOM     17  Cl  UNL A   1      35.456  15.227  25.048  1.00  0.00    -0.083 Cl
ATOM     18  C   UNL A   1      33.034  16.513  25.176  1.00  0.00     0.063 A 
ATOM     19  Cl  UNL A   1      32.266  15.043  25.653  1.00  0.00    -0.083 Cl
BRANCH  10  20
ATOM     20  C   UNL A   1      32.487  21.960  23.672  1.00  0.00     0.429 C 
ATOM     21  F   UNL A   1      31.356  22.706  23.646  1.00  0.00    -0.167 F 
ATOM     22  F   UNL A   1      33.512  22.790  23.367  1.00  0.00    -0.167 F 
ATOM     23  F   UNL A   1      32.390  21.061  22.661  1.00  0.00    -0.167 F 
ENDBRANCH  10  20
ENDBRANCH   6   8
ENDBRANCH   3   4
ENDBRANCH   2   3
ENDBRANCH   1   2
BRANCH   1  24
ATOM     24  C   UNL A   1      39.211  21.279  26.451  1.00  0.00     0.116 C 
BRANCH  24  25
ATOM     25  N   UNL A   1      39.974  20.083  26.119  1.00  0.00    -0.352 N 
ATOM     26  C   UNL A   1      41.343  19.929  26.047  1.00  0.00     0.251 C 
ATOM     27  H   UNL A   1      39.442  19.279  25.922  1.00  0.00     0.163 HD
ATOM     28  O   UNL A   1      41.824  18.853  25.700  1.00  0.00    -0.269 OA
BRANCH  26  29
ATOM     29  C   UNL A   1      42.222  21.087  26.323  1.00  0.00     0.039 A 
ATOM     30  C   UNL A   1      42.570  21.933  25.268  1.00  0.00     0.014 A 
ATOM     31  C   UNL A   1      42.609  21.393  27.629  1.00  0.00     0.014 A 
ATOM     32  C   UNL A   1      43.199  23.151  25.540  1.00  0.00     0.010 A 
ATOM     33  C   UNL A   1      43.159  22.642  27.906  1.00  0.00     0.010 A 
ATOM     34  C   UNL A   1      43.436  23.546  26.867  1.00  0.00    -0.014 A 
BRANCH  34  35
ATOM     35  C   UNL A   1      43.928  24.911  27.191  1.00  0.00     0.031 A 
ATOM     36  C   UNL A   1      42.987  25.938  27.759  1.00  0.00     0.074 A 
ATOM     37  C   UNL A   1      45.200  25.250  26.894  1.00  0.00     0.049 A 
ATOM     38  N   UNL A   1      43.200  27.202  28.019  1.00  0.00    -0.248 NA
ATOM     39  C   UNL A   1      41.614  25.490  28.033  1.00  0.00     0.031 C 
ATOM     40  C   UNL A   1      46.192  24.358  26.285  1.00  0.00     0.029 A 
ATOM     41  N   UNL A   1      45.877  26.434  27.050  1.00  0.00    -0.354 N 
ATOM     42  C   UNL A   1      41.985  27.705  28.475  1.00  0.00     0.074 A 
ATOM     43  C   UNL A   1      41.028  26.623  28.389  1.00  0.00     0.031 C 
ATOM     44  C   UNL A   1      47.354  25.018  26.148  1.00  0.00     0.029 A 
ATOM     45  C   UNL A   1      47.182  26.389  26.615  1.00  0.00     0.049 A 
ATOM     46  H   UNL A   1      45.467  27.240  27.439  1.00  0.00     0.167 HD
ATOM     47  C   UNL A   1      41.702  28.947  28.942  1.00  0.00     0.034 A 
ATOM     48  C   UNL A   1      48.131  27.346  26.585  1.00  0.00     0.034 A 
ATOM     49  C   UNL A   1      42.673  30.009  29.035  1.00  0.00     0.049 A 
ATOM     50  C   UNL A   1      47.794  28.718  27.112  1.00  0.00     0.074 A 
ATOM     51  C   UNL A   1      42.510  31.286  29.544  1.00  0.00     0.029 A 
ATOM     52  N   UNL A   1      43.992  29.920  28.605  1.00  0.00    -0.354 N 
ATOM     53  N   UNL A   1      46.653  29.161  27.589  1.00  0.00    -0.248 NA
ATOM     54  C   UNL A   1      48.872  29.714  27.105  1.00  0.00     0.031 C 
ATOM     55  C   UNL A   1      43.710  31.985  29.369  1.00  0.00     0.029 A 
ATOM     56  C   UNL A   1      44.645  31.126  28.814  1.00  0.00     0.049 A 
ATOM     57  H   UNL A   1      44.403  29.118  28.210  1.00  0.00     0.167 HD
ATOM     58  C   UNL A   1      46.887  30.480  27.966  1.00  0.00     0.074 A 
ATOM     59  C   UNL A   1      48.281  30.754  27.675  1.00  0.00     0.031 C 
ATOM     60  C   UNL A   1      46.032  31.384  28.507  1.00  0.00     0.034 A 
BRANCH  47  61
ATOM     61  C   UNL A   1      40.277  29.216  29.366  1.00  0.00     0.023 A 
ATOM     62  C   UNL A   1      39.886  29.153  30.716  1.00  0.00     0.031 A 
ATOM     63  C   UNL A   1      39.287  29.499  28.409  1.00  0.00     0.131 A 
ATOM     64  C   UNL A   1      38.534  29.283  31.061  1.00  0.00     0.055 A 
ATOM     65  C   UNL A   1      37.955  29.712  28.768  1.00  0.00     0.041 A 
ATOM     66  F   UNL A   1      39.595  29.553  27.103  1.00  0.00    -0.206 F 
ATOM     67  C   UNL A   1      37.568  29.587  30.099  1.00  0.00     0.022 A 
BRANCH  64  68
ATOM     68  S   UNL A   1      38.035  28.896  32.761  1.00  0.00     0.124 S 
ATOM     69  O   UNL A   1      38.096  27.437  32.760  1.00  0.00    -0.237 OA
ATOM     70  O   UNL A   1      39.052  29.579  33.552  1.00  0.00    -0.237 OA
ATOM     71  O   UNL A   1      36.688  29.455  32.859  1.00  0.00    -0.744 OA
ENDBRANCH  64  68
ENDBRANCH  47  61
BRANCH  48  72
ATOM     72  C   UNL A   1      49.489  27.055  26.041  1.00  0.00     0.023 A 
ATOM     73  C   UNL A   1      49.823  27.383  24.717  1.00  0.00     0.031 A 
ATOM     74  C   UNL A   1      50.460  26.405  26.824  1.00  0.00     0.131 A 
ATOM     75  C   UNL A   1      51.077  27.018  24.200  1.00  0.00     0.055 A 
ATOM     76  C   UNL A   1      51.724  26.091  26.321  1.00  0.00     0.041 A 
ATOM     77  F   UNL A   1      50.196  26.077  28.099  1.00  0.00    -0.206 F 
ATOM     78  C   UNL A   1      52.034  26.385  24.997  1.00  0.00     0.022 A 
BRANCH  75  79
ATOM     79  S   UNL A   1      51.411  27.314  22.441  1.00  0.00     0.124 S 
ATOM     80  O   UNL A   1      52.590  26.484  22.220  1.00  0.00    -0.237 OA
ATOM     81  O   UNL A   1      50.175  26.853  21.818  1.00  0.00    -0.237 OA
ATOM     82  O   UNL A   1      51.640  28.756  22.377  1.00  0.00    -0.744 OA
ENDBRANCH  75  79
ENDBRANCH  48  72
BRANCH  60  83
ATOM     83  C   UNL A   1      46.599  32.737  28.855  1.00  0.00     0.023 A 
ATOM     84  C   UNL A   1      46.568  33.807  27.944  1.00  0.00     0.031 A 
ATOM     85  C   UNL A   1      47.190  32.952  30.112  1.00  0.00     0.131 A 
ATOM     86  C   UNL A   1      47.166  35.030  28.285  1.00  0.00     0.055 A 
ATOM     87  C   UNL A   1      47.734  34.188  30.466  1.00  0.00     0.041 A 
ATOM     88  F   UNL A   1      47.248  31.963  31.019  1.00  0.00    -0.206 F 
ATOM     89  C   UNL A   1      47.735  35.232  29.545  1.00  0.00     0.022 A 
BRANCH  86  90
ATOM     90  S   UNL A   1      47.268  36.330  27.023  1.00  0.00     0.124 S 
ATOM     91  O   UNL A   1      46.548  35.726  25.907  1.00  0.00    -0.237 OA
ATOM     92  O   UNL A   1      46.604  37.452  27.678  1.00  0.00    -0.237 OA
ATOM     93  O   UNL A   1      48.706  36.496  26.818  1.00  0.00    -0.744 OA
ENDBRANCH  86  90
ENDBRANCH  60  83
ENDBRANCH  34  35
ENDBRANCH  26  29
ENDBRANCH  24  25
ENDBRANCH   1  24
TORSDOF 15
ENDMDL
MODEL 3
REMARK VINA RESULT:     -12.3      5.728     10.423
REMARK SMILES O=C(NCCCCNC(=O)c1ccc(-c2c3nc(c(-c4cc(S(=O)(=O)[O-])ccc4F)c4ccc([nH]4)c(-c4cc(S(=O)(=O)[O-])ccc4F)c4nc(c(-c5cc(S(=O)(=O)[O-])ccc5F)c5ccc2[nH]5)C=C4)C=C3)cc1)C1=Cc2cc(Cl)c(Cl)cc2O[C@@H]1C(F)(F)F
REMARK SMILES IDX 6 1 5 2 4 3 3 4 1 5 2 6 74 8 75 9 85 10 76 11 84 12 77 13
REMARK SMILES IDX 83 14 78 15 82 16 79 17 80 18 81 19 86 20 87 21 88 22 89 23
REMARK SMILES IDX 7 24 8 25 9 26 10 28 11 29 12 30 73 31 13 32 72 33 14 34
REMARK SMILES IDX 15 35 16 36 66 37 17 38 71 39 65 40 67 41 18 42 70 43 64 44
REMARK SMILES IDX 63 45 19 47 51 48 31 49 50 50 32 51 35 52 49 53 68 54 33 55
REMARK SMILES IDX 34 56 48 58 69 59 36 60 20 61 21 62 29 63 22 64 28 65 30 66
REMARK SMILES IDX 27 67 23 68 24 69 25 70 26 71 52 72 53 73 61 74 54 75 60 76
REMARK SMILES IDX 62 77 59 78 55 79 56 80 57 81 58 82 37 83 38 84 46 85 39 86
REMARK SMILES IDX 45 87 47 88 44 89 40 90 41 91 42 92 43 93
REMARK H PARENT 3 7 8 27 67 46 35 57
REMARK Flexibility Score: inf
ROOT
ATOM      1  C   UNL A   1      37.390  22.624  24.901  1.00  0.00     0.023 C 
ENDROOT
BRANCH   1   2
ATOM      2  C   UNL A   1      36.687  23.960  25.138  1.00  0.00     0.023 C 
BRANCH   2   3
ATOM      3  C   UNL A   1      35.163  23.876  25.219  1.00  0.00     0.116 C 
BRANCH   3   4
ATOM      4  N   UNL A   1      34.663  23.186  26.412  1.00  0.00    -0.352 N 
ATOM      5  O   UNL A   1      33.974  21.401  27.637  1.00  0.00    -0.270 OA
ATOM      6  C   UNL A   1      34.123  21.925  26.540  1.00  0.00     0.251 C 
ATOM      7  H   UNL A   1      34.723  23.701  27.249  1.00  0.00     0.163 HD
BRANCH   6   8
ATOM      8  C   UNL A   1      33.834  21.169  25.304  1.00  0.00     0.067 C 
ATOM      9  C   UNL A   1      34.751  20.322  24.816  1.00  0.00     0.025 C 
ATOM     10  C   UNL A   1      32.410  21.138  24.841  1.00  0.00     0.314 C 
ATOM     11  C   UNL A   1      34.176  18.985  24.577  1.00  0.00     0.019 A 
ATOM     12  O   UNL A   1      31.874  19.792  24.850  1.00  0.00    -0.475 OA
ATOM     13  C   UNL A   1      35.044  17.889  24.644  1.00  0.00     0.034 A 
ATOM     14  C   UNL A   1      32.792  18.776  24.733  1.00  0.00     0.129 A 
ATOM     15  C   UNL A   1      34.544  16.614  24.937  1.00  0.00     0.060 A 
ATOM     16  C   UNL A   1      32.291  17.499  24.978  1.00  0.00     0.069 A 
ATOM     17  Cl  UNL A   1      35.695  15.351  25.185  1.00  0.00    -0.083 Cl
ATOM     18  C   UNL A   1      33.168  16.421  25.109  1.00  0.00     0.063 A 
ATOM     19  Cl  UNL A   1      32.497  14.897  25.563  1.00  0.00    -0.083 Cl
BRANCH  10  20
ATOM     20  C   UNL A   1      32.262  21.772  23.445  1.00  0.00     0.429 C 
ATOM     21  F   UNL A   1      33.426  22.329  23.032  1.00  0.00    -0.167 F 
ATOM     22  F   UNL A   1      31.909  20.860  22.508  1.00  0.00    -0.167 F 
ATOM     23  F   UNL A   1      31.324  22.751  23.420  1.00  0.00    -0.167 F 
ENDBRANCH  10  20
ENDBRANCH   6   8
ENDBRANCH   3   4
ENDBRANCH   2   3
ENDBRANCH   1   2
BRANCH   1  24
ATOM     24  C   UNL A   1      38.094  21.999  26.106  1.00  0.00     0.116 C 
BRANCH  24  25
ATOM     25  N   UNL A   1      39.468  21.580  25.860  1.00  0.00    -0.352 N 
ATOM     26  C   UNL A   1      40.634  22.281  26.086  1.00  0.00     0.251 C 
ATOM     27  H   UNL A   1      39.578  20.677  25.484  1.00  0.00     0.163 HD
ATOM     28  O   UNL A   1      41.717  21.793  25.771  1.00  0.00    -0.269 OA
BRANCH  26  29
ATOM     29  C   UNL A   1      40.565  23.650  26.644  1.00  0.00     0.039 A 
ATOM     30  C   UNL A   1      40.862  23.841  27.995  1.00  0.00     0.014 A 
ATOM     31  C   UNL A   1      40.314  24.746  25.816  1.00  0.00     0.014 A 
ATOM     32  C   UNL A   1      41.030  25.138  28.487  1.00  0.00     0.010 A 
ATOM     33  C   UNL A   1      40.564  26.033  26.286  1.00  0.00     0.010 A 
ATOM     34  C   UNL A   1      40.950  26.241  27.620  1.00  0.00    -0.014 A 
BRANCH  34  35
ATOM     35  C   UNL A   1      41.311  27.610  28.076  1.00  0.00     0.031 A 
ATOM     36  C   UNL A   1      42.752  28.039  28.113  1.00  0.00     0.074 A 
ATOM     37  C   UNL A   1      40.347  28.434  28.538  1.00  0.00     0.049 A 
ATOM     38  N   UNL A   1      43.274  29.151  28.563  1.00  0.00    -0.248 NA
ATOM     39  C   UNL A   1      43.738  27.071  27.611  1.00  0.00     0.031 C 
ATOM     40  C   UNL A   1      38.919  28.110  28.609  1.00  0.00     0.029 A 
ATOM     41  N   UNL A   1      40.418  29.708  29.045  1.00  0.00    -0.354 N 
ATOM     42  C   UNL A   1      44.650  29.012  28.412  1.00  0.00     0.074 A 
ATOM     43  C   UNL A   1      44.880  27.681  27.891  1.00  0.00     0.031 C 
ATOM     44  C   UNL A   1      38.250  29.165  29.101  1.00  0.00     0.029 A 
ATOM     45  C   UNL A   1      39.200  30.225  29.423  1.00  0.00     0.049 A 
ATOM     46  H   UNL A   1      41.264  30.206  29.130  1.00  0.00     0.167 HD
ATOM     47  C   UNL A   1      45.628  29.919  28.662  1.00  0.00     0.034 A 
ATOM     48  C   UNL A   1      38.883  31.413  29.975  1.00  0.00     0.034 A 
ATOM     49  C   UNL A   1      45.379  31.247  29.166  1.00  0.00     0.049 A 
ATOM     50  C   UNL A   1      39.986  32.405  30.242  1.00  0.00     0.074 A 
ATOM     51  C   UNL A   1      46.287  32.265  29.403  1.00  0.00     0.029 A 
ATOM     52  N   UNL A   1      44.129  31.743  29.516  1.00  0.00    -0.354 N 
ATOM     53  N   UNL A   1      41.277  32.277  30.043  1.00  0.00    -0.248 NA
ATOM     54  C   UNL A   1      39.588  33.704  30.799  1.00  0.00     0.031 C 
ATOM     55  C   UNL A   1      45.595  33.352  29.949  1.00  0.00     0.029 A 
ATOM     56  C   UNL A   1      44.245  33.041  29.990  1.00  0.00     0.049 A 
ATOM     57  H   UNL A   1      43.283  31.245  29.439  1.00  0.00     0.167 HD
ATOM     58  C   UNL A   1      41.842  33.490  30.423  1.00  0.00     0.074 A 
ATOM     59  C   UNL A   1      40.749  34.342  30.849  1.00  0.00     0.031 C 
ATOM     60  C   UNL A   1      43.145  33.871  30.420  1.00  0.00     0.034 A 
BRANCH  47  61
ATOM     61  C   UNL A   1      47.053  29.484  28.410  1.00  0.00     0.023 A 
ATOM     62  C   UNL A   1      47.837  28.907  29.424  1.00  0.00     0.031 A 
ATOM     63  C   UNL A   1      47.650  29.686  27.153  1.00  0.00     0.131 A 
ATOM     64  C   UNL A   1      49.192  28.633  29.193  1.00  0.00     0.055 A 
ATOM     65  C   UNL A   1      48.977  29.332  26.903  1.00  0.00     0.041 A 
ATOM     66  F   UNL A   1      46.958  30.252  26.151  1.00  0.00    -0.206 F 
ATOM     67  C   UNL A   1      49.762  28.817  27.931  1.00  0.00     0.022 A 
BRANCH  64  68
ATOM     68  S   UNL A   1      50.235  28.176  30.604  1.00  0.00     0.124 S 
ATOM     69  O   UNL A   1      50.790  29.471  30.990  1.00  0.00    -0.237 OA
ATOM     70  O   UNL A   1      49.274  27.591  31.531  1.00  0.00    -0.237 OA
ATOM     71  O   UNL A   1      51.199  27.239  30.030  1.00  0.00    -0.744 OA
ENDBRANCH  64  68
ENDBRANCH  47  61
BRANCH  48  72
ATOM     72  C   UNL A   1      37.468  31.740  30.316  1.00  0.00     0.023 A 
ATOM     73  C   UNL A   1      36.572  32.189  29.334  1.00  0.00     0.031 A 
ATOM     74  C   UNL A   1      37.002  31.648  31.640  1.00  0.00     0.131 A 
ATOM     75  C   UNL A   1      35.271  32.574  29.695  1.00  0.00     0.055 A 
ATOM     76  C   UNL A   1      35.691  31.983  31.986  1.00  0.00     0.041 A 
ATOM     77  F   UNL A   1      37.814  31.215  32.618  1.00  0.00    -0.206 F 
ATOM     78  C   UNL A   1      34.821  32.463  31.013  1.00  0.00     0.022 A 
BRANCH  75  79
ATOM     79  S   UNL A   1      34.195  33.301  28.427  1.00  0.00     0.124 S 
ATOM     80  O   UNL A   1      33.596  32.112  27.830  1.00  0.00    -0.237 OA
ATOM     81  O   UNL A   1      33.306  34.136  29.227  1.00  0.00    -0.237 OA
ATOM     82  O   UNL A   1      35.128  34.029  27.568  1.00  0.00    -0.744 OA
ENDBRANCH  75  79
ENDBRANCH  48  72
BRANCH  60  83
ATOM     83  C   UNL A   1      43.444  35.285  30.851  1.00  0.00     0.023 A 
ATOM     84  C   UNL A   1      43.561  35.634  32.207  1.00  0.00     0.031 A 
ATOM     85  C   UNL A   1      43.601  36.297  29.888  1.00  0.00     0.131 A 
ATOM     86  C   UNL A   1      43.774  36.974  32.566  1.00  0.00     0.055 A 
ATOM     87  C   UNL A   1      43.869  37.619  30.250  1.00  0.00     0.041 A 
ATOM     88  F   UNL A   1      43.498  36.018  28.579  1.00  0.00    -0.206 F 
ATOM     89  C   UNL A   1      43.944  37.965  31.596  1.00  0.00     0.022 A 
BRANCH  86  90
ATOM     90  S   UNL A   1      43.740  37.420  34.324  1.00  0.00     0.124 S 
ATOM     91  O   UNL A   1      45.090  37.930  34.534  1.00  0.00    -0.237 OA
ATOM     92  O   UNL A   1      42.669  38.410  34.375  1.00  0.00    -0.237 OA
ATOM     93  O   UNL A   1      43.444  36.154  34.993  1.00  0.00    -0.744 OA
ENDBRANCH  86  90
ENDBRANCH  60  83
ENDBRANCH  34  35
ENDBRANCH  26  29
ENDBRANCH  24  25
ENDBRANCH   1  24
TORSDOF 15
ENDMDL
