MODEL 1
REMARK VINA RESULT:     -10.4      0.000      0.000
REMARK SMILES CN(CCCC(=O)NCCCCNC(=O)c1ccc(-c2c3nc(c(-c4cc(S(=O)(=O)[O-])ccc4F)c4ccc([nH]4)c(-c4cc(S(=O)(=O)[O-])ccc4F)c4nc(c(-c5cc(S(=O)(=O)[O-])ccc5F)c5ccc2[nH]5)C=C4)C=C3)cc1)C(=O)c1ccc(Br)o1
REMARK SMILES IDX 9 1 8 2 6 3 7 4 5 6 4 7 3 8 2 9 1 10 79 11 80 12 81 13 82 14
REMARK SMILES IDX 86 15 83 16 84 17 85 18 10 19 11 20 12 21 13 22 14 23 15 25
REMARK SMILES IDX 16 26 17 27 78 28 18 29 77 30 19 31 20 32 21 33 71 34 22 35
REMARK SMILES IDX 76 36 70 37 72 38 23 39 75 40 69 41 68 42 24 44 56 45 36 46
REMARK SMILES IDX 55 47 37 48 40 49 54 50 73 51 38 52 39 53 53 55 74 56 41 57
REMARK SMILES IDX 25 58 26 59 34 60 27 61 33 62 35 63 32 64 28 65 29 66 30 67
REMARK SMILES IDX 31 68 57 69 58 70 66 71 59 72 65 73 67 74 64 75 60 76 61 77
REMARK SMILES IDX 62 78 63 79 42 80 43 81 51 82 44 83 50 84 52 85 49 86 45 87
REMARK SMILES IDX 46 88 47 89 48 90
REMARK H PARENT 8 5 13 24 72 43 40 54
REMARK Flexibility Score: inf
ROOT
ATOM      1  C   UNL A   1      31.123  26.790  25.496  1.00  0.00     0.116 C 
ENDROOT
BRANCH   1   2
ATOM      2  N   UNL A   1      30.416  25.794  26.263  1.00  0.00    -0.356 N 
ATOM      3  C   UNL A   1      30.747  24.524  26.601  1.00  0.00     0.220 C 
ATOM      4  O   UNL A   1      29.892  23.858  27.193  1.00  0.00    -0.275 OA
ATOM      5  H   UNL A   1      29.538  26.088  26.600  1.00  0.00     0.163 HD
BRANCH   3   6
ATOM      6  C   UNL A   1      32.143  23.953  26.407  1.00  0.00     0.102 C 
BRANCH   6   7
ATOM      7  C   UNL A   1      32.709  22.851  27.292  1.00  0.00     0.031 C 
BRANCH   7   8
ATOM      8  C   UNL A   1      34.181  22.438  27.255  1.00  0.00     0.120 C 
BRANCH   8   9
ATOM      9  N   UNL A   1      35.023  22.454  26.042  1.00  0.00    -0.339 N 
ATOM     10  C   UNL A   1      36.123  23.420  26.098  1.00  0.00     0.147 C 
BRANCH   9  11
ATOM     11  C   UNL A   1      35.145  21.573  24.945  1.00  0.00     0.289 C 
ATOM     12  O   UNL A   1      36.097  21.699  24.170  1.00  0.00    -0.265 OA
BRANCH  11  13
ATOM     13  C   UNL A   1      34.216  20.493  24.718  1.00  0.00     0.193 A 
ATOM     14  C   UNL A   1      32.888  20.504  24.326  1.00  0.00     0.057 A 
ATOM     15  O   UNL A   1      34.700  19.214  24.612  1.00  0.00    -0.444 OA
ATOM     16  C   UNL A   1      32.524  19.158  24.059  1.00  0.00     0.059 A 
ATOM     17  C   UNL A   1      33.669  18.415  24.224  1.00  0.00     0.170 A 
ATOM     18  Br  UNL A   1      33.798  16.573  23.953  1.00  0.00    -0.008 Br
ENDBRANCH  11  13
ENDBRANCH   9  11
ENDBRANCH   8   9
ENDBRANCH   7   8
ENDBRANCH   6   7
ENDBRANCH   3   6
ENDBRANCH   1   2
BRANCH   1  19
ATOM     19  C   UNL A   1      31.877  27.748  26.420  1.00  0.00     0.023 C 
BRANCH  19  20
ATOM     20  C   UNL A   1      33.361  27.423  26.530  1.00  0.00     0.023 C 
BRANCH  20  21
ATOM     21  C   UNL A   1      34.262  28.578  26.109  1.00  0.00     0.116 C 
BRANCH  21  22
ATOM     22  N   UNL A   1      33.753  29.881  26.520  1.00  0.00    -0.352 N 
ATOM     23  C   UNL A   1      34.278  30.746  27.453  1.00  0.00     0.251 C 
ATOM     24  H   UNL A   1      32.928  30.180  26.074  1.00  0.00     0.163 HD
ATOM     25  O   UNL A   1      33.667  31.752  27.778  1.00  0.00    -0.269 OA
BRANCH  23  26
ATOM     26  C   UNL A   1      35.571  30.402  28.083  1.00  0.00     0.039 A 
ATOM     27  C   UNL A   1      35.573  29.690  29.282  1.00  0.00     0.014 A 
ATOM     28  C   UNL A   1      36.771  30.713  27.437  1.00  0.00     0.014 A 
ATOM     29  C   UNL A   1      36.783  29.223  29.798  1.00  0.00     0.010 A 
ATOM     30  C   UNL A   1      37.961  30.172  27.905  1.00  0.00     0.010 A 
ATOM     31  C   UNL A   1      37.982  29.426  29.094  1.00  0.00    -0.014 A 
BRANCH  31  32
ATOM     32  C   UNL A   1      39.273  28.893  29.599  1.00  0.00     0.031 A 
ATOM     33  C   UNL A   1      39.964  29.580  30.744  1.00  0.00     0.074 A 
ATOM     34  C   UNL A   1      39.850  27.839  28.986  1.00  0.00     0.049 A 
ATOM     35  N   UNL A   1      41.127  29.324  31.285  1.00  0.00    -0.248 NA
ATOM     36  C   UNL A   1      39.272  30.740  31.328  1.00  0.00     0.031 C 
ATOM     37  C   UNL A   1      39.306  27.130  27.825  1.00  0.00     0.029 A 
ATOM     38  N   UNL A   1      41.026  27.184  29.251  1.00  0.00    -0.354 N 
ATOM     39  C   UNL A   1      41.316  30.302  32.257  1.00  0.00     0.074 A 
ATOM     40  C   UNL A   1      40.181  31.196  32.176  1.00  0.00     0.031 C 
ATOM     41  C   UNL A   1      40.132  26.122  27.498  1.00  0.00     0.029 A 
ATOM     42  C   UNL A   1      41.280  26.133  28.400  1.00  0.00     0.049 A 
ATOM     43  H   UNL A   1      41.634  27.443  29.982  1.00  0.00     0.167 HD
ATOM     44  C   UNL A   1      42.325  30.427  33.153  1.00  0.00     0.034 A 
ATOM     45  C   UNL A   1      42.319  25.276  28.355  1.00  0.00     0.034 A 
ATOM     46  C   UNL A   1      43.433  29.506  33.238  1.00  0.00     0.049 A 
ATOM     47  C   UNL A   1      43.415  25.413  29.381  1.00  0.00     0.074 A 
ATOM     48  C   UNL A   1      44.481  29.498  34.140  1.00  0.00     0.029 A 
ATOM     49  N   UNL A   1      43.633  28.427  32.387  1.00  0.00    -0.354 N 
ATOM     50  N   UNL A   1      43.551  26.310  30.331  1.00  0.00    -0.248 NA
ATOM     51  C   UNL A   1      44.486  24.409  29.342  1.00  0.00     0.031 C 
ATOM     52  C   UNL A   1      45.341  28.447  33.803  1.00  0.00     0.029 A 
ATOM     53  C   UNL A   1      44.797  27.756  32.733  1.00  0.00     0.049 A 
ATOM     54  H   UNL A   1      43.036  28.175  31.646  1.00  0.00     0.167 HD
ATOM     55  C   UNL A   1      44.707  25.957  31.022  1.00  0.00     0.074 A 
ATOM     56  C   UNL A   1      45.218  24.759  30.388  1.00  0.00     0.031 C 
ATOM     57  C   UNL A   1      45.292  26.564  32.086  1.00  0.00     0.034 A 
BRANCH  44  58
ATOM     58  C   UNL A   1      42.273  31.609  34.092  1.00  0.00     0.023 A 
ATOM     59  C   UNL A   1      41.417  31.628  35.207  1.00  0.00     0.031 A 
ATOM     60  C   UNL A   1      43.053  32.752  33.844  1.00  0.00     0.131 A 
ATOM     61  C   UNL A   1      41.291  32.795  35.975  1.00  0.00     0.055 A 
ATOM     62  C   UNL A   1      42.988  33.880  34.666  1.00  0.00     0.041 A 
ATOM     63  F   UNL A   1      43.875  32.803  32.784  1.00  0.00    -0.206 F 
ATOM     64  C   UNL A   1      42.089  33.913  35.728  1.00  0.00     0.022 A 
BRANCH  61  65
ATOM     65  S   UNL A   1      39.954  32.883  37.200  1.00  0.00     0.124 S 
ATOM     66  O   UNL A   1      39.756  34.325  37.314  1.00  0.00    -0.237 OA
ATOM     67  O   UNL A   1      38.882  32.138  36.551  1.00  0.00    -0.237 OA
ATOM     68  O   UNL A   1      40.531  32.245  38.382  1.00  0.00    -0.744 OA
ENDBRANCH  61  65
ENDBRANCH  44  58
BRANCH  45  69
ATOM     69  C   UNL A   1      42.375  24.208  27.317  1.00  0.00     0.023 A 
ATOM     70  C   UNL A   1      41.762  22.962  27.528  1.00  0.00     0.031 A 
ATOM     71  C   UNL A   1      43.075  24.402  26.113  1.00  0.00     0.131 A 
ATOM     72  C   UNL A   1      41.902  21.941  26.574  1.00  0.00     0.055 A 
ATOM     73  C   UNL A   1      43.171  23.400  25.146  1.00  0.00     0.041 A 
ATOM     74  F   UNL A   1      43.670  25.578  25.856  1.00  0.00    -0.206 F 
ATOM     75  C   UNL A   1      42.593  22.155  25.380  1.00  0.00     0.022 A 
BRANCH  72  76
ATOM     76  S   UNL A   1      41.232  20.299  26.954  1.00  0.00     0.124 S 
ATOM     77  O   UNL A   1      40.117  20.208  26.018  1.00  0.00    -0.237 OA
ATOM     78  O   UNL A   1      42.375  19.435  26.677  1.00  0.00    -0.237 OA
ATOM     79  O   UNL A   1      40.859  20.401  28.363  1.00  0.00    -0.744 OA
ENDBRANCH  72  76
ENDBRANCH  45  69
BRANCH  57  80
ATOM     80  C   UNL A   1      46.523  25.905  32.657  1.00  0.00     0.023 A 
ATOM     81  C   UNL A   1      46.439  24.930  33.666  1.00  0.00     0.031 A 
ATOM     82  C   UNL A   1      47.798  26.274  32.194  1.00  0.00     0.131 A 
ATOM     83  C   UNL A   1      47.612  24.401  34.223  1.00  0.00     0.055 A 
ATOM     84  C   UNL A   1      48.960  25.700  32.710  1.00  0.00     0.041 A 
ATOM     85  F   UNL A   1      47.934  27.200  31.231  1.00  0.00    -0.206 F 
ATOM     86  C   UNL A   1      48.872  24.768  33.740  1.00  0.00     0.022 A 
BRANCH  83  87
ATOM     87  S   UNL A   1      47.475  23.297  35.655  1.00  0.00     0.124 S 
ATOM     88  O   UNL A   1      48.106  24.087  36.708  1.00  0.00    -0.237 OA
ATOM     89  O   UNL A   1      46.032  23.116  35.772  1.00  0.00    -0.237 OA
ATOM     90  O   UNL A   1      48.217  22.107  35.244  1.00  0.00    -0.744 OA
ENDBRANCH  83  87
ENDBRANCH  57  80
ENDBRANCH  31  32
ENDBRANCH  23  26
ENDBRANCH  21  22
ENDBRANCH  20  21
ENDBRANCH  19  20
ENDBRANCH   1  19
TORSDOF 19
ENDMDL
MODEL 2
REMARK VINA RESULT:     -10.3      3.028      4.167
REMARK SMILES CN(CCCC(=O)NCCCCNC(=O)c1ccc(-c2c3nc(c(-c4cc(S(=O)(=O)[O-])ccc4F)c4ccc([nH]4)c(-c4cc(S(=O)(=O)[O-])ccc4F)c4nc(c(-c5cc(S(=O)(=O)[O-])ccc5F)c5ccc2[nH]5)C=C4)C=C3)cc1)C(=O)c1ccc(Br)o1
REMARK SMILES IDX 9 1 8 2 6 3 7 4 5 6 4 7 3 8 2 9 1 10 79 11 80 12 81 13 82 14
REMARK SMILES IDX 86 15 83 16 84 17 85 18 10 19 11 20 12 21 13 22 14 23 15 25
REMARK SMILES IDX 16 26 17 27 78 28 18 29 77 30 19 31 20 32 21 33 71 34 22 35
REMARK SMILES IDX 76 36 70 37 72 38 23 39 75 40 69 41 68 42 24 44 56 45 36 46
REMARK SMILES IDX 55 47 37 48 40 49 54 50 73 51 38 52 39 53 53 55 74 56 41 57
REMARK SMILES IDX 25 58 26 59 34 60 27 61 33 62 35 63 32 64 28 65 29 66 30 67
REMARK SMILES IDX 31 68 57 69 58 70 66 71 59 72 65 73 67 74 64 75 60 76 61 77
REMARK SMILES IDX 62 78 63 79 42 80 43 81 51 82 44 83 50 84 52 85 49 86 45 87
REMARK SMILES IDX 46 88 47 89 48 90
REMARK H PARENT 8 5 13 24 72 43 40 54
REMARK Flexibility Score: inf
ROOT
ATOM      1  C   UNL A   1      30.999  27.373  26.800  1.00  0.00     0.116 C 
ENDROOT
BRANCH   1   2
ATOM      2  N   UNL A   1      31.030  25.934  26.713  1.00  0.00    -0.356 N 
ATOM      3  C   UNL A   1      30.693  25.091  25.706  1.00  0.00     0.220 C 
ATOM      4  O   UNL A   1      30.730  23.881  25.949  1.00  0.00    -0.275 OA
ATOM      5  H   UNL A   1      31.351  25.484  27.529  1.00  0.00     0.163 HD
BRANCH   3   6
ATOM      6  C   UNL A   1      30.416  25.566  24.289  1.00  0.00     0.102 C 
BRANCH   6   7
ATOM      7  C   UNL A   1      31.427  25.417  23.160  1.00  0.00     0.031 C 
BRANCH   7   8
ATOM      8  C   UNL A   1      31.884  26.596  22.301  1.00  0.00     0.120 C 
BRANCH   8   9
ATOM      9  N   UNL A   1      32.128  27.958  22.815  1.00  0.00    -0.339 N 
ATOM     10  C   UNL A   1      33.459  28.482  22.496  1.00  0.00     0.147 C 
BRANCH   9  11
ATOM     11  C   UNL A   1      31.274  28.958  23.331  1.00  0.00     0.289 C 
ATOM     12  O   UNL A   1      31.628  29.603  24.322  1.00  0.00    -0.265 OA
BRANCH  11  13
ATOM     13  C   UNL A   1      30.013  29.288  22.714  1.00  0.00     0.193 A 
ATOM     14  C   UNL A   1      28.728  28.844  22.977  1.00  0.00     0.057 A 
ATOM     15  O   UNL A   1      29.943  30.385  21.893  1.00  0.00    -0.444 OA
ATOM     16  C   UNL A   1      27.846  29.648  22.210  1.00  0.00     0.059 A 
ATOM     17  C   UNL A   1      28.633  30.587  21.586  1.00  0.00     0.170 A 
ATOM     18  Br  UNL A   1      28.001  31.950  20.478  1.00  0.00    -0.008 Br
ENDBRANCH  11  13
ENDBRANCH   9  11
ENDBRANCH   8   9
ENDBRANCH   7   8
ENDBRANCH   6   7
ENDBRANCH   3   6
ENDBRANCH   1   2
BRANCH   1  19
ATOM     19  C   UNL A   1      32.336  27.911  27.314  1.00  0.00     0.023 C 
BRANCH  19  20
ATOM     20  C   UNL A   1      33.512  27.520  26.430  1.00  0.00     0.023 C 
BRANCH  20  21
ATOM     21  C   UNL A   1      34.431  28.690  26.097  1.00  0.00     0.116 C 
BRANCH  21  22
ATOM     22  N   UNL A   1      33.913  29.973  26.557  1.00  0.00    -0.352 N 
ATOM     23  C   UNL A   1      34.413  30.791  27.545  1.00  0.00     0.251 C 
ATOM     24  H   UNL A   1      33.101  30.296  26.103  1.00  0.00     0.163 HD
ATOM     25  O   UNL A   1      33.796  31.782  27.901  1.00  0.00    -0.269 OA
BRANCH  23  26
ATOM     26  C   UNL A   1      35.688  30.412  28.192  1.00  0.00     0.039 A 
ATOM     27  C   UNL A   1      35.659  29.587  29.316  1.00  0.00     0.014 A 
ATOM     28  C   UNL A   1      36.906  30.808  27.630  1.00  0.00     0.014 A 
ATOM     29  C   UNL A   1      36.858  29.097  29.836  1.00  0.00     0.010 A 
ATOM     30  C   UNL A   1      38.089  30.247  28.094  1.00  0.00     0.010 A 
ATOM     31  C   UNL A   1      38.079  29.391  29.205  1.00  0.00    -0.014 A 
BRANCH  31  32
ATOM     32  C   UNL A   1      39.361  28.836  29.710  1.00  0.00     0.031 A 
ATOM     33  C   UNL A   1      40.029  29.472  30.899  1.00  0.00     0.074 A 
ATOM     34  C   UNL A   1      39.953  27.812  29.062  1.00  0.00     0.049 A 
ATOM     35  N   UNL A   1      41.181  29.192  31.450  1.00  0.00    -0.248 NA
ATOM     36  C   UNL A   1      39.324  30.603  31.522  1.00  0.00     0.031 C 
ATOM     37  C   UNL A   1      39.432  27.156  27.860  1.00  0.00     0.029 A 
ATOM     38  N   UNL A   1      41.125  27.147  29.320  1.00  0.00    -0.354 N 
ATOM     39  C   UNL A   1      41.350  30.125  32.469  1.00  0.00     0.074 A 
ATOM     40  C   UNL A   1      40.215  31.021  32.406  1.00  0.00     0.031 C 
ATOM     41  C   UNL A   1      40.266  26.164  27.503  1.00  0.00     0.029 A 
ATOM     42  C   UNL A   1      41.396  26.136  28.427  1.00  0.00     0.049 A 
ATOM     43  H   UNL A   1      41.717  27.373  30.073  1.00  0.00     0.167 HD
ATOM     44  C   UNL A   1      42.341  30.210  33.390  1.00  0.00     0.034 A 
ATOM     45  C   UNL A   1      42.438  25.283  28.362  1.00  0.00     0.034 A 
ATOM     46  C   UNL A   1      43.449  29.288  33.454  1.00  0.00     0.049 A 
ATOM     47  C   UNL A   1      43.514  25.374  29.415  1.00  0.00     0.074 A 
ATOM     48  C   UNL A   1      44.480  29.240  34.375  1.00  0.00     0.029 A 
ATOM     49  N   UNL A   1      43.668  28.249  32.559  1.00  0.00    -0.354 N 
ATOM     50  N   UNL A   1      43.629  26.227  30.407  1.00  0.00    -0.248 NA
ATOM     51  C   UNL A   1      44.587  24.374  29.351  1.00  0.00     0.031 C 
ATOM     52  C   UNL A   1      45.348  28.207  34.007  1.00  0.00     0.029 A 
ATOM     53  C   UNL A   1      44.826  27.564  32.896  1.00  0.00     0.049 A 
ATOM     54  H   UNL A   1      43.086  28.030  31.795  1.00  0.00     0.167 HD
ATOM     55  C   UNL A   1      44.772  25.844  31.104  1.00  0.00     0.074 A 
ATOM     56  C   UNL A   1      45.299  24.677  30.426  1.00  0.00     0.031 C 
ATOM     57  C   UNL A   1      45.336  26.404  32.205  1.00  0.00     0.034 A 
BRANCH  44  58
ATOM     58  C   UNL A   1      42.269  31.349  34.379  1.00  0.00     0.023 A 
ATOM     59  C   UNL A   1      41.297  31.382  35.395  1.00  0.00     0.031 A 
ATOM     60  C   UNL A   1      43.151  32.439  34.280  1.00  0.00     0.131 A 
ATOM     61  C   UNL A   1      41.168  32.518  36.207  1.00  0.00     0.055 A 
ATOM     62  C   UNL A   1      43.075  33.529  35.150  1.00  0.00     0.041 A 
ATOM     63  F   UNL A   1      44.088  32.475  33.320  1.00  0.00    -0.206 F 
ATOM     64  C   UNL A   1      42.068  33.582  36.108  1.00  0.00     0.022 A 
BRANCH  61  65
ATOM     65  S   UNL A   1      39.713  32.652  37.282  1.00  0.00     0.124 S 
ATOM     66  O   UNL A   1      40.333  32.806  38.596  1.00  0.00    -0.237 OA
ATOM     67  O   UNL A   1      39.036  33.830  36.752  1.00  0.00    -0.237 OA
ATOM     68  O   UNL A   1      39.016  31.384  37.075  1.00  0.00    -0.744 OA
ENDBRANCH  61  65
ENDBRANCH  44  58
BRANCH  45  69
ATOM     69  C   UNL A   1      42.517  24.263  27.278  1.00  0.00     0.023 A 
ATOM     70  C   UNL A   1      41.915  23.003  27.427  1.00  0.00     0.031 A 
ATOM     71  C   UNL A   1      43.227  24.518  26.092  1.00  0.00     0.131 A 
ATOM     72  C   UNL A   1      42.075  22.028  26.430  1.00  0.00     0.055 A 
ATOM     73  C   UNL A   1      43.343  23.562  25.083  1.00  0.00     0.041 A 
ATOM     74  F   UNL A   1      43.811  25.711  25.895  1.00  0.00    -0.206 F 
ATOM     75  C   UNL A   1      42.776  22.302  25.254  1.00  0.00     0.022 A 
BRANCH  72  76
ATOM     76  S   UNL A   1      41.418  20.363  26.729  1.00  0.00     0.124 S 
ATOM     77  O   UNL A   1      41.580  19.740  25.421  1.00  0.00    -0.237 OA
ATOM     78  O   UNL A   1      42.301  19.876  27.785  1.00  0.00    -0.237 OA
ATOM     79  O   UNL A   1      40.039  20.610  27.139  1.00  0.00    -0.744 OA
ENDBRANCH  72  76
ENDBRANCH  45  69
BRANCH  57  80
ATOM     80  C   UNL A   1      46.557  25.720  32.770  1.00  0.00     0.023 A 
ATOM     81  C   UNL A   1      47.837  25.927  32.229  1.00  0.00     0.031 A 
ATOM     82  C   UNL A   1      46.428  24.833  33.853  1.00  0.00     0.131 A 
ATOM     83  C   UNL A   1      48.931  25.210  32.734  1.00  0.00     0.055 A 
ATOM     84  C   UNL A   1      47.530  24.168  34.391  1.00  0.00     0.041 A 
ATOM     85  F   UNL A   1      45.228  24.599  34.407  1.00  0.00    -0.206 F 
ATOM     86  C   UNL A   1      48.789  24.344  33.822  1.00  0.00     0.022 A 
BRANCH  83  87
ATOM     87  S   UNL A   1      50.530  25.350  31.889  1.00  0.00     0.124 S 
ATOM     88  O   UNL A   1      50.932  23.952  31.768  1.00  0.00    -0.237 OA
ATOM     89  O   UNL A   1      50.166  26.018  30.644  1.00  0.00    -0.237 OA
ATOM     90  O   UNL A   1      51.336  26.150  32.808  1.00  0.00    -0.744 OA
ENDBRANCH  83  87
ENDBRANCH  57  80
ENDBRANCH  31  32
ENDBRANCH  23  26
ENDBRANCH  21  22
ENDBRANCH  20  21
ENDBRANCH  19  20
ENDBRANCH   1  19
TORSDOF 19
ENDMDL
MODEL 3
REMARK VINA RESULT:     -10.2      3.919      9.113
REMARK SMILES CN(CCCC(=O)NCCCCNC(=O)c1ccc(-c2c3nc(c(-c4cc(S(=O)(=O)[O-])ccc4F)c4ccc([nH]4)c(-c4cc(S(=O)(=O)[O-])ccc4F)c4nc(c(-c5cc(S(=O)(=O)[O-])ccc5F)c5ccc2[nH]5)C=C4)C=C3)cc1)C(=O)c1ccc(Br)o1
REMARK SMILES IDX 9 1 8 2 6 3 7 4 5 6 4 7 3 8 2 9 1 10 79 11 80 12 81 13 82 14
REMARK SMILES IDX 86 15 83 16 84 17 85 18 10 19 11 20 12 21 13 22 14 23 15 25
REMARK SMILES IDX 16 26 17 27 78 28 18 29 77 30 19 31 20 32 21 33 71 34 22 35
REMARK SMILES IDX 76 36 70 37 72 38 23 39 75 40 69 41 68 42 24 44 56 45 36 46
REMARK SMILES IDX 55 47 37 48 40 49 54 50 73 51 38 52 39 53 53 55 74 56 41 57
REMARK SMILES IDX 25 58 26 59 34 60 27 61 33 62 35 63 32 64 28 65 29 66 30 67
REMARK SMILES IDX 31 68 57 69 58 70 66 71 59 72 65 73 67 74 64 75 60 76 61 77
REMARK SMILES IDX 62 78 63 79 42 80 43 81 51 82 44 83 50 84 52 85 49 86 45 87
REMARK SMILES IDX 46 88 47 89 48 90
REMARK H PARENT 8 5 13 24 72 43 40 54
REMARK Flexibility Score: inf
ROOT
ATOM      1  C   UNL A   1      32.825  29.440  25.557  1.00  0.00     0.116 C 
ENDROOT
BRANCH   1   2
ATOM      2  N   UNL A   1      33.369  29.430  24.220  1.00  0.00    -0.356 N 
ATOM      3  C   UNL A   1      33.817  28.413  23.445  1.00  0.00     0.220 C 
ATOM      4  O   UNL A   1      34.326  28.714  22.360  1.00  0.00    -0.275 OA
ATOM      5  H   UNL A   1      33.425  30.318  23.798  1.00  0.00     0.163 HD
BRANCH   3   6
ATOM      6  C   UNL A   1      33.595  26.949  23.791  1.00  0.00     0.102 C 
BRANCH   6   7
ATOM      7  C   UNL A   1      32.676  26.044  22.981  1.00  0.00     0.031 C 
BRANCH   7   8
ATOM      8  C   UNL A   1      31.466  25.337  23.593  1.00  0.00     0.120 C 
BRANCH   8   9
ATOM      9  N   UNL A   1      30.337  26.028  24.246  1.00  0.00    -0.339 N 
ATOM     10  C   UNL A   1      30.471  26.135  25.701  1.00  0.00     0.147 C 
BRANCH   9  11
ATOM     11  C   UNL A   1      29.279  26.822  23.751  1.00  0.00     0.289 C 
ATOM     12  O   UNL A   1      28.122  26.395  23.808  1.00  0.00    -0.265 OA
BRANCH  11  13
ATOM     13  C   UNL A   1      29.494  28.145  23.216  1.00  0.00     0.193 A 
ATOM     14  C   UNL A   1      30.319  28.590  22.197  1.00  0.00     0.057 A 
ATOM     15  O   UNL A   1      28.609  29.143  23.538  1.00  0.00    -0.444 OA
ATOM     16  C   UNL A   1      29.982  29.947  21.953  1.00  0.00     0.059 A 
ATOM     17  C   UNL A   1      28.919  30.228  22.779  1.00  0.00     0.170 A 
ATOM     18  Br  UNL A   1      28.022  31.863  22.850  1.00  0.00    -0.008 Br
ENDBRANCH  11  13
ENDBRANCH   9  11
ENDBRANCH   8   9
ENDBRANCH   7   8
ENDBRANCH   6   7
ENDBRANCH   3   6
ENDBRANCH   1   2
BRANCH   1  19
ATOM     19  C   UNL A   1      31.371  29.914  25.544  1.00  0.00     0.023 C 
BRANCH  19  20
ATOM     20  C   UNL A   1      31.207  31.344  26.042  1.00  0.00     0.023 C 
BRANCH  20  21
ATOM     21  C   UNL A   1      32.432  31.865  26.784  1.00  0.00     0.116 C 
BRANCH  21  22
ATOM     22  N   UNL A   1      32.296  33.254  27.209  1.00  0.00    -0.352 N 
ATOM     23  C   UNL A   1      33.104  33.967  28.065  1.00  0.00     0.251 C 
ATOM     24  H   UNL A   1      31.528  33.743  26.836  1.00  0.00     0.163 HD
ATOM     25  O   UNL A   1      32.789  35.092  28.421  1.00  0.00    -0.269 OA
BRANCH  23  26
ATOM     26  C   UNL A   1      34.332  33.320  28.577  1.00  0.00     0.039 A 
ATOM     27  C   UNL A   1      35.523  34.044  28.595  1.00  0.00     0.014 A 
ATOM     28  C   UNL A   1      34.273  32.030  29.114  1.00  0.00     0.014 A 
ATOM     29  C   UNL A   1      36.645  33.499  29.221  1.00  0.00     0.010 A 
ATOM     30  C   UNL A   1      35.364  31.529  29.813  1.00  0.00     0.010 A 
ATOM     31  C   UNL A   1      36.563  32.255  29.870  1.00  0.00    -0.014 A 
BRANCH  31  32
ATOM     32  C   UNL A   1      37.731  31.681  30.587  1.00  0.00     0.031 A 
ATOM     33  C   UNL A   1      38.599  30.664  29.899  1.00  0.00     0.074 A 
ATOM     34  C   UNL A   1      37.965  32.024  31.871  1.00  0.00     0.049 A 
ATOM     35  N   UNL A   1      39.615  29.988  30.369  1.00  0.00    -0.248 NA
ATOM     36  C   UNL A   1      38.247  30.331  28.510  1.00  0.00     0.031 C 
ATOM     37  C   UNL A   1      37.154  32.951  32.663  1.00  0.00     0.029 A 
ATOM     38  N   UNL A   1      38.952  31.626  32.737  1.00  0.00    -0.354 N 
ATOM     39  C   UNL A   1      40.009  29.135  29.343  1.00  0.00     0.074 A 
ATOM     40  C   UNL A   1      39.075  29.330  28.256  1.00  0.00     0.031 C 
ATOM     41  C   UNL A   1      37.694  33.072  33.888  1.00  0.00     0.029 A 
ATOM     42  C   UNL A   1      38.866  32.207  33.980  1.00  0.00     0.049 A 
ATOM     43  H   UNL A   1      39.657  30.982  32.491  1.00  0.00     0.167 HD
ATOM     44  C   UNL A   1      41.069  28.291  29.298  1.00  0.00     0.034 A 
ATOM     45  C   UNL A   1      39.645  32.060  35.071  1.00  0.00     0.034 A 
ATOM     46  C   UNL A   1      42.008  28.133  30.382  1.00  0.00     0.049 A 
ATOM     47  C   UNL A   1      40.837  31.140  34.989  1.00  0.00     0.074 A 
ATOM     48  C   UNL A   1      43.149  27.353  30.429  1.00  0.00     0.029 A 
ATOM     49  N   UNL A   1      41.913  28.773  31.611  1.00  0.00    -0.354 N 
ATOM     50  N   UNL A   1      41.229  30.383  33.991  1.00  0.00    -0.248 NA
ATOM     51  C   UNL A   1      41.701  31.072  36.174  1.00  0.00     0.031 C 
ATOM     52  C   UNL A   1      43.715  27.480  31.703  1.00  0.00     0.029 A 
ATOM     53  C   UNL A   1      42.966  28.392  32.430  1.00  0.00     0.049 A 
ATOM     54  H   UNL A   1      41.202  29.404  31.865  1.00  0.00     0.167 HD
ATOM     55  C   UNL A   1      42.406  29.773  34.418  1.00  0.00     0.074 A 
ATOM     56  C   UNL A   1      42.664  30.263  35.756  1.00  0.00     0.031 C 
ATOM     57  C   UNL A   1      43.204  28.890  33.764  1.00  0.00     0.034 A 
BRANCH  44  58
ATOM     58  C   UNL A   1      41.245  27.470  28.042  1.00  0.00     0.023 A 
ATOM     59  C   UNL A   1      40.906  26.106  28.000  1.00  0.00     0.031 A 
ATOM     60  C   UNL A   1      41.803  28.043  26.886  1.00  0.00     0.131 A 
ATOM     61  C   UNL A   1      41.213  25.341  26.865  1.00  0.00     0.055 A 
ATOM     62  C   UNL A   1      42.025  27.295  25.727  1.00  0.00     0.041 A 
ATOM     63  F   UNL A   1      42.166  29.335  26.870  1.00  0.00    -0.206 F 
ATOM     64  C   UNL A   1      41.746  25.932  25.718  1.00  0.00     0.022 A 
BRANCH  61  65
ATOM     65  S   UNL A   1      41.051  23.537  26.970  1.00  0.00     0.124 S 
ATOM     66  O   UNL A   1      41.670  23.262  28.264  1.00  0.00    -0.237 OA
ATOM     67  O   UNL A   1      39.608  23.344  26.896  1.00  0.00    -0.237 OA
ATOM     68  O   UNL A   1      41.805  23.058  25.812  1.00  0.00    -0.744 OA
ENDBRANCH  61  65
ENDBRANCH  44  58
BRANCH  45  69
ATOM     69  C   UNL A   1      39.339  32.802  36.327  1.00  0.00     0.023 A 
ATOM     70  C   UNL A   1      38.489  32.253  37.301  1.00  0.00     0.031 A 
ATOM     71  C   UNL A   1      39.860  34.087  36.555  1.00  0.00     0.131 A 
ATOM     72  C   UNL A   1      38.145  33.006  38.435  1.00  0.00     0.055 A 
ATOM     73  C   UNL A   1      39.553  34.813  37.707  1.00  0.00     0.041 A 
ATOM     74  F   UNL A   1      40.687  34.653  35.661  1.00  0.00    -0.206 F 
ATOM     75  C   UNL A   1      38.680  34.278  38.650  1.00  0.00     0.022 A 
BRANCH  72  76
ATOM     76  S   UNL A   1      36.922  32.328  39.591  1.00  0.00     0.124 S 
ATOM     77  O   UNL A   1      37.274  30.913  39.600  1.00  0.00    -0.237 OA
ATOM     78  O   UNL A   1      37.218  33.071  40.812  1.00  0.00    -0.237 OA
ATOM     79  O   UNL A   1      35.644  32.652  38.962  1.00  0.00    -0.744 OA
ENDBRANCH  72  76
ENDBRANCH  45  69
BRANCH  57  80
ATOM     80  C   UNL A   1      44.457  28.445  34.476  1.00  0.00     0.023 A 
ATOM     81  C   UNL A   1      45.667  29.151  34.357  1.00  0.00     0.031 A 
ATOM     82  C   UNL A   1      44.440  27.286  35.271  1.00  0.00     0.131 A 
ATOM     83  C   UNL A   1      46.826  28.656  34.973  1.00  0.00     0.055 A 
ATOM     84  C   UNL A   1      45.583  26.832  35.931  1.00  0.00     0.041 A 
ATOM     85  F   UNL A   1      43.311  26.574  35.419  1.00  0.00    -0.206 F 
ATOM     86  C   UNL A   1      46.788  27.510  35.772  1.00  0.00     0.022 A 
BRANCH  83  87
ATOM     87  S   UNL A   1      48.407  29.478  34.637  1.00  0.00     0.124 S 
ATOM     88  O   UNL A   1      48.024  30.886  34.641  1.00  0.00    -0.237 OA
ATOM     89  O   UNL A   1      49.230  29.038  35.759  1.00  0.00    -0.237 OA
ATOM     90  O   UNL A   1      48.801  28.946  33.334  1.00  0.00    -0.744 OA
ENDBRANCH  83  87
ENDBRANCH  57  80
ENDBRANCH  31  32
ENDBRANCH  23  26
ENDBRANCH  21  22
ENDBRANCH  20  21
ENDBRANCH  19  20
ENDBRANCH   1  19
TORSDOF 19
ENDMDL
