MODEL 1
REMARK VINA RESULT:     -11.5      0.000      0.000
REMARK SMILES O=C(Cn1cc(C(=O)C(F)(F)F)c2ccccc21)NCCCCNC(=O)c1ccc(-c2c3nc(c(-c4cc(S(=O)(=O)[O-])ccc4F)c4ccc([nH]4)c(-c4cc(S(=O)(=O)[O-])ccc4F)c4nc(c(-c5cc(S(=O)(=O)[O-])ccc5F)c5ccc2[nH]5)C=C4)C=C3)cc1
REMARK SMILES IDX 21 1 20 2 19 3 1 4 2 5 3 7 4 8 5 9 18 10 6 11 13 12 17 13
REMARK SMILES IDX 14 14 16 15 15 16 7 17 8 18 9 19 10 20 11 21 12 22 22 23
REMARK SMILES IDX 23 24 24 25 25 26 26 28 27 29 28 30 89 31 29 32 88 33 30 34
REMARK SMILES IDX 31 35 32 36 82 37 33 38 87 39 81 40 83 41 34 42 86 43 80 44
REMARK SMILES IDX 79 45 35 47 67 48 47 49 66 50 48 51 51 52 65 53 84 54 49 55
REMARK SMILES IDX 50 56 64 58 85 59 52 60 36 61 37 62 45 63 38 64 44 65 46 66
REMARK SMILES IDX 43 67 39 68 40 69 41 70 42 71 68 72 69 73 77 74 70 75 76 76
REMARK SMILES IDX 78 77 75 78 71 79 72 80 73 81 74 82 53 83 54 84 62 85 55 86
REMARK SMILES IDX 61 87 63 88 60 89 56 90 57 91 58 92 59 93
REMARK H PARENT 19 6 24 27 83 46 51 57
REMARK Flexibility Score: inf
ROOT
ATOM      1  C   UNL A   1      39.746  23.262  27.383  1.00  0.00     0.023 C 
ENDROOT
BRANCH   1   2
ATOM      2  C   UNL A   1      38.862  24.133  26.486  1.00  0.00     0.116 C 
BRANCH   2   3
ATOM      3  N   UNL A   1      37.457  23.832  26.667  1.00  0.00    -0.355 N 
ATOM      4  O   UNL A   1      37.134  22.605  24.754  1.00  0.00    -0.273 OA
ATOM      5  C   UNL A   1      36.688  23.108  25.782  1.00  0.00     0.239 C 
ATOM      6  H   UNL A   1      37.019  24.169  27.481  1.00  0.00     0.163 HD
BRANCH   5   7
ATOM      7  C   UNL A   1      35.211  23.029  26.140  1.00  0.00     0.222 C 
BRANCH   7   8
ATOM      8  N   UNL A   1      34.508  21.974  25.418  1.00  0.00    -0.337 N 
ATOM      9  C   UNL A   1      34.445  20.664  25.829  1.00  0.00     0.099 A 
ATOM     10  C   UNL A   1      33.828  22.123  24.226  1.00  0.00     0.049 A 
ATOM     11  C   UNL A   1      33.636  19.959  24.954  1.00  0.00     0.053 A 
ATOM     12  C   UNL A   1      33.186  20.906  23.972  1.00  0.00     0.011 A 
ATOM     13  C   UNL A   1      33.702  23.221  23.355  1.00  0.00     0.027 A 
ATOM     14  C   UNL A   1      32.313  20.826  22.864  1.00  0.00     0.011 A 
ATOM     15  C   UNL A   1      32.813  23.120  22.283  1.00  0.00     0.002 A 
ATOM     16  C   UNL A   1      32.114  21.944  22.048  1.00  0.00     0.001 A 
BRANCH  11  17
ATOM     17  C   UNL A   1      33.317  18.524  25.016  1.00  0.00     0.268 C 
ATOM     18  O   UNL A   1      32.285  18.133  25.572  1.00  0.00    -0.284 OA
BRANCH  17  19
ATOM     19  C   UNL A   1      34.284  17.544  24.355  1.00  0.00     0.454 C 
ATOM     20  F   UNL A   1      34.259  16.308  24.932  1.00  0.00    -0.163 F 
ATOM     21  F   UNL A   1      34.014  17.348  23.031  1.00  0.00    -0.163 F 
ATOM     22  F   UNL A   1      35.585  17.952  24.412  1.00  0.00    -0.163 F 
ENDBRANCH  17  19
ENDBRANCH  11  17
ENDBRANCH   7   8
ENDBRANCH   5   7
ENDBRANCH   2   3
ENDBRANCH   1   2
BRANCH   1  23
ATOM     23  C   UNL A   1      40.058  21.848  26.861  1.00  0.00     0.023 C 
BRANCH  23  24
ATOM     24  C   UNL A   1      41.538  21.470  26.814  1.00  0.00     0.116 C 
BRANCH  24  25
ATOM     25  N   UNL A   1      42.223  21.918  25.622  1.00  0.00    -0.352 N 
ATOM     26  C   UNL A   1      42.918  23.043  25.271  1.00  0.00     0.251 C 
ATOM     27  H   UNL A   1      42.178  21.260  24.892  1.00  0.00     0.163 HD
ATOM     28  O   UNL A   1      43.555  22.959  24.216  1.00  0.00    -0.269 OA
BRANCH  26  29
ATOM     29  C   UNL A   1      42.896  24.346  25.994  1.00  0.00     0.039 A 
ATOM     30  C   UNL A   1      43.486  24.610  27.230  1.00  0.00     0.014 A 
ATOM     31  C   UNL A   1      42.120  25.358  25.393  1.00  0.00     0.014 A 
ATOM     32  C   UNL A   1      43.201  25.800  27.900  1.00  0.00     0.010 A 
ATOM     33  C   UNL A   1      41.841  26.550  26.052  1.00  0.00     0.010 A 
ATOM     34  C   UNL A   1      42.330  26.743  27.335  1.00  0.00    -0.014 A 
BRANCH  34  35
ATOM     35  C   UNL A   1      42.035  27.961  28.089  1.00  0.00     0.031 A 
ATOM     36  C   UNL A   1      42.969  29.083  27.808  1.00  0.00     0.074 A 
ATOM     37  C   UNL A   1      40.978  28.103  28.920  1.00  0.00     0.049 A 
ATOM     38  N   UNL A   1      43.881  29.560  28.588  1.00  0.00    -0.248 NA
ATOM     39  C   UNL A   1      43.010  29.632  26.444  1.00  0.00     0.031 C 
ATOM     40  C   UNL A   1      39.834  27.197  29.080  1.00  0.00     0.029 A 
ATOM     41  N   UNL A   1      40.657  29.139  29.754  1.00  0.00    -0.354 N 
ATOM     42  C   UNL A   1      44.465  30.623  27.898  1.00  0.00     0.074 A 
ATOM     43  C   UNL A   1      44.013  30.508  26.536  1.00  0.00     0.031 C 
ATOM     44  C   UNL A   1      38.850  27.826  29.767  1.00  0.00     0.029 A 
ATOM     45  C   UNL A   1      39.358  29.099  30.249  1.00  0.00     0.049 A 
ATOM     46  H   UNL A   1      41.293  29.853  29.985  1.00  0.00     0.167 HD
ATOM     47  C   UNL A   1      45.082  31.639  28.566  1.00  0.00     0.034 A 
ATOM     48  C   UNL A   1      38.740  30.039  31.008  1.00  0.00     0.034 A 
ATOM     49  C   UNL A   1      45.250  31.306  29.954  1.00  0.00     0.049 A 
ATOM     50  C   UNL A   1      39.778  30.859  31.662  1.00  0.00     0.074 A 
ATOM     51  C   UNL A   1      46.149  30.595  30.714  1.00  0.00     0.029 A 
ATOM     52  N   UNL A   1      44.118  31.487  30.705  1.00  0.00    -0.354 N 
ATOM     53  N   UNL A   1      40.561  30.410  32.599  1.00  0.00    -0.248 NA
ATOM     54  C   UNL A   1      40.187  32.115  31.045  1.00  0.00     0.031 C 
ATOM     55  C   UNL A   1      45.447  30.206  31.891  1.00  0.00     0.029 A 
ATOM     56  C   UNL A   1      44.155  30.731  31.843  1.00  0.00     0.049 A 
ATOM     57  H   UNL A   1      43.376  32.085  30.457  1.00  0.00     0.167 HD
ATOM     58  C   UNL A   1      41.755  31.057  32.367  1.00  0.00     0.074 A 
ATOM     59  C   UNL A   1      41.419  32.215  31.547  1.00  0.00     0.031 C 
ATOM     60  C   UNL A   1      42.943  30.427  32.576  1.00  0.00     0.034 A 
BRANCH  47  61
ATOM     61  C   UNL A   1      45.146  33.082  28.107  1.00  0.00     0.023 A 
ATOM     62  C   UNL A   1      44.042  33.952  28.152  1.00  0.00     0.031 A 
ATOM     63  C   UNL A   1      46.396  33.691  27.849  1.00  0.00     0.131 A 
ATOM     64  C   UNL A   1      44.187  35.334  27.957  1.00  0.00     0.055 A 
ATOM     65  C   UNL A   1      46.549  35.078  27.714  1.00  0.00     0.041 A 
ATOM     66  F   UNL A   1      47.520  32.962  27.772  1.00  0.00    -0.206 F 
ATOM     67  C   UNL A   1      45.440  35.909  27.774  1.00  0.00     0.022 A 
BRANCH  64  68
ATOM     68  S   UNL A   1      42.728  36.413  27.964  1.00  0.00     0.124 S 
ATOM     69  O   UNL A   1      43.004  37.303  26.837  1.00  0.00    -0.237 OA
ATOM     70  O   UNL A   1      41.650  35.448  27.755  1.00  0.00    -0.237 OA
ATOM     71  O   UNL A   1      42.763  37.027  29.283  1.00  0.00    -0.744 OA
ENDBRANCH  64  68
ENDBRANCH  47  61
BRANCH  48  72
ATOM     72  C   UNL A   1      37.336  30.505  30.984  1.00  0.00     0.023 A 
ATOM     73  C   UNL A   1      36.748  30.806  29.743  1.00  0.00     0.031 A 
ATOM     74  C   UNL A   1      36.717  31.018  32.139  1.00  0.00     0.131 A 
ATOM     75  C   UNL A   1      35.635  31.659  29.679  1.00  0.00     0.055 A 
ATOM     76  C   UNL A   1      35.588  31.844  32.073  1.00  0.00     0.041 A 
ATOM     77  F   UNL A   1      37.249  30.796  33.351  1.00  0.00    -0.206 F 
ATOM     78  C   UNL A   1      35.055  32.186  30.835  1.00  0.00     0.022 A 
BRANCH  75  79
ATOM     79  S   UNL A   1      34.990  32.217  28.077  1.00  0.00     0.124 S 
ATOM     80  O   UNL A   1      34.958  30.974  27.311  1.00  0.00    -0.237 OA
ATOM     81  O   UNL A   1      33.689  32.757  28.455  1.00  0.00    -0.237 OA
ATOM     82  O   UNL A   1      35.981  33.193  27.633  1.00  0.00    -0.744 OA
ENDBRANCH  75  79
ENDBRANCH  48  72
BRANCH  60  83
ATOM     83  C   UNL A   1      42.972  29.246  33.504  1.00  0.00     0.023 A 
ATOM     84  C   UNL A   1      43.380  29.508  34.820  1.00  0.00     0.031 A 
ATOM     85  C   UNL A   1      42.786  27.906  33.125  1.00  0.00     0.131 A 
ATOM     86  C   UNL A   1      43.655  28.458  35.696  1.00  0.00     0.055 A 
ATOM     87  C   UNL A   1      42.984  26.857  34.031  1.00  0.00     0.041 A 
ATOM     88  F   UNL A   1      42.480  27.568  31.864  1.00  0.00    -0.206 F 
ATOM     89  C   UNL A   1      43.441  27.130  35.318  1.00  0.00     0.022 A 
BRANCH  86  90
ATOM     90  S   UNL A   1      44.459  28.796  37.280  1.00  0.00     0.124 S 
ATOM     91  O   UNL A   1      43.723  29.962  37.759  1.00  0.00    -0.237 OA
ATOM     92  O   UNL A   1      44.223  27.557  38.017  1.00  0.00    -0.237 OA
ATOM     93  O   UNL A   1      45.855  29.041  36.923  1.00  0.00    -0.744 OA
ENDBRANCH  86  90
ENDBRANCH  60  83
ENDBRANCH  34  35
ENDBRANCH  26  29
ENDBRANCH  24  25
ENDBRANCH  23  24
ENDBRANCH   1  23
TORSDOF 17
ENDMDL
MODEL 2
REMARK VINA RESULT:     -11.4      2.532      3.176
REMARK SMILES O=C(Cn1cc(C(=O)C(F)(F)F)c2ccccc21)NCCCCNC(=O)c1ccc(-c2c3nc(c(-c4cc(S(=O)(=O)[O-])ccc4F)c4ccc([nH]4)c(-c4cc(S(=O)(=O)[O-])ccc4F)c4nc(c(-c5cc(S(=O)(=O)[O-])ccc5F)c5ccc2[nH]5)C=C4)C=C3)cc1
REMARK SMILES IDX 21 1 20 2 19 3 1 4 2 5 3 7 4 8 5 9 18 10 6 11 13 12 17 13
REMARK SMILES IDX 14 14 16 15 15 16 7 17 8 18 9 19 10 20 11 21 12 22 22 23
REMARK SMILES IDX 23 24 24 25 25 26 26 28 27 29 28 30 89 31 29 32 88 33 30 34
REMARK SMILES IDX 31 35 32 36 82 37 33 38 87 39 81 40 83 41 34 42 86 43 80 44
REMARK SMILES IDX 79 45 35 47 67 48 47 49 66 50 48 51 51 52 65 53 84 54 49 55
REMARK SMILES IDX 50 56 64 58 85 59 52 60 36 61 37 62 45 63 38 64 44 65 46 66
REMARK SMILES IDX 43 67 39 68 40 69 41 70 42 71 68 72 69 73 77 74 70 75 76 76
REMARK SMILES IDX 78 77 75 78 71 79 72 80 73 81 74 82 53 83 54 84 62 85 55 86
REMARK SMILES IDX 61 87 63 88 60 89 56 90 57 91 58 92 59 93
REMARK H PARENT 19 6 24 27 83 46 51 57
REMARK Flexibility Score: inf
ROOT
ATOM      1  C   UNL A   1      37.557  22.364  25.384  1.00  0.00     0.023 C 
ENDROOT
BRANCH   1   2
ATOM      2  C   UNL A   1      36.433  22.306  24.345  1.00  0.00     0.116 C 
BRANCH   2   3
ATOM      3  N   UNL A   1      35.722  23.565  24.258  1.00  0.00    -0.355 N 
ATOM      4  O   UNL A   1      34.073  22.912  22.801  1.00  0.00    -0.273 OA
ATOM      5  C   UNL A   1      34.608  23.786  23.480  1.00  0.00     0.239 C 
ATOM      6  H   UNL A   1      36.061  24.318  24.793  1.00  0.00     0.163 HD
BRANCH   5   7
ATOM      7  C   UNL A   1      34.114  25.226  23.468  1.00  0.00     0.222 C 
BRANCH   7   8
ATOM      8  N   UNL A   1      33.082  25.480  24.468  1.00  0.00    -0.337 N 
ATOM      9  C   UNL A   1      32.118  24.571  24.833  1.00  0.00     0.099 A 
ATOM     10  C   UNL A   1      32.909  26.654  25.172  1.00  0.00     0.049 A 
ATOM     11  C   UNL A   1      31.359  25.111  25.856  1.00  0.00     0.053 A 
ATOM     12  C   UNL A   1      31.909  26.411  26.121  1.00  0.00     0.011 A 
ATOM     13  C   UNL A   1      33.551  27.902  25.078  1.00  0.00     0.027 A 
ATOM     14  C   UNL A   1      31.620  27.423  27.064  1.00  0.00     0.011 A 
ATOM     15  C   UNL A   1      33.262  28.873  26.039  1.00  0.00     0.002 A 
ATOM     16  C   UNL A   1      32.320  28.633  27.030  1.00  0.00     0.001 A 
BRANCH  11  17
ATOM     17  C   UNL A   1      30.211  24.480  26.526  1.00  0.00     0.268 C 
ATOM     18  O   UNL A   1      29.188  25.131  26.767  1.00  0.00    -0.284 OA
BRANCH  17  19
ATOM     19  C   UNL A   1      30.316  23.001  26.890  1.00  0.00     0.454 C 
ATOM     20  F   UNL A   1      30.271  22.183  25.798  1.00  0.00    -0.163 F 
ATOM     21  F   UNL A   1      31.477  22.698  27.540  1.00  0.00    -0.163 F 
ATOM     22  F   UNL A   1      29.310  22.578  27.710  1.00  0.00    -0.163 F 
ENDBRANCH  17  19
ENDBRANCH  11  17
ENDBRANCH   7   8
ENDBRANCH   5   7
ENDBRANCH   2   3
ENDBRANCH   1   2
BRANCH   1  23
ATOM     23  C   UNL A   1      38.549  21.187  25.375  1.00  0.00     0.023 C 
BRANCH  23  24
ATOM     24  C   UNL A   1      39.632  21.225  26.453  1.00  0.00     0.116 C 
BRANCH  24  25
ATOM     25  N   UNL A   1      40.928  21.647  25.970  1.00  0.00    -0.352 N 
ATOM     26  C   UNL A   1      41.759  22.703  26.227  1.00  0.00     0.251 C 
ATOM     27  H   UNL A   1      41.300  21.031  25.299  1.00  0.00     0.163 HD
ATOM     28  O   UNL A   1      42.901  22.596  25.770  1.00  0.00    -0.269 OA
BRANCH  26  29
ATOM     29  C   UNL A   1      41.378  23.968  26.918  1.00  0.00     0.039 A 
ATOM     30  C   UNL A   1      40.256  24.749  26.642  1.00  0.00     0.014 A 
ATOM     31  C   UNL A   1      42.306  24.441  27.868  1.00  0.00     0.014 A 
ATOM     32  C   UNL A   1      40.136  26.020  27.203  1.00  0.00     0.010 A 
ATOM     33  C   UNL A   1      42.185  25.703  28.438  1.00  0.00     0.010 A 
ATOM     34  C   UNL A   1      41.131  26.519  28.054  1.00  0.00    -0.014 A 
BRANCH  34  35
ATOM     35  C   UNL A   1      40.979  27.871  28.593  1.00  0.00     0.031 A 
ATOM     36  C   UNL A   1      41.969  28.844  28.061  1.00  0.00     0.074 A 
ATOM     37  C   UNL A   1      39.996  28.244  29.443  1.00  0.00     0.049 A 
ATOM     38  N   UNL A   1      42.967  29.372  28.690  1.00  0.00    -0.248 NA
ATOM     39  C   UNL A   1      41.953  29.141  26.621  1.00  0.00     0.031 C 
ATOM     40  C   UNL A   1      38.805  27.479  29.829  1.00  0.00     0.029 A 
ATOM     41  N   UNL A   1      39.811  29.432  30.095  1.00  0.00    -0.354 N 
ATOM     42  C   UNL A   1      43.575  30.246  27.788  1.00  0.00     0.074 A 
ATOM     43  C   UNL A   1      43.020  29.932  26.497  1.00  0.00     0.031 C 
ATOM     44  C   UNL A   1      37.919  28.298  30.447  1.00  0.00     0.029 A 
ATOM     45  C   UNL A   1      38.551  29.589  30.662  1.00  0.00     0.049 A 
ATOM     46  H   UNL A   1      40.513  30.121  30.156  1.00  0.00     0.167 HD
ATOM     47  C   UNL A   1      44.310  31.307  28.226  1.00  0.00     0.034 A 
ATOM     48  C   UNL A   1      38.058  30.696  31.273  1.00  0.00     0.034 A 
ATOM     49  C   UNL A   1      44.552  31.208  29.639  1.00  0.00     0.049 A 
ATOM     50  C   UNL A   1      39.197  31.527  31.709  1.00  0.00     0.074 A 
ATOM     51  C   UNL A   1      45.448  30.569  30.462  1.00  0.00     0.029 A 
ATOM     52  N   UNL A   1      43.492  31.612  30.409  1.00  0.00    -0.354 N 
ATOM     53  N   UNL A   1      40.010  31.184  32.666  1.00  0.00    -0.248 NA
ATOM     54  C   UNL A   1      39.650  32.618  30.854  1.00  0.00     0.031 C 
ATOM     55  C   UNL A   1      44.806  30.452  31.728  1.00  0.00     0.029 A 
ATOM     56  C   UNL A   1      43.555  31.066  31.660  1.00  0.00     0.049 A 
ATOM     57  H   UNL A   1      42.780  32.217  30.101  1.00  0.00     0.167 HD
ATOM     58  C   UNL A   1      41.228  31.679  32.253  1.00  0.00     0.074 A 
ATOM     59  C   UNL A   1      40.920  32.700  31.259  1.00  0.00     0.031 C 
ATOM     60  C   UNL A   1      42.379  30.998  32.504  1.00  0.00     0.034 A 
BRANCH  47  61
ATOM     61  C   UNL A   1      44.445  32.637  27.512  1.00  0.00     0.023 A 
ATOM     62  C   UNL A   1      43.714  33.781  27.874  1.00  0.00     0.031 A 
ATOM     63  C   UNL A   1      45.510  32.852  26.606  1.00  0.00     0.131 A 
ATOM     64  C   UNL A   1      44.033  35.050  27.366  1.00  0.00     0.055 A 
ATOM     65  C   UNL A   1      45.866  34.127  26.146  1.00  0.00     0.041 A 
ATOM     66  F   UNL A   1      46.274  31.835  26.179  1.00  0.00    -0.206 F 
ATOM     67  C   UNL A   1      45.128  35.237  26.531  1.00  0.00     0.022 A 
BRANCH  64  68
ATOM     68  S   UNL A   1      43.025  36.491  27.814  1.00  0.00     0.124 S 
ATOM     69  O   UNL A   1      43.499  37.498  26.865  1.00  0.00    -0.237 OA
ATOM     70  O   UNL A   1      41.674  35.988  27.575  1.00  0.00    -0.237 OA
ATOM     71  O   UNL A   1      43.361  36.724  29.210  1.00  0.00    -0.744 OA
ENDBRANCH  64  68
ENDBRANCH  47  61
BRANCH  48  72
ATOM     72  C   UNL A   1      36.694  31.266  31.246  1.00  0.00     0.023 A 
ATOM     73  C   UNL A   1      36.112  31.561  30.001  1.00  0.00     0.031 A 
ATOM     74  C   UNL A   1      36.132  31.871  32.386  1.00  0.00     0.131 A 
ATOM     75  C   UNL A   1      35.066  32.493  29.914  1.00  0.00     0.055 A 
ATOM     76  C   UNL A   1      35.068  32.777  32.299  1.00  0.00     0.041 A 
ATOM     77  F   UNL A   1      36.663  31.656  33.601  1.00  0.00    -0.206 F 
ATOM     78  C   UNL A   1      34.545  33.109  31.055  1.00  0.00     0.022 A 
BRANCH  75  79
ATOM     79  S   UNL A   1      34.444  33.035  28.298  1.00  0.00     0.124 S 
ATOM     80  O   UNL A   1      33.564  34.142  28.665  1.00  0.00    -0.237 OA
ATOM     81  O   UNL A   1      35.678  33.412  27.617  1.00  0.00    -0.237 OA
ATOM     82  O   UNL A   1      33.766  31.851  27.780  1.00  0.00    -0.744 OA
ENDBRANCH  75  79
ENDBRANCH  48  72
BRANCH  60  83
ATOM     83  C   UNL A   1      42.389  29.999  33.626  1.00  0.00     0.023 A 
ATOM     84  C   UNL A   1      42.904  30.453  34.849  1.00  0.00     0.031 A 
ATOM     85  C   UNL A   1      42.083  28.633  33.505  1.00  0.00     0.131 A 
ATOM     86  C   UNL A   1      43.163  29.553  35.883  1.00  0.00     0.055 A 
ATOM     87  C   UNL A   1      42.268  27.746  34.572  1.00  0.00     0.041 A 
ATOM     88  F   UNL A   1      41.667  28.106  32.344  1.00  0.00    -0.206 F 
ATOM     89  C   UNL A   1      42.830  28.201  35.761  1.00  0.00     0.022 A 
BRANCH  86  90
ATOM     90  S   UNL A   1      44.097  30.097  37.334  1.00  0.00     0.124 S 
ATOM     91  O   UNL A   1      45.173  30.880  36.734  1.00  0.00    -0.237 OA
ATOM     92  O   UNL A   1      43.097  30.864  38.073  1.00  0.00    -0.237 OA
ATOM     93  O   UNL A   1      44.511  28.851  37.975  1.00  0.00    -0.744 OA
ENDBRANCH  86  90
ENDBRANCH  60  83
ENDBRANCH  34  35
ENDBRANCH  26  29
ENDBRANCH  24  25
ENDBRANCH  23  24
ENDBRANCH   1  23
TORSDOF 17
ENDMDL
MODEL 3
REMARK VINA RESULT:     -11.3      3.540      8.714
REMARK SMILES O=C(Cn1cc(C(=O)C(F)(F)F)c2ccccc21)NCCCCNC(=O)c1ccc(-c2c3nc(c(-c4cc(S(=O)(=O)[O-])ccc4F)c4ccc([nH]4)c(-c4cc(S(=O)(=O)[O-])ccc4F)c4nc(c(-c5cc(S(=O)(=O)[O-])ccc5F)c5ccc2[nH]5)C=C4)C=C3)cc1
REMARK SMILES IDX 21 1 20 2 19 3 1 4 2 5 3 7 4 8 5 9 18 10 6 11 13 12 17 13
REMARK SMILES IDX 14 14 16 15 15 16 7 17 8 18 9 19 10 20 11 21 12 22 22 23
REMARK SMILES IDX 23 24 24 25 25 26 26 28 27 29 28 30 89 31 29 32 88 33 30 34
REMARK SMILES IDX 31 35 32 36 82 37 33 38 87 39 81 40 83 41 34 42 86 43 80 44
REMARK SMILES IDX 79 45 35 47 67 48 47 49 66 50 48 51 51 52 65 53 84 54 49 55
REMARK SMILES IDX 50 56 64 58 85 59 52 60 36 61 37 62 45 63 38 64 44 65 46 66
REMARK SMILES IDX 43 67 39 68 40 69 41 70 42 71 68 72 69 73 77 74 70 75 76 76
REMARK SMILES IDX 78 77 75 78 71 79 72 80 73 81 74 82 53 83 54 84 62 85 55 86
REMARK SMILES IDX 61 87 63 88 60 89 56 90 57 91 58 92 59 93
REMARK H PARENT 19 6 24 27 83 46 51 57
REMARK Flexibility Score: inf
ROOT
ATOM      1  C   UNL A   1      32.729  27.917  26.447  1.00  0.00     0.023 C 
ENDROOT
BRANCH   1   2
ATOM      2  C   UNL A   1      31.818  26.772  26.900  1.00  0.00     0.116 C 
BRANCH   2   3
ATOM      3  N   UNL A   1      31.707  25.745  25.885  1.00  0.00    -0.355 N 
ATOM      4  O   UNL A   1      31.298  23.958  27.266  1.00  0.00    -0.273 OA
ATOM      5  C   UNL A   1      31.476  24.411  26.138  1.00  0.00     0.239 C 
ATOM      6  H   UNL A   1      31.806  26.020  24.945  1.00  0.00     0.163 HD
BRANCH   5   7
ATOM      7  C   UNL A   1      31.520  23.513  24.910  1.00  0.00     0.222 C 
BRANCH   7   8
ATOM      8  N   UNL A   1      32.822  22.886  24.712  1.00  0.00    -0.337 N 
ATOM      9  C   UNL A   1      33.998  23.579  24.553  1.00  0.00     0.099 A 
ATOM     10  C   UNL A   1      33.064  21.529  24.636  1.00  0.00     0.049 A 
ATOM     11  C   UNL A   1      35.042  22.674  24.469  1.00  0.00     0.053 A 
ATOM     12  C   UNL A   1      34.454  21.369  24.593  1.00  0.00     0.011 A 
ATOM     13  C   UNL A   1      32.192  20.425  24.621  1.00  0.00     0.027 A 
ATOM     14  C   UNL A   1      34.980  20.059  24.637  1.00  0.00     0.011 A 
ATOM     15  C   UNL A   1      32.741  19.143  24.689  1.00  0.00     0.002 A 
ATOM     16  C   UNL A   1      34.117  18.960  24.714  1.00  0.00     0.001 A 
BRANCH  11  17
ATOM     17  C   UNL A   1      36.466  22.990  24.277  1.00  0.00     0.268 C 
ATOM     18  O   UNL A   1      36.920  23.179  23.144  1.00  0.00    -0.284 OA
BRANCH  17  19
ATOM     19  C   UNL A   1      37.351  23.099  25.516  1.00  0.00     0.454 C 
ATOM     20  F   UNL A   1      37.037  24.173  26.298  1.00  0.00    -0.163 F 
ATOM     21  F   UNL A   1      37.262  22.005  26.327  1.00  0.00    -0.163 F 
ATOM     22  F   UNL A   1      38.677  23.234  25.219  1.00  0.00    -0.163 F 
ENDBRANCH  17  19
ENDBRANCH  11  17
ENDBRANCH   7   8
ENDBRANCH   5   7
ENDBRANCH   2   3
ENDBRANCH   1   2
BRANCH   1  23
ATOM     23  C   UNL A   1      32.493  29.279  27.125  1.00  0.00     0.023 C 
BRANCH  23  24
ATOM     24  C   UNL A   1      33.361  30.430  26.618  1.00  0.00     0.116 C 
BRANCH  24  25
ATOM     25  N   UNL A   1      33.693  31.408  27.630  1.00  0.00    -0.352 N 
ATOM     26  C   UNL A   1      34.836  31.764  28.293  1.00  0.00     0.251 C 
ATOM     27  H   UNL A   1      32.915  31.942  27.908  1.00  0.00     0.163 HD
ATOM     28  O   UNL A   1      34.763  32.815  28.938  1.00  0.00    -0.269 OA
BRANCH  26  29
ATOM     29  C   UNL A   1      36.091  30.963  28.364  1.00  0.00     0.039 A 
ATOM     30  C   UNL A   1      36.202  29.590  28.153  1.00  0.00     0.014 A 
ATOM     31  C   UNL A   1      37.238  31.673  28.776  1.00  0.00     0.014 A 
ATOM     32  C   UNL A   1      37.389  28.928  28.471  1.00  0.00     0.010 A 
ATOM     33  C   UNL A   1      38.425  31.019  29.085  1.00  0.00     0.010 A 
ATOM     34  C   UNL A   1      38.480  29.637  28.993  1.00  0.00    -0.014 A 
BRANCH  34  35
ATOM     35  C   UNL A   1      39.692  28.896  29.342  1.00  0.00     0.031 A 
ATOM     36  C   UNL A   1      40.065  29.000  30.778  1.00  0.00     0.074 A 
ATOM     37  C   UNL A   1      40.389  28.127  28.477  1.00  0.00     0.049 A 
ATOM     38  N   UNL A   1      41.058  29.651  31.287  1.00  0.00    -0.248 NA
ATOM     39  C   UNL A   1      39.137  28.456  31.781  1.00  0.00     0.031 C 
ATOM     40  C   UNL A   1      39.994  27.712  27.126  1.00  0.00     0.029 A 
ATOM     41  N   UNL A   1      41.583  27.481  28.650  1.00  0.00    -0.354 N 
ATOM     42  C   UNL A   1      41.014  29.414  32.661  1.00  0.00     0.074 A 
ATOM     43  C   UNL A   1      39.726  28.825  32.921  1.00  0.00     0.031 C 
ATOM     44  C   UNL A   1      40.804  26.711  26.703  1.00  0.00     0.029 A 
ATOM     45  C   UNL A   1      41.878  26.542  27.667  1.00  0.00     0.049 A 
ATOM     46  H   UNL A   1      42.183  27.666  29.408  1.00  0.00     0.167 HD
ATOM     47  C   UNL A   1      42.139  29.512  33.426  1.00  0.00     0.034 A 
ATOM     48  C   UNL A   1      42.932  25.689  27.638  1.00  0.00     0.034 A 
ATOM     49  C   UNL A   1      43.209  30.115  32.681  1.00  0.00     0.049 A 
ATOM     50  C   UNL A   1      43.989  26.233  28.512  1.00  0.00     0.074 A 
ATOM     51  C   UNL A   1      43.618  31.388  32.364  1.00  0.00     0.029 A 
ATOM     52  N   UNL A   1      43.849  29.247  31.835  1.00  0.00    -0.354 N 
ATOM     53  N   UNL A   1      44.667  27.308  28.234  1.00  0.00    -0.248 NA
ATOM     54  C   UNL A   1      44.085  25.764  29.890  1.00  0.00     0.031 C 
ATOM     55  C   UNL A   1      44.398  31.266  31.179  1.00  0.00     0.029 A 
ATOM     56  C   UNL A   1      44.488  29.918  30.831  1.00  0.00     0.049 A 
ATOM     57  H   UNL A   1      43.849  28.268  31.938  1.00  0.00     0.167 HD
ATOM     58  C   UNL A   1      44.881  27.889  29.465  1.00  0.00     0.074 A 
ATOM     59  C   UNL A   1      44.685  26.823  30.439  1.00  0.00     0.031 C 
ATOM     60  C   UNL A   1      44.873  29.242  29.609  1.00  0.00     0.034 A 
BRANCH  47  61
ATOM     61  C   UNL A   1      42.429  28.693  34.669  1.00  0.00     0.023 A 
ATOM     62  C   UNL A   1      42.502  27.290  34.665  1.00  0.00     0.031 A 
ATOM     63  C   UNL A   1      42.895  29.327  35.844  1.00  0.00     0.131 A 
ATOM     64  C   UNL A   1      43.011  26.576  35.761  1.00  0.00     0.055 A 
ATOM     65  C   UNL A   1      43.460  28.619  36.913  1.00  0.00     0.041 A 
ATOM     66  F   UNL A   1      42.867  30.663  35.970  1.00  0.00    -0.206 F 
ATOM     67  C   UNL A   1      43.525  27.233  36.873  1.00  0.00     0.022 A 
BRANCH  64  68
ATOM     68  S   UNL A   1      43.031  24.762  35.737  1.00  0.00     0.124 S 
ATOM     69  O   UNL A   1      44.112  24.459  36.673  1.00  0.00    -0.237 OA
ATOM     70  O   UNL A   1      41.684  24.449  36.208  1.00  0.00    -0.237 OA
ATOM     71  O   UNL A   1      43.290  24.441  34.342  1.00  0.00    -0.744 OA
ENDBRANCH  64  68
ENDBRANCH  47  61
BRANCH  48  72
ATOM     72  C   UNL A   1      43.005  24.286  27.175  1.00  0.00     0.023 A 
ATOM     73  C   UNL A   1      44.071  23.906  26.342  1.00  0.00     0.031 A 
ATOM     74  C   UNL A   1      41.876  23.446  27.211  1.00  0.00     0.131 A 
ATOM     75  C   UNL A   1      43.956  22.773  25.521  1.00  0.00     0.055 A 
ATOM     76  C   UNL A   1      41.777  22.299  26.413  1.00  0.00     0.041 A 
ATOM     77  F   UNL A   1      40.810  23.770  27.960  1.00  0.00    -0.206 F 
ATOM     78  C   UNL A   1      42.813  21.971  25.546  1.00  0.00     0.022 A 
BRANCH  75  79
ATOM     79  S   UNL A   1      45.237  22.387  24.296  1.00  0.00     0.124 S 
ATOM     80  O   UNL A   1      46.107  21.479  25.039  1.00  0.00    -0.237 OA
ATOM     81  O   UNL A   1      44.452  21.772  23.231  1.00  0.00    -0.237 OA
ATOM     82  O   UNL A   1      45.818  23.690  23.988  1.00  0.00    -0.744 OA
ENDBRANCH  75  79
ENDBRANCH  48  72
BRANCH  60  83
ATOM     83  C   UNL A   1      45.126  30.092  28.396  1.00  0.00     0.023 A 
ATOM     84  C   UNL A   1      46.466  30.419  28.142  1.00  0.00     0.031 A 
ATOM     85  C   UNL A   1      44.136  30.706  27.610  1.00  0.00     0.131 A 
ATOM     86  C   UNL A   1      46.789  31.377  27.181  1.00  0.00     0.055 A 
ATOM     87  C   UNL A   1      44.469  31.607  26.592  1.00  0.00     0.041 A 
ATOM     88  F   UNL A   1      42.831  30.513  27.846  1.00  0.00    -0.206 F 
ATOM     89  C   UNL A   1      45.799  31.962  26.387  1.00  0.00     0.022 A 
BRANCH  86  90
ATOM     90  S   UNL A   1      48.482  32.003  27.071  1.00  0.00     0.124 S 
ATOM     91  O   UNL A   1      48.342  33.113  26.133  1.00  0.00    -0.237 OA
ATOM     92  O   UNL A   1      48.762  32.381  28.455  1.00  0.00    -0.237 OA
ATOM     93  O   UNL A   1      49.250  30.861  26.579  1.00  0.00    -0.744 OA
ENDBRANCH  86  90
ENDBRANCH  60  83
ENDBRANCH  34  35
ENDBRANCH  26  29
ENDBRANCH  24  25
ENDBRANCH  23  24
ENDBRANCH   1  23
TORSDOF 17
ENDMDL
