MODEL 1
REMARK VINA RESULT:     -12.5      0.000      0.000
REMARK SMILES Cc1nc2cc(S(=O)(=O)N3CCC(C(=O)NCCCCNC(=O)c4ccc(-c5c6nc(c(-c7cc(S(=O)(=O)[O-])ccc7F)c7ccc([nH]7)c(-c7cc(S(=O)(=O)[O-])ccc7F)c7nc(c(-c8cc(S(=O)(=O)[O-])ccc8F)c8ccc5[nH]8)C=C7)C=C6)cc4)CC3)ccc2n1C1CCCC1
REMARK SMILES IDX 18 1 17 2 16 3 14 4 15 5 13 7 10 8 11 9 88 10 12 11 87 12
REMARK SMILES IDX 7 13 8 14 9 15 6 16 1 17 2 18 3 19 92 20 4 21 91 22 5 23
REMARK SMILES IDX 90 24 89 25 93 26 94 27 97 28 95 29 96 30 19 31 20 32 21 33
REMARK SMILES IDX 22 34 23 36 24 37 25 38 86 39 26 40 85 41 27 42 28 43 29 44
REMARK SMILES IDX 79 45 30 46 84 47 78 48 80 49 31 50 83 51 77 52 76 53 32 55
REMARK SMILES IDX 64 56 44 57 63 58 45 59 48 60 62 61 81 62 46 63 47 64 61 66
REMARK SMILES IDX 82 67 49 68 33 69 34 70 42 71 35 72 41 73 43 74 40 75 36 76
REMARK SMILES IDX 37 77 38 78 39 79 65 80 66 81 74 82 67 83 73 84 75 85 72 86
REMARK SMILES IDX 68 87 69 88 70 89 71 90 50 91 51 92 59 93 52 94 58 95 60 96
REMARK SMILES IDX 57 97 53 98 54 99 55 100 56 101
REMARK H PARENT 16 6 21 35 80 54 48 65
REMARK Flexibility Score: inf
ROOT
ATOM      1  C   UNL A   1      35.655  21.722  26.239  1.00  0.00     0.023 C 
ENDROOT
BRANCH   1   2
ATOM      2  C   UNL A   1      35.361  20.926  24.980  1.00  0.00     0.116 C 
BRANCH   2   3
ATOM      3  N   UNL A   1      34.054  20.282  25.031  1.00  0.00    -0.356 N 
ATOM      4  C   UNL A   1      32.806  20.825  24.965  1.00  0.00     0.223 C 
ATOM      5  O   UNL A   1      31.826  20.079  24.984  1.00  0.00    -0.275 OA
ATOM      6  H   UNL A   1      34.076  19.302  25.127  1.00  0.00     0.163 HD
BRANCH   4   7
ATOM      7  C   UNL A   1      32.628  22.330  24.837  1.00  0.00     0.081 C 
ATOM      8  N   UNL A   1      31.018  24.628  24.053  1.00  0.00    -0.198 NA
ATOM      9  C   UNL A   1      32.031  24.123  23.095  1.00  0.00     0.103 C 
ATOM     10  C   UNL A   1      31.003  24.191  25.467  1.00  0.00     0.103 C 
ATOM     11  C   UNL A   1      32.567  22.737  23.371  1.00  0.00     0.030 C 
ATOM     12  C   UNL A   1      31.455  22.774  25.702  1.00  0.00     0.030 C 
BRANCH   8  13
ATOM     13  S   UNL A   1      30.663  26.308  23.852  1.00  0.00     0.243 S 
ATOM     14  O   UNL A   1      29.381  26.560  24.481  1.00  0.00    -0.207 OA
ATOM     15  O   UNL A   1      30.922  26.655  22.473  1.00  0.00    -0.207 OA
BRANCH  13  16
ATOM     16  C   UNL A   1      31.883  27.168  24.833  1.00  0.00     0.085 A 
ATOM     17  C   UNL A   1      34.040  31.868  27.823  1.00  0.00     0.088 C 
ATOM     18  C   UNL A   1      33.650  30.610  27.139  1.00  0.00     0.106 A 
ATOM     19  N   UNL A   1      32.517  30.444  26.484  1.00  0.00    -0.233 NA
ATOM     20  N   UNL A   1      34.411  29.459  27.110  1.00  0.00    -0.325 N 
ATOM     21  C   UNL A   1      32.545  29.169  25.989  1.00  0.00     0.090 A 
ATOM     22  C   UNL A   1      33.725  28.533  26.356  1.00  0.00     0.068 A 
ATOM     23  C   UNL A   1      31.596  28.487  25.212  1.00  0.00     0.052 A 
ATOM     24  C   UNL A   1      34.029  27.230  25.973  1.00  0.00     0.030 A 
ATOM     25  C   UNL A   1      33.081  26.560  25.217  1.00  0.00     0.024 A 
BRANCH  20  26
ATOM     26  C   UNL A   1      35.704  29.242  27.735  1.00  0.00     0.089 C 
ATOM     27  C   UNL A   1      36.853  30.060  27.134  1.00  0.00     0.025 C 
ATOM     28  C   UNL A   1      35.734  29.577  29.230  1.00  0.00     0.025 C 
ATOM     29  C   UNL A   1      37.917  30.074  28.221  1.00  0.00     0.002 C 
ATOM     30  C   UNL A   1      37.182  29.932  29.550  1.00  0.00     0.002 C 
ENDBRANCH  20  26
ENDBRANCH  13  16
ENDBRANCH   8  13
ENDBRANCH   4   7
ENDBRANCH   2   3
ENDBRANCH   1   2
BRANCH   1  31
ATOM     31  C   UNL A   1      36.111  23.154  25.973  1.00  0.00     0.023 C 
BRANCH  31  32
ATOM     32  C   UNL A   1      37.489  23.270  25.318  1.00  0.00     0.116 C 
BRANCH  32  33
ATOM     33  N   UNL A   1      38.510  22.438  25.921  1.00  0.00    -0.352 N 
ATOM     34  C   UNL A   1      39.466  22.655  26.877  1.00  0.00     0.251 C 
ATOM     35  H   UNL A   1      38.518  21.519  25.566  1.00  0.00     0.163 HD
ATOM     36  O   UNL A   1      40.039  21.650  27.306  1.00  0.00    -0.269 OA
BRANCH  34  37
ATOM     37  C   UNL A   1      39.904  23.998  27.342  1.00  0.00     0.039 A 
ATOM     38  C   UNL A   1      41.191  24.312  27.774  1.00  0.00     0.014 A 
ATOM     39  C   UNL A   1      38.902  24.979  27.444  1.00  0.00     0.014 A 
ATOM     40  C   UNL A   1      41.435  25.499  28.442  1.00  0.00     0.010 A 
ATOM     41  C   UNL A   1      39.152  26.194  28.074  1.00  0.00     0.010 A 
ATOM     42  C   UNL A   1      40.403  26.419  28.632  1.00  0.00    -0.014 A 
BRANCH  42  43
ATOM     43  C   UNL A   1      40.739  27.645  29.344  1.00  0.00     0.031 A 
ATOM     44  C   UNL A   1      41.680  28.537  28.611  1.00  0.00     0.074 A 
ATOM     45  C   UNL A   1      40.230  27.977  30.544  1.00  0.00     0.049 A 
ATOM     46  N   UNL A   1      42.897  28.832  28.928  1.00  0.00    -0.248 NA
ATOM     47  C   UNL A   1      41.273  29.016  27.283  1.00  0.00     0.031 C 
ATOM     48  C   UNL A   1      39.126  27.347  31.272  1.00  0.00     0.029 A 
ATOM     49  N   UNL A   1      40.550  29.037  31.336  1.00  0.00    -0.354 N 
ATOM     50  C   UNL A   1      43.360  29.691  27.932  1.00  0.00     0.074 A 
ATOM     51  C   UNL A   1      42.378  29.642  26.878  1.00  0.00     0.031 C 
ATOM     52  C   UNL A   1      38.712  28.180  32.255  1.00  0.00     0.029 A 
ATOM     53  C   UNL A   1      39.615  29.318  32.319  1.00  0.00     0.049 A 
ATOM     54  H   UNL A   1      41.377  29.559  31.219  1.00  0.00     0.167 HD
ATOM     55  C   UNL A   1      44.430  30.513  28.132  1.00  0.00     0.034 A 
ATOM     56  C   UNL A   1      39.546  30.442  33.077  1.00  0.00     0.034 A 
ATOM     57  C   UNL A   1      45.182  30.115  29.291  1.00  0.00     0.049 A 
ATOM     58  C   UNL A   1      40.869  31.111  33.038  1.00  0.00     0.074 A 
ATOM     59  C   UNL A   1      45.916  28.997  29.632  1.00  0.00     0.029 A 
ATOM     60  N   UNL A   1      44.947  30.787  30.465  1.00  0.00    -0.354 N 
ATOM     61  N   UNL A   1      41.933  30.643  33.628  1.00  0.00    -0.248 NA
ATOM     62  C   UNL A   1      41.116  32.056  31.959  1.00  0.00     0.031 C 
ATOM     63  C   UNL A   1      45.672  28.807  31.020  1.00  0.00     0.029 A 
ATOM     64  C   UNL A   1      44.861  29.853  31.465  1.00  0.00     0.049 A 
ATOM     65  H   UNL A   1      44.857  31.762  30.570  1.00  0.00     0.167 HD
ATOM     66  C   UNL A   1      42.949  30.841  32.706  1.00  0.00     0.074 A 
ATOM     67  C   UNL A   1      42.412  31.807  31.748  1.00  0.00     0.031 C 
ATOM     68  C   UNL A   1      44.015  29.990  32.633  1.00  0.00     0.034 A 
BRANCH  55  69
ATOM     69  C   UNL A   1      44.605  31.863  27.478  1.00  0.00     0.023 A 
ATOM     70  C   UNL A   1      43.862  32.996  27.853  1.00  0.00     0.031 A 
ATOM     71  C   UNL A   1      45.701  32.105  26.622  1.00  0.00     0.131 A 
ATOM     72  C   UNL A   1      44.202  34.281  27.410  1.00  0.00     0.055 A 
ATOM     73  C   UNL A   1      46.081  33.395  26.231  1.00  0.00     0.041 A 
ATOM     74  F   UNL A   1      46.479  31.100  26.190  1.00  0.00    -0.206 F 
ATOM     75  C   UNL A   1      45.333  34.494  26.631  1.00  0.00     0.022 A 
BRANCH  72  76
ATOM     76  S   UNL A   1      43.182  35.706  27.875  1.00  0.00     0.124 S 
ATOM     77  O   UNL A   1      42.791  36.234  26.572  1.00  0.00    -0.237 OA
ATOM     78  O   UNL A   1      42.117  35.068  28.646  1.00  0.00    -0.237 OA
ATOM     79  O   UNL A   1      44.093  36.540  28.653  1.00  0.00    -0.744 OA
ENDBRANCH  72  76
ENDBRANCH  55  69
BRANCH  56  80
ATOM     80  C   UNL A   1      38.314  31.184  33.433  1.00  0.00     0.023 A 
ATOM     81  C   UNL A   1      37.472  31.655  32.408  1.00  0.00     0.031 A 
ATOM     82  C   UNL A   1      38.121  31.709  34.722  1.00  0.00     0.131 A 
ATOM     83  C   UNL A   1      36.522  32.652  32.668  1.00  0.00     0.055 A 
ATOM     84  C   UNL A   1      37.155  32.689  34.984  1.00  0.00     0.041 A 
ATOM     85  F   UNL A   1      38.915  31.334  35.736  1.00  0.00    -0.206 F 
ATOM     86  C   UNL A   1      36.361  33.177  33.950  1.00  0.00     0.022 A 
BRANCH  83  87
ATOM     87  S   UNL A   1      35.550  33.359  31.310  1.00  0.00     0.124 S 
ATOM     88  O   UNL A   1      34.464  32.392  31.171  1.00  0.00    -0.237 OA
ATOM     89  O   UNL A   1      35.172  34.655  31.860  1.00  0.00    -0.237 OA
ATOM     90  O   UNL A   1      36.492  33.392  30.195  1.00  0.00    -0.744 OA
ENDBRANCH  83  87
ENDBRANCH  56  80
BRANCH  68  91
ATOM     91  C   UNL A   1      44.196  28.944  33.712  1.00  0.00     0.023 A 
ATOM     92  C   UNL A   1      43.147  28.026  33.897  1.00  0.00     0.031 A 
ATOM     93  C   UNL A   1      45.216  28.965  34.683  1.00  0.00     0.131 A 
ATOM     94  C   UNL A   1      43.113  27.207  35.032  1.00  0.00     0.055 A 
ATOM     95  C   UNL A   1      45.219  28.090  35.774  1.00  0.00     0.041 A 
ATOM     96  F   UNL A   1      46.189  29.884  34.661  1.00  0.00    -0.206 F 
ATOM     97  C   UNL A   1      44.153  27.218  35.964  1.00  0.00     0.022 A 
BRANCH  94  98
ATOM     98  S   UNL A   1      41.629  26.243  35.412  1.00  0.00     0.124 S 
ATOM     99  O   UNL A   1      41.347  26.642  36.788  1.00  0.00    -0.237 OA
ATOM    100  O   UNL A   1      40.678  26.724  34.412  1.00  0.00    -0.237 OA
ATOM    101  O   UNL A   1      42.054  24.856  35.238  1.00  0.00    -0.744 OA
ENDBRANCH  94  98
ENDBRANCH  68  91
ENDBRANCH  42  43
ENDBRANCH  34  37
ENDBRANCH  32  33
ENDBRANCH  31  32
ENDBRANCH   1  31
TORSDOF 17
ENDMDL
MODEL 2
REMARK VINA RESULT:     -11.7      2.782      9.225
REMARK SMILES Cc1nc2cc(S(=O)(=O)N3CCC(C(=O)NCCCCNC(=O)c4ccc(-c5c6nc(c(-c7cc(S(=O)(=O)[O-])ccc7F)c7ccc([nH]7)c(-c7cc(S(=O)(=O)[O-])ccc7F)c7nc(c(-c8cc(S(=O)(=O)[O-])ccc8F)c8ccc5[nH]8)C=C7)C=C6)cc4)CC3)ccc2n1C1CCCC1
REMARK SMILES IDX 18 1 17 2 16 3 14 4 15 5 13 7 10 8 11 9 88 10 12 11 87 12
REMARK SMILES IDX 7 13 8 14 9 15 6 16 1 17 2 18 3 19 92 20 4 21 91 22 5 23
REMARK SMILES IDX 90 24 89 25 93 26 94 27 97 28 95 29 96 30 19 31 20 32 21 33
REMARK SMILES IDX 22 34 23 36 24 37 25 38 86 39 26 40 85 41 27 42 28 43 29 44
REMARK SMILES IDX 79 45 30 46 84 47 78 48 80 49 31 50 83 51 77 52 76 53 32 55
REMARK SMILES IDX 64 56 44 57 63 58 45 59 48 60 62 61 81 62 46 63 47 64 61 66
REMARK SMILES IDX 82 67 49 68 33 69 34 70 42 71 35 72 41 73 43 74 40 75 36 76
REMARK SMILES IDX 37 77 38 78 39 79 65 80 66 81 74 82 67 83 73 84 75 85 72 86
REMARK SMILES IDX 68 87 69 88 70 89 71 90 50 91 51 92 59 93 52 94 58 95 60 96
REMARK SMILES IDX 57 97 53 98 54 99 55 100 56 101
REMARK H PARENT 16 6 21 35 80 54 48 65
REMARK Flexibility Score: inf
ROOT
ATOM      1  C   UNL A   1      36.577  30.656  28.029  1.00  0.00     0.023 C 
ENDROOT
BRANCH   1   2
ATOM      2  C   UNL A   1      35.654  29.472  27.793  1.00  0.00     0.116 C 
BRANCH   2   3
ATOM      3  N   UNL A   1      34.249  29.857  27.825  1.00  0.00    -0.356 N 
ATOM      4  C   UNL A   1      33.222  29.495  27.005  1.00  0.00     0.223 C 
ATOM      5  O   UNL A   1      32.088  29.912  27.246  1.00  0.00    -0.275 OA
ATOM      6  H   UNL A   1      34.002  30.474  28.552  1.00  0.00     0.163 HD
BRANCH   4   7
ATOM      7  C   UNL A   1      33.469  28.564  25.828  1.00  0.00     0.081 C 
ATOM      8  N   UNL A   1      32.462  27.012  23.577  1.00  0.00    -0.198 NA
ATOM      9  C   UNL A   1      32.673  26.315  24.869  1.00  0.00     0.103 C 
ATOM     10  C   UNL A   1      33.006  28.366  23.329  1.00  0.00     0.103 C 
ATOM     11  C   UNL A   1      32.828  27.205  26.081  1.00  0.00     0.030 C 
ATOM     12  C   UNL A   1      33.063  29.263  24.538  1.00  0.00     0.030 C 
BRANCH   8  13
ATOM     13  S   UNL A   1      32.581  25.966  22.207  1.00  0.00     0.243 S 
ATOM     14  O   UNL A   1      33.658  26.461  21.372  1.00  0.00    -0.207 OA
ATOM     15  O   UNL A   1      31.247  25.754  21.692  1.00  0.00    -0.207 OA
BRANCH  13  16
ATOM     16  C   UNL A   1      33.131  24.397  22.859  1.00  0.00     0.085 A 
ATOM     17  C   UNL A   1      37.176  20.645  25.150  1.00  0.00     0.088 C 
ATOM     18  C   UNL A   1      36.050  21.444  24.606  1.00  0.00     0.106 A 
ATOM     19  N   UNL A   1      36.150  22.706  24.234  1.00  0.00    -0.233 NA
ATOM     20  N   UNL A   1      34.763  20.978  24.434  1.00  0.00    -0.325 N 
ATOM     21  C   UNL A   1      34.912  23.069  23.779  1.00  0.00     0.090 A 
ATOM     22  C   UNL A   1      34.026  22.002  23.882  1.00  0.00     0.068 A 
ATOM     23  C   UNL A   1      34.471  24.296  23.259  1.00  0.00     0.052 A 
ATOM     24  C   UNL A   1      32.698  22.085  23.474  1.00  0.00     0.030 A 
ATOM     25  C   UNL A   1      32.269  23.303  22.973  1.00  0.00     0.024 A 
BRANCH  20  26
ATOM     26  C   UNL A   1      34.255  19.655  24.750  1.00  0.00     0.089 C 
ATOM     27  C   UNL A   1      33.287  19.605  25.939  1.00  0.00     0.025 C 
ATOM     28  C   UNL A   1      33.485  18.996  23.600  1.00  0.00     0.025 C 
ATOM     29  C   UNL A   1      32.523  18.304  25.750  1.00  0.00     0.002 C 
ATOM     30  C   UNL A   1      32.516  18.017  24.252  1.00  0.00     0.002 C 
ENDBRANCH  20  26
ENDBRANCH  13  16
ENDBRANCH   8  13
ENDBRANCH   4   7
ENDBRANCH   2   3
ENDBRANCH   1   2
BRANCH   1  31
ATOM     31  C   UNL A   1      35.874  32.009  27.970  1.00  0.00     0.023 C 
BRANCH  31  32
ATOM     32  C   UNL A   1      36.589  33.129  28.731  1.00  0.00     0.116 C 
BRANCH  32  33
ATOM     33  N   UNL A   1      36.247  33.211  30.135  1.00  0.00    -0.352 N 
ATOM     34  C   UNL A   1      36.881  32.834  31.289  1.00  0.00     0.251 C 
ATOM     35  H   UNL A   1      35.368  33.627  30.295  1.00  0.00     0.163 HD
ATOM     36  O   UNL A   1      36.385  33.251  32.339  1.00  0.00    -0.269 OA
BRANCH  34  37
ATOM     37  C   UNL A   1      38.040  31.904  31.349  1.00  0.00     0.039 A 
ATOM     38  C   UNL A   1      39.377  32.294  31.343  1.00  0.00     0.014 A 
ATOM     39  C   UNL A   1      37.740  30.531  31.302  1.00  0.00     0.014 A 
ATOM     40  C   UNL A   1      40.378  31.363  31.124  1.00  0.00     0.010 A 
ATOM     41  C   UNL A   1      38.743  29.585  31.128  1.00  0.00     0.010 A 
ATOM     42  C   UNL A   1      40.055  30.013  30.971  1.00  0.00    -0.014 A 
BRANCH  42  43
ATOM     43  C   UNL A   1      41.163  29.095  30.745  1.00  0.00     0.031 A 
ATOM     44  C   UNL A   1      41.781  28.567  31.992  1.00  0.00     0.074 A 
ATOM     45  C   UNL A   1      41.585  28.718  29.523  1.00  0.00     0.049 A 
ATOM     46  N   UNL A   1      42.969  28.802  32.445  1.00  0.00    -0.248 NA
ATOM     47  C   UNL A   1      40.917  27.833  32.926  1.00  0.00     0.031 C 
ATOM     48  C   UNL A   1      40.941  28.942  28.227  1.00  0.00     0.029 A 
ATOM     49  N   UNL A   1      42.663  27.954  29.200  1.00  0.00    -0.354 N 
ATOM     50  C   UNL A   1      43.075  28.092  33.640  1.00  0.00     0.074 A 
ATOM     51  C   UNL A   1      41.741  27.647  33.957  1.00  0.00     0.031 C 
ATOM     52  C   UNL A   1      41.500  28.121  27.308  1.00  0.00     0.029 A 
ATOM     53  C   UNL A   1      42.630  27.435  27.915  1.00  0.00     0.049 A 
ATOM     54  H   UNL A   1      43.404  27.784  29.826  1.00  0.00     0.167 HD
ATOM     55  C   UNL A   1      44.285  27.776  34.183  1.00  0.00     0.034 A 
ATOM     56  C   UNL A   1      43.427  26.458  27.412  1.00  0.00     0.034 A 
ATOM     57  C   UNL A   1      45.340  28.552  33.590  1.00  0.00     0.049 A 
ATOM     58  C   UNL A   1      44.633  26.355  28.269  1.00  0.00     0.074 A 
ATOM     59  C   UNL A   1      45.652  29.896  33.558  1.00  0.00     0.029 A 
ATOM     60  N   UNL A   1      46.077  27.967  32.590  1.00  0.00    -0.354 N 
ATOM     61  N   UNL A   1      45.572  27.256  28.307  1.00  0.00    -0.248 NA
ATOM     62  C   UNL A   1      44.566  25.473  29.426  1.00  0.00     0.031 C 
ATOM     63  C   UNL A   1      46.179  30.118  32.255  1.00  0.00     0.029 A 
ATOM     64  C   UNL A   1      46.224  28.892  31.589  1.00  0.00     0.049 A 
ATOM     65  H   UNL A   1      46.437  27.050  32.592  1.00  0.00     0.167 HD
ATOM     66  C   UNL A   1      45.880  27.374  29.653  1.00  0.00     0.074 A 
ATOM     67  C   UNL A   1      45.310  26.182  30.280  1.00  0.00     0.031 C 
ATOM     68  C   UNL A   1      46.306  28.560  30.182  1.00  0.00     0.034 A 
BRANCH  55  69
ATOM     69  C   UNL A   1      44.556  26.539  35.008  1.00  0.00     0.023 A 
ATOM     70  C   UNL A   1      44.791  26.580  36.393  1.00  0.00     0.031 A 
ATOM     71  C   UNL A   1      44.342  25.255  34.460  1.00  0.00     0.131 A 
ATOM     72  C   UNL A   1      44.799  25.417  37.175  1.00  0.00     0.055 A 
ATOM     73  C   UNL A   1      44.286  24.100  35.249  1.00  0.00     0.041 A 
ATOM     74  F   UNL A   1      44.116  25.090  33.147  1.00  0.00    -0.206 F 
ATOM     75  C   UNL A   1      44.509  24.178  36.617  1.00  0.00     0.022 A 
BRANCH  72  76
ATOM     76  S   UNL A   1      45.161  25.512  38.949  1.00  0.00     0.124 S 
ATOM     77  O   UNL A   1      46.537  25.998  38.950  1.00  0.00    -0.237 OA
ATOM     78  O   UNL A   1      44.152  26.466  39.405  1.00  0.00    -0.237 OA
ATOM     79  O   UNL A   1      44.969  24.142  39.412  1.00  0.00    -0.744 OA
ENDBRANCH  72  76
ENDBRANCH  55  69
BRANCH  56  80
ATOM     80  C   UNL A   1      42.997  25.337  26.545  1.00  0.00     0.023 A 
ATOM     81  C   UNL A   1      41.936  24.510  26.959  1.00  0.00     0.031 A 
ATOM     82  C   UNL A   1      43.802  24.875  25.490  1.00  0.00     0.131 A 
ATOM     83  C   UNL A   1      41.741  23.253  26.374  1.00  0.00     0.055 A 
ATOM     84  C   UNL A   1      43.591  23.627  24.890  1.00  0.00     0.041 A 
ATOM     85  F   UNL A   1      44.855  25.594  25.072  1.00  0.00    -0.206 F 
ATOM     86  C   UNL A   1      42.566  22.802  25.343  1.00  0.00     0.022 A 
BRANCH  83  87
ATOM     87  S   UNL A   1      40.469  22.134  27.021  1.00  0.00     0.124 S 
ATOM     88  O   UNL A   1      39.257  22.942  26.902  1.00  0.00    -0.237 OA
ATOM     89  O   UNL A   1      40.567  21.009  26.099  1.00  0.00    -0.237 OA
ATOM     90  O   UNL A   1      40.904  21.875  28.390  1.00  0.00    -0.744 OA
ENDBRANCH  83  87
ENDBRANCH  56  80
BRANCH  68  91
ATOM     91  C   UNL A   1      46.650  29.700  29.248  1.00  0.00     0.023 A 
ATOM     92  C   UNL A   1      45.579  30.380  28.643  1.00  0.00     0.031 A 
ATOM     93  C   UNL A   1      47.945  29.975  28.767  1.00  0.00     0.131 A 
ATOM     94  C   UNL A   1      45.806  31.256  27.576  1.00  0.00     0.055 A 
ATOM     95  C   UNL A   1      48.176  30.911  27.753  1.00  0.00     0.041 A 
ATOM     96  F   UNL A   1      49.014  29.291  29.191  1.00  0.00    -0.206 F 
ATOM     97  C   UNL A   1      47.101  31.543  27.138  1.00  0.00     0.022 A 
BRANCH  94  98
ATOM     98  S   UNL A   1      44.413  31.902  26.617  1.00  0.00     0.124 S 
ATOM     99  O   UNL A   1      45.062  32.330  25.381  1.00  0.00    -0.237 OA
ATOM    100  O   UNL A   1      43.546  30.731  26.497  1.00  0.00    -0.237 OA
ATOM    101  O   UNL A   1      43.880  32.978  27.449  1.00  0.00    -0.744 OA
ENDBRANCH  94  98
ENDBRANCH  68  91
ENDBRANCH  42  43
ENDBRANCH  34  37
ENDBRANCH  32  33
ENDBRANCH  31  32
ENDBRANCH   1  31
TORSDOF 17
ENDMDL
MODEL 3
REMARK VINA RESULT:     -11.6      2.800      9.204
REMARK SMILES Cc1nc2cc(S(=O)(=O)N3CCC(C(=O)NCCCCNC(=O)c4ccc(-c5c6nc(c(-c7cc(S(=O)(=O)[O-])ccc7F)c7ccc([nH]7)c(-c7cc(S(=O)(=O)[O-])ccc7F)c7nc(c(-c8cc(S(=O)(=O)[O-])ccc8F)c8ccc5[nH]8)C=C7)C=C6)cc4)CC3)ccc2n1C1CCCC1
REMARK SMILES IDX 18 1 17 2 16 3 14 4 15 5 13 7 10 8 11 9 88 10 12 11 87 12
REMARK SMILES IDX 7 13 8 14 9 15 6 16 1 17 2 18 3 19 92 20 4 21 91 22 5 23
REMARK SMILES IDX 90 24 89 25 93 26 94 27 97 28 95 29 96 30 19 31 20 32 21 33
REMARK SMILES IDX 22 34 23 36 24 37 25 38 86 39 26 40 85 41 27 42 28 43 29 44
REMARK SMILES IDX 79 45 30 46 84 47 78 48 80 49 31 50 83 51 77 52 76 53 32 55
REMARK SMILES IDX 64 56 44 57 63 58 45 59 48 60 62 61 81 62 46 63 47 64 61 66
REMARK SMILES IDX 82 67 49 68 33 69 34 70 42 71 35 72 41 73 43 74 40 75 36 76
REMARK SMILES IDX 37 77 38 78 39 79 65 80 66 81 74 82 67 83 73 84 75 85 72 86
REMARK SMILES IDX 68 87 69 88 70 89 71 90 50 91 51 92 59 93 52 94 58 95 60 96
REMARK SMILES IDX 57 97 53 98 54 99 55 100 56 101
REMARK H PARENT 16 6 21 35 80 54 48 65
REMARK Flexibility Score: inf
ROOT
ATOM      1  C   UNL A   1      36.111  30.911  27.809  1.00  0.00     0.023 C 
ENDROOT
BRANCH   1   2
ATOM      2  C   UNL A   1      35.419  29.559  27.826  1.00  0.00     0.116 C 
BRANCH   2   3
ATOM      3  N   UNL A   1      33.974  29.684  27.972  1.00  0.00    -0.356 N 
ATOM      4  C   UNL A   1      32.967  29.083  27.276  1.00  0.00     0.223 C 
ATOM      5  O   UNL A   1      31.800  29.305  27.601  1.00  0.00    -0.275 OA
ATOM      6  H   UNL A   1      33.678  30.297  28.683  1.00  0.00     0.163 HD
BRANCH   4   7
ATOM      7  C   UNL A   1      33.284  28.129  26.135  1.00  0.00     0.081 C 
ATOM      8  N   UNL A   1      32.522  26.826  23.643  1.00  0.00    -0.198 NA
ATOM      9  C   UNL A   1      32.301  26.092  24.914  1.00  0.00     0.103 C 
ATOM     10  C   UNL A   1      33.359  28.045  23.588  1.00  0.00     0.103 C 
ATOM     11  C   UNL A   1      32.352  26.925  26.173  1.00  0.00     0.030 C 
ATOM     12  C   UNL A   1      33.318  28.904  24.824  1.00  0.00     0.030 C 
BRANCH   8  13
ATOM     13  S   UNL A   1      32.736  25.786  22.280  1.00  0.00     0.243 S 
ATOM     14  O   UNL A   1      33.882  26.273  21.536  1.00  0.00    -0.207 OA
ATOM     15  O   UNL A   1      31.445  25.593  21.660  1.00  0.00    -0.207 OA
BRANCH  13  16
ATOM     16  C   UNL A   1      33.215  24.206  22.964  1.00  0.00     0.085 A 
ATOM     17  C   UNL A   1      37.120  20.260  25.166  1.00  0.00     0.088 C 
ATOM     18  C   UNL A   1      36.022  21.118  24.657  1.00  0.00     0.106 A 
ATOM     19  N   UNL A   1      36.187  22.354  24.227  1.00  0.00    -0.233 NA
ATOM     20  N   UNL A   1      34.697  20.740  24.580  1.00  0.00    -0.325 N 
ATOM     21  C   UNL A   1      34.951  22.789  23.832  1.00  0.00     0.090 A 
ATOM     22  C   UNL A   1      34.001  21.794  24.030  1.00  0.00     0.068 A 
ATOM     23  C   UNL A   1      34.566  24.024  23.287  1.00  0.00     0.052 A 
ATOM     24  C   UNL A   1      32.660  21.957  23.698  1.00  0.00     0.030 A 
ATOM     25  C   UNL A   1      32.286  23.183  23.174  1.00  0.00     0.024 A 
BRANCH  20  26
ATOM     26  C   UNL A   1      34.118  19.469  24.980  1.00  0.00     0.089 C 
ATOM     27  C   UNL A   1      32.624  19.318  24.669  1.00  0.00     0.025 C 
ATOM     28  C   UNL A   1      34.775  18.253  24.317  1.00  0.00     0.025 C 
ATOM     29  C   UNL A   1      32.386  17.816  24.680  1.00  0.00     0.002 C 
ATOM     30  C   UNL A   1      33.710  17.162  24.297  1.00  0.00     0.002 C 
ENDBRANCH  20  26
ENDBRANCH  13  16
ENDBRANCH   8  13
ENDBRANCH   4   7
ENDBRANCH   2   3
ENDBRANCH   1   2
BRANCH   1  31
ATOM     31  C   UNL A   1      35.157  32.092  27.659  1.00  0.00     0.023 C 
BRANCH  31  32
ATOM     32  C   UNL A   1      35.311  33.173  28.733  1.00  0.00     0.116 C 
BRANCH  32  33
ATOM     33  N   UNL A   1      34.668  32.860  29.992  1.00  0.00    -0.352 N 
ATOM     34  C   UNL A   1      35.104  32.309  31.167  1.00  0.00     0.251 C 
ATOM     35  H   UNL A   1      33.711  33.093  30.006  1.00  0.00     0.163 HD
ATOM     36  O   UNL A   1      34.324  32.381  32.120  1.00  0.00    -0.269 OA
BRANCH  34  37
ATOM     37  C   UNL A   1      36.384  31.569  31.328  1.00  0.00     0.039 A 
ATOM     38  C   UNL A   1      37.650  32.151  31.315  1.00  0.00     0.014 A 
ATOM     39  C   UNL A   1      36.290  30.167  31.391  1.00  0.00     0.014 A 
ATOM     40  C   UNL A   1      38.782  31.364  31.195  1.00  0.00     0.010 A 
ATOM     41  C   UNL A   1      37.426  29.369  31.317  1.00  0.00     0.010 A 
ATOM     42  C   UNL A   1      38.665  29.973  31.150  1.00  0.00    -0.014 A 
BRANCH  42  43
ATOM     43  C   UNL A   1      39.902  29.215  31.023  1.00  0.00     0.031 A 
ATOM     44  C   UNL A   1      40.740  29.206  32.253  1.00  0.00     0.074 A 
ATOM     45  C   UNL A   1      40.258  28.545  29.912  1.00  0.00     0.049 A 
ATOM     46  N   UNL A   1      41.899  29.752  32.423  1.00  0.00    -0.248 NA
ATOM     47  C   UNL A   1      40.141  28.676  33.486  1.00  0.00     0.031 C 
ATOM     48  C   UNL A   1      39.451  28.249  28.726  1.00  0.00     0.029 A 
ATOM     49  N   UNL A   1      41.426  27.895  29.653  1.00  0.00    -0.354 N 
ATOM     50  C   UNL A   1      42.268  29.477  33.739  1.00  0.00     0.074 A 
ATOM     51  C   UNL A   1      41.090  28.952  34.381  1.00  0.00     0.031 C 
ATOM     52  C   UNL A   1      40.060  27.279  28.006  1.00  0.00     0.029 A 
ATOM     53  C   UNL A   1      41.360  27.002  28.596  1.00  0.00     0.049 A 
ATOM     54  H   UNL A   1      42.248  28.047  30.175  1.00  0.00     0.167 HD
ATOM     55  C   UNL A   1      43.568  29.538  34.149  1.00  0.00     0.034 A 
ATOM     56  C   UNL A   1      42.276  26.053  28.275  1.00  0.00     0.034 A 
ATOM     57  C   UNL A   1      44.381  30.244  33.196  1.00  0.00     0.049 A 
ATOM     58  C   UNL A   1      43.563  26.412  28.920  1.00  0.00     0.074 A 
ATOM     59  C   UNL A   1      44.417  31.542  32.728  1.00  0.00     0.029 A 
ATOM     60  N   UNL A   1      45.109  29.498  32.303  1.00  0.00    -0.354 N 
ATOM     61  N   UNL A   1      44.305  27.415  28.545  1.00  0.00    -0.248 NA
ATOM     62  C   UNL A   1      43.793  25.937  30.278  1.00  0.00     0.031 C 
ATOM     63  C   UNL A   1      44.749  31.425  31.350  1.00  0.00     0.029 A 
ATOM     64  C   UNL A   1      44.964  30.075  31.067  1.00  0.00     0.049 A 
ATOM     65  H   UNL A   1      45.640  28.695  32.511  1.00  0.00     0.167 HD
ATOM     66  C   UNL A   1      44.723  27.994  29.732  1.00  0.00     0.074 A 
ATOM     67  C   UNL A   1      44.468  26.984  30.759  1.00  0.00     0.031 C 
ATOM     68  C   UNL A   1      44.961  29.336  29.822  1.00  0.00     0.034 A 
BRANCH  55  69
ATOM     69  C   UNL A   1      44.162  28.679  35.240  1.00  0.00     0.023 A 
ATOM     70  C   UNL A   1      44.099  27.275  35.227  1.00  0.00     0.031 A 
ATOM     71  C   UNL A   1      45.024  29.245  36.204  1.00  0.00     0.131 A 
ATOM     72  C   UNL A   1      44.857  26.494  36.110  1.00  0.00     0.055 A 
ATOM     73  C   UNL A   1      45.829  28.466  37.044  1.00  0.00     0.041 A 
ATOM     74  F   UNL A   1      45.159  30.576  36.318  1.00  0.00    -0.206 F 
ATOM     75  C   UNL A   1      45.753  27.081  36.996  1.00  0.00     0.022 A 
BRANCH  72  76
ATOM     76  S   UNL A   1      44.703  24.688  36.094  1.00  0.00     0.124 S 
ATOM     77  O   UNL A   1      43.423  24.500  35.418  1.00  0.00    -0.237 OA
ATOM     78  O   UNL A   1      45.886  24.298  35.330  1.00  0.00    -0.237 OA
ATOM     79  O   UNL A   1      44.735  24.329  37.508  1.00  0.00    -0.744 OA
ENDBRANCH  72  76
ENDBRANCH  55  69
BRANCH  56  80
ATOM     80  C   UNL A   1      41.986  24.665  27.848  1.00  0.00     0.023 A 
ATOM     81  C   UNL A   1      42.938  23.963  27.085  1.00  0.00     0.031 A 
ATOM     82  C   UNL A   1      40.684  24.139  27.899  1.00  0.00     0.131 A 
ATOM     83  C   UNL A   1      42.571  22.821  26.363  1.00  0.00     0.055 A 
ATOM     84  C   UNL A   1      40.324  22.983  27.194  1.00  0.00     0.041 A 
ATOM     85  F   UNL A   1      39.717  24.779  28.574  1.00  0.00    -0.206 F 
ATOM     86  C   UNL A   1      41.267  22.327  26.408  1.00  0.00     0.022 A 
BRANCH  83  87
ATOM     87  S   UNL A   1      43.768  22.015  25.263  1.00  0.00     0.124 S 
ATOM     88  O   UNL A   1      45.027  22.215  25.977  1.00  0.00    -0.237 OA
ATOM     89  O   UNL A   1      43.270  20.645  25.236  1.00  0.00    -0.237 OA
ATOM     90  O   UNL A   1      43.642  22.762  24.015  1.00  0.00    -0.744 OA
ENDBRANCH  83  87
ENDBRANCH  56  80
BRANCH  68  91
ATOM     91  C   UNL A   1      44.974  30.166  28.556  1.00  0.00     0.023 A 
ATOM     92  C   UNL A   1      46.200  30.740  28.178  1.00  0.00     0.031 A 
ATOM     93  C   UNL A   1      43.822  30.590  27.866  1.00  0.00     0.131 A 
ATOM     94  C   UNL A   1      46.247  31.727  27.186  1.00  0.00     0.055 A 
ATOM     95  C   UNL A   1      43.883  31.518  26.821  1.00  0.00     0.041 A 
ATOM     96  F   UNL A   1      42.597  30.196  28.233  1.00  0.00    -0.206 F 
ATOM     97  C   UNL A   1      45.098  32.107  26.489  1.00  0.00     0.022 A 
BRANCH  94  98
ATOM     98  S   UNL A   1      47.770  32.665  26.907  1.00  0.00     0.124 S 
ATOM     99  O   UNL A   1      48.011  33.258  28.220  1.00  0.00    -0.237 OA
ATOM    100  O   UNL A   1      48.712  31.620  26.509  1.00  0.00    -0.237 OA
ATOM    101  O   UNL A   1      47.416  33.607  25.850  1.00  0.00    -0.744 OA
ENDBRANCH  94  98
ENDBRANCH  68  91
ENDBRANCH  42  43
ENDBRANCH  34  37
ENDBRANCH  32  33
ENDBRANCH  31  32
ENDBRANCH   1  31
TORSDOF 17
ENDMDL
