MODEL 1
REMARK VINA RESULT:     -11.5      0.000      0.000
REMARK SMILES C[NH2+][C@@]1(C(=O)NCCCCNC(=O)c2ccc(-c3c4nc(c(-c5cc(S(=O)(=O)[O-])ccc5F)c5ccc([nH]5)c(-c5cc(S(=O)(=O)[O-])ccc5F)c5nc(c(-c6cc(S(=O)(=O)[O-])ccc6F)c6ccc3[nH]6)C=C5)C=C4)cc2)CCC[C@H](n2cc(I)cn2)C1
REMARK SMILES IDX 9 1 8 2 7 3 6 4 4 5 5 6 3 8 77 9 87 10 78 11 80 12 79 13
REMARK SMILES IDX 2 14 1 15 81 18 82 19 86 20 83 21 85 22 84 23 10 24 11 25
REMARK SMILES IDX 12 26 13 28 14 29 15 30 76 31 16 32 75 33 17 34 18 35 19 36
REMARK SMILES IDX 69 37 20 38 74 39 68 40 70 41 21 42 73 43 67 44 66 45 22 47
REMARK SMILES IDX 54 48 34 49 53 50 35 51 38 52 52 53 71 54 36 55 37 56 51 58
REMARK SMILES IDX 72 59 39 60 23 61 24 62 32 63 25 64 31 65 33 66 30 67 26 68
REMARK SMILES IDX 27 69 28 70 29 71 55 72 56 73 64 74 57 75 63 76 65 77 62 78
REMARK SMILES IDX 58 79 59 80 60 81 61 82 40 83 41 84 49 85 42 86 48 87 50 88
REMARK SMILES IDX 47 89 43 90 44 91 45 92 46 93
REMARK H PARENT 6 7 2 16 2 17 11 27 70 46 38 57
REMARK Flexibility Score: inf
ROOT
ATOM      1  C   UNL A   1      38.328  19.897  24.944  1.00  0.00     0.023 C 
ENDROOT
BRANCH   1   2
ATOM      2  C   UNL A   1      37.489  21.143  24.713  1.00  0.00     0.023 C 
BRANCH   2   3
ATOM      3  C   UNL A   1      35.984  20.939  24.826  1.00  0.00     0.116 C 
BRANCH   3   4
ATOM      4  N   UNL A   1      35.441  21.260  26.136  1.00  0.00    -0.351 N 
ATOM      5  C   UNL A   1      34.411  21.999  26.625  1.00  0.00     0.281 C 
ATOM      6  O   UNL A   1      34.049  21.649  27.764  1.00  0.00    -0.268 OA
ATOM      7  H   UNL A   1      35.954  20.829  26.858  1.00  0.00     0.163 HD
BRANCH   5   8
ATOM      8  C   UNL A   1      33.618  23.184  25.896  1.00  0.00     0.177 C 
ATOM      9  C   UNL A   1      32.584  23.889  26.781  1.00  0.00     0.079 C 
ATOM     10  C   UNL A   1      32.934  22.847  24.548  1.00  0.00     0.106 C 
ATOM     11  C   UNL A   1      31.146  23.352  26.736  1.00  0.00     0.009 C 
ATOM     12  C   UNL A   1      31.776  21.858  24.626  1.00  0.00     0.114 C 
ATOM     13  C   UNL A   1      30.715  22.371  25.625  1.00  0.00     0.028 C 
BRANCH   8  14
ATOM     14  N   UNL A   1      34.675  24.264  25.662  1.00  0.00    -0.336 N 
ATOM     15  C   UNL A   1      34.147  25.627  25.540  1.00  0.00     0.331 C 
ATOM     16  H   UNL A   1      35.326  24.245  26.448  1.00  0.00     0.346 HD
ATOM     17  H   UNL A   1      35.115  24.046  24.769  1.00  0.00     0.346 HD
ENDBRANCH   8  14
BRANCH  12  18
ATOM     18  N   UNL A   1      32.233  20.467  24.702  1.00  0.00    -0.268 N 
ATOM     19  C   UNL A   1      32.799  19.696  23.717  1.00  0.00     0.123 A 
ATOM     20  N   UNL A   1      32.330  19.876  25.914  1.00  0.00    -0.180 NA
ATOM     21  C   UNL A   1      33.138  18.509  24.326  1.00  0.00     0.051 A 
ATOM     22  C   UNL A   1      32.814  18.660  25.672  1.00  0.00     0.149 A 
ATOM     23  I   UNL A   1      33.939  16.882  23.460  1.00  0.00    -0.041 I 
ENDBRANCH  12  18
ENDBRANCH   5   8
ENDBRANCH   3   4
ENDBRANCH   2   3
ENDBRANCH   1   2
BRANCH   1  24
ATOM     24  C   UNL A   1      39.284  20.065  26.105  1.00  0.00     0.116 C 
BRANCH  24  25
ATOM     25  N   UNL A   1      40.432  19.165  25.997  1.00  0.00    -0.352 N 
ATOM     26  C   UNL A   1      41.776  19.470  26.000  1.00  0.00     0.251 C 
ATOM     27  H   UNL A   1      40.215  18.209  25.910  1.00  0.00     0.163 HD
ATOM     28  O   UNL A   1      42.600  18.621  25.686  1.00  0.00    -0.269 OA
BRANCH  26  29
ATOM     29  C   UNL A   1      42.197  20.844  26.353  1.00  0.00     0.039 A 
ATOM     30  C   UNL A   1      42.539  21.155  27.669  1.00  0.00     0.014 A 
ATOM     31  C   UNL A   1      42.306  21.811  25.352  1.00  0.00     0.014 A 
ATOM     32  C   UNL A   1      43.057  22.420  27.961  1.00  0.00     0.010 A 
ATOM     33  C   UNL A   1      42.970  22.996  25.613  1.00  0.00     0.010 A 
ATOM     34  C   UNL A   1      43.314  23.336  26.928  1.00  0.00    -0.014 A 
BRANCH  34  35
ATOM     35  C   UNL A   1      43.862  24.692  27.184  1.00  0.00     0.031 A 
ATOM     36  C   UNL A   1      42.945  25.759  27.731  1.00  0.00     0.074 A 
ATOM     37  C   UNL A   1      45.138  24.981  26.862  1.00  0.00     0.049 A 
ATOM     38  N   UNL A   1      43.165  27.037  27.903  1.00  0.00    -0.248 NA
ATOM     39  C   UNL A   1      41.574  25.342  28.072  1.00  0.00     0.031 C 
ATOM     40  C   UNL A   1      46.099  24.045  26.274  1.00  0.00     0.029 A 
ATOM     41  N   UNL A   1      45.848  26.148  26.984  1.00  0.00    -0.354 N 
ATOM     42  C   UNL A   1      41.954  27.571  28.336  1.00  0.00     0.074 A 
ATOM     43  C   UNL A   1      40.984  26.503  28.298  1.00  0.00     0.031 C 
ATOM     44  C   UNL A   1      47.286  24.660  26.138  1.00  0.00     0.029 A 
ATOM     45  C   UNL A   1      47.158  26.045  26.575  1.00  0.00     0.049 A 
ATOM     46  H   UNL A   1      45.457  26.982  27.332  1.00  0.00     0.167 HD
ATOM     47  C   UNL A   1      41.687  28.826  28.770  1.00  0.00     0.034 A 
ATOM     48  C   UNL A   1      48.139  26.968  26.555  1.00  0.00     0.034 A 
ATOM     49  C   UNL A   1      42.687  29.860  28.847  1.00  0.00     0.049 A 
ATOM     50  C   UNL A   1      47.823  28.359  27.050  1.00  0.00     0.074 A 
ATOM     51  C   UNL A   1      42.558  31.151  29.323  1.00  0.00     0.029 A 
ATOM     52  N   UNL A   1      44.008  29.712  28.443  1.00  0.00    -0.354 N 
ATOM     53  N   UNL A   1      46.683  28.840  27.495  1.00  0.00    -0.248 NA
ATOM     54  C   UNL A   1      48.927  29.326  27.050  1.00  0.00     0.031 C 
ATOM     55  C   UNL A   1      43.784  31.803  29.151  1.00  0.00     0.029 A 
ATOM     56  C   UNL A   1      44.700  30.895  28.639  1.00  0.00     0.049 A 
ATOM     57  H   UNL A   1      44.396  28.887  28.071  1.00  0.00     0.167 HD
ATOM     58  C   UNL A   1      46.945  30.157  27.860  1.00  0.00     0.074 A 
ATOM     59  C   UNL A   1      48.351  30.387  27.598  1.00  0.00     0.031 C 
ATOM     60  C   UNL A   1      46.103  31.095  28.365  1.00  0.00     0.034 A 
BRANCH  47  61
ATOM     61  C   UNL A   1      40.265  29.133  29.183  1.00  0.00     0.023 A 
ATOM     62  C   UNL A   1      39.869  29.119  30.533  1.00  0.00     0.031 A 
ATOM     63  C   UNL A   1      39.280  29.393  28.215  1.00  0.00     0.131 A 
ATOM     64  C   UNL A   1      38.515  29.267  30.870  1.00  0.00     0.055 A 
ATOM     65  C   UNL A   1      37.948  29.634  28.565  1.00  0.00     0.041 A 
ATOM     66  F   UNL A   1      39.588  29.396  26.909  1.00  0.00    -0.206 F 
ATOM     67  C   UNL A   1      37.556  29.552  29.898  1.00  0.00     0.022 A 
BRANCH  64  68
ATOM     68  S   UNL A   1      38.006  28.914  32.576  1.00  0.00     0.124 S 
ATOM     69  O   UNL A   1      36.639  29.432  32.588  1.00  0.00    -0.237 OA
ATOM     70  O   UNL A   1      38.141  27.464  32.654  1.00  0.00    -0.237 OA
ATOM     71  O   UNL A   1      38.960  29.674  33.382  1.00  0.00    -0.744 OA
ENDBRANCH  64  68
ENDBRANCH  47  61
BRANCH  48  72
ATOM     72  C   UNL A   1      49.506  26.616  26.074  1.00  0.00     0.023 A 
ATOM     73  C   UNL A   1      49.970  27.070  24.828  1.00  0.00     0.031 A 
ATOM     74  C   UNL A   1      50.358  25.794  26.833  1.00  0.00     0.131 A 
ATOM     75  C   UNL A   1      51.227  26.660  24.356  1.00  0.00     0.055 A 
ATOM     76  C   UNL A   1      51.630  25.435  26.383  1.00  0.00     0.041 A 
ATOM     77  F   UNL A   1      49.969  25.338  28.034  1.00  0.00    -0.206 F 
ATOM     78  C   UNL A   1      52.067  25.858  25.131  1.00  0.00     0.022 A 
BRANCH  75  79
ATOM     79  S   UNL A   1      51.714  27.122  22.670  1.00  0.00     0.124 S 
ATOM     80  O   UNL A   1      52.046  28.532  22.832  1.00  0.00    -0.237 OA
ATOM     81  O   UNL A   1      52.834  26.222  22.422  1.00  0.00    -0.237 OA
ATOM     82  O   UNL A   1      50.512  26.849  21.883  1.00  0.00    -0.744 OA
ENDBRANCH  75  79
ENDBRANCH  48  72
BRANCH  60  83
ATOM     83  C   UNL A   1      46.702  32.435  28.712  1.00  0.00     0.023 A 
ATOM     84  C   UNL A   1      46.788  33.472  27.768  1.00  0.00     0.031 A 
ATOM     85  C   UNL A   1      47.194  32.673  30.008  1.00  0.00     0.131 A 
ATOM     86  C   UNL A   1      47.407  34.680  28.117  1.00  0.00     0.055 A 
ATOM     87  C   UNL A   1      47.748  33.900  30.367  1.00  0.00     0.041 A 
ATOM     88  F   UNL A   1      47.136  31.715  30.948  1.00  0.00    -0.206 F 
ATOM     89  C   UNL A   1      47.870  34.909  29.416  1.00  0.00     0.022 A 
BRANCH  86  90
ATOM     90  S   UNL A   1      47.686  35.917  26.821  1.00  0.00     0.124 S 
ATOM     91  O   UNL A   1      48.840  36.644  27.339  1.00  0.00    -0.237 OA
ATOM     92  O   UNL A   1      47.929  35.088  25.645  1.00  0.00    -0.237 OA
ATOM     93  O   UNL A   1      46.435  36.674  26.796  1.00  0.00    -0.744 OA
ENDBRANCH  86  90
ENDBRANCH  60  83
ENDBRANCH  34  35
ENDBRANCH  26  29
ENDBRANCH  24  25
ENDBRANCH   1  24
TORSDOF 16
ENDMDL
MODEL 2
REMARK VINA RESULT:     -11.5      6.617     12.013
REMARK SMILES C[NH2+][C@@]1(C(=O)NCCCCNC(=O)c2ccc(-c3c4nc(c(-c5cc(S(=O)(=O)[O-])ccc5F)c5ccc([nH]5)c(-c5cc(S(=O)(=O)[O-])ccc5F)c5nc(c(-c6cc(S(=O)(=O)[O-])ccc6F)c6ccc3[nH]6)C=C5)C=C4)cc2)CCC[C@H](n2cc(I)cn2)C1
REMARK SMILES IDX 9 1 8 2 7 3 6 4 4 5 5 6 3 8 77 9 87 10 78 11 80 12 79 13
REMARK SMILES IDX 2 14 1 15 81 18 82 19 86 20 83 21 85 22 84 23 10 24 11 25
REMARK SMILES IDX 12 26 13 28 14 29 15 30 76 31 16 32 75 33 17 34 18 35 19 36
REMARK SMILES IDX 69 37 20 38 74 39 68 40 70 41 21 42 73 43 67 44 66 45 22 47
REMARK SMILES IDX 54 48 34 49 53 50 35 51 38 52 52 53 71 54 36 55 37 56 51 58
REMARK SMILES IDX 72 59 39 60 23 61 24 62 32 63 25 64 31 65 33 66 30 67 26 68
REMARK SMILES IDX 27 69 28 70 29 71 55 72 56 73 64 74 57 75 63 76 65 77 62 78
REMARK SMILES IDX 58 79 59 80 60 81 61 82 40 83 41 84 49 85 42 86 48 87 50 88
REMARK SMILES IDX 47 89 43 90 44 91 45 92 46 93
REMARK H PARENT 6 7 2 16 2 17 11 27 70 46 38 57
REMARK Flexibility Score: inf
ROOT
ATOM      1  C   UNL A   1      31.720  32.093  26.866  1.00  0.00     0.023 C 
ENDROOT
BRANCH   1   2
ATOM      2  C   UNL A   1      31.962  30.593  26.854  1.00  0.00     0.023 C 
BRANCH   2   3
ATOM      3  C   UNL A   1      31.539  29.879  25.576  1.00  0.00     0.116 C 
BRANCH   3   4
ATOM      4  N   UNL A   1      32.608  29.728  24.603  1.00  0.00    -0.351 N 
ATOM      5  C   UNL A   1      33.130  28.719  23.856  1.00  0.00     0.281 C 
ATOM      6  O   UNL A   1      33.741  29.117  22.847  1.00  0.00    -0.268 OA
ATOM      7  H   UNL A   1      33.076  30.580  24.441  1.00  0.00     0.163 HD
BRANCH   5   8
ATOM      8  C   UNL A   1      32.999  27.143  24.106  1.00  0.00     0.177 C 
ATOM      9  C   UNL A   1      33.799  26.280  23.123  1.00  0.00     0.079 C 
ATOM     10  C   UNL A   1      31.566  26.560  24.185  1.00  0.00     0.106 C 
ATOM     11  C   UNL A   1      33.068  25.802  21.860  1.00  0.00     0.009 C 
ATOM     12  C   UNL A   1      30.757  26.621  22.894  1.00  0.00     0.114 C 
ATOM     13  C   UNL A   1      31.533  25.920  21.757  1.00  0.00     0.028 C 
BRANCH   8  14
ATOM     14  N   UNL A   1      33.707  26.906  25.439  1.00  0.00    -0.336 N 
ATOM     15  C   UNL A   1      34.009  25.502  25.736  1.00  0.00     0.331 C 
ATOM     16  H   UNL A   1      34.587  27.423  25.427  1.00  0.00     0.346 HD
ATOM     17  H   UNL A   1      33.065  27.221  26.166  1.00  0.00     0.346 HD
ENDBRANCH   8  14
BRANCH  12  18
ATOM     18  N   UNL A   1      30.169  27.945  22.663  1.00  0.00    -0.268 N 
ATOM     19  C   UNL A   1      29.219  28.601  23.406  1.00  0.00     0.123 A 
ATOM     20  N   UNL A   1      30.734  28.761  21.746  1.00  0.00    -0.180 NA
ATOM     21  C   UNL A   1      29.090  29.843  22.827  1.00  0.00     0.051 A 
ATOM     22  C   UNL A   1      30.030  29.889  21.799  1.00  0.00     0.149 A 
ATOM     23  I   UNL A   1      27.813  31.304  23.350  1.00  0.00    -0.041 I 
ENDBRANCH  12  18
ENDBRANCH   5   8
ENDBRANCH   3   4
ENDBRANCH   2   3
ENDBRANCH   1   2
BRANCH   1  24
ATOM     24  C   UNL A   1      32.989  32.870  27.141  1.00  0.00     0.116 C 
BRANCH  24  25
ATOM     25  N   UNL A   1      32.713  34.141  27.810  1.00  0.00    -0.352 N 
ATOM     26  C   UNL A   1      33.276  34.657  28.957  1.00  0.00     0.251 C 
ATOM     27  H   UNL A   1      32.031  34.706  27.381  1.00  0.00     0.163 HD
ATOM     28  O   UNL A   1      32.780  35.636  29.499  1.00  0.00    -0.269 OA
BRANCH  26  29
ATOM     29  C   UNL A   1      34.462  33.986  29.535  1.00  0.00     0.039 A 
ATOM     30  C   UNL A   1      35.745  34.424  29.204  1.00  0.00     0.014 A 
ATOM     31  C   UNL A   1      34.289  32.955  30.459  1.00  0.00     0.014 A 
ATOM     32  C   UNL A   1      36.848  33.867  29.856  1.00  0.00     0.010 A 
ATOM     33  C   UNL A   1      35.364  32.526  31.217  1.00  0.00     0.010 A 
ATOM     34  C   UNL A   1      36.662  32.942  30.897  1.00  0.00    -0.014 A 
BRANCH  34  35
ATOM     35  C   UNL A   1      37.800  32.320  31.621  1.00  0.00     0.031 A 
ATOM     36  C   UNL A   1      38.581  31.219  30.946  1.00  0.00     0.074 A 
ATOM     37  C   UNL A   1      38.080  32.685  32.887  1.00  0.00     0.049 A 
ATOM     38  N   UNL A   1      39.517  30.445  31.431  1.00  0.00    -0.248 NA
ATOM     39  C   UNL A   1      38.214  30.905  29.555  1.00  0.00     0.031 C 
ATOM     40  C   UNL A   1      37.356  33.698  33.660  1.00  0.00     0.029 A 
ATOM     41  N   UNL A   1      39.050  32.244  33.751  1.00  0.00    -0.354 N 
ATOM     42  C   UNL A   1      39.818  29.540  30.418  1.00  0.00     0.074 A 
ATOM     43  C   UNL A   1      38.896  29.794  29.336  1.00  0.00     0.031 C 
ATOM     44  C   UNL A   1      37.942  33.837  34.861  1.00  0.00     0.029 A 
ATOM     45  C   UNL A   1      39.045  32.890  34.966  1.00  0.00     0.049 A 
ATOM     46  H   UNL A   1      39.691  31.533  33.522  1.00  0.00     0.167 HD
ATOM     47  C   UNL A   1      40.804  28.611  30.374  1.00  0.00     0.034 A 
ATOM     48  C   UNL A   1      39.842  32.728  36.041  1.00  0.00     0.034 A 
ATOM     49  C   UNL A   1      41.744  28.413  31.447  1.00  0.00     0.049 A 
ATOM     50  C   UNL A   1      40.940  31.694  35.968  1.00  0.00     0.074 A 
ATOM     51  C   UNL A   1      42.822  27.549  31.501  1.00  0.00     0.029 A 
ATOM     52  N   UNL A   1      41.720  29.100  32.655  1.00  0.00    -0.354 N 
ATOM     53  N   UNL A   1      41.239  30.872  34.988  1.00  0.00    -0.248 NA
ATOM     54  C   UNL A   1      41.812  31.574  37.143  1.00  0.00     0.031 C 
ATOM     55  C   UNL A   1      43.413  27.670  32.764  1.00  0.00     0.029 A 
ATOM     56  C   UNL A   1      42.751  28.664  33.469  1.00  0.00     0.049 A 
ATOM     57  H   UNL A   1      41.065  29.794  32.896  1.00  0.00     0.167 HD
ATOM     58  C   UNL A   1      42.357  30.162  35.417  1.00  0.00     0.074 A 
ATOM     59  C   UNL A   1      42.685  30.665  36.735  1.00  0.00     0.031 C 
ATOM     60  C   UNL A   1      43.052  29.183  34.782  1.00  0.00     0.034 A 
BRANCH  47  61
ATOM     61  C   UNL A   1      40.899  27.754  29.132  1.00  0.00     0.023 A 
ATOM     62  C   UNL A   1      41.887  27.975  28.156  1.00  0.00     0.031 A 
ATOM     63  C   UNL A   1      39.961  26.734  28.894  1.00  0.00     0.131 A 
ATOM     64  C   UNL A   1      41.859  27.255  26.951  1.00  0.00     0.055 A 
ATOM     65  C   UNL A   1      39.997  25.956  27.734  1.00  0.00     0.041 A 
ATOM     66  F   UNL A   1      38.979  26.489  29.775  1.00  0.00    -0.206 F 
ATOM     67  C   UNL A   1      40.938  26.228  26.745  1.00  0.00     0.022 A 
BRANCH  64  68
ATOM     68  S   UNL A   1      42.937  27.797  25.596  1.00  0.00     0.124 S 
ATOM     69  O   UNL A   1      43.909  28.626  26.307  1.00  0.00    -0.237 OA
ATOM     70  O   UNL A   1      43.441  26.535  25.067  1.00  0.00    -0.237 OA
ATOM     71  O   UNL A   1      42.034  28.530  24.711  1.00  0.00    -0.744 OA
ENDBRANCH  64  68
ENDBRANCH  47  61
BRANCH  48  72
ATOM     72  C   UNL A   1      39.653  33.564  37.261  1.00  0.00     0.023 A 
ATOM     73  C   UNL A   1      40.421  34.722  37.467  1.00  0.00     0.031 A 
ATOM     74  C   UNL A   1      38.728  33.203  38.257  1.00  0.00     0.131 A 
ATOM     75  C   UNL A   1      40.287  35.451  38.659  1.00  0.00     0.055 A 
ATOM     76  C   UNL A   1      38.560  33.962  39.417  1.00  0.00     0.041 A 
ATOM     77  F   UNL A   1      37.964  32.110  38.110  1.00  0.00    -0.206 F 
ATOM     78  C   UNL A   1      39.351  35.087  39.630  1.00  0.00     0.022 A 
BRANCH  75  79
ATOM     79  S   UNL A   1      41.420  36.835  38.963  1.00  0.00     0.124 S 
ATOM     80  O   UNL A   1      42.222  36.325  40.068  1.00  0.00    -0.237 OA
ATOM     81  O   UNL A   1      42.100  36.956  37.678  1.00  0.00    -0.237 OA
ATOM     82  O   UNL A   1      40.524  37.940  39.298  1.00  0.00    -0.744 OA
ENDBRANCH  75  79
ENDBRANCH  48  72
BRANCH  60  83
ATOM     83  C   UNL A   1      44.263  28.635  35.493  1.00  0.00     0.023 A 
ATOM     84  C   UNL A   1      44.157  27.617  36.456  1.00  0.00     0.031 A 
ATOM     85  C   UNL A   1      45.543  29.142  35.201  1.00  0.00     0.131 A 
ATOM     86  C   UNL A   1      45.302  27.180  37.135  1.00  0.00     0.055 A 
ATOM     87  C   UNL A   1      46.685  28.655  35.832  1.00  0.00     0.041 A 
ATOM     88  F   UNL A   1      45.700  30.115  34.288  1.00  0.00    -0.206 F 
ATOM     89  C   UNL A   1      46.569  27.677  36.816  1.00  0.00     0.022 A 
BRANCH  86  90
ATOM     90  S   UNL A   1      45.102  26.017  38.512  1.00  0.00     0.124 S 
ATOM     91  O   UNL A   1      43.856  26.475  39.116  1.00  0.00    -0.237 OA
ATOM     92  O   UNL A   1      45.044  24.730  37.828  1.00  0.00    -0.237 OA
ATOM     93  O   UNL A   1      46.300  26.235  39.321  1.00  0.00    -0.744 OA
ENDBRANCH  86  90
ENDBRANCH  60  83
ENDBRANCH  34  35
ENDBRANCH  26  29
ENDBRANCH  24  25
ENDBRANCH   1  24
TORSDOF 16
ENDMDL
MODEL 3
REMARK VINA RESULT:     -11.5      2.887      8.576
REMARK SMILES C[NH2+][C@@]1(C(=O)NCCCCNC(=O)c2ccc(-c3c4nc(c(-c5cc(S(=O)(=O)[O-])ccc5F)c5ccc([nH]5)c(-c5cc(S(=O)(=O)[O-])ccc5F)c5nc(c(-c6cc(S(=O)(=O)[O-])ccc6F)c6ccc3[nH]6)C=C5)C=C4)cc2)CCC[C@H](n2cc(I)cn2)C1
REMARK SMILES IDX 9 1 8 2 7 3 6 4 4 5 5 6 3 8 77 9 87 10 78 11 80 12 79 13
REMARK SMILES IDX 2 14 1 15 81 18 82 19 86 20 83 21 85 22 84 23 10 24 11 25
REMARK SMILES IDX 12 26 13 28 14 29 15 30 76 31 16 32 75 33 17 34 18 35 19 36
REMARK SMILES IDX 69 37 20 38 74 39 68 40 70 41 21 42 73 43 67 44 66 45 22 47
REMARK SMILES IDX 54 48 34 49 53 50 35 51 38 52 52 53 71 54 36 55 37 56 51 58
REMARK SMILES IDX 72 59 39 60 23 61 24 62 32 63 25 64 31 65 33 66 30 67 26 68
REMARK SMILES IDX 27 69 28 70 29 71 55 72 56 73 64 74 57 75 63 76 65 77 62 78
REMARK SMILES IDX 58 79 59 80 60 81 61 82 40 83 41 84 49 85 42 86 48 87 50 88
REMARK SMILES IDX 47 89 43 90 44 91 45 92 46 93
REMARK H PARENT 6 7 2 16 2 17 11 27 70 46 38 57
REMARK Flexibility Score: inf
ROOT
ATOM      1  C   UNL A   1      36.874  21.844  24.180  1.00  0.00     0.023 C 
ENDROOT
BRANCH   1   2
ATOM      2  C   UNL A   1      36.608  23.144  23.437  1.00  0.00     0.023 C 
BRANCH   2   3
ATOM      3  C   UNL A   1      35.168  23.637  23.493  1.00  0.00     0.116 C 
BRANCH   3   4
ATOM      4  N   UNL A   1      34.669  23.853  24.842  1.00  0.00    -0.351 N 
ATOM      5  C   UNL A   1      33.824  23.219  25.697  1.00  0.00     0.281 C 
ATOM      6  O   UNL A   1      34.021  23.510  26.891  1.00  0.00    -0.268 OA
ATOM      7  H   UNL A   1      35.041  24.674  25.240  1.00  0.00     0.163 HD
BRANCH   5   8
ATOM      8  C   UNL A   1      32.690  22.146  25.342  1.00  0.00     0.177 C 
ATOM      9  C   UNL A   1      32.877  21.455  23.987  1.00  0.00     0.079 C 
ATOM     10  C   UNL A   1      31.219  22.623  25.429  1.00  0.00     0.106 C 
ATOM     11  C   UNL A   1      32.179  22.093  22.777  1.00  0.00     0.009 C 
ATOM     12  C   UNL A   1      30.809  23.683  24.412  1.00  0.00     0.114 C 
ATOM     13  C   UNL A   1      31.100  23.176  22.982  1.00  0.00     0.028 C 
BRANCH   8  14
ATOM     14  N   UNL A   1      32.907  21.014  26.347  1.00  0.00    -0.336 N 
ATOM     15  C   UNL A   1      33.265  19.722  25.752  1.00  0.00     0.331 C 
ATOM     16  H   UNL A   1      33.658  21.291  26.979  1.00  0.00     0.346 HD
ATOM     17  H   UNL A   1      32.014  20.874  26.819  1.00  0.00     0.346 HD
ENDBRANCH   8  14
BRANCH  12  18
ATOM     18  N   UNL A   1      31.233  25.030  24.807  1.00  0.00    -0.268 N 
ATOM     19  C   UNL A   1      31.041  25.672  26.005  1.00  0.00     0.123 A 
ATOM     20  N   UNL A   1      32.103  25.699  24.018  1.00  0.00    -0.180 NA
ATOM     21  C   UNL A   1      31.715  26.867  25.896  1.00  0.00     0.051 A 
ATOM     22  C   UNL A   1      32.338  26.846  24.650  1.00  0.00     0.149 A 
ATOM     23  I   UNL A   1      31.796  28.348  27.253  1.00  0.00    -0.041 I 
ENDBRANCH  12  18
ENDBRANCH   5   8
ENDBRANCH   3   4
ENDBRANCH   2   3
ENDBRANCH   1   2
BRANCH   1  24
ATOM     24  C   UNL A   1      37.402  22.088  25.577  1.00  0.00     0.116 C 
BRANCH  24  25
ATOM     25  N   UNL A   1      38.399  21.089  25.961  1.00  0.00    -0.352 N 
ATOM     26  C   UNL A   1      39.653  21.279  26.501  1.00  0.00     0.251 C 
ATOM     27  H   UNL A   1      38.139  20.152  25.814  1.00  0.00     0.163 HD
ATOM     28  O   UNL A   1      40.443  20.346  26.565  1.00  0.00    -0.269 OA
BRANCH  26  29
ATOM     29  C   UNL A   1      40.034  22.632  26.965  1.00  0.00     0.039 A 
ATOM     30  C   UNL A   1      40.955  22.782  28.002  1.00  0.00     0.014 A 
ATOM     31  C   UNL A   1      39.514  23.754  26.319  1.00  0.00     0.014 A 
ATOM     32  C   UNL A   1      41.402  24.063  28.339  1.00  0.00     0.010 A 
ATOM     33  C   UNL A   1      40.079  24.997  26.543  1.00  0.00     0.010 A 
ATOM     34  C   UNL A   1      40.997  25.176  27.585  1.00  0.00    -0.014 A 
BRANCH  34  35
ATOM     35  C   UNL A   1      41.441  26.557  27.903  1.00  0.00     0.031 A 
ATOM     36  C   UNL A   1      42.835  26.985  27.511  1.00  0.00     0.074 A 
ATOM     37  C   UNL A   1      40.636  27.387  28.595  1.00  0.00     0.049 A 
ATOM     38  N   UNL A   1      43.480  28.084  27.803  1.00  0.00    -0.248 NA
ATOM     39  C   UNL A   1      43.631  26.016  26.739  1.00  0.00     0.031 C 
ATOM     40  C   UNL A   1      39.291  27.061  29.076  1.00  0.00     0.029 A 
ATOM     41  N   UNL A   1      40.834  28.677  29.018  1.00  0.00    -0.354 N 
ATOM     42  C   UNL A   1      44.760  27.917  27.281  1.00  0.00     0.074 A 
ATOM     43  C   UNL A   1      44.828  26.576  26.750  1.00  0.00     0.031 C 
ATOM     44  C   UNL A   1      38.766  28.141  29.678  1.00  0.00     0.029 A 
ATOM     45  C   UNL A   1      39.751  29.215  29.677  1.00  0.00     0.049 A 
ATOM     46  H   UNL A   1      41.670  29.172  28.863  1.00  0.00     0.167 HD
ATOM     47  C   UNL A   1      45.771  28.816  27.208  1.00  0.00     0.034 A 
ATOM     48  C   UNL A   1      39.583  30.438  30.218  1.00  0.00     0.034 A 
ATOM     49  C   UNL A   1      45.659  30.165  27.699  1.00  0.00     0.049 A 
ATOM     50  C   UNL A   1      40.718  31.427  30.119  1.00  0.00     0.074 A 
ATOM     51  C   UNL A   1      46.586  31.188  27.632  1.00  0.00     0.029 A 
ATOM     52  N   UNL A   1      44.540  30.681  28.342  1.00  0.00    -0.354 N 
ATOM     53  N   UNL A   1      41.909  31.270  29.586  1.00  0.00    -0.248 NA
ATOM     54  C   UNL A   1      40.482  32.761  30.685  1.00  0.00     0.031 C 
ATOM     55  C   UNL A   1      46.053  32.303  28.288  1.00  0.00     0.029 A 
ATOM     56  C   UNL A   1      44.762  32.001  28.696  1.00  0.00     0.049 A 
ATOM     57  H   UNL A   1      43.711  30.181  28.520  1.00  0.00     0.167 HD
ATOM     58  C   UNL A   1      42.551  32.497  29.723  1.00  0.00     0.074 A 
ATOM     59  C   UNL A   1      41.609  33.386  30.374  1.00  0.00     0.031 C 
ATOM     60  C   UNL A   1      43.804  32.862  29.348  1.00  0.00     0.034 A 
BRANCH  47  61
ATOM     61  C   UNL A   1      47.068  28.357  26.581  1.00  0.00     0.023 A 
ATOM     62  C   UNL A   1      47.246  28.331  25.186  1.00  0.00     0.031 A 
ATOM     63  C   UNL A   1      48.124  27.891  27.384  1.00  0.00     0.131 A 
ATOM     64  C   UNL A   1      48.406  27.766  24.636  1.00  0.00     0.055 A 
ATOM     65  C   UNL A   1      49.317  27.418  26.831  1.00  0.00     0.041 A 
ATOM     66  F   UNL A   1      48.008  27.867  28.720  1.00  0.00    -0.206 F 
ATOM     67  C   UNL A   1      49.455  27.336  25.448  1.00  0.00     0.022 A 
BRANCH  64  68
ATOM     68  S   UNL A   1      48.450  27.452  22.849  1.00  0.00     0.124 S 
ATOM     69  O   UNL A   1      47.282  28.202  22.390  1.00  0.00    -0.237 OA
ATOM     70  O   UNL A   1      49.748  27.993  22.463  1.00  0.00    -0.237 OA
ATOM     71  O   UNL A   1      48.325  25.999  22.753  1.00  0.00    -0.744 OA
ENDBRANCH  64  68
ENDBRANCH  47  61
BRANCH  48  72
ATOM     72  C   UNL A   1      38.298  30.806  30.880  1.00  0.00     0.023 A 
ATOM     73  C   UNL A   1      37.292  31.485  30.173  1.00  0.00     0.031 A 
ATOM     74  C   UNL A   1      38.067  30.516  32.237  1.00  0.00     0.131 A 
ATOM     75  C   UNL A   1      36.124  31.896  30.835  1.00  0.00     0.055 A 
ATOM     76  C   UNL A   1      36.879  30.878  32.876  1.00  0.00     0.041 A 
ATOM     77  F   UNL A   1      38.990  29.863  32.958  1.00  0.00    -0.206 F 
ATOM     78  C   UNL A   1      35.904  31.584  32.178  1.00  0.00     0.022 A 
BRANCH  75  79
ATOM     79  S   UNL A   1      34.931  32.924  29.933  1.00  0.00     0.124 S 
ATOM     80  O   UNL A   1      34.029  33.337  31.001  1.00  0.00    -0.237 OA
ATOM     81  O   UNL A   1      35.789  33.965  29.378  1.00  0.00    -0.237 OA
ATOM     82  O   UNL A   1      34.360  32.001  28.954  1.00  0.00    -0.744 OA
ENDBRANCH  75  79
ENDBRANCH  48  72
BRANCH  60  83
ATOM     83  C   UNL A   1      44.199  34.296  29.590  1.00  0.00     0.023 A 
ATOM     84  C   UNL A   1      43.787  35.331  28.733  1.00  0.00     0.031 A 
ATOM     85  C   UNL A   1      45.001  34.630  30.697  1.00  0.00     0.131 A 
ATOM     86  C   UNL A   1      44.228  36.642  28.963  1.00  0.00     0.055 A 
ATOM     87  C   UNL A   1      45.379  35.945  30.957  1.00  0.00     0.041 A 
ATOM     88  F   UNL A   1      45.421  33.679  31.548  1.00  0.00    -0.206 F 
ATOM     89  C   UNL A   1      45.005  36.960  30.080  1.00  0.00     0.022 A 
BRANCH  86  90
ATOM     90  S   UNL A   1      43.850  37.912  27.726  1.00  0.00     0.124 S 
ATOM     91  O   UNL A   1      43.016  38.837  28.487  1.00  0.00    -0.237 OA
ATOM     92  O   UNL A   1      45.176  38.399  27.363  1.00  0.00    -0.237 OA
ATOM     93  O   UNL A   1      43.154  37.171  26.675  1.00  0.00    -0.744 OA
ENDBRANCH  86  90
ENDBRANCH  60  83
ENDBRANCH  34  35
ENDBRANCH  26  29
ENDBRANCH  24  25
ENDBRANCH   1  24
TORSDOF 16
ENDMDL
