MODEL 1
REMARK VINA RESULT:     -12.4      0.000      0.000
REMARK SMILES CC[C@H]1SC[C@H](C(=O)NCCCCNC(=O)c2ccc(-c3c4nc(c(-c5cc(S(=O)(=O)[O-])ccc5F)c5ccc([nH]5)c(-c5cc(S(=O)(=O)[O-])ccc5F)c5nc(c(-c6cc(S(=O)(=O)[O-])ccc6F)c6ccc3[nH]6)C=C5)C=C4)cc2)N1C(=O)c1ccc(F)c(F)c1F
REMARK SMILES IDX 12 1 11 2 10 3 9 4 7 5 8 6 6 8 3 9 4 10 80 11 5 12 2 13 1 14
REMARK SMILES IDX 81 15 82 16 83 17 84 18 90 19 85 20 88 21 91 22 86 23 89 24
REMARK SMILES IDX 87 25 13 26 14 27 15 28 16 30 17 31 18 32 79 33 19 34 78 35
REMARK SMILES IDX 20 36 21 37 22 38 72 39 23 40 77 41 71 42 73 43 24 44 76 45
REMARK SMILES IDX 70 46 69 47 25 49 57 50 37 51 56 52 38 53 41 54 55 55 74 56
REMARK SMILES IDX 39 57 40 58 54 60 75 61 42 62 26 63 27 64 35 65 28 66 34 67
REMARK SMILES IDX 36 68 33 69 29 70 30 71 31 72 32 73 58 74 59 75 67 76 60 77
REMARK SMILES IDX 66 78 68 79 65 80 61 81 62 82 63 83 64 84 43 85 44 86 52 87
REMARK SMILES IDX 45 88 51 89 53 90 50 91 46 92 47 93 48 94 49 95
REMARK H PARENT 9 7 14 29 73 48 41 59
REMARK Flexibility Score: inf
ROOT
ATOM      1  C   UNL A   1      31.064  31.777  26.200  1.00  0.00     0.023 C 
ENDROOT
BRANCH   1   2
ATOM      2  C   UNL A   1      31.173  30.498  25.365  1.00  0.00     0.023 C 
BRANCH   2   3
ATOM      3  C   UNL A   1      32.495  29.748  25.528  1.00  0.00     0.116 C 
BRANCH   3   4
ATOM      4  N   UNL A   1      33.229  29.653  24.277  1.00  0.00    -0.354 N 
ATOM      5  C   UNL A   1      33.634  28.541  23.584  1.00  0.00     0.243 C 
ATOM      6  O   UNL A   1      34.298  28.689  22.558  1.00  0.00    -0.273 OA
ATOM      7  H   UNL A   1      33.473  30.514  23.866  1.00  0.00     0.163 HD
BRANCH   5   8
ATOM      8  C   UNL A   1      33.161  27.161  24.068  1.00  0.00     0.185 C 
ATOM      9  C   UNL A   1      31.347  25.705  24.697  1.00  0.00     0.144 C 
ATOM     10  S   UNL A   1      32.079  26.100  26.314  1.00  0.00    -0.134 SA
ATOM     11  N   UNL A   1      31.756  26.812  23.847  1.00  0.00    -0.314 N 
ATOM     12  C   UNL A   1      33.402  27.122  25.587  1.00  0.00     0.107 C 
BRANCH   9  13
ATOM     13  C   UNL A   1      31.953  24.342  24.261  1.00  0.00     0.033 C 
ATOM     14  C   UNL A   1      31.046  23.447  23.428  1.00  0.00     0.007 C 
ENDBRANCH   9  13
BRANCH  11  15
ATOM     15  C   UNL A   1      31.137  27.125  22.648  1.00  0.00     0.258 C 
ATOM     16  O   UNL A   1      31.416  26.566  21.589  1.00  0.00    -0.269 OA
BRANCH  15  17
ATOM     17  C   UNL A   1      30.062  28.143  22.624  1.00  0.00     0.079 A 
ATOM     18  C   UNL A   1      30.359  29.417  22.116  1.00  0.00     0.020 A 
ATOM     19  C   UNL A   1      28.793  27.888  23.147  1.00  0.00     0.174 A 
ATOM     20  C   UNL A   1      29.375  30.410  22.090  1.00  0.00     0.043 A 
ATOM     21  C   UNL A   1      27.817  28.879  23.123  1.00  0.00     0.195 A 
ATOM     22  F   UNL A   1      28.489  26.690  23.667  1.00  0.00    -0.203 F 
ATOM     23  C   UNL A   1      28.108  30.130  22.591  1.00  0.00     0.161 A 
ATOM     24  F   UNL A   1      26.590  28.626  23.601  1.00  0.00    -0.200 F 
ATOM     25  F   UNL A   1      27.165  31.081  22.553  1.00  0.00    -0.204 F 
ENDBRANCH  15  17
ENDBRANCH  11  15
ENDBRANCH   5   8
ENDBRANCH   3   4
ENDBRANCH   2   3
ENDBRANCH   1   2
BRANCH   1  26
ATOM     26  C   UNL A   1      32.360  32.236  26.865  1.00  0.00     0.116 C 
BRANCH  26  27
ATOM     27  N   UNL A   1      32.305  33.607  27.345  1.00  0.00    -0.352 N 
ATOM     28  C   UNL A   1      33.150  34.238  28.229  1.00  0.00     0.251 C 
ATOM     29  H   UNL A   1      31.568  34.156  26.992  1.00  0.00     0.163 HD
ATOM     30  O   UNL A   1      32.888  35.371  28.623  1.00  0.00    -0.269 OA
BRANCH  28  31
ATOM     31  C   UNL A   1      34.344  33.523  28.732  1.00  0.00     0.039 A 
ATOM     32  C   UNL A   1      35.607  34.080  28.514  1.00  0.00     0.014 A 
ATOM     33  C   UNL A   1      34.216  32.331  29.451  1.00  0.00     0.014 A 
ATOM     34  C   UNL A   1      36.734  33.481  29.083  1.00  0.00     0.010 A 
ATOM     35  C   UNL A   1      35.332  31.775  30.074  1.00  0.00     0.010 A 
ATOM     36  C   UNL A   1      36.602  32.349  29.903  1.00  0.00    -0.014 A 
BRANCH  36  37
ATOM     37  C   UNL A   1      37.776  31.756  30.599  1.00  0.00     0.031 A 
ATOM     38  C   UNL A   1      38.611  30.709  29.913  1.00  0.00     0.074 A 
ATOM     39  C   UNL A   1      38.048  32.113  31.871  1.00  0.00     0.049 A 
ATOM     40  N   UNL A   1      39.618  30.016  30.382  1.00  0.00    -0.248 NA
ATOM     41  C   UNL A   1      38.243  30.376  28.529  1.00  0.00     0.031 C 
ATOM     42  C   UNL A   1      37.287  33.086  32.656  1.00  0.00     0.029 A 
ATOM     43  N   UNL A   1      39.031  31.690  32.731  1.00  0.00    -0.354 N 
ATOM     44  C   UNL A   1      39.998  29.158  29.355  1.00  0.00     0.074 A 
ATOM     45  C   UNL A   1      39.071  29.377  28.264  1.00  0.00     0.031 C 
ATOM     46  C   UNL A   1      37.844  33.202  33.872  1.00  0.00     0.029 A 
ATOM     47  C   UNL A   1      38.969  32.279  33.974  1.00  0.00     0.049 A 
ATOM     48  H   UNL A   1      39.715  31.026  32.483  1.00  0.00     0.167 HD
ATOM     49  C   UNL A   1      41.036  28.285  29.318  1.00  0.00     0.034 A 
ATOM     50  C   UNL A   1      39.725  32.088  35.075  1.00  0.00     0.034 A 
ATOM     51  C   UNL A   1      41.957  28.086  30.410  1.00  0.00     0.049 A 
ATOM     52  C   UNL A   1      40.858  31.094  35.018  1.00  0.00     0.074 A 
ATOM     53  C   UNL A   1      43.073  27.269  30.458  1.00  0.00     0.029 A 
ATOM     54  N   UNL A   1      41.866  28.703  31.651  1.00  0.00    -0.354 N 
ATOM     55  N   UNL A   1      41.235  30.327  34.020  1.00  0.00    -0.248 NA
ATOM     56  C   UNL A   1      41.672  30.948  36.230  1.00  0.00     0.031 C 
ATOM     57  C   UNL A   1      43.616  27.339  31.746  1.00  0.00     0.029 A 
ATOM     58  C   UNL A   1      42.887  28.261  32.480  1.00  0.00     0.049 A 
ATOM     59  H   UNL A   1      41.177  29.359  31.906  1.00  0.00     0.167 HD
ATOM     60  C   UNL A   1      42.353  29.633  34.478  1.00  0.00     0.074 A 
ATOM     61  C   UNL A   1      42.594  30.083  35.833  1.00  0.00     0.031 C 
ATOM     62  C   UNL A   1      43.113  28.711  33.834  1.00  0.00     0.034 A 
BRANCH  49  63
ATOM     63  C   UNL A   1      41.209  27.466  28.060  1.00  0.00     0.023 A 
ATOM     64  C   UNL A   1      40.866  26.102  28.013  1.00  0.00     0.031 A 
ATOM     65  C   UNL A   1      41.746  28.047  26.899  1.00  0.00     0.131 A 
ATOM     66  C   UNL A   1      41.136  25.350  26.860  1.00  0.00     0.055 A 
ATOM     67  C   UNL A   1      41.934  27.313  25.725  1.00  0.00     0.041 A 
ATOM     68  F   UNL A   1      42.113  29.339  26.886  1.00  0.00    -0.206 F 
ATOM     69  C   UNL A   1      41.643  25.952  25.706  1.00  0.00     0.022 A 
BRANCH  66  70
ATOM     70  S   UNL A   1      40.951  23.547  26.940  1.00  0.00     0.124 S 
ATOM     71  O   UNL A   1      41.834  23.113  25.860  1.00  0.00    -0.237 OA
ATOM     72  O   UNL A   1      41.400  23.243  28.293  1.00  0.00    -0.237 OA
ATOM     73  O   UNL A   1      39.526  23.339  26.692  1.00  0.00    -0.744 OA
ENDBRANCH  66  70
ENDBRANCH  49  63
BRANCH  50  74
ATOM     74  C   UNL A   1      39.437  32.840  36.330  1.00  0.00     0.023 A 
ATOM     75  C   UNL A   1      38.585  32.310  37.311  1.00  0.00     0.031 A 
ATOM     76  C   UNL A   1      39.973  34.122  36.545  1.00  0.00     0.131 A 
ATOM     77  C   UNL A   1      38.253  33.077  38.439  1.00  0.00     0.055 A 
ATOM     78  C   UNL A   1      39.682  34.860  37.695  1.00  0.00     0.041 A 
ATOM     79  F   UNL A   1      40.797  34.675  35.641  1.00  0.00    -0.206 F 
ATOM     80  C   UNL A   1      38.806  34.343  38.644  1.00  0.00     0.022 A 
BRANCH  77  81
ATOM     81  S   UNL A   1      37.012  32.431  39.594  1.00  0.00     0.124 S 
ATOM     82  O   UNL A   1      37.193  33.308  40.745  1.00  0.00    -0.237 OA
ATOM     83  O   UNL A   1      35.776  32.608  38.839  1.00  0.00    -0.237 OA
ATOM     84  O   UNL A   1      37.424  31.043  39.795  1.00  0.00    -0.744 OA
ENDBRANCH  77  81
ENDBRANCH  50  74
BRANCH  62  85
ATOM     85  C   UNL A   1      44.311  28.169  34.577  1.00  0.00     0.023 A 
ATOM     86  C   UNL A   1      44.225  27.029  35.394  1.00  0.00     0.031 A 
ATOM     87  C   UNL A   1      45.556  28.815  34.471  1.00  0.00     0.131 A 
ATOM     88  C   UNL A   1      45.349  26.601  36.116  1.00  0.00     0.055 A 
ATOM     89  C   UNL A   1      46.686  28.349  35.144  1.00  0.00     0.041 A 
ATOM     90  F   UNL A   1      45.696  29.910  33.707  1.00  0.00    -0.206 F 
ATOM     91  C   UNL A   1      46.583  27.242  35.983  1.00  0.00     0.022 A 
BRANCH  88  92
ATOM     92  S   UNL A   1      45.157  25.245  37.307  1.00  0.00     0.124 S 
ATOM     93  O   UNL A   1      44.101  24.448  36.691  1.00  0.00    -0.237 OA
ATOM     94  O   UNL A   1      46.487  24.645  37.314  1.00  0.00    -0.237 OA
ATOM     95  O   UNL A   1      44.779  25.926  38.544  1.00  0.00    -0.744 OA
ENDBRANCH  88  92
ENDBRANCH  62  85
ENDBRANCH  36  37
ENDBRANCH  28  31
ENDBRANCH  26  27
ENDBRANCH   1  26
TORSDOF 17
ENDMDL
MODEL 2
REMARK VINA RESULT:     -12.2      6.158     11.418
REMARK SMILES CC[C@H]1SC[C@H](C(=O)NCCCCNC(=O)c2ccc(-c3c4nc(c(-c5cc(S(=O)(=O)[O-])ccc5F)c5ccc([nH]5)c(-c5cc(S(=O)(=O)[O-])ccc5F)c5nc(c(-c6cc(S(=O)(=O)[O-])ccc6F)c6ccc3[nH]6)C=C5)C=C4)cc2)N1C(=O)c1ccc(F)c(F)c1F
REMARK SMILES IDX 12 1 11 2 10 3 9 4 7 5 8 6 6 8 3 9 4 10 80 11 5 12 2 13 1 14
REMARK SMILES IDX 81 15 82 16 83 17 84 18 90 19 85 20 88 21 91 22 86 23 89 24
REMARK SMILES IDX 87 25 13 26 14 27 15 28 16 30 17 31 18 32 79 33 19 34 78 35
REMARK SMILES IDX 20 36 21 37 22 38 72 39 23 40 77 41 71 42 73 43 24 44 76 45
REMARK SMILES IDX 70 46 69 47 25 49 57 50 37 51 56 52 38 53 41 54 55 55 74 56
REMARK SMILES IDX 39 57 40 58 54 60 75 61 42 62 26 63 27 64 35 65 28 66 34 67
REMARK SMILES IDX 36 68 33 69 29 70 30 71 31 72 32 73 58 74 59 75 67 76 60 77
REMARK SMILES IDX 66 78 68 79 65 80 61 81 62 82 63 83 64 84 43 85 44 86 52 87
REMARK SMILES IDX 45 88 51 89 53 90 50 91 46 92 47 93 48 94 49 95
REMARK H PARENT 9 7 14 29 73 48 41 59
REMARK Flexibility Score: inf
ROOT
ATOM      1  C   UNL A   1      37.724  19.656  24.740  1.00  0.00     0.023 C 
ENDROOT
BRANCH   1   2
ATOM      2  C   UNL A   1      36.270  20.061  24.995  1.00  0.00     0.023 C 
BRANCH   2   3
ATOM      3  C   UNL A   1      36.094  21.492  25.505  1.00  0.00     0.116 C 
BRANCH   3   4
ATOM      4  N   UNL A   1      35.274  21.549  26.704  1.00  0.00    -0.354 N 
ATOM      5  C   UNL A   1      34.194  22.346  26.987  1.00  0.00     0.243 C 
ATOM      6  O   UNL A   1      33.672  22.266  28.100  1.00  0.00    -0.273 OA
ATOM      7  H   UNL A   1      35.532  20.923  27.420  1.00  0.00     0.163 HD
BRANCH   5   8
ATOM      8  C   UNL A   1      33.626  23.238  25.871  1.00  0.00     0.185 C 
ATOM      9  C   UNL A   1      32.809  23.450  23.615  1.00  0.00     0.144 C 
ATOM     10  S   UNL A   1      34.455  24.211  23.483  1.00  0.00    -0.134 SA
ATOM     11  N   UNL A   1      32.919  22.577  24.773  1.00  0.00    -0.314 N 
ATOM     12  C   UNL A   1      34.823  23.984  25.254  1.00  0.00     0.107 C 
BRANCH   9  13
ATOM     13  C   UNL A   1      31.801  24.614  23.818  1.00  0.00     0.033 C 
ATOM     14  C   UNL A   1      30.382  24.358  23.330  1.00  0.00     0.007 C 
ENDBRANCH   9  13
BRANCH  11  15
ATOM     15  C   UNL A   1      32.044  21.534  25.031  1.00  0.00     0.258 C 
ATOM     16  O   UNL A   1      30.983  21.689  25.632  1.00  0.00    -0.269 OA
BRANCH  15  17
ATOM     17  C   UNL A   1      32.359  20.176  24.533  1.00  0.00     0.079 A 
ATOM     18  C   UNL A   1      32.859  19.230  25.442  1.00  0.00     0.020 A 
ATOM     19  C   UNL A   1      32.232  19.836  23.185  1.00  0.00     0.174 A 
ATOM     20  C   UNL A   1      33.182  17.942  25.008  1.00  0.00     0.043 A 
ATOM     21  C   UNL A   1      32.558  18.553  22.756  1.00  0.00     0.195 A 
ATOM     22  F   UNL A   1      31.786  20.727  22.288  1.00  0.00    -0.203 F 
ATOM     23  C   UNL A   1      33.025  17.612  23.666  1.00  0.00     0.161 A 
ATOM     24  F   UNL A   1      32.411  18.219  21.465  1.00  0.00    -0.200 F 
ATOM     25  F   UNL A   1      33.325  16.371  23.257  1.00  0.00    -0.204 F 
ENDBRANCH  15  17
ENDBRANCH  11  15
ENDBRANCH   5   8
ENDBRANCH   3   4
ENDBRANCH   2   3
ENDBRANCH   1   2
BRANCH   1  26
ATOM     26  C   UNL A   1      38.724  20.101  25.805  1.00  0.00     0.116 C 
BRANCH  26  27
ATOM     27  N   UNL A   1      39.906  19.257  25.871  1.00  0.00    -0.352 N 
ATOM     28  C   UNL A   1      41.200  19.621  26.168  1.00  0.00     0.251 C 
ATOM     29  H   UNL A   1      39.763  18.302  25.681  1.00  0.00     0.163 HD
ATOM     30  O   UNL A   1      42.106  18.799  26.061  1.00  0.00    -0.269 OA
BRANCH  28  31
ATOM     31  C   UNL A   1      41.492  21.016  26.567  1.00  0.00     0.039 A 
ATOM     32  C   UNL A   1      42.166  21.247  27.769  1.00  0.00     0.014 A 
ATOM     33  C   UNL A   1      41.139  22.087  25.741  1.00  0.00     0.014 A 
ATOM     34  C   UNL A   1      42.554  22.548  28.104  1.00  0.00     0.010 A 
ATOM     35  C   UNL A   1      41.587  23.371  26.044  1.00  0.00     0.010 A 
ATOM     36  C   UNL A   1      42.306  23.614  27.225  1.00  0.00    -0.014 A 
BRANCH  36  37
ATOM     37  C   UNL A   1      42.799  24.987  27.516  1.00  0.00     0.031 A 
ATOM     38  C   UNL A   1      41.893  25.992  28.174  1.00  0.00     0.074 A 
ATOM     39  C   UNL A   1      44.039  25.348  27.127  1.00  0.00     0.049 A 
ATOM     40  N   UNL A   1      42.108  27.257  28.433  1.00  0.00    -0.248 NA
ATOM     41  C   UNL A   1      40.556  25.517  28.562  1.00  0.00     0.031 C 
ATOM     42  C   UNL A   1      44.997  24.476  26.445  1.00  0.00     0.029 A 
ATOM     43  N   UNL A   1      44.704  26.544  27.240  1.00  0.00    -0.354 N 
ATOM     44  C   UNL A   1      40.932  27.733  29.004  1.00  0.00     0.074 A 
ATOM     45  C   UNL A   1      39.989  26.634  28.994  1.00  0.00     0.031 C 
ATOM     46  C   UNL A   1      46.131  25.159  26.220  1.00  0.00     0.029 A 
ATOM     47  C   UNL A   1      45.968  26.529  26.696  1.00  0.00     0.049 A 
ATOM     48  H   UNL A   1      44.312  27.339  27.669  1.00  0.00     0.167 HD
ATOM     49  C   UNL A   1      40.671  28.964  29.510  1.00  0.00     0.034 A 
ATOM     50  C   UNL A   1      46.887  27.509  26.582  1.00  0.00     0.034 A 
ATOM     51  C   UNL A   1      41.626  30.046  29.523  1.00  0.00     0.049 A 
ATOM     52  C   UNL A   1      46.565  28.878  27.128  1.00  0.00     0.074 A 
ATOM     53  C   UNL A   1      41.484  31.314  30.058  1.00  0.00     0.029 A 
ATOM     54  N   UNL A   1      42.898  29.992  28.966  1.00  0.00    -0.354 N 
ATOM     55  N   UNL A   1      45.465  29.297  27.712  1.00  0.00    -0.248 NA
ATOM     56  C   UNL A   1      47.611  29.901  27.010  1.00  0.00     0.031 C 
ATOM     57  C   UNL A   1      42.640  32.047  29.766  1.00  0.00     0.029 A 
ATOM     58  C   UNL A   1      43.538  31.213  29.119  1.00  0.00     0.049 A 
ATOM     59  H   UNL A   1      43.289  29.202  28.527  1.00  0.00     0.167 HD
ATOM     60  C   UNL A   1      45.703  30.624  28.061  1.00  0.00     0.074 A 
ATOM     61  C   UNL A   1      47.054  30.929  27.634  1.00  0.00     0.031 C 
ATOM     62  C   UNL A   1      44.882  31.508  28.681  1.00  0.00     0.034 A 
BRANCH  49  63
ATOM     63  C   UNL A   1      39.289  29.207  30.068  1.00  0.00     0.023 A 
ATOM     64  C   UNL A   1      38.299  29.876  29.326  1.00  0.00     0.031 A 
ATOM     65  C   UNL A   1      38.961  28.785  31.368  1.00  0.00     0.131 A 
ATOM     66  C   UNL A   1      37.060  30.173  29.915  1.00  0.00     0.055 A 
ATOM     67  C   UNL A   1      37.696  29.008  31.920  1.00  0.00     0.041 A 
ATOM     68  F   UNL A   1      39.868  28.159  32.135  1.00  0.00    -0.206 F 
ATOM     69  C   UNL A   1      36.742  29.719  31.197  1.00  0.00     0.022 A 
BRANCH  66  70
ATOM     70  S   UNL A   1      35.927  31.282  29.035  1.00  0.00     0.124 S 
ATOM     71  O   UNL A   1      36.859  32.224  28.417  1.00  0.00    -0.237 OA
ATOM     72  O   UNL A   1      35.240  30.375  28.125  1.00  0.00    -0.237 OA
ATOM     73  O   UNL A   1      35.101  31.843  30.102  1.00  0.00    -0.744 OA
ENDBRANCH  66  70
ENDBRANCH  49  63
BRANCH  50  74
ATOM     74  C   UNL A   1      48.195  27.247  25.915  1.00  0.00     0.023 A 
ATOM     75  C   UNL A   1      48.358  27.448  24.536  1.00  0.00     0.031 A 
ATOM     76  C   UNL A   1      49.290  26.743  26.641  1.00  0.00     0.131 A 
ATOM     77  C   UNL A   1      49.568  27.103  23.915  1.00  0.00     0.055 A 
ATOM     78  C   UNL A   1      50.510  26.452  26.028  1.00  0.00     0.041 A 
ATOM     79  F   UNL A   1      49.190  26.535  27.963  1.00  0.00    -0.206 F 
ATOM     80  C   UNL A   1      50.650  26.618  24.654  1.00  0.00     0.022 A 
BRANCH  77  81
ATOM     81  S   UNL A   1      49.679  27.211  22.108  1.00  0.00     0.124 S 
ATOM     82  O   UNL A   1      49.271  28.590  21.867  1.00  0.00    -0.237 OA
ATOM     83  O   UNL A   1      51.086  26.907  21.873  1.00  0.00    -0.237 OA
ATOM     84  O   UNL A   1      48.738  26.192  21.647  1.00  0.00    -0.744 OA
ENDBRANCH  77  81
ENDBRANCH  50  74
BRANCH  62  85
ATOM     85  C   UNL A   1      45.448  32.876  28.982  1.00  0.00     0.023 A 
ATOM     86  C   UNL A   1      45.466  33.900  28.019  1.00  0.00     0.031 A 
ATOM     87  C   UNL A   1      45.986  33.152  30.251  1.00  0.00     0.131 A 
ATOM     88  C   UNL A   1      46.061  35.134  28.323  1.00  0.00     0.055 A 
ATOM     89  C   UNL A   1      46.522  34.401  30.567  1.00  0.00     0.041 A 
ATOM     90  F   UNL A   1      45.998  32.211  31.208  1.00  0.00    -0.206 F 
ATOM     91  C   UNL A   1      46.573  35.397  29.596  1.00  0.00     0.022 A 
BRANCH  88  92
ATOM     92  S   UNL A   1      46.239  36.365  27.002  1.00  0.00     0.124 S 
ATOM     93  O   UNL A   1      47.634  36.767  27.149  1.00  0.00    -0.237 OA
ATOM     94  O   UNL A   1      45.920  35.590  25.808  1.00  0.00    -0.237 OA
ATOM     95  O   UNL A   1      45.258  37.391  27.354  1.00  0.00    -0.744 OA
ENDBRANCH  88  92
ENDBRANCH  62  85
ENDBRANCH  36  37
ENDBRANCH  28  31
ENDBRANCH  26  27
ENDBRANCH   1  26
TORSDOF 17
ENDMDL
MODEL 3
REMARK VINA RESULT:     -12.1      1.405      1.748
REMARK SMILES CC[C@H]1SC[C@H](C(=O)NCCCCNC(=O)c2ccc(-c3c4nc(c(-c5cc(S(=O)(=O)[O-])ccc5F)c5ccc([nH]5)c(-c5cc(S(=O)(=O)[O-])ccc5F)c5nc(c(-c6cc(S(=O)(=O)[O-])ccc6F)c6ccc3[nH]6)C=C5)C=C4)cc2)N1C(=O)c1ccc(F)c(F)c1F
REMARK SMILES IDX 12 1 11 2 10 3 9 4 7 5 8 6 6 8 3 9 4 10 80 11 5 12 2 13 1 14
REMARK SMILES IDX 81 15 82 16 83 17 84 18 90 19 85 20 88 21 91 22 86 23 89 24
REMARK SMILES IDX 87 25 13 26 14 27 15 28 16 30 17 31 18 32 79 33 19 34 78 35
REMARK SMILES IDX 20 36 21 37 22 38 72 39 23 40 77 41 71 42 73 43 24 44 76 45
REMARK SMILES IDX 70 46 69 47 25 49 57 50 37 51 56 52 38 53 41 54 55 55 74 56
REMARK SMILES IDX 39 57 40 58 54 60 75 61 42 62 26 63 27 64 35 65 28 66 34 67
REMARK SMILES IDX 36 68 33 69 29 70 30 71 31 72 32 73 58 74 59 75 67 76 60 77
REMARK SMILES IDX 66 78 68 79 65 80 61 81 62 82 63 83 64 84 43 85 44 86 52 87
REMARK SMILES IDX 45 88 51 89 53 90 50 91 46 92 47 93 48 94 49 95
REMARK H PARENT 9 7 14 29 73 48 41 59
REMARK Flexibility Score: inf
ROOT
ATOM      1  C   UNL A   1      31.815  31.116  26.973  1.00  0.00     0.023 C 
ENDROOT
BRANCH   1   2
ATOM      2  C   UNL A   1      31.872  30.219  25.733  1.00  0.00     0.023 C 
BRANCH   2   3
ATOM      3  C   UNL A   1      33.210  29.510  25.527  1.00  0.00     0.116 C 
BRANCH   3   4
ATOM      4  N   UNL A   1      33.607  29.483  24.129  1.00  0.00    -0.354 N 
ATOM      5  C   UNL A   1      33.723  28.417  23.273  1.00  0.00     0.243 C 
ATOM      6  O   UNL A   1      34.130  28.616  22.128  1.00  0.00    -0.273 OA
ATOM      7  H   UNL A   1      33.826  30.360  23.737  1.00  0.00     0.163 HD
BRANCH   5   8
ATOM      8  C   UNL A   1      33.250  27.036  23.753  1.00  0.00     0.185 C 
ATOM      9  C   UNL A   1      31.458  25.620  24.518  1.00  0.00     0.144 C 
ATOM     10  S   UNL A   1      32.373  25.920  26.060  1.00  0.00    -0.134 SA
ATOM     11  N   UNL A   1      31.817  26.747  23.673  1.00  0.00    -0.314 N 
ATOM     12  C   UNL A   1      33.651  26.925  25.234  1.00  0.00     0.107 C 
BRANCH   9  13
ATOM     13  C   UNL A   1      31.959  24.256  23.968  1.00  0.00     0.033 C 
ATOM     14  C   UNL A   1      31.077  23.052  24.271  1.00  0.00     0.007 C 
ENDBRANCH   9  13
BRANCH  11  15
ATOM     15  C   UNL A   1      31.086  27.132  22.560  1.00  0.00     0.258 C 
ATOM     16  O   UNL A   1      31.259  26.641  21.447  1.00  0.00    -0.269 OA
BRANCH  15  17
ATOM     17  C   UNL A   1      30.017  28.147  22.703  1.00  0.00     0.079 A 
ATOM     18  C   UNL A   1      30.321  29.484  22.405  1.00  0.00     0.020 A 
ATOM     19  C   UNL A   1      28.748  27.819  23.184  1.00  0.00     0.174 A 
ATOM     20  C   UNL A   1      29.344  30.473  22.541  1.00  0.00     0.043 A 
ATOM     21  C   UNL A   1      27.779  28.807  23.322  1.00  0.00     0.195 A 
ATOM     22  F   UNL A   1      28.438  26.555  23.506  1.00  0.00    -0.203 F 
ATOM     23  C   UNL A   1      28.076  30.125  22.996  1.00  0.00     0.161 A 
ATOM     24  F   UNL A   1      26.551  28.487  23.758  1.00  0.00    -0.200 F 
ATOM     25  F   UNL A   1      27.138  31.075  23.114  1.00  0.00    -0.204 F 
ENDBRANCH  15  17
ENDBRANCH  11  15
ENDBRANCH   5   8
ENDBRANCH   3   4
ENDBRANCH   2   3
ENDBRANCH   1   2
BRANCH   1  26
ATOM     26  C   UNL A   1      33.011  32.046  27.162  1.00  0.00     0.116 C 
BRANCH  26  27
ATOM     27  N   UNL A   1      32.631  33.427  27.411  1.00  0.00    -0.352 N 
ATOM     28  C   UNL A   1      33.144  34.300  28.344  1.00  0.00     0.251 C 
ATOM     29  H   UNL A   1      31.915  33.785  26.839  1.00  0.00     0.163 HD
ATOM     30  O   UNL A   1      32.623  35.400  28.504  1.00  0.00    -0.269 OA
BRANCH  28  31
ATOM     31  C   UNL A   1      34.293  33.883  29.178  1.00  0.00     0.039 A 
ATOM     32  C   UNL A   1      34.065  33.035  30.266  1.00  0.00     0.014 A 
ATOM     33  C   UNL A   1      35.592  34.292  28.865  1.00  0.00     0.014 A 
ATOM     34  C   UNL A   1      35.151  32.537  30.992  1.00  0.00     0.010 A 
ATOM     35  C   UNL A   1      36.675  33.740  29.547  1.00  0.00     0.010 A 
ATOM     36  C   UNL A   1      36.466  32.850  30.613  1.00  0.00    -0.014 A 
BRANCH  36  37
ATOM     37  C   UNL A   1      37.635  32.251  31.311  1.00  0.00     0.031 A 
ATOM     38  C   UNL A   1      38.389  31.112  30.680  1.00  0.00     0.074 A 
ATOM     39  C   UNL A   1      37.975  32.689  32.541  1.00  0.00     0.049 A 
ATOM     40  N   UNL A   1      39.378  30.405  31.165  1.00  0.00    -0.248 NA
ATOM     41  C   UNL A   1      37.951  30.695  29.340  1.00  0.00     0.031 C 
ATOM     42  C   UNL A   1      37.295  33.759  33.274  1.00  0.00     0.029 A 
ATOM     43  N   UNL A   1      38.968  32.282  33.396  1.00  0.00    -0.354 N 
ATOM     44  C   UNL A   1      39.674  29.452  30.196  1.00  0.00     0.074 A 
ATOM     45  C   UNL A   1      38.717  29.636  29.125  1.00  0.00     0.031 C 
ATOM     46  C   UNL A   1      37.905  33.937  34.457  1.00  0.00     0.029 A 
ATOM     47  C   UNL A   1      38.986  32.966  34.591  1.00  0.00     0.049 A 
ATOM     48  H   UNL A   1      39.608  31.566  33.176  1.00  0.00     0.167 HD
ATOM     49  C   UNL A   1      40.664  28.525  30.190  1.00  0.00     0.034 A 
ATOM     50  C   UNL A   1      39.774  32.820  35.675  1.00  0.00     0.034 A 
ATOM     51  C   UNL A   1      41.618  28.362  31.261  1.00  0.00     0.049 A 
ATOM     52  C   UNL A   1      40.853  31.766  35.656  1.00  0.00     0.074 A 
ATOM     53  C   UNL A   1      42.692  27.493  31.333  1.00  0.00     0.029 A 
ATOM     54  N   UNL A   1      41.607  29.076  32.453  1.00  0.00    -0.354 N 
ATOM     55  N   UNL A   1      41.151  30.906  34.709  1.00  0.00    -0.248 NA
ATOM     56  C   UNL A   1      41.706  31.670  36.847  1.00  0.00     0.031 C 
ATOM     57  C   UNL A   1      43.288  27.632  32.591  1.00  0.00     0.029 A 
ATOM     58  C   UNL A   1      42.636  28.645  33.276  1.00  0.00     0.049 A 
ATOM     59  H   UNL A   1      40.962  29.784  32.680  1.00  0.00     0.167 HD
ATOM     60  C   UNL A   1      42.250  30.191  35.179  1.00  0.00     0.074 A 
ATOM     61  C   UNL A   1      42.567  30.730  36.486  1.00  0.00     0.031 C 
ATOM     62  C   UNL A   1      42.938  29.184  34.582  1.00  0.00     0.034 A 
BRANCH  49  63
ATOM     63  C   UNL A   1      40.747  27.605  28.995  1.00  0.00     0.023 A 
ATOM     64  C   UNL A   1      41.695  27.801  27.974  1.00  0.00     0.031 A 
ATOM     65  C   UNL A   1      39.852  26.528  28.861  1.00  0.00     0.131 A 
ATOM     66  C   UNL A   1      41.675  26.987  26.832  1.00  0.00     0.055 A 
ATOM     67  C   UNL A   1      39.893  25.669  27.760  1.00  0.00     0.041 A 
ATOM     68  F   UNL A   1      38.911  26.301  29.790  1.00  0.00    -0.206 F 
ATOM     69  C   UNL A   1      40.798  25.905  26.730  1.00  0.00     0.022 A 
BRANCH  66  70
ATOM     70  S   UNL A   1      42.714  27.453  25.420  1.00  0.00     0.124 S 
ATOM     71  O   UNL A   1      42.648  26.248  24.596  1.00  0.00    -0.237 OA
ATOM     72  O   UNL A   1      42.025  28.625  24.894  1.00  0.00    -0.237 OA
ATOM     73  O   UNL A   1      44.018  27.714  26.027  1.00  0.00    -0.744 OA
ENDBRANCH  66  70
ENDBRANCH  49  63
BRANCH  50  74
ATOM     74  C   UNL A   1      39.574  33.680  36.877  1.00  0.00     0.023 A 
ATOM     75  C   UNL A   1      38.950  33.178  38.030  1.00  0.00     0.031 A 
ATOM     76  C   UNL A   1      39.961  35.031  36.874  1.00  0.00     0.131 A 
ATOM     77  C   UNL A   1      38.686  34.031  39.112  1.00  0.00     0.055 A 
ATOM     78  C   UNL A   1      39.746  35.863  37.974  1.00  0.00     0.041 A 
ATOM     79  F   UNL A   1      40.566  35.562  35.799  1.00  0.00    -0.206 F 
ATOM     80  C   UNL A   1      39.091  35.368  39.098  1.00  0.00     0.022 A 
BRANCH  77  81
ATOM     81  S   UNL A   1      37.721  33.391  40.508  1.00  0.00     0.124 S 
ATOM     82  O   UNL A   1      36.494  32.958  39.848  1.00  0.00    -0.237 OA
ATOM     83  O   UNL A   1      38.587  32.332  41.014  1.00  0.00    -0.237 OA
ATOM     84  O   UNL A   1      37.581  34.551  41.386  1.00  0.00    -0.744 OA
ENDBRANCH  77  81
ENDBRANCH  50  74
BRANCH  62  85
ATOM     85  C   UNL A   1      44.135  28.638  35.322  1.00  0.00     0.023 A 
ATOM     86  C   UNL A   1      44.015  27.613  36.276  1.00  0.00     0.031 A 
ATOM     87  C   UNL A   1      45.416  29.163  35.073  1.00  0.00     0.131 A 
ATOM     88  C   UNL A   1      45.147  27.183  36.986  1.00  0.00     0.055 A 
ATOM     89  C   UNL A   1      46.548  28.689  35.738  1.00  0.00     0.041 A 
ATOM     90  F   UNL A   1      45.590  30.145  34.174  1.00  0.00    -0.206 F 
ATOM     91  C   UNL A   1      46.415  27.701  36.710  1.00  0.00     0.022 A 
BRANCH  88  92
ATOM     92  S   UNL A   1      44.928  25.997  38.342  1.00  0.00     0.124 S 
ATOM     93  O   UNL A   1      44.225  24.904  37.679  1.00  0.00    -0.237 OA
ATOM     94  O   UNL A   1      46.304  25.723  38.742  1.00  0.00    -0.237 OA
ATOM     95  O   UNL A   1      44.136  26.740  39.322  1.00  0.00    -0.744 OA
ENDBRANCH  88  92
ENDBRANCH  62  85
ENDBRANCH  36  37
ENDBRANCH  28  31
ENDBRANCH  26  27
ENDBRANCH   1  26
TORSDOF 17
ENDMDL
