MODEL 1
REMARK VINA RESULT:     -11.9      0.000      0.000
REMARK SMILES CNS(=O)(=O)c1ccc(Oc2csc(C(=O)NCCCCNC(=O)c3ccc(-c4c5nc(c(-c6cc(S(=O)(=O)[O-])ccc6F)c6ccc([nH]6)c(-c6cc(S(=O)(=O)[O-])ccc6F)c6nc(c(-c7cc(S(=O)(=O)[O-])ccc7F)c7ccc4[nH]7)C=C6)C=C5)cc3)c2)cc1
REMARK SMILES IDX 19 1 18 2 17 3 15 4 16 5 14 7 11 8 12 9 88 10 13 11 10 12
REMARK SMILES IDX 9 13 6 14 7 15 90 16 8 17 89 18 3 19 4 20 5 21 2 22 1 23
REMARK SMILES IDX 20 25 21 26 22 27 23 28 24 30 25 31 26 32 87 33 27 34 86 35
REMARK SMILES IDX 28 36 29 37 30 38 80 39 31 40 85 41 79 42 81 43 32 44 84 45
REMARK SMILES IDX 78 46 77 47 33 49 65 50 45 51 64 52 46 53 49 54 63 55 82 56
REMARK SMILES IDX 47 57 48 58 62 60 83 61 50 62 34 63 35 64 43 65 36 66 42 67
REMARK SMILES IDX 44 68 41 69 37 70 38 71 39 72 40 73 66 74 67 75 75 76 68 77
REMARK SMILES IDX 74 78 76 79 73 80 69 81 70 82 71 83 72 84 51 85 52 86 60 87
REMARK SMILES IDX 53 88 59 89 61 90 58 91 54 92 55 93 56 94 57 95
REMARK H PARENT 17 6 2 24 22 29 81 48 49 59
REMARK Flexibility Score: inf
ROOT
ATOM      1  C   UNL A   1      31.608  30.905  26.315  1.00  0.00     0.023 C 
ENDROOT
BRANCH   1   2
ATOM      2  C   UNL A   1      32.927  30.211  26.657  1.00  0.00     0.116 C 
BRANCH   2   3
ATOM      3  N   UNL A   1      33.568  29.706  25.460  1.00  0.00    -0.351 N 
ATOM      4  C   UNL A   1      33.470  28.507  24.794  1.00  0.00     0.261 C 
ATOM      5  O   UNL A   1      34.137  28.429  23.758  1.00  0.00    -0.268 OA
ATOM      6  H   UNL A   1      34.193  30.343  25.045  1.00  0.00     0.163 HD
BRANCH   4   7
ATOM      7  C   UNL A   1      32.607  27.432  25.267  1.00  0.00     0.096 A 
ATOM      8  C   UNL A   1      31.664  25.571  26.312  1.00  0.00     0.138 A 
ATOM      9  C   UNL A   1      30.537  26.155  25.795  1.00  0.00     0.112 A 
ATOM     10  C   UNL A   1      32.858  26.267  25.972  1.00  0.00     0.072 A 
ATOM     11  S   UNL A   1      30.922  27.548  24.888  1.00  0.00    -0.135 S 
BRANCH   8  12
ATOM     12  O   UNL A   1      31.597  24.508  27.140  1.00  0.00    -0.456 OA
BRANCH  12  13
ATOM     13  C   UNL A   1      32.009  23.260  26.739  1.00  0.00     0.127 A 
ATOM     14  C   UNL A   1      32.771  20.801  25.669  1.00  0.00     0.082 A 
ATOM     15  C   UNL A   1      31.648  21.457  25.163  1.00  0.00     0.025 A 
ATOM     16  C   UNL A   1      33.505  21.363  26.720  1.00  0.00     0.025 A 
ATOM     17  C   UNL A   1      31.277  22.693  25.693  1.00  0.00     0.048 A 
ATOM     18  C   UNL A   1      33.119  22.593  27.260  1.00  0.00     0.048 A 
BRANCH  14  19
ATOM     19  S   UNL A   1      33.312  19.265  24.964  1.00  0.00     0.240 S 
ATOM     20  O   UNL A   1      34.736  19.352  24.738  1.00  0.00    -0.207 OA
ATOM     21  O   UNL A   1      32.385  18.925  23.907  1.00  0.00    -0.207 OA
BRANCH  19  22
ATOM     22  N   UNL A   1      33.004  18.124  26.168  1.00  0.00    -0.214 NA
ATOM     23  C   UNL A   1      32.564  16.781  25.795  1.00  0.00     0.120 C 
ATOM     24  H   UNL A   1      33.867  18.016  26.702  1.00  0.00     0.141 HD
ENDBRANCH  19  22
ENDBRANCH  14  19
ENDBRANCH  12  13
ENDBRANCH   8  12
ENDBRANCH   4   7
ENDBRANCH   2   3
ENDBRANCH   1   2
BRANCH   1  25
ATOM     25  C   UNL A   1      31.543  32.374  26.756  1.00  0.00     0.023 C 
BRANCH  25  26
ATOM     26  C   UNL A   1      32.860  32.967  27.253  1.00  0.00     0.116 C 
BRANCH  26  27
ATOM     27  N   UNL A   1      32.699  34.254  27.910  1.00  0.00    -0.352 N 
ATOM     28  C   UNL A   1      33.411  34.776  28.964  1.00  0.00     0.251 C 
ATOM     29  H   UNL A   1      31.984  34.829  27.551  1.00  0.00     0.163 HD
ATOM     30  O   UNL A   1      33.064  35.839  29.470  1.00  0.00    -0.269 OA
BRANCH  28  31
ATOM     31  C   UNL A   1      34.563  34.024  29.504  1.00  0.00     0.039 A 
ATOM     32  C   UNL A   1      35.854  34.426  29.153  1.00  0.00     0.014 A 
ATOM     33  C   UNL A   1      34.372  32.955  30.384  1.00  0.00     0.014 A 
ATOM     34  C   UNL A   1      36.955  33.804  29.746  1.00  0.00     0.010 A 
ATOM     35  C   UNL A   1      35.467  32.381  31.022  1.00  0.00     0.010 A 
ATOM     36  C   UNL A   1      36.770  32.806  30.717  1.00  0.00    -0.014 A 
BRANCH  36  37
ATOM     37  C   UNL A   1      37.925  32.208  31.437  1.00  0.00     0.031 A 
ATOM     38  C   UNL A   1      38.719  31.099  30.804  1.00  0.00     0.074 A 
ATOM     39  C   UNL A   1      38.211  32.619  32.689  1.00  0.00     0.049 A 
ATOM     40  N   UNL A   1      39.704  30.398  31.302  1.00  0.00    -0.248 NA
ATOM     41  C   UNL A   1      38.332  30.711  29.440  1.00  0.00     0.031 C 
ATOM     42  C   UNL A   1      37.486  33.658  33.424  1.00  0.00     0.029 A 
ATOM     43  N   UNL A   1      39.180  32.208  33.570  1.00  0.00    -0.354 N 
ATOM     44  C   UNL A   1      40.050  29.477  30.319  1.00  0.00     0.074 A 
ATOM     45  C   UNL A   1      39.124  29.672  29.223  1.00  0.00     0.031 C 
ATOM     46  C   UNL A   1      38.049  33.817  34.633  1.00  0.00     0.029 A 
ATOM     47  C   UNL A   1      39.143  32.863  34.780  1.00  0.00     0.049 A 
ATOM     48  H   UNL A   1      39.840  31.508  33.356  1.00  0.00     0.167 HD
ATOM     49  C   UNL A   1      41.058  28.570  30.323  1.00  0.00     0.034 A 
ATOM     50  C   UNL A   1      39.896  32.704  35.887  1.00  0.00     0.034 A 
ATOM     51  C   UNL A   1      41.975  28.395  31.423  1.00  0.00     0.049 A 
ATOM     52  C   UNL A   1      40.993  31.669  35.877  1.00  0.00     0.074 A 
ATOM     53  C   UNL A   1      43.065  27.546  31.510  1.00  0.00     0.029 A 
ATOM     54  N   UNL A   1      41.907  29.076  32.633  1.00  0.00    -0.354 N 
ATOM     55  N   UNL A   1      41.339  30.841  34.919  1.00  0.00    -0.248 NA
ATOM     56  C   UNL A   1      41.805  31.554  37.096  1.00  0.00     0.031 C 
ATOM     57  C   UNL A   1      43.611  27.662  32.793  1.00  0.00     0.029 A 
ATOM     58  C   UNL A   1      42.914  28.641  33.482  1.00  0.00     0.049 A 
ATOM     59  H   UNL A   1      41.240  29.766  32.854  1.00  0.00     0.167 HD
ATOM     60  C   UNL A   1      42.430  30.128  35.410  1.00  0.00     0.074 A 
ATOM     61  C   UNL A   1      42.692  30.636  36.742  1.00  0.00     0.031 C 
ATOM     62  C   UNL A   1      43.154  29.147  34.813  1.00  0.00     0.034 A 
BRANCH  49  63
ATOM     63  C   UNL A   1      41.199  27.685  29.106  1.00  0.00     0.023 A 
ATOM     64  C   UNL A   1      42.208  27.901  28.150  1.00  0.00     0.031 A 
ATOM     65  C   UNL A   1      40.299  26.630  28.883  1.00  0.00     0.131 A 
ATOM     66  C   UNL A   1      42.243  27.128  26.980  1.00  0.00     0.055 A 
ATOM     67  C   UNL A   1      40.391  25.808  27.757  1.00  0.00     0.041 A 
ATOM     68  F   UNL A   1      39.302  26.386  29.748  1.00  0.00    -0.206 F 
ATOM     69  C   UNL A   1      41.357  26.065  26.789  1.00  0.00     0.022 A 
BRANCH  66  70
ATOM     70  S   UNL A   1      43.366  27.627  25.646  1.00  0.00     0.124 S 
ATOM     71  O   UNL A   1      43.972  28.832  26.207  1.00  0.00    -0.237 OA
ATOM     72  O   UNL A   1      44.244  26.469  25.524  1.00  0.00    -0.237 OA
ATOM     73  O   UNL A   1      42.473  27.857  24.513  1.00  0.00    -0.744 OA
ENDBRANCH  66  70
ENDBRANCH  49  63
BRANCH  50  74
ATOM     74  C   UNL A   1      39.641  33.530  37.102  1.00  0.00     0.023 A 
ATOM     75  C   UNL A   1      38.920  33.012  38.189  1.00  0.00     0.031 A 
ATOM     76  C   UNL A   1      40.078  34.865  37.175  1.00  0.00     0.131 A 
ATOM     77  C   UNL A   1      38.616  33.837  39.283  1.00  0.00     0.055 A 
ATOM     78  C   UNL A   1      39.818  35.665  38.290  1.00  0.00     0.041 A 
ATOM     79  F   UNL A   1      40.776  35.409  36.166  1.00  0.00    -0.206 F 
ATOM     80  C   UNL A   1      39.071  35.155  39.347  1.00  0.00     0.022 A 
BRANCH  77  81
ATOM     81  S   UNL A   1      37.539  33.184  40.589  1.00  0.00     0.124 S 
ATOM     82  O   UNL A   1      36.426  32.645  39.814  1.00  0.00    -0.237 OA
ATOM     83  O   UNL A   1      38.406  32.204  41.234  1.00  0.00    -0.237 OA
ATOM     84  O   UNL A   1      37.226  34.364  41.393  1.00  0.00    -0.744 OA
ENDBRANCH  77  81
ENDBRANCH  50  74
BRANCH  62  85
ATOM     85  C   UNL A   1      44.324  28.592  35.589  1.00  0.00     0.023 A 
ATOM     86  C   UNL A   1      44.168  27.558  36.528  1.00  0.00     0.031 A 
ATOM     87  C   UNL A   1      45.615  29.116  35.390  1.00  0.00     0.131 A 
ATOM     88  C   UNL A   1      45.273  27.118  37.273  1.00  0.00     0.055 A 
ATOM     89  C   UNL A   1      46.720  28.632  36.090  1.00  0.00     0.041 A 
ATOM     90  F   UNL A   1      45.821  30.106  34.506  1.00  0.00    -0.206 F 
ATOM     91  C   UNL A   1      46.551  27.637  37.048  1.00  0.00     0.022 A 
BRANCH  88  92
ATOM     92  S   UNL A   1      45.002  25.921  38.607  1.00  0.00     0.124 S 
ATOM     93  O   UNL A   1      44.236  24.879  37.931  1.00  0.00    -0.237 OA
ATOM     94  O   UNL A   1      46.366  25.564  38.988  1.00  0.00    -0.237 OA
ATOM     95  O   UNL A   1      44.260  26.683  39.610  1.00  0.00    -0.744 OA
ENDBRANCH  88  92
ENDBRANCH  62  85
ENDBRANCH  36  37
ENDBRANCH  28  31
ENDBRANCH  26  27
ENDBRANCH  25  26
ENDBRANCH   1  25
TORSDOF 18
ENDMDL
MODEL 2
REMARK VINA RESULT:     -11.3      1.197      1.703
REMARK SMILES CNS(=O)(=O)c1ccc(Oc2csc(C(=O)NCCCCNC(=O)c3ccc(-c4c5nc(c(-c6cc(S(=O)(=O)[O-])ccc6F)c6ccc([nH]6)c(-c6cc(S(=O)(=O)[O-])ccc6F)c6nc(c(-c7cc(S(=O)(=O)[O-])ccc7F)c7ccc4[nH]7)C=C6)C=C5)cc3)c2)cc1
REMARK SMILES IDX 19 1 18 2 17 3 15 4 16 5 14 7 11 8 12 9 88 10 13 11 10 12
REMARK SMILES IDX 9 13 6 14 7 15 90 16 8 17 89 18 3 19 4 20 5 21 2 22 1 23
REMARK SMILES IDX 20 25 21 26 22 27 23 28 24 30 25 31 26 32 87 33 27 34 86 35
REMARK SMILES IDX 28 36 29 37 30 38 80 39 31 40 85 41 79 42 81 43 32 44 84 45
REMARK SMILES IDX 78 46 77 47 33 49 65 50 45 51 64 52 46 53 49 54 63 55 82 56
REMARK SMILES IDX 47 57 48 58 62 60 83 61 50 62 34 63 35 64 43 65 36 66 42 67
REMARK SMILES IDX 44 68 41 69 37 70 38 71 39 72 40 73 66 74 67 75 75 76 68 77
REMARK SMILES IDX 74 78 76 79 73 80 69 81 70 82 71 83 72 84 51 85 52 86 60 87
REMARK SMILES IDX 53 88 59 89 61 90 58 91 54 92 55 93 56 94 57 95
REMARK H PARENT 17 6 2 24 22 29 81 48 49 59
REMARK Flexibility Score: inf
ROOT
ATOM      1  C   UNL A   1      31.976  30.842  26.252  1.00  0.00     0.023 C 
ENDROOT
BRANCH   1   2
ATOM      2  C   UNL A   1      32.458  29.456  25.823  1.00  0.00     0.116 C 
BRANCH   2   3
ATOM      3  N   UNL A   1      31.613  28.421  26.384  1.00  0.00    -0.351 N 
ATOM      4  C   UNL A   1      31.346  27.131  25.991  1.00  0.00     0.261 C 
ATOM      5  O   UNL A   1      30.599  26.499  26.744  1.00  0.00    -0.268 OA
ATOM      6  H   UNL A   1      31.140  28.695  27.202  1.00  0.00     0.163 HD
BRANCH   4   7
ATOM      7  C   UNL A   1      31.941  26.553  24.792  1.00  0.00     0.096 A 
ATOM      8  C   UNL A   1      33.117  25.283  23.227  1.00  0.00     0.138 A 
ATOM      9  C   UNL A   1      32.291  25.992  22.393  1.00  0.00     0.112 A 
ATOM     10  C   UNL A   1      32.958  25.635  24.597  1.00  0.00     0.072 A 
ATOM     11  S   UNL A   1      31.324  27.092  23.267  1.00  0.00    -0.135 S 
BRANCH   8  12
ATOM     12  O   UNL A   1      33.907  24.291  22.769  1.00  0.00    -0.456 OA
BRANCH  12  13
ATOM     13  C   UNL A   1      33.662  22.976  23.085  1.00  0.00     0.127 A 
ATOM     14  C   UNL A   1      33.253  20.368  23.981  1.00  0.00     0.082 A 
ATOM     15  C   UNL A   1      34.341  21.101  24.459  1.00  0.00     0.025 A 
ATOM     16  C   UNL A   1      32.378  20.930  23.043  1.00  0.00     0.025 A 
ATOM     17  C   UNL A   1      34.535  22.410  24.017  1.00  0.00     0.048 A 
ATOM     18  C   UNL A   1      32.588  22.235  22.590  1.00  0.00     0.048 A 
BRANCH  14  19
ATOM     19  S   UNL A   1      32.937  18.728  24.581  1.00  0.00     0.240 S 
ATOM     20  O   UNL A   1      32.186  18.019  23.571  1.00  0.00    -0.207 OA
ATOM     21  O   UNL A   1      32.466  18.851  25.944  1.00  0.00    -0.207 OA
BRANCH  19  22
ATOM     22  N   UNL A   1      34.468  18.038  24.730  1.00  0.00    -0.214 NA
ATOM     23  C   UNL A   1      34.604  16.582  24.758  1.00  0.00     0.120 C 
ATOM     24  H   UNL A   1      35.022  18.371  23.941  1.00  0.00     0.141 HD
ENDBRANCH  19  22
ENDBRANCH  14  19
ENDBRANCH  12  13
ENDBRANCH   8  12
ENDBRANCH   4   7
ENDBRANCH   2   3
ENDBRANCH   1   2
BRANCH   1  25
ATOM     25  C   UNL A   1      32.717  31.412  27.468  1.00  0.00     0.023 C 
BRANCH  25  26
ATOM     26  C   UNL A   1      33.560  32.657  27.197  1.00  0.00     0.116 C 
BRANCH  26  27
ATOM     27  N   UNL A   1      32.969  33.877  27.723  1.00  0.00    -0.352 N 
ATOM     28  C   UNL A   1      33.303  34.572  28.861  1.00  0.00     0.251 C 
ATOM     29  H   UNL A   1      32.230  34.256  27.192  1.00  0.00     0.163 HD
ATOM     30  O   UNL A   1      32.619  35.527  29.217  1.00  0.00    -0.269 OA
BRANCH  28  31
ATOM     31  C   UNL A   1      34.459  34.131  29.668  1.00  0.00     0.039 A 
ATOM     32  C   UNL A   1      34.237  33.286  30.758  1.00  0.00     0.014 A 
ATOM     33  C   UNL A   1      35.759  34.517  29.327  1.00  0.00     0.014 A 
ATOM     34  C   UNL A   1      35.327  32.765  31.459  1.00  0.00     0.010 A 
ATOM     35  C   UNL A   1      36.844  33.946  29.986  1.00  0.00     0.010 A 
ATOM     36  C   UNL A   1      36.640  33.056  31.053  1.00  0.00    -0.014 A 
BRANCH  36  37
ATOM     37  C   UNL A   1      37.810  32.426  31.718  1.00  0.00     0.031 A 
ATOM     38  C   UNL A   1      38.536  31.290  31.052  1.00  0.00     0.074 A 
ATOM     39  C   UNL A   1      38.171  32.832  32.951  1.00  0.00     0.049 A 
ATOM     40  N   UNL A   1      39.523  30.560  31.504  1.00  0.00    -0.248 NA
ATOM     41  C   UNL A   1      38.071  30.909  29.711  1.00  0.00     0.031 C 
ATOM     42  C   UNL A   1      37.515  33.896  33.716  1.00  0.00     0.029 A 
ATOM     43  N   UNL A   1      39.169  32.394  33.785  1.00  0.00    -0.354 N 
ATOM     44  C   UNL A   1      39.791  29.625  30.510  1.00  0.00     0.074 A 
ATOM     45  C   UNL A   1      38.818  29.845  29.460  1.00  0.00     0.031 C 
ATOM     46  C   UNL A   1      38.143  34.042  34.895  1.00  0.00     0.029 A 
ATOM     47  C   UNL A   1      39.213  33.055  34.992  1.00  0.00     0.049 A 
ATOM     48  H   UNL A   1      39.796  31.674  33.543  1.00  0.00     0.167 HD
ATOM     49  C   UNL A   1      40.770  28.687  30.468  1.00  0.00     0.034 A 
ATOM     50  C   UNL A   1      40.015  32.877  36.061  1.00  0.00     0.034 A 
ATOM     51  C   UNL A   1      41.734  28.488  31.522  1.00  0.00     0.049 A 
ATOM     52  C   UNL A   1      41.078  31.808  36.002  1.00  0.00     0.074 A 
ATOM     53  C   UNL A   1      42.800  27.605  31.560  1.00  0.00     0.029 A 
ATOM     54  N   UNL A   1      41.747  29.175  32.730  1.00  0.00    -0.354 N 
ATOM     55  N   UNL A   1      41.350  30.966  35.033  1.00  0.00    -0.248 NA
ATOM     56  C   UNL A   1      41.946  31.673  37.180  1.00  0.00     0.031 C 
ATOM     57  C   UNL A   1      43.414  27.710  32.813  1.00  0.00     0.029 A 
ATOM     58  C   UNL A   1      42.782  28.712  33.531  1.00  0.00     0.049 A 
ATOM     59  H   UNL A   1      41.115  29.887  32.981  1.00  0.00     0.167 HD
ATOM     60  C   UNL A   1      42.442  30.221  35.473  1.00  0.00     0.074 A 
ATOM     61  C   UNL A   1      42.785  30.726  36.787  1.00  0.00     0.031 C 
ATOM     62  C   UNL A   1      43.104  29.215  34.846  1.00  0.00     0.034 A 
BRANCH  49  63
ATOM     63  C   UNL A   1      40.822  27.794  29.251  1.00  0.00     0.023 A 
ATOM     64  C   UNL A   1      41.763  27.999  28.226  1.00  0.00     0.031 A 
ATOM     65  C   UNL A   1      39.904  26.741  29.097  1.00  0.00     0.131 A 
ATOM     66  C   UNL A   1      41.714  27.217  27.061  1.00  0.00     0.055 A 
ATOM     67  C   UNL A   1      39.914  25.912  27.973  1.00  0.00     0.041 A 
ATOM     68  F   UNL A   1      38.968  26.508  30.031  1.00  0.00    -0.206 F 
ATOM     69  C   UNL A   1      40.812  26.158  26.939  1.00  0.00     0.022 A 
BRANCH  66  70
ATOM     70  S   UNL A   1      42.744  27.702  25.650  1.00  0.00     0.124 S 
ATOM     71  O   UNL A   1      42.009  28.853  25.129  1.00  0.00    -0.237 OA
ATOM     72  O   UNL A   1      44.026  27.996  26.281  1.00  0.00    -0.237 OA
ATOM     73  O   UNL A   1      42.727  26.521  24.791  1.00  0.00    -0.744 OA
ENDBRANCH  66  70
ENDBRANCH  49  63
BRANCH  50  74
ATOM     74  C   UNL A   1      39.846  33.715  37.282  1.00  0.00     0.023 A 
ATOM     75  C   UNL A   1      39.075  33.267  38.365  1.00  0.00     0.031 A 
ATOM     76  C   UNL A   1      40.421  34.996  37.367  1.00  0.00     0.131 A 
ATOM     77  C   UNL A   1      38.857  34.109  39.466  1.00  0.00     0.055 A 
ATOM     78  C   UNL A   1      40.245  35.810  38.488  1.00  0.00     0.041 A 
ATOM     79  F   UNL A   1      41.173  35.472  36.362  1.00  0.00    -0.206 F 
ATOM     80  C   UNL A   1      39.448  35.372  39.541  1.00  0.00     0.022 A 
BRANCH  77  81
ATOM     81  S   UNL A   1      37.717  33.562  40.767  1.00  0.00     0.124 S 
ATOM     82  O   UNL A   1      36.646  32.953  39.985  1.00  0.00    -0.237 OA
ATOM     83  O   UNL A   1      38.552  32.645  41.535  1.00  0.00    -0.237 OA
ATOM     84  O   UNL A   1      37.362  34.803  41.452  1.00  0.00    -0.744 OA
ENDBRANCH  77  81
ENDBRANCH  50  74
BRANCH  62  85
ATOM     85  C   UNL A   1      44.294  28.628  35.565  1.00  0.00     0.023 A 
ATOM     86  C   UNL A   1      44.159  27.567  36.476  1.00  0.00     0.031 A 
ATOM     87  C   UNL A   1      45.582  29.147  35.339  1.00  0.00     0.131 A 
ATOM     88  C   UNL A   1      45.283  27.095  37.171  1.00  0.00     0.055 A 
ATOM     89  C   UNL A   1      46.705  28.633  35.988  1.00  0.00     0.041 A 
ATOM     90  F   UNL A   1      45.768  30.162  34.480  1.00  0.00    -0.206 F 
ATOM     91  C   UNL A   1      46.558  27.610  36.919  1.00  0.00     0.022 A 
BRANCH  88  92
ATOM     92  S   UNL A   1      45.046  25.859  38.476  1.00  0.00     0.124 S 
ATOM     93  O   UNL A   1      44.059  26.508  39.334  1.00  0.00    -0.237 OA
ATOM     94  O   UNL A   1      44.573  24.699  37.726  1.00  0.00    -0.237 OA
ATOM     95  O   UNL A   1      46.378  25.716  39.062  1.00  0.00    -0.744 OA
ENDBRANCH  88  92
ENDBRANCH  62  85
ENDBRANCH  36  37
ENDBRANCH  28  31
ENDBRANCH  26  27
ENDBRANCH  25  26
ENDBRANCH   1  25
TORSDOF 18
ENDMDL
MODEL 3
REMARK VINA RESULT:     -11.1      5.864      9.902
REMARK SMILES CNS(=O)(=O)c1ccc(Oc2csc(C(=O)NCCCCNC(=O)c3ccc(-c4c5nc(c(-c6cc(S(=O)(=O)[O-])ccc6F)c6ccc([nH]6)c(-c6cc(S(=O)(=O)[O-])ccc6F)c6nc(c(-c7cc(S(=O)(=O)[O-])ccc7F)c7ccc4[nH]7)C=C6)C=C5)cc3)c2)cc1
REMARK SMILES IDX 19 1 18 2 17 3 15 4 16 5 14 7 11 8 12 9 88 10 13 11 10 12
REMARK SMILES IDX 9 13 6 14 7 15 90 16 8 17 89 18 3 19 4 20 5 21 2 22 1 23
REMARK SMILES IDX 20 25 21 26 22 27 23 28 24 30 25 31 26 32 87 33 27 34 86 35
REMARK SMILES IDX 28 36 29 37 30 38 80 39 31 40 85 41 79 42 81 43 32 44 84 45
REMARK SMILES IDX 78 46 77 47 33 49 65 50 45 51 64 52 46 53 49 54 63 55 82 56
REMARK SMILES IDX 47 57 48 58 62 60 83 61 50 62 34 63 35 64 43 65 36 66 42 67
REMARK SMILES IDX 44 68 41 69 37 70 38 71 39 72 40 73 66 74 67 75 75 76 68 77
REMARK SMILES IDX 74 78 76 79 73 80 69 81 70 82 71 83 72 84 51 85 52 86 60 87
REMARK SMILES IDX 53 88 59 89 61 90 58 91 54 92 55 93 56 94 57 95
REMARK H PARENT 17 6 2 24 22 29 81 48 49 59
REMARK Flexibility Score: inf
ROOT
ATOM      1  C   UNL A   1      37.486  20.493  24.382  1.00  0.00     0.023 C 
ENDROOT
BRANCH   1   2
ATOM      2  C   UNL A   1      36.244  20.859  25.196  1.00  0.00     0.116 C 
BRANCH   2   3
ATOM      3  N   UNL A   1      35.207  19.862  25.029  1.00  0.00    -0.351 N 
ATOM      4  C   UNL A   1      33.847  19.900  25.228  1.00  0.00     0.261 C 
ATOM      5  O   UNL A   1      33.247  18.862  24.935  1.00  0.00    -0.268 OA
ATOM      6  H   UNL A   1      35.539  18.992  24.712  1.00  0.00     0.163 HD
BRANCH   4   7
ATOM      7  C   UNL A   1      33.173  21.098  25.712  1.00  0.00     0.096 A 
ATOM      8  C   UNL A   1      31.764  22.924  26.067  1.00  0.00     0.138 A 
ATOM      9  C   UNL A   1      32.451  22.914  27.253  1.00  0.00     0.112 A 
ATOM     10  C   UNL A   1      32.206  21.921  25.160  1.00  0.00     0.072 A 
ATOM     11  S   UNL A   1      33.640  21.691  27.270  1.00  0.00    -0.135 S 
BRANCH   8  12
ATOM     12  O   UNL A   1      30.715  23.746  25.860  1.00  0.00    -0.456 OA
BRANCH  12  13
ATOM     13  C   UNL A   1      30.860  24.939  25.194  1.00  0.00     0.127 A 
ATOM     14  C   UNL A   1      30.919  27.299  23.711  1.00  0.00     0.082 A 
ATOM     15  C   UNL A   1      30.445  26.125  23.123  1.00  0.00     0.025 A 
ATOM     16  C   UNL A   1      31.380  27.293  25.033  1.00  0.00     0.025 A 
ATOM     17  C   UNL A   1      30.406  24.949  23.874  1.00  0.00     0.048 A 
ATOM     18  C   UNL A   1      31.356  26.108  25.774  1.00  0.00     0.048 A 
BRANCH  14  19
ATOM     19  S   UNL A   1      30.910  28.826  22.807  1.00  0.00     0.240 S 
ATOM     20  O   UNL A   1      29.929  28.717  21.753  1.00  0.00    -0.207 OA
ATOM     21  O   UNL A   1      32.289  29.177  22.540  1.00  0.00    -0.207 OA
BRANCH  19  22
ATOM     22  N   UNL A   1      30.400  29.973  23.933  1.00  0.00    -0.214 NA
ATOM     23  C   UNL A   1      29.185  30.745  23.677  1.00  0.00     0.120 C 
ATOM     24  H   UNL A   1      30.257  29.480  24.815  1.00  0.00     0.141 HD
ENDBRANCH  19  22
ENDBRANCH  14  19
ENDBRANCH  12  13
ENDBRANCH   8  12
ENDBRANCH   4   7
ENDBRANCH   2   3
ENDBRANCH   1   2
BRANCH   1  25
ATOM     25  C   UNL A   1      38.359  19.409  25.028  1.00  0.00     0.023 C 
BRANCH  25  26
ATOM     26  C   UNL A   1      39.272  19.889  26.155  1.00  0.00     0.116 C 
BRANCH  26  27
ATOM     27  N   UNL A   1      40.578  19.249  26.148  1.00  0.00    -0.352 N 
ATOM     28  C   UNL A   1      41.816  19.824  26.312  1.00  0.00     0.251 C 
ATOM     29  H   UNL A   1      40.575  18.274  26.007  1.00  0.00     0.163 HD
ATOM     30  O   UNL A   1      42.829  19.146  26.164  1.00  0.00    -0.269 OA
BRANCH  28  31
ATOM     31  C   UNL A   1      41.913  21.265  26.624  1.00  0.00     0.039 A 
ATOM     32  C   UNL A   1      42.179  21.654  27.938  1.00  0.00     0.014 A 
ATOM     33  C   UNL A   1      41.780  22.226  25.617  1.00  0.00     0.014 A 
ATOM     34  C   UNL A   1      42.391  23.004  28.229  1.00  0.00     0.010 A 
ATOM     35  C   UNL A   1      42.055  23.561  25.896  1.00  0.00     0.010 A 
ATOM     36  C   UNL A   1      42.373  23.963  27.203  1.00  0.00    -0.014 A 
BRANCH  36  37
ATOM     37  C   UNL A   1      42.702  25.387  27.474  1.00  0.00     0.031 A 
ATOM     38  C   UNL A   1      44.071  25.921  27.152  1.00  0.00     0.074 A 
ATOM     39  C   UNL A   1      41.790  26.177  28.075  1.00  0.00     0.049 A 
ATOM     40  N   UNL A   1      44.574  27.105  27.388  1.00  0.00    -0.248 NA
ATOM     41  C   UNL A   1      45.004  24.987  26.505  1.00  0.00     0.031 C 
ATOM     42  C   UNL A   1      40.443  25.760  28.473  1.00  0.00     0.029 A 
ATOM     43  N   UNL A   1      41.856  27.491  28.465  1.00  0.00    -0.354 N 
ATOM     44  C   UNL A   1      45.886  27.058  26.929  1.00  0.00     0.074 A 
ATOM     45  C   UNL A   1      46.114  25.707  26.460  1.00  0.00     0.031 C 
ATOM     46  C   UNL A   1      39.806  26.803  29.030  1.00  0.00     0.029 A 
ATOM     47  C   UNL A   1      40.709  27.948  29.071  1.00  0.00     0.049 A 
ATOM     48  H   UNL A   1      42.652  28.054  28.324  1.00  0.00     0.167 HD
ATOM     49  C   UNL A   1      46.805  28.055  26.883  1.00  0.00     0.034 A 
ATOM     50  C   UNL A   1      40.421  29.149  29.613  1.00  0.00     0.034 A 
ATOM     51  C   UNL A   1      46.555  29.397  27.349  1.00  0.00     0.049 A 
ATOM     52  C   UNL A   1      41.469  30.233  29.576  1.00  0.00     0.074 A 
ATOM     53  C   UNL A   1      47.395  30.497  27.300  1.00  0.00     0.029 A 
ATOM     54  N   UNL A   1      45.381  29.823  27.958  1.00  0.00    -0.354 N 
ATOM     55  N   UNL A   1      42.689  30.187  29.092  1.00  0.00    -0.248 NA
ATOM     56  C   UNL A   1      41.098  31.532  30.151  1.00  0.00     0.031 C 
ATOM     57  C   UNL A   1      46.757  31.566  27.939  1.00  0.00     0.029 A 
ATOM     58  C   UNL A   1      45.489  31.159  28.319  1.00  0.00     0.049 A 
ATOM     59  H   UNL A   1      44.589  29.260  28.112  1.00  0.00     0.167 HD
ATOM     60  C   UNL A   1      43.219  31.461  29.277  1.00  0.00     0.074 A 
ATOM     61  C   UNL A   1      42.180  32.254  29.903  1.00  0.00     0.031 C 
ATOM     62  C   UNL A   1      44.450  31.935  28.955  1.00  0.00     0.034 A 
BRANCH  49  63
ATOM     63  C   UNL A   1      48.169  27.715  26.330  1.00  0.00     0.023 A 
ATOM     64  C   UNL A   1      48.455  27.817  24.957  1.00  0.00     0.031 A 
ATOM     65  C   UNL A   1      49.189  27.255  27.180  1.00  0.00     0.131 A 
ATOM     66  C   UNL A   1      49.699  27.392  24.466  1.00  0.00     0.055 A 
ATOM     67  C   UNL A   1      50.454  26.912  26.696  1.00  0.00     0.041 A 
ATOM     68  F   UNL A   1      48.971  27.115  28.498  1.00  0.00    -0.206 F 
ATOM     69  C   UNL A   1      50.709  26.964  25.329  1.00  0.00     0.022 A 
BRANCH  66  70
ATOM     70  S   UNL A   1      49.921  27.264  22.670  1.00  0.00     0.124 S 
ATOM     71  O   UNL A   1      48.817  26.383  22.298  1.00  0.00    -0.237 OA
ATOM     72  O   UNL A   1      49.804  28.652  22.238  1.00  0.00    -0.237 OA
ATOM     73  O   UNL A   1      51.251  26.675  22.531  1.00  0.00    -0.744 OA
ENDBRANCH  66  70
ENDBRANCH  49  63
BRANCH  50  74
ATOM     74  C   UNL A   1      39.094  29.396  30.246  1.00  0.00     0.023 A 
ATOM     75  C   UNL A   1      38.128  30.193  29.612  1.00  0.00     0.031 A 
ATOM     76  C   UNL A   1      38.787  28.872  31.515  1.00  0.00     0.131 A 
ATOM     77  C   UNL A   1      36.922  30.484  30.267  1.00  0.00     0.055 A 
ATOM     78  C   UNL A   1      37.563  29.122  32.139  1.00  0.00     0.041 A 
ATOM     79  F   UNL A   1      39.673  28.099  32.163  1.00  0.00    -0.206 F 
ATOM     80  C   UNL A   1      36.627  29.944  31.520  1.00  0.00     0.022 A 
BRANCH  77  81
ATOM     81  S   UNL A   1      35.773  31.655  29.490  1.00  0.00     0.124 S 
ATOM     82  O   UNL A   1      36.684  32.685  29.003  1.00  0.00    -0.237 OA
ATOM     83  O   UNL A   1      35.138  30.824  28.472  1.00  0.00    -0.237 OA
ATOM     84  O   UNL A   1      34.904  32.060  30.593  1.00  0.00    -0.744 OA
ENDBRANCH  77  81
ENDBRANCH  50  74
BRANCH  62  85
ATOM     85  C   UNL A   1      44.717  33.393  29.239  1.00  0.00     0.023 A 
ATOM     86  C   UNL A   1      44.312  34.406  28.355  1.00  0.00     0.031 A 
ATOM     87  C   UNL A   1      45.398  33.770  30.411  1.00  0.00     0.131 A 
ATOM     88  C   UNL A   1      44.639  35.744  28.627  1.00  0.00     0.055 A 
ATOM     89  C   UNL A   1      45.668  35.106  30.706  1.00  0.00     0.041 A 
ATOM     90  F   UNL A   1      45.811  32.842  31.290  1.00  0.00    -0.206 F 
ATOM     91  C   UNL A   1      45.300  36.101  29.806  1.00  0.00     0.022 A 
BRANCH  88  92
ATOM     92  S   UNL A   1      44.271  37.003  27.376  1.00  0.00     0.124 S 
ATOM     93  O   UNL A   1      43.275  36.329  26.549  1.00  0.00    -0.237 OA
ATOM     94  O   UNL A   1      43.780  38.114  28.186  1.00  0.00    -0.237 OA
ATOM     95  O   UNL A   1      45.561  37.233  26.728  1.00  0.00    -0.744 OA
ENDBRANCH  88  92
ENDBRANCH  62  85
ENDBRANCH  36  37
ENDBRANCH  28  31
ENDBRANCH  26  27
ENDBRANCH  25  26
ENDBRANCH   1  25
TORSDOF 18
ENDMDL
