MODEL 1
REMARK VINA RESULT:     -13.1      0.000      0.000
REMARK SMILES C[C@H](c1ccccc1)N1C(=O)c2ccc(C(=O)NCCCCNC(=O)c3ccc(-c4c5nc(c(-c6cc(S(=O)(=O)[O-])ccc6F)c6ccc([nH]6)c(-c6cc(S(=O)(=O)[O-])ccc6F)c6nc(c(-c7cc(S(=O)(=O)[O-])ccc7F)c7ccc4[nH]7)C=C6)C=C5)cc3)cc2C1=O
REMARK SMILES IDX 21 1 20 2 19 3 18 4 16 5 17 6 15 8 9 9 10 10 91 11 11 12
REMARK SMILES IDX 12 13 90 14 92 15 13 16 89 17 14 18 2 19 1 20 3 21 4 22 8 23
REMARK SMILES IDX 5 24 7 25 6 26 22 27 23 28 24 29 25 31 26 32 27 33 88 34
REMARK SMILES IDX 28 35 87 36 29 37 30 38 31 39 81 40 32 41 86 42 80 43 82 44
REMARK SMILES IDX 33 45 85 46 79 47 78 48 34 50 66 51 46 52 65 53 47 54 50 55
REMARK SMILES IDX 64 56 83 57 48 58 49 59 63 61 84 62 51 63 35 64 36 65 44 66
REMARK SMILES IDX 37 67 43 68 45 69 42 70 38 71 39 72 40 73 41 74 67 75 68 76
REMARK SMILES IDX 76 77 69 78 75 79 77 80 74 81 70 82 71 83 72 84 73 85 52 86
REMARK SMILES IDX 53 87 61 88 54 89 60 90 62 91 59 92 55 93 56 94 57 95 58 96
REMARK H PARENT 18 7 23 30 82 49 50 60
REMARK Flexibility Score: inf
ROOT
ATOM      1  C   UNL A   1      31.728  31.551  27.111  1.00  0.00     0.023 C 
ENDROOT
BRANCH   1   2
ATOM      2  C   UNL A   1      31.043  31.541  25.742  1.00  0.00     0.023 C 
BRANCH   2   3
ATOM      3  C   UNL A   1      31.162  30.252  24.932  1.00  0.00     0.116 C 
BRANCH   3   4
ATOM      4  N   UNL A   1      30.367  30.262  23.716  1.00  0.00    -0.352 N 
ATOM      5  C   UNL A   1      29.988  29.256  22.868  1.00  0.00     0.251 C 
ATOM      6  O   UNL A   1      29.371  29.531  21.840  1.00  0.00    -0.269 OA
ATOM      7  H   UNL A   1      30.041  31.154  23.455  1.00  0.00     0.163 HD
BRANCH   5   8
ATOM      8  C   UNL A   1      30.341  27.841  23.118  1.00  0.00     0.040 A 
ATOM      9  N   UNL A   1      32.302  23.687  22.850  1.00  0.00    -0.267 N 
ATOM     10  C   UNL A   1      31.297  23.816  23.769  1.00  0.00     0.262 C 
ATOM     11  C   UNL A   1      32.453  24.843  22.125  1.00  0.00     0.262 C 
ATOM     12  O   UNL A   1      30.744  22.985  24.461  1.00  0.00    -0.269 OA
ATOM     13  C   UNL A   1      30.872  25.211  23.736  1.00  0.00     0.053 A 
ATOM     14  C   UNL A   1      31.544  25.834  22.702  1.00  0.00     0.054 A 
ATOM     15  O   UNL A   1      33.159  25.062  21.158  1.00  0.00    -0.269 OA
ATOM     16  C   UNL A   1      29.965  25.877  24.535  1.00  0.00     0.015 A 
ATOM     17  C   UNL A   1      31.309  27.156  22.368  1.00  0.00     0.028 A 
ATOM     18  C   UNL A   1      29.709  27.212  24.221  1.00  0.00     0.015 A 
BRANCH   9  19
ATOM     19  C   UNL A   1      33.057  22.464  22.567  1.00  0.00     0.121 C 
ATOM     20  C   UNL A   1      32.145  21.250  22.364  1.00  0.00     0.037 C 
BRANCH  19  21
ATOM     21  C   UNL A   1      34.166  22.217  23.588  1.00  0.00    -0.025 A 
ATOM     22  C   UNL A   1      34.016  21.307  24.648  1.00  0.00     0.006 A 
ATOM     23  C   UNL A   1      35.373  22.930  23.504  1.00  0.00     0.006 A 
ATOM     24  C   UNL A   1      35.009  21.148  25.616  1.00  0.00     0.000 A 
ATOM     25  C   UNL A   1      36.380  22.752  24.460  1.00  0.00     0.000 A 
ATOM     26  C   UNL A   1      36.191  21.871  25.523  1.00  0.00     0.000 A 
ENDBRANCH  19  21
ENDBRANCH   9  19
ENDBRANCH   5   8
ENDBRANCH   3   4
ENDBRANCH   2   3
ENDBRANCH   1   2
BRANCH   1  27
ATOM     27  C   UNL A   1      32.933  32.475  27.266  1.00  0.00     0.116 C 
BRANCH  27  28
ATOM     28  N   UNL A   1      32.582  33.839  27.623  1.00  0.00    -0.352 N 
ATOM     29  C   UNL A   1      33.155  34.677  28.552  1.00  0.00     0.251 C 
ATOM     30  H   UNL A   1      31.823  34.220  27.128  1.00  0.00     0.163 HD
ATOM     31  O   UNL A   1      32.655  35.781  28.752  1.00  0.00    -0.269 OA
BRANCH  29  32
ATOM     32  C   UNL A   1      34.331  34.238  29.342  1.00  0.00     0.039 A 
ATOM     33  C   UNL A   1      34.112  33.527  30.526  1.00  0.00     0.014 A 
ATOM     34  C   UNL A   1      35.636  34.513  28.927  1.00  0.00     0.014 A 
ATOM     35  C   UNL A   1      35.197  33.024  31.249  1.00  0.00     0.010 A 
ATOM     36  C   UNL A   1      36.715  33.960  29.616  1.00  0.00     0.010 A 
ATOM     37  C   UNL A   1      36.507  33.201  30.777  1.00  0.00    -0.014 A 
BRANCH  37  38
ATOM     38  C   UNL A   1      37.668  32.586  31.475  1.00  0.00     0.031 A 
ATOM     39  C   UNL A   1      38.408  31.437  30.847  1.00  0.00     0.074 A 
ATOM     40  C   UNL A   1      38.006  33.012  32.709  1.00  0.00     0.049 A 
ATOM     41  N   UNL A   1      39.379  30.708  31.336  1.00  0.00    -0.248 NA
ATOM     42  C   UNL A   1      37.975  31.038  29.500  1.00  0.00     0.031 C 
ATOM     43  C   UNL A   1      37.338  34.091  33.443  1.00  0.00     0.029 A 
ATOM     44  N   UNL A   1      38.984  32.582  33.571  1.00  0.00    -0.354 N 
ATOM     45  C   UNL A   1      39.662  29.752  30.368  1.00  0.00     0.074 A 
ATOM     46  C   UNL A   1      38.724  29.966  29.285  1.00  0.00     0.031 C 
ATOM     47  C   UNL A   1      37.936  34.248  34.635  1.00  0.00     0.029 A 
ATOM     48  C   UNL A   1      39.001  33.258  34.770  1.00  0.00     0.049 A 
ATOM     49  H   UNL A   1      39.615  31.860  33.351  1.00  0.00     0.167 HD
ATOM     50  C   UNL A   1      40.626  28.797  30.372  1.00  0.00     0.034 A 
ATOM     51  C   UNL A   1      39.776  33.090  35.859  1.00  0.00     0.034 A 
ATOM     52  C   UNL A   1      41.565  28.608  31.451  1.00  0.00     0.049 A 
ATOM     53  C   UNL A   1      40.836  32.019  35.845  1.00  0.00     0.074 A 
ATOM     54  C   UNL A   1      42.620  27.714  31.532  1.00  0.00     0.029 A 
ATOM     55  N   UNL A   1      41.561  29.320  32.643  1.00  0.00    -0.354 N 
ATOM     56  N   UNL A   1      41.123  31.154  34.900  1.00  0.00    -0.248 NA
ATOM     57  C   UNL A   1      41.682  31.909  37.040  1.00  0.00     0.031 C 
ATOM     58  C   UNL A   1      43.215  27.846  32.791  1.00  0.00     0.029 A 
ATOM     59  C   UNL A   1      42.576  28.868  33.475  1.00  0.00     0.049 A 
ATOM     60  H   UNL A   1      40.929  30.042  32.867  1.00  0.00     0.167 HD
ATOM     61  C   UNL A   1      42.203  30.418  35.378  1.00  0.00     0.074 A 
ATOM     62  C   UNL A   1      42.521  30.947  36.687  1.00  0.00     0.031 C 
ATOM     63  C   UNL A   1      42.874  29.399  34.783  1.00  0.00     0.034 A 
BRANCH  50  64
ATOM     64  C   UNL A   1      40.687  27.870  29.182  1.00  0.00     0.023 A 
ATOM     65  C   UNL A   1      41.634  28.046  28.158  1.00  0.00     0.031 A 
ATOM     66  C   UNL A   1      39.766  26.816  29.051  1.00  0.00     0.131 A 
ATOM     67  C   UNL A   1      41.588  27.237  27.013  1.00  0.00     0.055 A 
ATOM     68  C   UNL A   1      39.777  25.961  27.946  1.00  0.00     0.041 A 
ATOM     69  F   UNL A   1      38.828  26.608  29.988  1.00  0.00    -0.206 F 
ATOM     70  C   UNL A   1      40.681  26.180  26.911  1.00  0.00     0.022 A 
BRANCH  67  71
ATOM     71  S   UNL A   1      42.633  27.678  25.598  1.00  0.00     0.124 S 
ATOM     72  O   UNL A   1      41.917  28.828  25.051  1.00  0.00    -0.237 OA
ATOM     73  O   UNL A   1      43.915  27.964  26.230  1.00  0.00    -0.237 OA
ATOM     74  O   UNL A   1      42.602  26.480  24.761  1.00  0.00    -0.744 OA
ENDBRANCH  67  71
ENDBRANCH  50  64
BRANCH  51  75
ATOM     75  C   UNL A   1      39.581  33.946  37.063  1.00  0.00     0.023 A 
ATOM     76  C   UNL A   1      38.945  33.445  38.210  1.00  0.00     0.031 A 
ATOM     77  C   UNL A   1      39.994  35.290  37.070  1.00  0.00     0.131 A 
ATOM     78  C   UNL A   1      38.700  34.292  39.301  1.00  0.00     0.055 A 
ATOM     79  C   UNL A   1      39.789  36.118  38.175  1.00  0.00     0.041 A 
ATOM     80  F   UNL A   1      40.614  35.815  36.002  1.00  0.00    -0.206 F 
ATOM     81  C   UNL A   1      39.126  35.623  39.295  1.00  0.00     0.022 A 
BRANCH  78  82
ATOM     82  S   UNL A   1      37.746  33.649  40.703  1.00  0.00     0.124 S 
ATOM     83  O   UNL A   1      36.618  33.014  40.030  1.00  0.00    -0.237 OA
ATOM     84  O   UNL A   1      38.707  32.751  41.334  1.00  0.00    -0.237 OA
ATOM     85  O   UNL A   1      37.421  34.849  41.471  1.00  0.00    -0.744 OA
ENDBRANCH  78  82
ENDBRANCH  51  75
BRANCH  63  86
ATOM     86  C   UNL A   1      44.050  28.829  35.536  1.00  0.00     0.023 A 
ATOM     87  C   UNL A   1      43.908  27.744  36.419  1.00  0.00     0.031 A 
ATOM     88  C   UNL A   1      45.329  29.392  35.377  1.00  0.00     0.131 A 
ATOM     89  C   UNL A   1      45.016  27.290  37.150  1.00  0.00     0.055 A 
ATOM     90  C   UNL A   1      46.438  28.901  36.067  1.00  0.00     0.041 A 
ATOM     91  F   UNL A   1      45.520  30.430  34.547  1.00  0.00    -0.206 F 
ATOM     92  C   UNL A   1      46.282  27.852  36.969  1.00  0.00     0.022 A 
BRANCH  89  93
ATOM     93  S   UNL A   1      44.765  26.004  38.404  1.00  0.00     0.124 S 
ATOM     94  O   UNL A   1      43.854  25.089  37.722  1.00  0.00    -0.237 OA
ATOM     95  O   UNL A   1      46.120  25.509  38.621  1.00  0.00    -0.237 OA
ATOM     96  O   UNL A   1      44.184  26.731  39.530  1.00  0.00    -0.744 OA
ENDBRANCH  89  93
ENDBRANCH  63  86
ENDBRANCH  37  38
ENDBRANCH  29  32
ENDBRANCH  27  28
ENDBRANCH   1  27
TORSDOF 16
ENDMDL
MODEL 2
REMARK VINA RESULT:     -13.0      3.634      8.645
REMARK SMILES C[C@H](c1ccccc1)N1C(=O)c2ccc(C(=O)NCCCCNC(=O)c3ccc(-c4c5nc(c(-c6cc(S(=O)(=O)[O-])ccc6F)c6ccc([nH]6)c(-c6cc(S(=O)(=O)[O-])ccc6F)c6nc(c(-c7cc(S(=O)(=O)[O-])ccc7F)c7ccc4[nH]7)C=C6)C=C5)cc3)cc2C1=O
REMARK SMILES IDX 21 1 20 2 19 3 18 4 16 5 17 6 15 8 9 9 10 10 91 11 11 12
REMARK SMILES IDX 12 13 90 14 92 15 13 16 89 17 14 18 2 19 1 20 3 21 4 22 8 23
REMARK SMILES IDX 5 24 7 25 6 26 22 27 23 28 24 29 25 31 26 32 27 33 88 34
REMARK SMILES IDX 28 35 87 36 29 37 30 38 31 39 81 40 32 41 86 42 80 43 82 44
REMARK SMILES IDX 33 45 85 46 79 47 78 48 34 50 66 51 46 52 65 53 47 54 50 55
REMARK SMILES IDX 64 56 83 57 48 58 49 59 63 61 84 62 51 63 35 64 36 65 44 66
REMARK SMILES IDX 37 67 43 68 45 69 42 70 38 71 39 72 40 73 41 74 67 75 68 76
REMARK SMILES IDX 76 77 69 78 75 79 77 80 74 81 70 82 71 83 72 84 73 85 52 86
REMARK SMILES IDX 53 87 61 88 54 89 60 90 62 91 59 92 55 93 56 94 57 95 58 96
REMARK H PARENT 18 7 23 30 82 49 50 60
REMARK Flexibility Score: inf
ROOT
ATOM      1  C   UNL A   1      32.587  28.590  25.980  1.00  0.00     0.023 C 
ENDROOT
BRANCH   1   2
ATOM      2  C   UNL A   1      32.329  29.730  24.993  1.00  0.00     0.023 C 
BRANCH   2   3
ATOM      3  C   UNL A   1      30.915  30.310  24.979  1.00  0.00     0.116 C 
BRANCH   3   4
ATOM      4  N   UNL A   1      30.331  30.367  23.650  1.00  0.00    -0.352 N 
ATOM      5  C   UNL A   1      30.102  29.393  22.714  1.00  0.00     0.251 C 
ATOM      6  O   UNL A   1      29.661  29.707  21.611  1.00  0.00    -0.269 OA
ATOM      7  H   UNL A   1      30.048  31.268  23.372  1.00  0.00     0.163 HD
BRANCH   5   8
ATOM      8  C   UNL A   1      30.416  27.970  22.966  1.00  0.00     0.040 A 
ATOM      9  N   UNL A   1      32.362  23.804  22.806  1.00  0.00    -0.267 N 
ATOM     10  C   UNL A   1      31.268  23.922  23.618  1.00  0.00     0.262 C 
ATOM     11  C   UNL A   1      32.597  24.974  22.128  1.00  0.00     0.262 C 
ATOM     12  O   UNL A   1      30.640  23.081  24.229  1.00  0.00    -0.269 OA
ATOM     13  C   UNL A   1      30.860  25.321  23.574  1.00  0.00     0.053 A 
ATOM     14  C   UNL A   1      31.640  25.961  22.631  1.00  0.00     0.054 A 
ATOM     15  O   UNL A   1      33.402  25.208  21.245  1.00  0.00    -0.269 OA
ATOM     16  C   UNL A   1      29.879  25.978  24.289  1.00  0.00     0.015 A 
ATOM     17  C   UNL A   1      31.451  27.293  22.305  1.00  0.00     0.028 A 
ATOM     18  C   UNL A   1      29.668  27.323  23.982  1.00  0.00     0.015 A 
BRANCH   9  19
ATOM     19  C   UNL A   1      33.134  22.580  22.574  1.00  0.00     0.121 C 
ATOM     20  C   UNL A   1      32.236  21.353  22.383  1.00  0.00     0.037 C 
BRANCH  19  21
ATOM     21  C   UNL A   1      34.220  22.370  23.627  1.00  0.00    -0.025 A 
ATOM     22  C   UNL A   1      35.320  23.237  23.748  1.00  0.00     0.006 A 
ATOM     23  C   UNL A   1      34.157  21.268  24.495  1.00  0.00     0.006 A 
ATOM     24  C   UNL A   1      36.343  22.990  24.665  1.00  0.00     0.000 A 
ATOM     25  C   UNL A   1      35.170  21.034  25.432  1.00  0.00     0.000 A 
ATOM     26  C   UNL A   1      36.269  21.887  25.506  1.00  0.00     0.000 A 
ENDBRANCH  19  21
ENDBRANCH   9  19
ENDBRANCH   5   8
ENDBRANCH   3   4
ENDBRANCH   2   3
ENDBRANCH   1   2
BRANCH   1  27
ATOM     27  C   UNL A   1      33.242  28.968  27.306  1.00  0.00     0.116 C 
BRANCH  27  28
ATOM     28  N   UNL A   1      33.404  30.401  27.491  1.00  0.00    -0.352 N 
ATOM     29  C   UNL A   1      34.475  31.104  27.992  1.00  0.00     0.251 C 
ATOM     30  H   UNL A   1      32.634  30.949  27.217  1.00  0.00     0.163 HD
ATOM     31  O   UNL A   1      34.379  32.321  28.133  1.00  0.00    -0.269 OA
BRANCH  29  32
ATOM     32  C   UNL A   1      35.712  30.402  28.407  1.00  0.00     0.039 A 
ATOM     33  C   UNL A   1      36.807  30.408  27.537  1.00  0.00     0.014 A 
ATOM     34  C   UNL A   1      35.805  29.748  29.638  1.00  0.00     0.014 A 
ATOM     35  C   UNL A   1      38.016  29.829  27.933  1.00  0.00     0.010 A 
ATOM     36  C   UNL A   1      37.029  29.225  30.056  1.00  0.00     0.010 A 
ATOM     37  C   UNL A   1      38.150  29.270  29.213  1.00  0.00    -0.014 A 
BRANCH  37  38
ATOM     38  C   UNL A   1      39.456  28.743  29.692  1.00  0.00     0.031 A 
ATOM     39  C   UNL A   1      40.198  29.447  30.794  1.00  0.00     0.074 A 
ATOM     40  C   UNL A   1      40.008  27.675  29.081  1.00  0.00     0.049 A 
ATOM     41  N   UNL A   1      41.387  29.200  31.283  1.00  0.00    -0.248 NA
ATOM     42  C   UNL A   1      39.523  30.600  31.406  1.00  0.00     0.031 C 
ATOM     43  C   UNL A   1      39.406  26.931  27.972  1.00  0.00     0.029 A 
ATOM     44  N   UNL A   1      41.206  27.038  29.294  1.00  0.00    -0.354 N 
ATOM     45  C   UNL A   1      41.613  30.178  32.246  1.00  0.00     0.074 A 
ATOM     46  C   UNL A   1      40.455  31.048  32.234  1.00  0.00     0.031 C 
ATOM     47  C   UNL A   1      40.228  25.931  27.614  1.00  0.00     0.029 A 
ATOM     48  C   UNL A   1      41.433  25.986  28.437  1.00  0.00     0.049 A 
ATOM     49  H   UNL A   1      41.841  27.309  29.996  1.00  0.00     0.167 HD
ATOM     50  C   UNL A   1      42.676  30.324  33.076  1.00  0.00     0.034 A 
ATOM     51  C   UNL A   1      42.496  25.167  28.318  1.00  0.00     0.034 A 
ATOM     52  C   UNL A   1      43.815  29.437  33.088  1.00  0.00     0.049 A 
ATOM     53  C   UNL A   1      43.669  25.352  29.246  1.00  0.00     0.074 A 
ATOM     54  C   UNL A   1      44.916  29.457  33.927  1.00  0.00     0.029 A 
ATOM     55  N   UNL A   1      44.004  28.374  32.215  1.00  0.00    -0.354 N 
ATOM     56  N   UNL A   1      43.846  26.252  30.184  1.00  0.00    -0.248 NA
ATOM     57  C   UNL A   1      44.782  24.404  29.103  1.00  0.00     0.031 C 
ATOM     58  C   UNL A   1      45.794  28.443  33.527  1.00  0.00     0.029 A 
ATOM     59  C   UNL A   1      45.213  27.747  32.478  1.00  0.00     0.049 A 
ATOM     60  H   UNL A   1      43.370  28.102  31.511  1.00  0.00     0.167 HD
ATOM     61  C   UNL A   1      45.077  25.959  30.763  1.00  0.00     0.074 A 
ATOM     62  C   UNL A   1      45.592  24.793  30.075  1.00  0.00     0.031 C 
ATOM     63  C   UNL A   1      45.720  26.593  31.776  1.00  0.00     0.034 A 
BRANCH  50  64
ATOM     64  C   UNL A   1      42.664  31.506  34.016  1.00  0.00     0.023 A 
ATOM     65  C   UNL A   1      42.073  31.429  35.289  1.00  0.00     0.031 A 
ATOM     66  C   UNL A   1      43.217  32.736  33.621  1.00  0.00     0.131 A 
ATOM     67  C   UNL A   1      41.978  32.577  36.089  1.00  0.00     0.055 A 
ATOM     68  C   UNL A   1      43.192  33.856  34.456  1.00  0.00     0.041 A 
ATOM     69  F   UNL A   1      43.779  32.876  32.410  1.00  0.00    -0.206 F 
ATOM     70  C   UNL A   1      42.555  33.785  35.691  1.00  0.00     0.022 A 
BRANCH  67  71
ATOM     71  S   UNL A   1      40.963  32.505  37.590  1.00  0.00     0.124 S 
ATOM     72  O   UNL A   1      40.710  33.922  37.842  1.00  0.00    -0.237 OA
ATOM     73  O   UNL A   1      39.816  31.717  37.158  1.00  0.00    -0.237 OA
ATOM     74  O   UNL A   1      41.837  31.854  38.564  1.00  0.00    -0.744 OA
ENDBRANCH  67  71
ENDBRANCH  50  64
BRANCH  51  75
ATOM     75  C   UNL A   1      42.514  24.100  27.278  1.00  0.00     0.023 A 
ATOM     76  C   UNL A   1      41.861  22.876  27.490  1.00  0.00     0.031 A 
ATOM     77  C   UNL A   1      43.216  24.275  26.073  1.00  0.00     0.131 A 
ATOM     78  C   UNL A   1      41.959  21.856  26.532  1.00  0.00     0.055 A 
ATOM     79  C   UNL A   1      43.273  23.274  25.102  1.00  0.00     0.041 A 
ATOM     80  F   UNL A   1      43.849  25.431  25.818  1.00  0.00    -0.206 F 
ATOM     81  C   UNL A   1      42.653  22.050  25.335  1.00  0.00     0.022 A 
BRANCH  78  82
ATOM     82  S   UNL A   1      41.227  20.239  26.907  1.00  0.00     0.124 S 
ATOM     83  O   UNL A   1      42.327  19.334  26.594  1.00  0.00    -0.237 OA
ATOM     84  O   UNL A   1      40.893  20.380  28.320  1.00  0.00    -0.237 OA
ATOM     85  O   UNL A   1      40.082  20.166  26.003  1.00  0.00    -0.744 OA
ENDBRANCH  78  82
ENDBRANCH  51  75
BRANCH  63  86
ATOM     86  C   UNL A   1      47.032  26.000  32.225  1.00  0.00     0.023 A 
ATOM     87  C   UNL A   1      48.230  26.246  31.532  1.00  0.00     0.031 A 
ATOM     88  C   UNL A   1      47.078  25.165  33.355  1.00  0.00     0.131 A 
ATOM     89  C   UNL A   1      49.416  25.619  31.945  1.00  0.00     0.055 A 
ATOM     90  C   UNL A   1      48.270  24.587  33.793  1.00  0.00     0.041 A 
ATOM     91  F   UNL A   1      45.962  24.896  34.052  1.00  0.00    -0.206 F 
ATOM     92  C   UNL A   1      49.446  24.803  33.079  1.00  0.00     0.022 A 
BRANCH  89  93
ATOM     93  S   UNL A   1      50.907  25.820  30.932  1.00  0.00     0.124 S 
ATOM     94  O   UNL A   1      50.520  25.162  29.688  1.00  0.00    -0.237 OA
ATOM     95  O   UNL A   1      51.048  27.270  30.868  1.00  0.00    -0.237 OA
ATOM     96  O   UNL A   1      51.941  25.132  31.702  1.00  0.00    -0.744 OA
ENDBRANCH  89  93
ENDBRANCH  63  86
ENDBRANCH  37  38
ENDBRANCH  29  32
ENDBRANCH  27  28
ENDBRANCH   1  27
TORSDOF 16
ENDMDL
MODEL 3
REMARK VINA RESULT:     -13.0      1.226      1.843
REMARK SMILES C[C@H](c1ccccc1)N1C(=O)c2ccc(C(=O)NCCCCNC(=O)c3ccc(-c4c5nc(c(-c6cc(S(=O)(=O)[O-])ccc6F)c6ccc([nH]6)c(-c6cc(S(=O)(=O)[O-])ccc6F)c6nc(c(-c7cc(S(=O)(=O)[O-])ccc7F)c7ccc4[nH]7)C=C6)C=C5)cc3)cc2C1=O
REMARK SMILES IDX 21 1 20 2 19 3 18 4 16 5 17 6 15 8 9 9 10 10 91 11 11 12
REMARK SMILES IDX 12 13 90 14 92 15 13 16 89 17 14 18 2 19 1 20 3 21 4 22 8 23
REMARK SMILES IDX 5 24 7 25 6 26 22 27 23 28 24 29 25 31 26 32 27 33 88 34
REMARK SMILES IDX 28 35 87 36 29 37 30 38 31 39 81 40 32 41 86 42 80 43 82 44
REMARK SMILES IDX 33 45 85 46 79 47 78 48 34 50 66 51 46 52 65 53 47 54 50 55
REMARK SMILES IDX 64 56 83 57 48 58 49 59 63 61 84 62 51 63 35 64 36 65 44 66
REMARK SMILES IDX 37 67 43 68 45 69 42 70 38 71 39 72 40 73 41 74 67 75 68 76
REMARK SMILES IDX 76 77 69 78 75 79 77 80 74 81 70 82 71 83 72 84 73 85 52 86
REMARK SMILES IDX 53 87 61 88 54 89 60 90 62 91 59 92 55 93 56 94 57 95 58 96
REMARK H PARENT 18 7 23 30 82 49 50 60
REMARK Flexibility Score: inf
ROOT
ATOM      1  C   UNL A   1      31.830  31.624  26.912  1.00  0.00     0.023 C 
ENDROOT
BRANCH   1   2
ATOM      2  C   UNL A   1      32.157  30.130  26.860  1.00  0.00     0.023 C 
BRANCH   2   3
ATOM      3  C   UNL A   1      33.365  29.728  26.016  1.00  0.00     0.116 C 
BRANCH   3   4
ATOM      4  N   UNL A   1      33.071  29.641  24.596  1.00  0.00    -0.352 N 
ATOM      5  C   UNL A   1      32.612  28.607  23.824  1.00  0.00     0.251 C 
ATOM      6  O   UNL A   1      32.517  28.758  22.607  1.00  0.00    -0.269 OA
ATOM      7  H   UNL A   1      33.229  30.476  24.100  1.00  0.00     0.163 HD
BRANCH   5   8
ATOM      8  C   UNL A   1      32.272  27.286  24.397  1.00  0.00     0.040 A 
ATOM      9  N   UNL A   1      32.534  22.935  25.868  1.00  0.00    -0.267 N 
ATOM     10  C   UNL A   1      31.301  23.521  25.951  1.00  0.00     0.262 C 
ATOM     11  C   UNL A   1      33.436  23.776  25.265  1.00  0.00     0.262 C 
ATOM     12  O   UNL A   1      30.219  23.053  26.245  1.00  0.00    -0.269 OA
ATOM     13  C   UNL A   1      31.460  24.900  25.505  1.00  0.00     0.053 A 
ATOM     14  C   UNL A   1      32.752  25.050  25.042  1.00  0.00     0.054 A 
ATOM     15  O   UNL A   1      34.583  23.559  24.919  1.00  0.00    -0.269 OA
ATOM     16  C   UNL A   1      30.546  25.935  25.494  1.00  0.00     0.015 A 
ATOM     17  C   UNL A   1      33.198  26.237  24.486  1.00  0.00     0.028 A 
ATOM     18  C   UNL A   1      30.970  27.144  24.940  1.00  0.00     0.015 A 
BRANCH   9  19
ATOM     19  C   UNL A   1      32.860  21.559  26.252  1.00  0.00     0.121 C 
ATOM     20  C   UNL A   1      34.214  21.457  26.959  1.00  0.00     0.037 C 
BRANCH  19  21
ATOM     21  C   UNL A   1      32.717  20.582  25.087  1.00  0.00    -0.025 A 
ATOM     22  C   UNL A   1      32.423  21.013  23.782  1.00  0.00     0.006 A 
ATOM     23  C   UNL A   1      32.849  19.201  25.305  1.00  0.00     0.006 A 
ATOM     24  C   UNL A   1      32.221  20.103  22.743  1.00  0.00     0.000 A 
ATOM     25  C   UNL A   1      32.671  18.288  24.259  1.00  0.00     0.000 A 
ATOM     26  C   UNL A   1      32.343  18.739  22.982  1.00  0.00     0.000 A 
ENDBRANCH  19  21
ENDBRANCH   9  19
ENDBRANCH   5   8
ENDBRANCH   3   4
ENDBRANCH   2   3
ENDBRANCH   1   2
BRANCH   1  27
ATOM     27  C   UNL A   1      32.993  32.570  27.204  1.00  0.00     0.116 C 
BRANCH  27  28
ATOM     28  N   UNL A   1      32.576  33.893  27.637  1.00  0.00    -0.352 N 
ATOM     29  C   UNL A   1      33.104  34.700  28.619  1.00  0.00     0.251 C 
ATOM     30  H   UNL A   1      31.803  34.267  27.158  1.00  0.00     0.163 HD
ATOM     31  O   UNL A   1      32.551  35.766  28.880  1.00  0.00    -0.269 OA
BRANCH  29  32
ATOM     32  C   UNL A   1      34.294  34.270  29.392  1.00  0.00     0.039 A 
ATOM     33  C   UNL A   1      34.098  33.646  30.627  1.00  0.00     0.014 A 
ATOM     34  C   UNL A   1      35.590  34.469  28.911  1.00  0.00     0.014 A 
ATOM     35  C   UNL A   1      35.193  33.151  31.341  1.00  0.00     0.010 A 
ATOM     36  C   UNL A   1      36.676  33.922  29.594  1.00  0.00     0.010 A 
ATOM     37  C   UNL A   1      36.489  33.248  30.810  1.00  0.00    -0.014 A 
BRANCH  37  38
ATOM     38  C   UNL A   1      37.654  32.637  31.503  1.00  0.00     0.031 A 
ATOM     39  C   UNL A   1      38.389  31.484  30.877  1.00  0.00     0.074 A 
ATOM     40  C   UNL A   1      38.001  33.072  32.731  1.00  0.00     0.049 A 
ATOM     41  N   UNL A   1      39.363  30.758  31.364  1.00  0.00    -0.248 NA
ATOM     42  C   UNL A   1      37.946  31.076  29.536  1.00  0.00     0.031 C 
ATOM     43  C   UNL A   1      37.340  34.155  33.463  1.00  0.00     0.029 A 
ATOM     44  N   UNL A   1      38.986  32.647  33.589  1.00  0.00    -0.354 N 
ATOM     45  C   UNL A   1      39.638  29.795  30.400  1.00  0.00     0.074 A 
ATOM     46  C   UNL A   1      38.693  30.003  29.322  1.00  0.00     0.031 C 
ATOM     47  C   UNL A   1      37.947  34.320  34.650  1.00  0.00     0.029 A 
ATOM     48  C   UNL A   1      39.012  33.330  34.784  1.00  0.00     0.049 A 
ATOM     49  H   UNL A   1      39.615  31.923  33.369  1.00  0.00     0.167 HD
ATOM     50  C   UNL A   1      40.602  28.840  30.403  1.00  0.00     0.034 A 
ATOM     51  C   UNL A   1      39.795  33.169  35.868  1.00  0.00     0.034 A 
ATOM     52  C   UNL A   1      41.549  28.657  31.477  1.00  0.00     0.049 A 
ATOM     53  C   UNL A   1      40.855  32.098  35.853  1.00  0.00     0.074 A 
ATOM     54  C   UNL A   1      42.604  27.763  31.555  1.00  0.00     0.029 A 
ATOM     55  N   UNL A   1      41.554  29.377  32.664  1.00  0.00    -0.354 N 
ATOM     56  N   UNL A   1      41.134  31.226  34.912  1.00  0.00    -0.248 NA
ATOM     57  C   UNL A   1      41.710  31.995  37.042  1.00  0.00     0.031 C 
ATOM     58  C   UNL A   1      43.209  27.903  32.809  1.00  0.00     0.029 A 
ATOM     59  C   UNL A   1      42.575  28.930  33.491  1.00  0.00     0.049 A 
ATOM     60  H   UNL A   1      40.924  30.101  32.887  1.00  0.00     0.167 HD
ATOM     61  C   UNL A   1      42.217  30.493  35.386  1.00  0.00     0.074 A 
ATOM     62  C   UNL A   1      42.545  31.031  36.690  1.00  0.00     0.031 C 
ATOM     63  C   UNL A   1      42.883  29.469  34.793  1.00  0.00     0.034 A 
BRANCH  50  64
ATOM     64  C   UNL A   1      40.654  27.904  29.219  1.00  0.00     0.023 A 
ATOM     65  C   UNL A   1      41.581  28.084  28.177  1.00  0.00     0.031 A 
ATOM     66  C   UNL A   1      39.743  26.839  29.111  1.00  0.00     0.131 A 
ATOM     67  C   UNL A   1      41.524  27.266  27.039  1.00  0.00     0.055 A 
ATOM     68  C   UNL A   1      39.745  25.976  28.013  1.00  0.00     0.041 A 
ATOM     69  F   UNL A   1      38.823  26.627  30.066  1.00  0.00    -0.206 F 
ATOM     70  C   UNL A   1      40.628  26.198  26.960  1.00  0.00     0.022 A 
BRANCH  67  71
ATOM     71  S   UNL A   1      42.540  27.709  25.604  1.00  0.00     0.124 S 
ATOM     72  O   UNL A   1      41.918  28.960  25.178  1.00  0.00    -0.237 OA
ATOM     73  O   UNL A   1      43.873  27.822  26.183  1.00  0.00    -0.237 OA
ATOM     74  O   UNL A   1      42.350  26.585  24.688  1.00  0.00    -0.744 OA
ENDBRANCH  67  71
ENDBRANCH  50  64
BRANCH  51  75
ATOM     75  C   UNL A   1      39.609  34.034  37.068  1.00  0.00     0.023 A 
ATOM     76  C   UNL A   1      38.990  33.538  38.225  1.00  0.00     0.031 A 
ATOM     77  C   UNL A   1      40.015  35.379  37.060  1.00  0.00     0.131 A 
ATOM     78  C   UNL A   1      38.754  34.392  39.313  1.00  0.00     0.055 A 
ATOM     79  C   UNL A   1      39.818  36.215  38.161  1.00  0.00     0.041 A 
ATOM     80  F   UNL A   1      40.619  35.900  35.980  1.00  0.00    -0.206 F 
ATOM     81  C   UNL A   1      39.172  35.725  39.292  1.00  0.00     0.022 A 
BRANCH  78  82
ATOM     82  S   UNL A   1      37.820  33.754  40.731  1.00  0.00     0.124 S 
ATOM     83  O   UNL A   1      38.800  32.881  41.366  1.00  0.00    -0.237 OA
ATOM     84  O   UNL A   1      37.489  34.980  41.450  1.00  0.00    -0.237 OA
ATOM     85  O   UNL A   1      36.685  33.073  40.111  1.00  0.00    -0.744 OA
ENDBRANCH  78  82
ENDBRANCH  51  75
BRANCH  63  86
ATOM     86  C   UNL A   1      44.064  28.903  35.541  1.00  0.00     0.023 A 
ATOM     87  C   UNL A   1      43.934  27.805  36.409  1.00  0.00     0.031 A 
ATOM     88  C   UNL A   1      45.337  29.485  35.393  1.00  0.00     0.131 A 
ATOM     89  C   UNL A   1      45.046  27.355  37.136  1.00  0.00     0.055 A 
ATOM     90  C   UNL A   1      46.450  28.998  36.078  1.00  0.00     0.041 A 
ATOM     91  F   UNL A   1      45.516  30.537  34.578  1.00  0.00    -0.206 F 
ATOM     92  C   UNL A   1      46.305  27.935  36.966  1.00  0.00     0.022 A 
BRANCH  89  93
ATOM     93  S   UNL A   1      44.808  26.049  38.372  1.00  0.00     0.124 S 
ATOM     94  O   UNL A   1      46.148  25.916  38.936  1.00  0.00    -0.237 OA
ATOM     95  O   UNL A   1      43.801  26.629  39.252  1.00  0.00    -0.237 OA
ATOM     96  O   UNL A   1      44.354  24.906  37.580  1.00  0.00    -0.744 OA
ENDBRANCH  89  93
ENDBRANCH  63  86
ENDBRANCH  37  38
ENDBRANCH  29  32
ENDBRANCH  27  28
ENDBRANCH   1  27
TORSDOF 16
ENDMDL
