MODEL 1
REMARK VINA RESULT:     -12.3      0.000      0.000
REMARK SMILES O=C(NCCCCNC(=O)C1(CCc2ccccn2)CCCCC1)c1ccc(-c2c3nc(c(-c4cc(S(=O)(=O)[O-])ccc4F)c4ccc([nH]4)c(-c4cc(S(=O)(=O)[O-])ccc4F)c4nc(c(-c5cc(S(=O)(=O)[O-])ccc5F)c5ccc2[nH]5)C=C4)C=C3)cc1
REMARK SMILES IDX 5 1 4 2 3 3 1 4 2 5 25 7 26 8 87 9 27 10 86 11 28 12 29 13
REMARK SMILES IDX 30 14 80 15 31 16 85 17 79 18 81 19 32 20 84 21 78 22 77 23
REMARK SMILES IDX 33 25 65 26 45 27 64 28 46 29 49 30 63 31 82 32 47 33 48 34
REMARK SMILES IDX 62 36 83 37 50 38 34 39 35 40 43 41 36 42 42 43 44 44 41 45
REMARK SMILES IDX 37 46 38 47 39 48 40 49 66 50 67 51 75 52 68 53 74 54 76 55
REMARK SMILES IDX 73 56 69 57 70 58 71 59 72 60 51 61 52 62 60 63 53 64 59 65
REMARK SMILES IDX 61 66 58 67 54 68 55 69 56 70 57 71 6 72 7 73 8 74 9 75
REMARK SMILES IDX 10 77 11 78 20 79 24 80 21 81 23 82 22 83 12 84 13 85 14 86
REMARK SMILES IDX 15 87 19 88 16 89 18 90 17 91
REMARK H PARENT 3 6 81 24 49 35 8 76
REMARK Flexibility Score: inf
ROOT
ATOM      1  C   UNL A   1      35.890  22.506  23.978  1.00  0.00     0.023 C 
ENDROOT
BRANCH   1   2
ATOM      2  C   UNL A   1      36.543  22.262  25.334  1.00  0.00     0.116 C 
BRANCH   2   3
ATOM      3  N   UNL A   1      37.430  21.104  25.371  1.00  0.00    -0.352 N 
ATOM      4  O   UNL A   1      39.385  20.025  25.754  1.00  0.00    -0.269 OA
ATOM      5  C   UNL A   1      38.725  21.048  25.844  1.00  0.00     0.251 C 
ATOM      6  H   UNL A   1      37.060  20.263  25.020  1.00  0.00     0.163 HD
BRANCH   5   7
ATOM      7  C   UNL A   1      39.303  22.277  26.425  1.00  0.00     0.039 A 
ATOM      8  C   UNL A   1      38.821  23.522  26.018  1.00  0.00     0.014 A 
ATOM      9  C   UNL A   1      40.391  22.181  27.294  1.00  0.00     0.014 A 
ATOM     10  C   UNL A   1      39.532  24.665  26.351  1.00  0.00     0.010 A 
ATOM     11  C   UNL A   1      41.048  23.345  27.704  1.00  0.00     0.010 A 
ATOM     12  C   UNL A   1      40.648  24.593  27.203  1.00  0.00    -0.014 A 
BRANCH  12  13
ATOM     13  C   UNL A   1      41.335  25.855  27.580  1.00  0.00     0.031 A 
ATOM     14  C   UNL A   1      42.713  26.178  27.075  1.00  0.00     0.074 A 
ATOM     15  C   UNL A   1      40.655  26.743  28.330  1.00  0.00     0.049 A 
ATOM     16  N   UNL A   1      43.427  27.258  27.267  1.00  0.00    -0.248 NA
ATOM     17  C   UNL A   1      43.384  25.156  26.258  1.00  0.00     0.031 C 
ATOM     18  C   UNL A   1      39.313  26.521  28.880  1.00  0.00     0.029 A 
ATOM     19  N   UNL A   1      40.970  28.014  28.733  1.00  0.00    -0.354 N 
ATOM     20  C   UNL A   1      44.632  27.047  26.606  1.00  0.00     0.074 A 
ATOM     21  C   UNL A   1      44.565  25.717  26.036  1.00  0.00     0.031 C 
ATOM     22  C   UNL A   1      38.897  27.638  29.490  1.00  0.00     0.029 A 
ATOM     23  C   UNL A   1      39.966  28.628  29.444  1.00  0.00     0.049 A 
ATOM     24  H   UNL A   1      41.832  28.445  28.533  1.00  0.00     0.167 HD
ATOM     25  C   UNL A   1      45.690  27.888  26.483  1.00  0.00     0.034 A 
ATOM     26  C   UNL A   1      39.914  29.848  30.012  1.00  0.00     0.034 A 
ATOM     27  C   UNL A   1      45.735  29.211  27.063  1.00  0.00     0.049 A 
ATOM     28  C   UNL A   1      41.102  30.756  29.863  1.00  0.00     0.074 A 
ATOM     29  C   UNL A   1      46.757  30.145  27.012  1.00  0.00     0.029 A 
ATOM     30  N   UNL A   1      44.711  29.791  27.804  1.00  0.00    -0.354 N 
ATOM     31  N   UNL A   1      42.237  30.532  29.242  1.00  0.00    -0.248 NA
ATOM     32  C   UNL A   1      40.999  32.080  30.484  1.00  0.00     0.031 C 
ATOM     33  C   UNL A   1      46.373  31.264  27.762  1.00  0.00     0.029 A 
ATOM     34  C   UNL A   1      45.085  31.059  28.227  1.00  0.00     0.049 A 
ATOM     35  H   UNL A   1      43.847  29.364  28.000  1.00  0.00     0.167 HD
ATOM     36  C   UNL A   1      42.986  31.693  29.399  1.00  0.00     0.074 A 
ATOM     37  C   UNL A   1      42.154  32.625  30.134  1.00  0.00     0.031 C 
ATOM     38  C   UNL A   1      44.251  31.962  28.985  1.00  0.00     0.034 A 
BRANCH  25  39
ATOM     39  C   UNL A   1      46.897  27.386  25.725  1.00  0.00     0.023 A 
ATOM     40  C   UNL A   1      47.158  27.784  24.402  1.00  0.00     0.031 A 
ATOM     41  C   UNL A   1      47.797  26.491  26.332  1.00  0.00     0.131 A 
ATOM     42  C   UNL A   1      48.256  27.245  23.712  1.00  0.00     0.055 A 
ATOM     43  C   UNL A   1      48.926  26.013  25.663  1.00  0.00     0.041 A 
ATOM     44  F   UNL A   1      47.591  26.060  27.587  1.00  0.00    -0.206 F 
ATOM     45  C   UNL A   1      49.155  26.381  24.341  1.00  0.00     0.022 A 
BRANCH  42  46
ATOM     46  S   UNL A   1      48.427  27.598  21.940  1.00  0.00     0.124 S 
ATOM     47  O   UNL A   1      49.572  28.505  21.929  1.00  0.00    -0.237 OA
ATOM     48  O   UNL A   1      48.656  26.274  21.374  1.00  0.00    -0.237 OA
ATOM     49  O   UNL A   1      47.149  28.215  21.588  1.00  0.00    -0.744 OA
ENDBRANCH  42  46
ENDBRANCH  25  39
BRANCH  26  50
ATOM     50  C   UNL A   1      38.718  30.254  30.800  1.00  0.00     0.023 A 
ATOM     51  C   UNL A   1      37.662  30.965  30.211  1.00  0.00     0.031 A 
ATOM     52  C   UNL A   1      38.624  29.946  32.170  1.00  0.00     0.131 A 
ATOM     53  C   UNL A   1      36.576  31.380  30.998  1.00  0.00     0.055 A 
ATOM     54  C   UNL A   1      37.516  30.310  32.935  1.00  0.00     0.041 A 
ATOM     55  F   UNL A   1      39.605  29.261  32.781  1.00  0.00    -0.206 F 
ATOM     56  C   UNL A   1      36.490  31.044  32.352  1.00  0.00     0.022 A 
BRANCH  53  57
ATOM     57  S   UNL A   1      35.315  32.444  30.246  1.00  0.00     0.124 S 
ATOM     58  O   UNL A   1      34.393  32.647  31.358  1.00  0.00    -0.237 OA
ATOM     59  O   UNL A   1      36.101  33.605  29.845  1.00  0.00    -0.237 OA
ATOM     60  O   UNL A   1      34.797  31.632  29.148  1.00  0.00    -0.744 OA
ENDBRANCH  53  57
ENDBRANCH  26  50
BRANCH  38  61
ATOM     61  C   UNL A   1      44.784  33.331  29.321  1.00  0.00     0.023 A 
ATOM     62  C   UNL A   1      44.702  34.394  28.403  1.00  0.00     0.031 A 
ATOM     63  C   UNL A   1      45.433  33.562  30.546  1.00  0.00     0.131 A 
ATOM     64  C   UNL A   1      45.324  35.616  28.694  1.00  0.00     0.055 A 
ATOM     65  C   UNL A   1      45.996  34.800  30.855  1.00  0.00     0.041 A 
ATOM     66  F   UNL A   1      45.541  32.581  31.456  1.00  0.00    -0.206 F 
ATOM     67  C   UNL A   1      45.958  35.831  29.919  1.00  0.00     0.022 A 
BRANCH  64  68
ATOM     68  S   UNL A   1      45.391  36.885  27.399  1.00  0.00     0.124 S 
ATOM     69  O   UNL A   1      45.746  36.099  26.222  1.00  0.00    -0.237 OA
ATOM     70  O   UNL A   1      44.034  37.423  27.419  1.00  0.00    -0.237 OA
ATOM     71  O   UNL A   1      46.428  37.800  27.869  1.00  0.00    -0.744 OA
ENDBRANCH  64  68
ENDBRANCH  38  61
ENDBRANCH  12  13
ENDBRANCH   5   7
ENDBRANCH   2   3
ENDBRANCH   1   2
BRANCH   1  72
ATOM     72  C   UNL A   1      35.035  23.767  23.882  1.00  0.00     0.023 C 
BRANCH  72  73
ATOM     73  C   UNL A   1      33.537  23.508  23.801  1.00  0.00     0.116 C 
BRANCH  73  74
ATOM     74  N   UNL A   1      32.868  24.347  22.824  1.00  0.00    -0.356 N 
ATOM     75  C   UNL A   1      33.136  25.679  22.679  1.00  0.00     0.226 C 
ATOM     76  H   UNL A   1      32.191  23.937  22.238  1.00  0.00     0.163 HD
ATOM     77  O   UNL A   1      33.691  26.041  21.637  1.00  0.00    -0.274 OA
BRANCH  75  78
ATOM     78  C   UNL A   1      32.608  26.712  23.713  1.00  0.00     0.050 C 
ATOM     79  C   UNL A   1      31.613  26.098  24.732  1.00  0.00     0.017 C 
ATOM     80  C   UNL A   1      33.848  27.212  24.508  1.00  0.00     0.017 C 
ATOM     81  C   UNL A   1      31.267  26.998  25.917  1.00  0.00     0.001 C 
ATOM     82  C   UNL A   1      33.519  28.092  25.711  1.00  0.00     0.001 C 
ATOM     83  C   UNL A   1      32.531  27.416  26.653  1.00  0.00     0.000 C 
BRANCH  78  84
ATOM     84  C   UNL A   1      31.873  27.859  22.944  1.00  0.00     0.023 C 
BRANCH  84  85
ATOM     85  C   UNL A   1      30.475  27.579  22.362  1.00  0.00     0.057 C 
BRANCH  85  86
ATOM     86  C   UNL A   1      29.521  28.744  22.380  1.00  0.00     0.040 A 
ATOM     87  C   UNL A   1      28.339  28.675  23.114  1.00  0.00     0.024 A 
ATOM     88  N   UNL A   1      29.842  29.819  21.619  1.00  0.00    -0.261 NA
ATOM     89  C   UNL A   1      27.476  29.768  23.105  1.00  0.00     0.003 A 
ATOM     90  C   UNL A   1      28.985  30.865  21.631  1.00  0.00     0.111 A 
ATOM     91  C   UNL A   1      27.806  30.888  22.354  1.00  0.00     0.020 A 
ENDBRANCH  85  86
ENDBRANCH  84  85
ENDBRANCH  78  84
ENDBRANCH  75  78
ENDBRANCH  73  74
ENDBRANCH  72  73
ENDBRANCH   1  72
TORSDOF 17
ENDMDL
MODEL 2
REMARK VINA RESULT:     -12.2      1.505      1.674
REMARK SMILES O=C(NCCCCNC(=O)C1(CCc2ccccn2)CCCCC1)c1ccc(-c2c3nc(c(-c4cc(S(=O)(=O)[O-])ccc4F)c4ccc([nH]4)c(-c4cc(S(=O)(=O)[O-])ccc4F)c4nc(c(-c5cc(S(=O)(=O)[O-])ccc5F)c5ccc2[nH]5)C=C4)C=C3)cc1
REMARK SMILES IDX 5 1 4 2 3 3 1 4 2 5 25 7 26 8 87 9 27 10 86 11 28 12 29 13
REMARK SMILES IDX 30 14 80 15 31 16 85 17 79 18 81 19 32 20 84 21 78 22 77 23
REMARK SMILES IDX 33 25 65 26 45 27 64 28 46 29 49 30 63 31 82 32 47 33 48 34
REMARK SMILES IDX 62 36 83 37 50 38 34 39 35 40 43 41 36 42 42 43 44 44 41 45
REMARK SMILES IDX 37 46 38 47 39 48 40 49 66 50 67 51 75 52 68 53 74 54 76 55
REMARK SMILES IDX 73 56 69 57 70 58 71 59 72 60 51 61 52 62 60 63 53 64 59 65
REMARK SMILES IDX 61 66 58 67 54 68 55 69 56 70 57 71 6 72 7 73 8 74 9 75
REMARK SMILES IDX 10 77 11 78 20 79 24 80 21 81 23 82 22 83 12 84 13 85 14 86
REMARK SMILES IDX 15 87 19 88 16 89 18 90 17 91
REMARK H PARENT 3 6 81 24 49 35 8 76
REMARK Flexibility Score: inf
ROOT
ATOM      1  C   UNL A   1      35.570  22.576  24.285  1.00  0.00     0.023 C 
ENDROOT
BRANCH   1   2
ATOM      2  C   UNL A   1      36.440  22.392  25.524  1.00  0.00     0.116 C 
BRANCH   2   3
ATOM      3  N   UNL A   1      37.350  21.254  25.453  1.00  0.00    -0.352 N 
ATOM      4  O   UNL A   1      39.345  20.203  25.671  1.00  0.00    -0.269 OA
ATOM      5  C   UNL A   1      38.671  21.205  25.849  1.00  0.00     0.251 C 
ATOM      6  H   UNL A   1      36.978  20.423  25.079  1.00  0.00     0.163 HD
BRANCH   5   7
ATOM      7  C   UNL A   1      39.256  22.416  26.460  1.00  0.00     0.039 A 
ATOM      8  C   UNL A   1      38.844  23.675  26.021  1.00  0.00     0.014 A 
ATOM      9  C   UNL A   1      40.287  22.286  27.393  1.00  0.00     0.014 A 
ATOM     10  C   UNL A   1      39.573  24.794  26.393  1.00  0.00     0.010 A 
ATOM     11  C   UNL A   1      40.959  23.428  27.837  1.00  0.00     0.010 A 
ATOM     12  C   UNL A   1      40.633  24.687  27.310  1.00  0.00    -0.014 A 
BRANCH  12  13
ATOM     13  C   UNL A   1      41.340  25.926  27.723  1.00  0.00     0.031 A 
ATOM     14  C   UNL A   1      42.752  26.205  27.287  1.00  0.00     0.074 A 
ATOM     15  C   UNL A   1      40.653  26.835  28.441  1.00  0.00     0.049 A 
ATOM     16  N   UNL A   1      43.489  27.262  27.516  1.00  0.00    -0.248 NA
ATOM     17  C   UNL A   1      43.429  25.163  26.502  1.00  0.00     0.031 C 
ATOM     18  C   UNL A   1      39.279  26.655  28.924  1.00  0.00     0.029 A 
ATOM     19  N   UNL A   1      40.988  28.094  28.862  1.00  0.00    -0.354 N 
ATOM     20  C   UNL A   1      44.718  27.013  26.916  1.00  0.00     0.074 A 
ATOM     21  C   UNL A   1      44.637  25.686  26.340  1.00  0.00     0.031 C 
ATOM     22  C   UNL A   1      38.870  27.785  29.515  1.00  0.00     0.029 A 
ATOM     23  C   UNL A   1      39.970  28.740  29.523  1.00  0.00     0.049 A 
ATOM     24  H   UNL A   1      41.872  28.498  28.705  1.00  0.00     0.167 HD
ATOM     25  C   UNL A   1      45.807  27.820  26.846  1.00  0.00     0.034 A 
ATOM     26  C   UNL A   1      39.929  29.960  30.091  1.00  0.00     0.034 A 
ATOM     27  C   UNL A   1      45.866  29.141  27.432  1.00  0.00     0.049 A 
ATOM     28  C   UNL A   1      41.151  30.831  30.003  1.00  0.00     0.074 A 
ATOM     29  C   UNL A   1      46.918  30.041  27.433  1.00  0.00     0.029 A 
ATOM     30  N   UNL A   1      44.825  29.752  28.123  1.00  0.00    -0.354 N 
ATOM     31  N   UNL A   1      42.308  30.570  29.438  1.00  0.00    -0.248 NA
ATOM     32  C   UNL A   1      41.060  32.157  30.621  1.00  0.00     0.031 C 
ATOM     33  C   UNL A   1      46.533  31.171  28.166  1.00  0.00     0.029 A 
ATOM     34  C   UNL A   1      45.218  31.007  28.567  1.00  0.00     0.049 A 
ATOM     35  H   UNL A   1      43.939  29.353  28.275  1.00  0.00     0.167 HD
ATOM     36  C   UNL A   1      43.085  31.707  29.635  1.00  0.00     0.074 A 
ATOM     37  C   UNL A   1      42.247  32.665  30.330  1.00  0.00     0.031 C 
ATOM     38  C   UNL A   1      44.376  31.936  29.284  1.00  0.00     0.034 A 
BRANCH  25  39
ATOM     39  C   UNL A   1      47.034  27.280  26.149  1.00  0.00     0.023 A 
ATOM     40  C   UNL A   1      48.013  26.544  26.838  1.00  0.00     0.031 A 
ATOM     41  C   UNL A   1      47.232  27.513  24.775  1.00  0.00     0.131 A 
ATOM     42  C   UNL A   1      49.169  26.115  26.167  1.00  0.00     0.055 A 
ATOM     43  C   UNL A   1      48.351  27.023  24.098  1.00  0.00     0.041 A 
ATOM     44  F   UNL A   1      46.341  28.226  24.067  1.00  0.00    -0.206 F 
ATOM     45  C   UNL A   1      49.334  26.329  24.796  1.00  0.00     0.022 A 
BRANCH  42  46
ATOM     46  S   UNL A   1      50.513  25.374  27.136  1.00  0.00     0.124 S 
ATOM     47  O   UNL A   1      49.797  24.358  27.904  1.00  0.00    -0.237 OA
ATOM     48  O   UNL A   1      51.413  24.878  26.102  1.00  0.00    -0.237 OA
ATOM     49  O   UNL A   1      51.025  26.494  27.925  1.00  0.00    -0.744 OA
ENDBRANCH  42  46
ENDBRANCH  25  39
BRANCH  26  50
ATOM     50  C   UNL A   1      38.709  30.404  30.820  1.00  0.00     0.023 A 
ATOM     51  C   UNL A   1      37.662  31.063  30.159  1.00  0.00     0.031 A 
ATOM     52  C   UNL A   1      38.582  30.186  32.205  1.00  0.00     0.131 A 
ATOM     53  C   UNL A   1      36.552  31.517  30.889  1.00  0.00     0.055 A 
ATOM     54  C   UNL A   1      37.452  30.587  32.916  1.00  0.00     0.041 A 
ATOM     55  F   UNL A   1      39.554  29.554  32.884  1.00  0.00    -0.206 F 
ATOM     56  C   UNL A   1      36.434  31.269  32.259  1.00  0.00     0.022 A 
BRANCH  53  57
ATOM     57  S   UNL A   1      35.300  32.513  30.037  1.00  0.00     0.124 S 
ATOM     58  O   UNL A   1      34.386  32.840  31.125  1.00  0.00    -0.237 OA
ATOM     59  O   UNL A   1      36.098  33.618  29.517  1.00  0.00    -0.237 OA
ATOM     60  O   UNL A   1      34.768  31.601  29.028  1.00  0.00    -0.744 OA
ENDBRANCH  53  57
ENDBRANCH  26  50
BRANCH  38  61
ATOM     61  C   UNL A   1      44.936  33.287  29.649  1.00  0.00     0.023 A 
ATOM     62  C   UNL A   1      44.847  34.379  28.766  1.00  0.00     0.031 A 
ATOM     63  C   UNL A   1      45.616  33.471  30.865  1.00  0.00     0.131 A 
ATOM     64  C   UNL A   1      45.491  35.584  29.080  1.00  0.00     0.055 A 
ATOM     65  C   UNL A   1      46.203  34.692  31.198  1.00  0.00     0.041 A 
ATOM     66  F   UNL A   1      45.732  32.461  31.742  1.00  0.00    -0.206 F 
ATOM     67  C   UNL A   1      46.157  35.752  30.296  1.00  0.00     0.022 A 
BRANCH  64  68
ATOM     68  S   UNL A   1      45.545  36.891  27.824  1.00  0.00     0.124 S 
ATOM     69  O   UNL A   1      46.311  36.256  26.757  1.00  0.00    -0.237 OA
ATOM     70  O   UNL A   1      44.130  37.114  27.545  1.00  0.00    -0.237 OA
ATOM     71  O   UNL A   1      46.224  37.992  28.503  1.00  0.00    -0.744 OA
ENDBRANCH  64  68
ENDBRANCH  38  61
ENDBRANCH  12  13
ENDBRANCH   5   7
ENDBRANCH   2   3
ENDBRANCH   1   2
BRANCH   1  72
ATOM     72  C   UNL A   1      34.930  23.954  24.134  1.00  0.00     0.023 C 
BRANCH  72  73
ATOM     73  C   UNL A   1      33.409  23.951  24.187  1.00  0.00     0.116 C 
BRANCH  73  74
ATOM     74  N   UNL A   1      32.804  24.737  23.128  1.00  0.00    -0.356 N 
ATOM     75  C   UNL A   1      33.169  26.026  22.855  1.00  0.00     0.226 C 
ATOM     76  H   UNL A   1      32.098  24.323  22.581  1.00  0.00     0.163 HD
ATOM     77  O   UNL A   1      33.749  26.241  21.786  1.00  0.00    -0.274 OA
BRANCH  75  78
ATOM     78  C   UNL A   1      32.720  27.191  23.780  1.00  0.00     0.050 C 
ATOM     79  C   UNL A   1      31.657  26.763  24.825  1.00  0.00     0.017 C 
ATOM     80  C   UNL A   1      33.987  27.650  24.556  1.00  0.00     0.017 C 
ATOM     81  C   UNL A   1      31.374  27.795  25.916  1.00  0.00     0.001 C 
ATOM     82  C   UNL A   1      33.719  28.663  25.667  1.00  0.00     0.001 C 
ATOM     83  C   UNL A   1      32.659  28.165  26.642  1.00  0.00     0.000 C 
BRANCH  78  84
ATOM     84  C   UNL A   1      32.104  28.324  22.893  1.00  0.00     0.023 C 
BRANCH  84  85
ATOM     85  C   UNL A   1      30.639  28.187  22.435  1.00  0.00     0.057 C 
BRANCH  85  86
ATOM     86  C   UNL A   1      29.826  29.453  22.482  1.00  0.00     0.040 A 
ATOM     87  C   UNL A   1      29.717  30.176  23.668  1.00  0.00     0.024 A 
ATOM     88  N   UNL A   1      29.178  29.815  21.348  1.00  0.00    -0.261 NA
ATOM     89  C   UNL A   1      28.952  31.340  23.679  1.00  0.00     0.003 A 
ATOM     90  C   UNL A   1      28.443  30.950  21.389  1.00  0.00     0.111 A 
ATOM     91  C   UNL A   1      28.306  31.740  22.516  1.00  0.00     0.020 A 
ENDBRANCH  85  86
ENDBRANCH  84  85
ENDBRANCH  78  84
ENDBRANCH  75  78
ENDBRANCH  73  74
ENDBRANCH  72  73
ENDBRANCH   1  72
TORSDOF 17
ENDMDL
MODEL 3
REMARK VINA RESULT:     -12.1      5.326     10.513
REMARK SMILES O=C(NCCCCNC(=O)C1(CCc2ccccn2)CCCCC1)c1ccc(-c2c3nc(c(-c4cc(S(=O)(=O)[O-])ccc4F)c4ccc([nH]4)c(-c4cc(S(=O)(=O)[O-])ccc4F)c4nc(c(-c5cc(S(=O)(=O)[O-])ccc5F)c5ccc2[nH]5)C=C4)C=C3)cc1
REMARK SMILES IDX 5 1 4 2 3 3 1 4 2 5 25 7 26 8 87 9 27 10 86 11 28 12 29 13
REMARK SMILES IDX 30 14 80 15 31 16 85 17 79 18 81 19 32 20 84 21 78 22 77 23
REMARK SMILES IDX 33 25 65 26 45 27 64 28 46 29 49 30 63 31 82 32 47 33 48 34
REMARK SMILES IDX 62 36 83 37 50 38 34 39 35 40 43 41 36 42 42 43 44 44 41 45
REMARK SMILES IDX 37 46 38 47 39 48 40 49 66 50 67 51 75 52 68 53 74 54 76 55
REMARK SMILES IDX 73 56 69 57 70 58 71 59 72 60 51 61 52 62 60 63 53 64 59 65
REMARK SMILES IDX 61 66 58 67 54 68 55 69 56 70 57 71 6 72 7 73 8 74 9 75
REMARK SMILES IDX 10 77 11 78 20 79 24 80 21 81 23 82 22 83 12 84 13 85 14 86
REMARK SMILES IDX 15 87 19 88 16 89 18 90 17 91
REMARK H PARENT 3 6 81 24 49 35 8 76
REMARK Flexibility Score: inf
ROOT
ATOM      1  C   UNL A   1      31.526  31.691  26.654  1.00  0.00     0.023 C 
ENDROOT
BRANCH   1   2
ATOM      2  C   UNL A   1      32.758  32.564  26.869  1.00  0.00     0.116 C 
BRANCH   2   3
ATOM      3  N   UNL A   1      32.497  33.796  27.605  1.00  0.00    -0.352 N 
ATOM      4  O   UNL A   1      32.868  35.342  29.220  1.00  0.00    -0.269 OA
ATOM      5  C   UNL A   1      33.236  34.332  28.640  1.00  0.00     0.251 C 
ATOM      6  H   UNL A   1      31.702  34.306  27.330  1.00  0.00     0.163 HD
BRANCH   5   7
ATOM      7  C   UNL A   1      34.464  33.624  29.054  1.00  0.00     0.039 A 
ATOM      8  C   UNL A   1      34.362  32.441  29.787  1.00  0.00     0.014 A 
ATOM      9  C   UNL A   1      35.710  34.199  28.795  1.00  0.00     0.014 A 
ATOM     10  C   UNL A   1      35.493  31.924  30.400  1.00  0.00     0.010 A 
ATOM     11  C   UNL A   1      36.860  33.621  29.340  1.00  0.00     0.010 A 
ATOM     12  C   UNL A   1      36.755  32.501  30.179  1.00  0.00    -0.014 A 
BRANCH  12  13
ATOM     13  C   UNL A   1      37.943  31.870  30.810  1.00  0.00     0.031 A 
ATOM     14  C   UNL A   1      38.329  32.172  32.231  1.00  0.00     0.074 A 
ATOM     15  C   UNL A   1      38.627  30.957  30.093  1.00  0.00     0.049 A 
ATOM     16  N   UNL A   1      39.303  31.664  32.943  1.00  0.00    -0.248 NA
ATOM     17  C   UNL A   1      37.528  33.177  32.944  1.00  0.00     0.031 C 
ATOM     18  C   UNL A   1      38.339  30.600  28.699  1.00  0.00     0.029 A 
ATOM     19  N   UNL A   1      39.672  30.140  30.434  1.00  0.00    -0.354 N 
ATOM     20  C   UNL A   1      39.242  32.292  34.183  1.00  0.00     0.074 A 
ATOM     21  C   UNL A   1      38.153  33.245  34.112  1.00  0.00     0.031 C 
ATOM     22  C   UNL A   1      39.142  29.595  28.329  1.00  0.00     0.029 A 
ATOM     23  C   UNL A   1      40.051  29.286  29.425  1.00  0.00     0.049 A 
ATOM     24  H   UNL A   1      40.109  30.162  31.316  1.00  0.00     0.167 HD
ATOM     25  C   UNL A   1      40.017  32.085  35.277  1.00  0.00     0.034 A 
ATOM     26  C   UNL A   1      41.033  28.367  29.378  1.00  0.00     0.034 A 
ATOM     27  C   UNL A   1      41.101  31.130  35.323  1.00  0.00     0.049 A 
ATOM     28  C   UNL A   1      41.880  28.162  30.603  1.00  0.00     0.074 A 
ATOM     29  C   UNL A   1      41.960  30.844  36.372  1.00  0.00     0.029 A 
ATOM     30  N   UNL A   1      41.479  30.302  34.272  1.00  0.00    -0.354 N 
ATOM     31  N   UNL A   1      41.812  28.775  31.763  1.00  0.00    -0.248 NA
ATOM     32  C   UNL A   1      42.929  27.142  30.515  1.00  0.00     0.031 C 
ATOM     33  C   UNL A   1      42.884  29.885  35.940  1.00  0.00     0.029 A 
ATOM     34  C   UNL A   1      42.564  29.520  34.642  1.00  0.00     0.049 A 
ATOM     35  H   UNL A   1      41.040  30.274  33.392  1.00  0.00     0.167 HD
ATOM     36  C   UNL A   1      42.813  28.210  32.545  1.00  0.00     0.074 A 
ATOM     37  C   UNL A   1      43.437  27.181  31.737  1.00  0.00     0.031 C 
ATOM     38  C   UNL A   1      43.191  28.520  33.811  1.00  0.00     0.034 A 
BRANCH  25  39
ATOM     39  C   UNL A   1      39.747  32.935  36.496  1.00  0.00     0.023 A 
ATOM     40  C   UNL A   1      38.929  32.483  37.547  1.00  0.00     0.031 A 
ATOM     41  C   UNL A   1      40.308  34.220  36.607  1.00  0.00     0.131 A 
ATOM     42  C   UNL A   1      38.651  33.329  38.633  1.00  0.00     0.055 A 
ATOM     43  C   UNL A   1      40.084  35.030  37.724  1.00  0.00     0.041 A 
ATOM     44  F   UNL A   1      41.082  34.715  35.628  1.00  0.00    -0.206 F 
ATOM     45  C   UNL A   1      39.242  34.589  38.740  1.00  0.00     0.022 A 
BRANCH  42  46
ATOM     46  S   UNL A   1      37.410  32.802  39.848  1.00  0.00     0.124 S 
ATOM     47  O   UNL A   1      36.223  32.649  39.011  1.00  0.00    -0.237 OA
ATOM     48  O   UNL A   1      37.986  31.569  40.373  1.00  0.00    -0.237 OA
ATOM     49  O   UNL A   1      37.359  33.918  40.792  1.00  0.00    -0.744 OA
ENDBRANCH  42  46
ENDBRANCH  25  39
BRANCH  26  50
ATOM     50  C   UNL A   1      41.287  27.609  28.122  1.00  0.00     0.023 A 
ATOM     51  C   UNL A   1      40.961  26.250  28.009  1.00  0.00     0.031 A 
ATOM     52  C   UNL A   1      41.882  28.239  27.012  1.00  0.00     0.131 A 
ATOM     53  C   UNL A   1      41.266  25.554  26.829  1.00  0.00     0.055 A 
ATOM     54  C   UNL A   1      42.131  27.559  25.821  1.00  0.00     0.041 A 
ATOM     55  F   UNL A   1      42.208  29.541  27.066  1.00  0.00    -0.206 F 
ATOM     56  C   UNL A   1      41.834  26.204  25.730  1.00  0.00     0.022 A 
BRANCH  53  57
ATOM     57  S   UNL A   1      40.989  23.763  26.779  1.00  0.00     0.124 S 
ATOM     58  O   UNL A   1      41.281  23.377  28.155  1.00  0.00    -0.237 OA
ATOM     59  O   UNL A   1      39.589  23.686  26.376  1.00  0.00    -0.237 OA
ATOM     60  O   UNL A   1      41.951  23.298  25.784  1.00  0.00    -0.744 OA
ENDBRANCH  53  57
ENDBRANCH  26  50
BRANCH  38  61
ATOM     61  C   UNL A   1      44.330  27.714  34.382  1.00  0.00     0.023 A 
ATOM     62  C   UNL A   1      44.105  26.479  35.018  1.00  0.00     0.031 A 
ATOM     63  C   UNL A   1      45.644  28.210  34.343  1.00  0.00     0.131 A 
ATOM     64  C   UNL A   1      45.166  25.819  35.653  1.00  0.00     0.055 A 
ATOM     65  C   UNL A   1      46.707  27.518  34.923  1.00  0.00     0.041 A 
ATOM     66  F   UNL A   1      45.912  29.385  33.750  1.00  0.00    -0.206 F 
ATOM     67  C   UNL A   1      46.468  26.323  35.598  1.00  0.00     0.022 A 
BRANCH  64  68
ATOM     68  S   UNL A   1      44.801  24.349  36.651  1.00  0.00     0.124 S 
ATOM     69  O   UNL A   1      46.128  23.773  36.840  1.00  0.00    -0.237 OA
ATOM     70  O   UNL A   1      44.183  24.925  37.841  1.00  0.00    -0.237 OA
ATOM     71  O   UNL A   1      43.903  23.571  35.800  1.00  0.00    -0.744 OA
ENDBRANCH  64  68
ENDBRANCH  38  61
ENDBRANCH  12  13
ENDBRANCH   5   7
ENDBRANCH   2   3
ENDBRANCH   1   2
BRANCH   1  72
ATOM     72  C   UNL A   1      31.809  30.215  26.386  1.00  0.00     0.023 C 
BRANCH  72  73
ATOM     73  C   UNL A   1      33.225  29.772  26.732  1.00  0.00     0.116 C 
BRANCH  73  74
ATOM     74  N   UNL A   1      33.992  29.368  25.568  1.00  0.00    -0.356 N 
ATOM     75  C   UNL A   1      33.433  28.745  24.487  1.00  0.00     0.226 C 
ATOM     76  H   UNL A   1      34.960  29.552  25.557  1.00  0.00     0.163 HD
ATOM     77  O   UNL A   1      33.391  29.373  23.425  1.00  0.00    -0.274 OA
BRANCH  75  78
ATOM     78  C   UNL A   1      33.024  27.248  24.558  1.00  0.00     0.050 C 
ATOM     79  C   UNL A   1      33.427  26.446  23.293  1.00  0.00     0.017 C 
ATOM     80  C   UNL A   1      33.791  26.639  25.766  1.00  0.00     0.017 C 
ATOM     81  C   UNL A   1      33.282  24.930  23.418  1.00  0.00     0.001 C 
ATOM     82  C   UNL A   1      33.677  25.122  25.892  1.00  0.00     0.001 C 
ATOM     83  C   UNL A   1      34.085  24.416  24.604  1.00  0.00     0.000 C 
BRANCH  78  84
ATOM     84  C   UNL A   1      31.470  27.161  24.716  1.00  0.00     0.023 C 
BRANCH  84  85
ATOM     85  C   UNL A   1      30.600  27.124  23.444  1.00  0.00     0.057 C 
BRANCH  85  86
ATOM     86  C   UNL A   1      29.580  28.225  23.327  1.00  0.00     0.040 A 
ATOM     87  C   UNL A   1      29.964  29.558  23.456  1.00  0.00     0.024 A 
ATOM     88  N   UNL A   1      28.289  27.856  23.143  1.00  0.00    -0.261 NA
ATOM     89  C   UNL A   1      28.994  30.552  23.348  1.00  0.00     0.003 A 
ATOM     90  C   UNL A   1      27.370  28.843  23.042  1.00  0.00     0.111 A 
ATOM     91  C   UNL A   1      27.672  30.190  23.131  1.00  0.00     0.020 A 
ENDBRANCH  85  86
ENDBRANCH  84  85
ENDBRANCH  78  84
ENDBRANCH  75  78
ENDBRANCH  73  74
ENDBRANCH  72  73
ENDBRANCH   1  72
TORSDOF 17
ENDMDL
