MODEL 1
REMARK VINA RESULT:     -11.4      0.000      0.000
REMARK SMILES O=C(CC[NH2+]C[C@H](O)Cn1c2ccccc2c2ccccc21)NCCCCNC(=O)c1ccc(-c2c3nc(c(-c4cc(S(=O)(=O)[O-])ccc4F)c4ccc([nH]4)c(-c4cc(S(=O)(=O)[O-])ccc4F)c4nc(c(-c5cc(S(=O)(=O)[O-])ccc5F)c5ccc2[nH]5)C=C4)C=C3)cc1
REMARK SMILES IDX 24 1 23 2 1 3 2 4 3 6 4 7 5 8 6 11 7 12 9 13 10 14 11 15
REMARK SMILES IDX 22 16 12 17 16 18 17 19 21 20 13 21 15 22 18 23 20 24 14 25
REMARK SMILES IDX 19 26 8 27 25 29 26 30 27 31 28 32 29 33 30 35 31 36 32 37
REMARK SMILES IDX 93 38 33 39 92 40 34 41 35 42 36 43 86 44 37 45 91 46 85 47
REMARK SMILES IDX 87 48 38 49 90 50 84 51 83 52 39 54 71 55 51 56 70 57 52 58
REMARK SMILES IDX 55 59 69 60 88 61 53 62 54 63 68 65 89 66 56 67 40 68 41 69
REMARK SMILES IDX 49 70 42 71 48 72 50 73 47 74 43 75 44 76 45 77 46 78 72 79
REMARK SMILES IDX 73 80 81 81 74 82 80 83 82 84 79 85 75 86 76 87 77 88 78 89
REMARK SMILES IDX 57 90 58 91 66 92 59 93 65 94 67 95 64 96 60 97 61 98 62 99
REMARK SMILES IDX 63 100
REMARK H PARENT 23 5 5 9 5 10 8 28 28 34 87 53 55 64
REMARK Flexibility Score: inf
ROOT
ATOM      1  C   UNL A   1      36.139  22.922  26.209  1.00  0.00     0.116 C 
ENDROOT
BRANCH   1   2
ATOM      2  N   UNL A   1      34.922  22.762  25.438  1.00  0.00    -0.356 N 
ATOM      3  O   UNL A   1      35.087  20.483  25.165  1.00  0.00    -0.275 OA
ATOM      4  C   UNL A   1      34.481  21.535  24.994  1.00  0.00     0.225 C 
ATOM      5  H   UNL A   1      34.390  23.563  25.224  1.00  0.00     0.163 HD
BRANCH   4   6
ATOM      6  C   UNL A   1      33.108  21.581  24.360  1.00  0.00     0.161 C 
BRANCH   6   7
ATOM      7  C   UNL A   1      32.128  20.742  25.179  1.00  0.00     0.270 C 
BRANCH   7   8
ATOM      8  N   UNL A   1      31.179  21.590  25.912  1.00  0.00    -0.344 N 
ATOM      9  H   UNL A   1      31.530  21.724  26.860  1.00  0.00     0.346 HD
ATOM     10  H   UNL A   1      30.277  21.114  25.904  1.00  0.00     0.346 HD
BRANCH   8  11
ATOM     11  C   UNL A   1      30.988  22.904  25.294  1.00  0.00     0.294 C 
BRANCH  11  12
ATOM     12  C   UNL A   1      30.797  24.113  26.241  1.00  0.00     0.189 C 
BRANCH  12  13
ATOM     13  C   UNL A   1      30.260  25.355  25.502  1.00  0.00     0.160 C 
BRANCH  13  14
ATOM     14  N   UNL A   1      31.327  26.242  25.042  1.00  0.00    -0.338 N 
ATOM     15  C   UNL A   1      31.933  26.144  23.803  1.00  0.00     0.049 A 
ATOM     16  C   UNL A   1      31.866  27.292  25.765  1.00  0.00     0.049 A 
ATOM     17  C   UNL A   1      31.789  25.196  22.777  1.00  0.00     0.027 A 
ATOM     18  C   UNL A   1      32.779  27.245  23.675  1.00  0.00     0.007 A 
ATOM     19  C   UNL A   1      32.768  27.945  24.921  1.00  0.00     0.007 A 
ATOM     20  C   UNL A   1      31.646  27.734  27.081  1.00  0.00     0.027 A 
ATOM     21  C   UNL A   1      32.467  25.412  21.576  1.00  0.00     0.002 A 
ATOM     22  C   UNL A   1      33.458  27.439  22.453  1.00  0.00     0.011 A 
ATOM     23  C   UNL A   1      33.467  29.073  25.405  1.00  0.00     0.011 A 
ATOM     24  C   UNL A   1      32.362  28.843  27.543  1.00  0.00     0.002 A 
ATOM     25  C   UNL A   1      33.283  26.525  21.410  1.00  0.00     0.001 A 
ATOM     26  C   UNL A   1      33.261  29.508  26.718  1.00  0.00     0.001 A 
ENDBRANCH  13  14
ENDBRANCH  12  13
BRANCH  12  27
ATOM     27  O   UNL A   1      29.885  23.679  27.259  1.00  0.00    -0.385 OA
ATOM     28  H   UNL A   1      29.752  24.393  27.902  1.00  0.00     0.211 HD
ENDBRANCH  12  27
ENDBRANCH  11  12
ENDBRANCH   8  11
ENDBRANCH   7   8
ENDBRANCH   6   7
ENDBRANCH   4   6
ENDBRANCH   1   2
BRANCH   1  29
ATOM     29  C   UNL A   1      37.362  23.140  25.325  1.00  0.00     0.023 C 
BRANCH  29  30
ATOM     30  C   UNL A   1      38.262  21.911  25.126  1.00  0.00     0.023 C 
BRANCH  30  31
ATOM     31  C   UNL A   1      39.186  21.579  26.297  1.00  0.00     0.116 C 
BRANCH  31  32
ATOM     32  N   UNL A   1      40.590  21.800  26.024  1.00  0.00    -0.352 N 
ATOM     33  C   UNL A   1      41.497  22.768  26.365  1.00  0.00     0.251 C 
ATOM     34  H   UNL A   1      40.985  21.092  25.464  1.00  0.00     0.163 HD
ATOM     35  O   UNL A   1      42.670  22.520  26.075  1.00  0.00    -0.269 OA
BRANCH  33  36
ATOM     36  C   UNL A   1      41.170  24.087  26.980  1.00  0.00     0.039 A 
ATOM     37  C   UNL A   1      40.189  24.973  26.538  1.00  0.00     0.014 A 
ATOM     38  C   UNL A   1      41.986  24.483  28.059  1.00  0.00     0.014 A 
ATOM     39  C   UNL A   1      40.100  26.254  27.080  1.00  0.00     0.010 A 
ATOM     40  C   UNL A   1      41.888  25.756  28.618  1.00  0.00     0.010 A 
ATOM     41  C   UNL A   1      40.978  26.662  28.090  1.00  0.00    -0.014 A 
BRANCH  41  42
ATOM     42  C   UNL A   1      40.857  28.033  28.585  1.00  0.00     0.031 A 
ATOM     43  C   UNL A   1      41.871  28.987  28.061  1.00  0.00     0.074 A 
ATOM     44  C   UNL A   1      39.880  28.457  29.413  1.00  0.00     0.049 A 
ATOM     45  N   UNL A   1      42.837  29.556  28.706  1.00  0.00    -0.248 NA
ATOM     46  C   UNL A   1      41.881  29.249  26.616  1.00  0.00     0.031 C 
ATOM     47  C   UNL A   1      38.646  27.753  29.775  1.00  0.00     0.029 A 
ATOM     48  N   UNL A   1      39.745  29.661  30.046  1.00  0.00    -0.354 N 
ATOM     49  C   UNL A   1      43.467  30.403  27.792  1.00  0.00     0.074 A 
ATOM     50  C   UNL A   1      42.934  30.061  26.498  1.00  0.00     0.031 C 
ATOM     51  C   UNL A   1      37.796  28.618  30.373  1.00  0.00     0.029 A 
ATOM     52  C   UNL A   1      38.490  29.875  30.596  1.00  0.00     0.049 A 
ATOM     53  H   UNL A   1      40.475  30.319  30.106  1.00  0.00     0.167 HD
ATOM     54  C   UNL A   1      44.228  31.458  28.204  1.00  0.00     0.034 A 
ATOM     55  C   UNL A   1      38.037  31.004  31.189  1.00  0.00     0.034 A 
ATOM     56  C   UNL A   1      44.477  31.401  29.618  1.00  0.00     0.049 A 
ATOM     57  C   UNL A   1      39.188  31.813  31.635  1.00  0.00     0.074 A 
ATOM     58  C   UNL A   1      45.393  30.812  30.458  1.00  0.00     0.029 A 
ATOM     59  N   UNL A   1      43.440  31.855  30.387  1.00  0.00    -0.354 N 
ATOM     60  N   UNL A   1      39.979  31.470  32.612  1.00  0.00    -0.248 NA
ATOM     61  C   UNL A   1      39.663  32.911  30.798  1.00  0.00     0.031 C 
ATOM     62  C   UNL A   1      44.790  30.785  31.747  1.00  0.00     0.029 A 
ATOM     63  C   UNL A   1      43.529  31.373  31.667  1.00  0.00     0.049 A 
ATOM     64  H   UNL A   1      42.726  32.449  30.064  1.00  0.00     0.167 HD
ATOM     65  C   UNL A   1      41.204  31.984  32.243  1.00  0.00     0.074 A 
ATOM     66  C   UNL A   1      40.916  33.010  31.251  1.00  0.00     0.031 C 
ATOM     67  C   UNL A   1      42.359  31.317  32.519  1.00  0.00     0.034 A 
BRANCH  54  68
ATOM     68  C   UNL A   1      44.428  32.753  27.443  1.00  0.00     0.023 A 
ATOM     69  C   UNL A   1      43.823  33.964  27.820  1.00  0.00     0.031 A 
ATOM     70  C   UNL A   1      45.443  32.855  26.463  1.00  0.00     0.131 A 
ATOM     71  C   UNL A   1      44.211  35.188  27.255  1.00  0.00     0.055 A 
ATOM     72  C   UNL A   1      45.872  34.083  25.942  1.00  0.00     0.041 A 
ATOM     73  F   UNL A   1      46.087  31.766  26.014  1.00  0.00    -0.206 F 
ATOM     74  C   UNL A   1      45.258  35.262  26.341  1.00  0.00     0.022 A 
BRANCH  71  75
ATOM     75  S   UNL A   1      43.364  36.722  27.726  1.00  0.00     0.124 S 
ATOM     76  O   UNL A   1      42.763  36.355  29.002  1.00  0.00    -0.237 OA
ATOM     77  O   UNL A   1      44.478  37.664  27.798  1.00  0.00    -0.237 OA
ATOM     78  O   UNL A   1      42.434  36.949  26.624  1.00  0.00    -0.744 OA
ENDBRANCH  71  75
ENDBRANCH  54  68
BRANCH  55  79
ATOM     79  C   UNL A   1      36.681  31.582  31.142  1.00  0.00     0.023 A 
ATOM     80  C   UNL A   1      36.176  32.027  29.907  1.00  0.00     0.031 A 
ATOM     81  C   UNL A   1      36.035  32.018  32.311  1.00  0.00     0.131 A 
ATOM     82  C   UNL A   1      35.111  32.937  29.871  1.00  0.00     0.055 A 
ATOM     83  C   UNL A   1      34.956  32.907  32.270  1.00  0.00     0.041 A 
ATOM     84  F   UNL A   1      36.490  31.649  33.518  1.00  0.00    -0.206 F 
ATOM     85  C   UNL A   1      34.502  33.386  31.046  1.00  0.00     0.022 A 
BRANCH  82  86
ATOM     86  S   UNL A   1      34.564  33.653  28.298  1.00  0.00     0.124 S 
ATOM     87  O   UNL A   1      34.187  35.009  28.692  1.00  0.00    -0.237 OA
ATOM     88  O   UNL A   1      35.773  33.546  27.489  1.00  0.00    -0.237 OA
ATOM     89  O   UNL A   1      33.452  32.794  27.900  1.00  0.00    -0.744 OA
ENDBRANCH  82  86
ENDBRANCH  55  79
BRANCH  67  90
ATOM     90  C   UNL A   1      42.363  30.324  33.644  1.00  0.00     0.023 A 
ATOM     91  C   UNL A   1      42.772  30.798  34.902  1.00  0.00     0.031 A 
ATOM     92  C   UNL A   1      42.136  28.945  33.503  1.00  0.00     0.131 A 
ATOM     93  C   UNL A   1      42.994  29.907  35.954  1.00  0.00     0.055 A 
ATOM     94  C   UNL A   1      42.284  28.065  34.581  1.00  0.00     0.041 A 
ATOM     95  F   UNL A   1      41.835  28.402  32.315  1.00  0.00    -0.206 F 
ATOM     96  C   UNL A   1      42.734  28.543  35.809  1.00  0.00     0.022 A 
BRANCH  93  97
ATOM     97  S   UNL A   1      43.780  30.489  37.477  1.00  0.00     0.124 S 
ATOM     98  O   UNL A   1      42.658  31.104  38.187  1.00  0.00    -0.237 OA
ATOM     99  O   UNL A   1      44.279  29.242  38.062  1.00  0.00    -0.237 OA
ATOM    100  O   UNL A   1      44.810  31.407  37.018  1.00  0.00    -0.744 OA
ENDBRANCH  93  97
ENDBRANCH  67  90
ENDBRANCH  41  42
ENDBRANCH  33  36
ENDBRANCH  31  32
ENDBRANCH  30  31
ENDBRANCH  29  30
ENDBRANCH   1  29
TORSDOF 21
ENDMDL
MODEL 2
REMARK VINA RESULT:     -11.3      0.332      1.729
REMARK SMILES O=C(CC[NH2+]C[C@H](O)Cn1c2ccccc2c2ccccc21)NCCCCNC(=O)c1ccc(-c2c3nc(c(-c4cc(S(=O)(=O)[O-])ccc4F)c4ccc([nH]4)c(-c4cc(S(=O)(=O)[O-])ccc4F)c4nc(c(-c5cc(S(=O)(=O)[O-])ccc5F)c5ccc2[nH]5)C=C4)C=C3)cc1
REMARK SMILES IDX 24 1 23 2 1 3 2 4 3 6 4 7 5 8 6 11 7 12 9 13 10 14 11 15
REMARK SMILES IDX 22 16 12 17 16 18 17 19 21 20 13 21 15 22 18 23 20 24 14 25
REMARK SMILES IDX 19 26 8 27 25 29 26 30 27 31 28 32 29 33 30 35 31 36 32 37
REMARK SMILES IDX 93 38 33 39 92 40 34 41 35 42 36 43 86 44 37 45 91 46 85 47
REMARK SMILES IDX 87 48 38 49 90 50 84 51 83 52 39 54 71 55 51 56 70 57 52 58
REMARK SMILES IDX 55 59 69 60 88 61 53 62 54 63 68 65 89 66 56 67 40 68 41 69
REMARK SMILES IDX 49 70 42 71 48 72 50 73 47 74 43 75 44 76 45 77 46 78 72 79
REMARK SMILES IDX 73 80 81 81 74 82 80 83 82 84 79 85 75 86 76 87 77 88 78 89
REMARK SMILES IDX 57 90 58 91 66 92 59 93 65 94 67 95 64 96 60 97 61 98 62 99
REMARK SMILES IDX 63 100
REMARK H PARENT 23 5 5 9 5 10 8 28 28 34 87 53 55 64
REMARK Flexibility Score: inf
ROOT
ATOM      1  C   UNL A   1      36.176  22.989  26.269  1.00  0.00     0.116 C 
ENDROOT
BRANCH   1   2
ATOM      2  N   UNL A   1      34.935  22.927  25.522  1.00  0.00    -0.356 N 
ATOM      3  O   UNL A   1      34.988  20.661  25.125  1.00  0.00    -0.275 OA
ATOM      4  C   UNL A   1      34.427  21.746  25.025  1.00  0.00     0.225 C 
ATOM      5  H   UNL A   1      34.436  23.761  25.365  1.00  0.00     0.163 HD
BRANCH   4   6
ATOM      6  C   UNL A   1      33.043  21.888  24.430  1.00  0.00     0.161 C 
BRANCH   6   7
ATOM      7  C   UNL A   1      32.063  20.978  25.169  1.00  0.00     0.270 C 
BRANCH   7   8
ATOM      8  N   UNL A   1      31.052  21.757  25.896  1.00  0.00    -0.344 N 
ATOM      9  H   UNL A   1      31.339  21.830  26.871  1.00  0.00     0.346 HD
ATOM     10  H   UNL A   1      30.162  21.269  25.796  1.00  0.00     0.346 HD
BRANCH   8  11
ATOM     11  C   UNL A   1      30.875  23.108  25.359  1.00  0.00     0.294 C 
BRANCH  11  12
ATOM     12  C   UNL A   1      30.559  24.238  26.369  1.00  0.00     0.189 C 
BRANCH  12  13
ATOM     13  C   UNL A   1      30.127  25.543  25.671  1.00  0.00     0.160 C 
BRANCH  13  14
ATOM     14  N   UNL A   1      31.259  26.299  25.138  1.00  0.00    -0.338 N 
ATOM     15  C   UNL A   1      32.000  27.204  25.876  1.00  0.00     0.049 A 
ATOM     16  C   UNL A   1      31.747  26.209  23.847  1.00  0.00     0.049 A 
ATOM     17  C   UNL A   1      31.828  27.690  27.183  1.00  0.00     0.027 A 
ATOM     18  C   UNL A   1      33.074  27.597  25.079  1.00  0.00     0.007 A 
ATOM     19  C   UNL A   1      32.896  27.004  23.791  1.00  0.00     0.007 A 
ATOM     20  C   UNL A   1      31.292  25.504  22.719  1.00  0.00     0.027 A 
ATOM     21  C   UNL A   1      32.807  28.536  27.707  1.00  0.00     0.002 A 
ATOM     22  C   UNL A   1      34.048  28.458  25.630  1.00  0.00     0.011 A 
ATOM     23  C   UNL A   1      33.610  27.093  22.576  1.00  0.00     0.011 A 
ATOM     24  C   UNL A   1      32.007  25.621  21.523  1.00  0.00     0.002 A 
ATOM     25  C   UNL A   1      33.909  28.907  26.947  1.00  0.00     0.001 A 
ATOM     26  C   UNL A   1      33.153  26.403  21.448  1.00  0.00     0.001 A 
ENDBRANCH  13  14
ENDBRANCH  12  13
BRANCH  12  27
ATOM     27  O   UNL A   1      29.518  23.732  27.217  1.00  0.00    -0.385 OA
ATOM     28  H   UNL A   1      28.899  24.447  27.431  1.00  0.00     0.211 HD
ENDBRANCH  12  27
ENDBRANCH  11  12
ENDBRANCH   8  11
ENDBRANCH   7   8
ENDBRANCH   6   7
ENDBRANCH   4   6
ENDBRANCH   1   2
BRANCH   1  29
ATOM     29  C   UNL A   1      37.383  23.237  25.370  1.00  0.00     0.023 C 
BRANCH  29  30
ATOM     30  C   UNL A   1      38.278  22.015  25.115  1.00  0.00     0.023 C 
BRANCH  30  31
ATOM     31  C   UNL A   1      39.178  21.606  26.281  1.00  0.00     0.116 C 
BRANCH  31  32
ATOM     32  N   UNL A   1      40.589  21.824  26.045  1.00  0.00    -0.352 N 
ATOM     33  C   UNL A   1      41.491  22.785  26.418  1.00  0.00     0.251 C 
ATOM     34  H   UNL A   1      40.994  21.120  25.488  1.00  0.00     0.163 HD
ATOM     35  O   UNL A   1      42.670  22.535  26.155  1.00  0.00    -0.269 OA
BRANCH  33  36
ATOM     36  C   UNL A   1      41.155  24.099  27.038  1.00  0.00     0.039 A 
ATOM     37  C   UNL A   1      40.172  24.983  26.595  1.00  0.00     0.014 A 
ATOM     38  C   UNL A   1      41.962  24.493  28.124  1.00  0.00     0.014 A 
ATOM     39  C   UNL A   1      40.073  26.261  27.143  1.00  0.00     0.010 A 
ATOM     40  C   UNL A   1      41.855  25.762  28.689  1.00  0.00     0.010 A 
ATOM     41  C   UNL A   1      40.944  26.667  28.160  1.00  0.00    -0.014 A 
BRANCH  41  42
ATOM     42  C   UNL A   1      40.814  28.035  28.662  1.00  0.00     0.031 A 
ATOM     43  C   UNL A   1      41.820  28.999  28.140  1.00  0.00     0.074 A 
ATOM     44  C   UNL A   1      39.835  28.448  29.494  1.00  0.00     0.049 A 
ATOM     45  N   UNL A   1      42.782  29.572  28.786  1.00  0.00    -0.248 NA
ATOM     46  C   UNL A   1      41.825  29.268  26.697  1.00  0.00     0.031 C 
ATOM     47  C   UNL A   1      38.608  27.733  29.855  1.00  0.00     0.029 A 
ATOM     48  N   UNL A   1      39.693  29.648  30.133  1.00  0.00    -0.354 N 
ATOM     49  C   UNL A   1      43.404  30.428  27.875  1.00  0.00     0.074 A 
ATOM     50  C   UNL A   1      42.871  30.088  26.579  1.00  0.00     0.031 C 
ATOM     51  C   UNL A   1      37.752  28.589  30.458  1.00  0.00     0.029 A 
ATOM     52  C   UNL A   1      38.437  29.850  30.686  1.00  0.00     0.049 A 
ATOM     53  H   UNL A   1      40.418  30.311  30.194  1.00  0.00     0.167 HD
ATOM     54  C   UNL A   1      44.158  31.487  28.290  1.00  0.00     0.034 A 
ATOM     55  C   UNL A   1      37.977  30.973  31.285  1.00  0.00     0.034 A 
ATOM     56  C   UNL A   1      44.411  31.425  29.703  1.00  0.00     0.049 A 
ATOM     57  C   UNL A   1      39.123  31.789  31.732  1.00  0.00     0.074 A 
ATOM     58  C   UNL A   1      45.333  30.839  30.538  1.00  0.00     0.029 A 
ATOM     59  N   UNL A   1      43.372  31.868  30.477  1.00  0.00    -0.354 N 
ATOM     60  N   UNL A   1      39.918  31.447  32.706  1.00  0.00    -0.248 NA
ATOM     61  C   UNL A   1      39.588  32.894  30.900  1.00  0.00     0.031 C 
ATOM     62  C   UNL A   1      44.732  30.802  31.829  1.00  0.00     0.029 A 
ATOM     63  C   UNL A   1      43.467  31.381  31.753  1.00  0.00     0.049 A 
ATOM     64  H   UNL A   1      42.652  32.458  30.158  1.00  0.00     0.167 HD
ATOM     65  C   UNL A   1      41.139  31.972  32.338  1.00  0.00     0.074 A 
ATOM     66  C   UNL A   1      40.841  33.000  31.350  1.00  0.00     0.031 C 
ATOM     67  C   UNL A   1      42.299  31.312  32.607  1.00  0.00     0.034 A 
BRANCH  54  68
ATOM     68  C   UNL A   1      44.347  32.787  27.535  1.00  0.00     0.023 A 
ATOM     69  C   UNL A   1      43.891  34.025  28.016  1.00  0.00     0.031 A 
ATOM     70  C   UNL A   1      45.222  32.846  26.425  1.00  0.00     0.131 A 
ATOM     71  C   UNL A   1      44.287  35.236  27.426  1.00  0.00     0.055 A 
ATOM     72  C   UNL A   1      45.666  34.056  25.874  1.00  0.00     0.041 A 
ATOM     73  F   UNL A   1      45.717  31.729  25.869  1.00  0.00    -0.206 F 
ATOM     74  C   UNL A   1      45.201  35.263  26.378  1.00  0.00     0.022 A 
BRANCH  71  75
ATOM     75  S   UNL A   1      43.629  36.811  28.042  1.00  0.00     0.124 S 
ATOM     76  O   UNL A   1      43.995  36.761  29.452  1.00  0.00    -0.237 OA
ATOM     77  O   UNL A   1      44.365  37.776  27.230  1.00  0.00    -0.237 OA
ATOM     78  O   UNL A   1      42.201  36.720  27.749  1.00  0.00    -0.744 OA
ENDBRANCH  71  75
ENDBRANCH  54  68
BRANCH  55  79
ATOM     79  C   UNL A   1      36.617  31.541  31.244  1.00  0.00     0.023 A 
ATOM     80  C   UNL A   1      36.059  31.876  29.997  1.00  0.00     0.031 A 
ATOM     81  C   UNL A   1      36.016  32.075  32.396  1.00  0.00     0.131 A 
ATOM     82  C   UNL A   1      34.988  32.777  29.925  1.00  0.00     0.055 A 
ATOM     83  C   UNL A   1      34.930  32.954  32.322  1.00  0.00     0.041 A 
ATOM     84  F   UNL A   1      36.521  31.814  33.611  1.00  0.00    -0.206 F 
ATOM     85  C   UNL A   1      34.424  33.324  31.081  1.00  0.00     0.022 A 
BRANCH  82  86
ATOM     86  S   UNL A   1      34.374  33.352  28.320  1.00  0.00     0.124 S 
ATOM     87  O   UNL A   1      35.613  33.594  27.585  1.00  0.00    -0.237 OA
ATOM     88  O   UNL A   1      33.593  32.203  27.874  1.00  0.00    -0.237 OA
ATOM     89  O   UNL A   1      33.610  34.550  28.656  1.00  0.00    -0.744 OA
ENDBRANCH  82  86
ENDBRANCH  55  79
BRANCH  67  90
ATOM     90  C   UNL A   1      42.313  30.314  33.729  1.00  0.00     0.023 A 
ATOM     91  C   UNL A   1      42.849  30.748  34.953  1.00  0.00     0.031 A 
ATOM     92  C   UNL A   1      41.974  28.957  33.603  1.00  0.00     0.131 A 
ATOM     93  C   UNL A   1      43.082  29.835  35.984  1.00  0.00     0.055 A 
ATOM     94  C   UNL A   1      42.136  28.061  34.666  1.00  0.00     0.041 A 
ATOM     95  F   UNL A   1      41.545  28.445  32.440  1.00  0.00    -0.206 F 
ATOM     96  C   UNL A   1      42.710  28.496  35.857  1.00  0.00     0.022 A 
BRANCH  93  97
ATOM     97  S   UNL A   1      44.020  30.347  37.445  1.00  0.00     0.124 S 
ATOM     98  O   UNL A   1      43.013  31.072  38.220  1.00  0.00    -0.237 OA
ATOM     99  O   UNL A   1      44.435  29.062  38.011  1.00  0.00    -0.237 OA
ATOM    100  O   UNL A   1      45.101  31.159  36.908  1.00  0.00    -0.744 OA
ENDBRANCH  93  97
ENDBRANCH  67  90
ENDBRANCH  41  42
ENDBRANCH  33  36
ENDBRANCH  31  32
ENDBRANCH  30  31
ENDBRANCH  29  30
ENDBRANCH   1  29
TORSDOF 21
ENDMDL
MODEL 3
REMARK VINA RESULT:     -11.3      3.439      9.111
REMARK SMILES O=C(CC[NH2+]C[C@H](O)Cn1c2ccccc2c2ccccc21)NCCCCNC(=O)c1ccc(-c2c3nc(c(-c4cc(S(=O)(=O)[O-])ccc4F)c4ccc([nH]4)c(-c4cc(S(=O)(=O)[O-])ccc4F)c4nc(c(-c5cc(S(=O)(=O)[O-])ccc5F)c5ccc2[nH]5)C=C4)C=C3)cc1
REMARK SMILES IDX 24 1 23 2 1 3 2 4 3 6 4 7 5 8 6 11 7 12 9 13 10 14 11 15
REMARK SMILES IDX 22 16 12 17 16 18 17 19 21 20 13 21 15 22 18 23 20 24 14 25
REMARK SMILES IDX 19 26 8 27 25 29 26 30 27 31 28 32 29 33 30 35 31 36 32 37
REMARK SMILES IDX 93 38 33 39 92 40 34 41 35 42 36 43 86 44 37 45 91 46 85 47
REMARK SMILES IDX 87 48 38 49 90 50 84 51 83 52 39 54 71 55 51 56 70 57 52 58
REMARK SMILES IDX 55 59 69 60 88 61 53 62 54 63 68 65 89 66 56 67 40 68 41 69
REMARK SMILES IDX 49 70 42 71 48 72 50 73 47 74 43 75 44 76 45 77 46 78 72 79
REMARK SMILES IDX 73 80 81 81 74 82 80 83 82 84 79 85 75 86 76 87 77 88 78 89
REMARK SMILES IDX 57 90 58 91 66 92 59 93 65 94 67 95 64 96 60 97 61 98 62 99
REMARK SMILES IDX 63 100
REMARK H PARENT 23 5 5 9 5 10 8 28 28 34 87 53 55 64
REMARK Flexibility Score: inf
ROOT
ATOM      1  C   UNL A   1      32.778  28.150  26.849  1.00  0.00     0.116 C 
ENDROOT
BRANCH   1   2
ATOM      2  N   UNL A   1      32.704  27.701  25.473  1.00  0.00    -0.356 N 
ATOM      3  O   UNL A   1      31.175  29.271  24.772  1.00  0.00    -0.275 OA
ATOM      4  C   UNL A   1      31.914  28.323  24.531  1.00  0.00     0.225 C 
ATOM      5  H   UNL A   1      33.241  26.922  25.201  1.00  0.00     0.163 HD
BRANCH   4   6
ATOM      6  C   UNL A   1      32.121  27.797  23.127  1.00  0.00     0.161 C 
BRANCH   6   7
ATOM      7  C   UNL A   1      31.150  26.650  22.852  1.00  0.00     0.270 C 
BRANCH   7   8
ATOM      8  N   UNL A   1      31.626  25.794  21.758  1.00  0.00    -0.344 N 
ATOM      9  H   UNL A   1      32.394  26.270  21.285  1.00  0.00     0.346 HD
ATOM     10  H   UNL A   1      30.836  25.631  21.133  1.00  0.00     0.346 HD
BRANCH   8  11
ATOM     11  C   UNL A   1      32.099  24.487  22.217  1.00  0.00     0.294 C 
BRANCH  11  12
ATOM     12  C   UNL A   1      33.407  24.455  23.045  1.00  0.00     0.189 C 
BRANCH  12  13
ATOM     13  C   UNL A   1      33.195  23.859  24.451  1.00  0.00     0.160 C 
BRANCH  13  14
ATOM     14  N   UNL A   1      34.121  22.766  24.744  1.00  0.00    -0.338 N 
ATOM     15  C   UNL A   1      33.787  21.427  24.659  1.00  0.00     0.049 A 
ATOM     16  C   UNL A   1      35.441  22.914  25.132  1.00  0.00     0.049 A 
ATOM     17  C   UNL A   1      32.559  20.796  24.399  1.00  0.00     0.027 A 
ATOM     18  C   UNL A   1      34.961  20.701  24.859  1.00  0.00     0.007 A 
ATOM     19  C   UNL A   1      35.992  21.631  25.195  1.00  0.00     0.007 A 
ATOM     20  C   UNL A   1      36.208  24.054  25.432  1.00  0.00     0.027 A 
ATOM     21  C   UNL A   1      32.543  19.406  24.273  1.00  0.00     0.002 A 
ATOM     22  C   UNL A   1      34.918  19.296  24.732  1.00  0.00     0.011 A 
ATOM     23  C   UNL A   1      37.347  21.484  25.565  1.00  0.00     0.011 A 
ATOM     24  C   UNL A   1      37.543  23.881  25.811  1.00  0.00     0.002 A 
ATOM     25  C   UNL A   1      33.708  18.665  24.426  1.00  0.00     0.001 A 
ATOM     26  C   UNL A   1      38.110  22.613  25.877  1.00  0.00     0.001 A 
ENDBRANCH  13  14
ENDBRANCH  12  13
BRANCH  12  27
ATOM     27  O   UNL A   1      34.339  23.674  22.284  1.00  0.00    -0.385 OA
ATOM     28  H   UNL A   1      33.912  22.854  21.992  1.00  0.00     0.211 HD
ENDBRANCH  12  27
ENDBRANCH  11  12
ENDBRANCH   8  11
ENDBRANCH   7   8
ENDBRANCH   6   7
ENDBRANCH   4   6
ENDBRANCH   1   2
BRANCH   1  29
ATOM     29  C   UNL A   1      33.902  29.157  27.071  1.00  0.00     0.023 C 
BRANCH  29  30
ATOM     30  C   UNL A   1      33.473  30.631  27.097  1.00  0.00     0.023 C 
BRANCH  30  31
ATOM     31  C   UNL A   1      34.515  31.608  27.644  1.00  0.00     0.116 C 
BRANCH  31  32
ATOM     32  N   UNL A   1      34.318  31.967  29.032  1.00  0.00    -0.352 N 
ATOM     33  C   UNL A   1      35.096  31.919  30.158  1.00  0.00     0.251 C 
ATOM     34  H   UNL A   1      33.419  32.328  29.207  1.00  0.00     0.163 HD
ATOM     35  O   UNL A   1      34.626  32.482  31.150  1.00  0.00    -0.269 OA
BRANCH  33  36
ATOM     36  C   UNL A   1      36.397  31.201  30.287  1.00  0.00     0.039 A 
ATOM     37  C   UNL A   1      37.662  31.774  30.161  1.00  0.00     0.014 A 
ATOM     38  C   UNL A   1      36.316  29.807  30.482  1.00  0.00     0.014 A 
ATOM     39  C   UNL A   1      38.800  30.971  30.119  1.00  0.00     0.010 A 
ATOM     40  C   UNL A   1      37.452  29.001  30.461  1.00  0.00     0.010 A 
ATOM     41  C   UNL A   1      38.692  29.580  30.224  1.00  0.00    -0.014 A 
BRANCH  41  42
ATOM     42  C   UNL A   1      39.921  28.793  30.130  1.00  0.00     0.031 A 
ATOM     43  C   UNL A   1      40.639  28.583  31.417  1.00  0.00     0.074 A 
ATOM     44  C   UNL A   1      40.378  28.233  28.991  1.00  0.00     0.049 A 
ATOM     45  N   UNL A   1      41.779  29.072  31.781  1.00  0.00    -0.248 NA
ATOM     46  C   UNL A   1      39.947  27.830  32.471  1.00  0.00     0.031 C 
ATOM     47  C   UNL A   1      39.661  28.074  27.722  1.00  0.00     0.029 A 
ATOM     48  N   UNL A   1      41.568  27.604  28.753  1.00  0.00    -0.354 N 
ATOM     49  C   UNL A   1      42.046  28.534  33.042  1.00  0.00     0.074 A 
ATOM     50  C   UNL A   1      40.824  27.902  33.473  1.00  0.00     0.031 C 
ATOM     51  C   UNL A   1      40.334  27.206  26.933  1.00  0.00     0.029 A 
ATOM     52  C   UNL A   1      41.607  26.897  27.561  1.00  0.00     0.049 A 
ATOM     53  H   UNL A   1      42.330  27.649  29.375  1.00  0.00     0.167 HD
ATOM     54  C   UNL A   1      43.315  28.476  33.539  1.00  0.00     0.034 A 
ATOM     55  C   UNL A   1      42.606  26.101  27.113  1.00  0.00     0.034 A 
ATOM     56  C   UNL A   1      44.226  29.243  32.735  1.00  0.00     0.049 A 
ATOM     57  C   UNL A   1      43.861  26.466  27.799  1.00  0.00     0.074 A 
ATOM     58  C   UNL A   1      44.648  30.549  32.656  1.00  0.00     0.029 A 
ATOM     59  N   UNL A   1      44.647  28.602  31.601  1.00  0.00    -0.354 N 
ATOM     60  N   UNL A   1      44.496  27.585  27.599  1.00  0.00    -0.248 NA
ATOM     61  C   UNL A   1      44.298  25.695  28.959  1.00  0.00     0.031 C 
ATOM     62  C   UNL A   1      45.200  30.710  31.354  1.00  0.00     0.029 A 
ATOM     63  C   UNL A   1      45.118  29.495  30.676  1.00  0.00     0.049 A 
ATOM     64  H   UNL A   1      44.615  27.627  31.468  1.00  0.00     0.167 HD
ATOM     65  C   UNL A   1      45.073  27.863  28.820  1.00  0.00     0.074 A 
ATOM     66  C   UNL A   1      45.090  26.599  29.542  1.00  0.00     0.031 C 
ATOM     67  C   UNL A   1      45.180  29.143  29.272  1.00  0.00     0.034 A 
BRANCH  54  68
ATOM     68  C   UNL A   1      43.839  27.433  34.505  1.00  0.00     0.023 A 
ATOM     69  C   UNL A   1      43.764  26.052  34.254  1.00  0.00     0.031 A 
ATOM     70  C   UNL A   1      44.661  27.814  35.591  1.00  0.00     0.131 A 
ATOM     71  C   UNL A   1      44.466  25.122  35.037  1.00  0.00     0.055 A 
ATOM     72  C   UNL A   1      45.410  26.892  36.334  1.00  0.00     0.041 A 
ATOM     73  F   UNL A   1      44.805  29.104  35.934  1.00  0.00    -0.206 F 
ATOM     74  C   UNL A   1      45.319  25.535  36.057  1.00  0.00     0.022 A 
BRANCH  71  75
ATOM     75  S   UNL A   1      44.296  23.345  34.718  1.00  0.00     0.124 S 
ATOM     76  O   UNL A   1      42.848  23.183  34.678  1.00  0.00    -0.237 OA
ATOM     77  O   UNL A   1      44.984  23.208  33.437  1.00  0.00    -0.237 OA
ATOM     78  O   UNL A   1      44.976  22.728  35.853  1.00  0.00    -0.744 OA
ENDBRANCH  71  75
ENDBRANCH  54  68
BRANCH  55  79
ATOM     79  C   UNL A   1      42.504  24.847  26.344  1.00  0.00     0.023 A 
ATOM     80  C   UNL A   1      41.815  23.759  26.911  1.00  0.00     0.031 A 
ATOM     81  C   UNL A   1      43.348  24.592  25.251  1.00  0.00     0.131 A 
ATOM     82  C   UNL A   1      42.041  22.460  26.434  1.00  0.00     0.055 A 
ATOM     83  C   UNL A   1      43.551  23.297  24.761  1.00  0.00     0.041 A 
ATOM     84  F   UNL A   1      44.052  25.586  24.688  1.00  0.00    -0.206 F 
ATOM     85  C   UNL A   1      42.911  22.222  25.367  1.00  0.00     0.022 A 
BRANCH  82  86
ATOM     86  S   UNL A   1      41.297  21.031  27.266  1.00  0.00     0.124 S 
ATOM     87  O   UNL A   1      42.466  20.364  27.835  1.00  0.00    -0.237 OA
ATOM     88  O   UNL A   1      40.412  21.678  28.229  1.00  0.00    -0.237 OA
ATOM     89  O   UNL A   1      40.640  20.308  26.182  1.00  0.00    -0.744 OA
ENDBRANCH  82  86
ENDBRANCH  55  79
BRANCH  67  90
ATOM     90  C   UNL A   1      45.165  30.262  28.271  1.00  0.00     0.023 A 
ATOM     91  C   UNL A   1      46.413  30.795  27.904  1.00  0.00     0.031 A 
ATOM     92  C   UNL A   1      44.010  30.904  27.797  1.00  0.00     0.131 A 
ATOM     93  C   UNL A   1      46.483  31.959  27.135  1.00  0.00     0.055 A 
ATOM     94  C   UNL A   1      44.085  32.025  26.964  1.00  0.00     0.041 A 
ATOM     95  F   UNL A   1      42.785  30.514  28.179  1.00  0.00    -0.206 F 
ATOM     96  C   UNL A   1      45.327  32.568  26.644  1.00  0.00     0.022 A 
BRANCH  93  97
ATOM     97  S   UNL A   1      48.074  32.787  26.899  1.00  0.00     0.124 S 
ATOM     98  O   UNL A   1      47.797  33.673  25.768  1.00  0.00    -0.237 OA
ATOM     99  O   UNL A   1      48.264  33.461  28.186  1.00  0.00    -0.237 OA
ATOM    100  O   UNL A   1      49.005  31.702  26.631  1.00  0.00    -0.744 OA
ENDBRANCH  93  97
ENDBRANCH  67  90
ENDBRANCH  41  42
ENDBRANCH  33  36
ENDBRANCH  31  32
ENDBRANCH  30  31
ENDBRANCH  29  30
ENDBRANCH   1  29
TORSDOF 21
ENDMDL
