MODEL 1
REMARK VINA RESULT:     -11.4      0.000      0.000
REMARK SMILES CSCc1ccc(C(=O)N[C@@H](Cc2cnc[nH]2)C(=O)NCCCCNC(=O)c2ccc(-c3c4nc(c(-c5cc(S(=O)(=O)[O-])ccc5F)c5ccc([nH]5)c(-c5cc(S(=O)(=O)[O-])ccc5F)c5nc(c(-c6cc(S(=O)(=O)[O-])ccc6F)c6ccc3[nH]6)C=C5)C=C4)cc2)o1
REMARK SMILES IDX 22 1 21 2 20 3 18 4 19 5 11 7 10 8 8 9 9 10 7 12 4 13 5 14
REMARK SMILES IDX 91 15 6 16 3 17 2 18 1 19 12 20 13 21 14 22 17 23 15 24
REMARK SMILES IDX 16 25 23 27 24 28 25 29 26 30 27 32 28 33 29 34 90 35 30 36
REMARK SMILES IDX 89 37 31 38 32 39 33 40 83 41 34 42 88 43 82 44 84 45 35 46
REMARK SMILES IDX 87 47 81 48 80 49 36 51 68 52 48 53 67 54 49 55 52 56 66 57
REMARK SMILES IDX 85 58 50 59 51 60 65 62 86 63 53 64 37 65 38 66 46 67 39 68
REMARK SMILES IDX 45 69 47 70 44 71 40 72 41 73 42 74 43 75 69 76 70 77 78 78
REMARK SMILES IDX 71 79 77 80 79 81 76 82 72 83 73 84 74 85 75 86 54 87 55 88
REMARK SMILES IDX 63 89 56 90 62 91 64 92 61 93 57 94 58 95 59 96 60 97
REMARK H PARENT 20 6 10 11 17 26 25 31 84 50 52 61
REMARK Flexibility Score: inf
ROOT
ATOM      1  C   UNL A   1      36.529  23.038  23.312  1.00  0.00     0.023 C 
ENDROOT
BRANCH   1   2
ATOM      2  C   UNL A   1      35.181  23.689  23.585  1.00  0.00     0.116 C 
BRANCH   2   3
ATOM      3  N   UNL A   1      34.040  22.878  23.224  1.00  0.00    -0.354 N 
ATOM      4  C   UNL A   1      33.078  22.330  24.020  1.00  0.00     0.242 C 
ATOM      5  O   UNL A   1      32.009  22.020  23.482  1.00  0.00    -0.273 OA
ATOM      6  H   UNL A   1      33.941  22.696  22.262  1.00  0.00     0.163 HD
BRANCH   4   7
ATOM      7  C   UNL A   1      33.244  22.127  25.544  1.00  0.00     0.177 C 
BRANCH   7   8
ATOM      8  N   UNL A   1      32.134  22.653  26.336  1.00  0.00    -0.337 N 
ATOM      9  C   UNL A   1      31.645  23.927  26.519  1.00  0.00     0.287 C 
ATOM     10  O   UNL A   1      30.573  23.960  27.133  1.00  0.00    -0.266 OA
ATOM     11  H   UNL A   1      31.639  21.964  26.835  1.00  0.00     0.164 HD
BRANCH   9  12
ATOM     12  C   UNL A   1      32.322  25.138  26.072  1.00  0.00     0.191 A 
ATOM     13  C   UNL A   1      32.249  27.204  25.226  1.00  0.00     0.114 A 
ATOM     14  C   UNL A   1      33.573  26.931  25.474  1.00  0.00     0.047 A 
ATOM     15  O   UNL A   1      31.496  26.124  25.570  1.00  0.00    -0.455 OA
ATOM     16  C   UNL A   1      33.619  25.622  26.019  1.00  0.00     0.056 A 
BRANCH  13  17
ATOM     17  C   UNL A   1      31.582  28.402  24.645  1.00  0.00     0.144 C 
BRANCH  17  18
ATOM     18  S   UNL A   1      31.820  29.964  25.539  1.00  0.00    -0.157 SA
ATOM     19  C   UNL A   1      31.806  29.329  27.236  1.00  0.00     0.085 C 
ENDBRANCH  17  18
ENDBRANCH  13  17
ENDBRANCH   9  12
ENDBRANCH   7   8
BRANCH   7  20
ATOM     20  C   UNL A   1      33.745  20.749  26.010  1.00  0.00     0.090 C 
BRANCH  20  21
ATOM     21  C   UNL A   1      33.526  19.590  25.103  1.00  0.00     0.037 A 
ATOM     22  C   UNL A   1      34.424  18.706  24.539  1.00  0.00     0.134 A 
ATOM     23  N   UNL A   1      32.293  19.131  24.700  1.00  0.00    -0.348 N 
ATOM     24  N   UNL A   1      33.781  17.806  23.736  1.00  0.00    -0.245 NA
ATOM     25  C   UNL A   1      32.503  18.082  23.848  1.00  0.00     0.196 A 
ATOM     26  H   UNL A   1      31.419  19.494  24.972  1.00  0.00     0.167 HD
ENDBRANCH  20  21
ENDBRANCH   7  20
ENDBRANCH   4   7
ENDBRANCH   2   3
ENDBRANCH   1   2
BRANCH   1  27
ATOM     27  C   UNL A   1      36.712  21.645  23.909  1.00  0.00     0.023 C 
BRANCH  27  28
ATOM     28  C   UNL A   1      37.165  21.592  25.367  1.00  0.00     0.116 C 
BRANCH  28  29
ATOM     29  N   UNL A   1      38.249  20.651  25.614  1.00  0.00    -0.352 N 
ATOM     30  C   UNL A   1      39.494  20.874  26.164  1.00  0.00     0.251 C 
ATOM     31  H   UNL A   1      38.067  19.721  25.350  1.00  0.00     0.163 HD
ATOM     32  O   UNL A   1      40.331  19.982  26.181  1.00  0.00    -0.269 OA
BRANCH  30  33
ATOM     33  C   UNL A   1      39.817  22.218  26.693  1.00  0.00     0.039 A 
ATOM     34  C   UNL A   1      40.827  22.347  27.648  1.00  0.00     0.014 A 
ATOM     35  C   UNL A   1      39.169  23.350  26.193  1.00  0.00     0.014 A 
ATOM     36  C   UNL A   1      41.267  23.621  28.016  1.00  0.00     0.010 A 
ATOM     37  C   UNL A   1      39.663  24.614  26.498  1.00  0.00     0.010 A 
ATOM     38  C   UNL A   1      40.732  24.763  27.397  1.00  0.00    -0.014 A 
BRANCH  38  39
ATOM     39  C   UNL A   1      41.297  26.117  27.639  1.00  0.00     0.031 A 
ATOM     40  C   UNL A   1      42.681  26.454  27.157  1.00  0.00     0.074 A 
ATOM     41  C   UNL A   1      40.602  27.006  28.377  1.00  0.00     0.049 A 
ATOM     42  N   UNL A   1      43.392  27.532  27.369  1.00  0.00    -0.248 NA
ATOM     43  C   UNL A   1      43.367  25.427  26.358  1.00  0.00     0.031 C 
ATOM     44  C   UNL A   1      39.272  26.777  28.948  1.00  0.00     0.029 A 
ATOM     45  N   UNL A   1      40.922  28.277  28.789  1.00  0.00    -0.354 N 
ATOM     46  C   UNL A   1      44.615  27.307  26.747  1.00  0.00     0.074 A 
ATOM     47  C   UNL A   1      44.567  25.965  26.204  1.00  0.00     0.031 C 
ATOM     48  C   UNL A   1      38.882  27.877  29.613  1.00  0.00     0.029 A 
ATOM     49  C   UNL A   1      39.948  28.871  29.559  1.00  0.00     0.049 A 
ATOM     50  H   UNL A   1      41.768  28.722  28.554  1.00  0.00     0.167 HD
ATOM     51  C   UNL A   1      45.671  28.148  26.621  1.00  0.00     0.034 A 
ATOM     52  C   UNL A   1      39.922  30.073  30.166  1.00  0.00     0.034 A 
ATOM     53  C   UNL A   1      45.697  29.489  27.152  1.00  0.00     0.049 A 
ATOM     54  C   UNL A   1      41.112  30.988  30.023  1.00  0.00     0.074 A 
ATOM     55  C   UNL A   1      46.688  30.448  27.028  1.00  0.00     0.029 A 
ATOM     56  N   UNL A   1      44.688  30.060  27.916  1.00  0.00    -0.354 N 
ATOM     57  N   UNL A   1      42.243  30.778  29.388  1.00  0.00    -0.248 NA
ATOM     58  C   UNL A   1      41.019  32.302  30.671  1.00  0.00     0.031 C 
ATOM     59  C   UNL A   1      46.305  31.575  27.764  1.00  0.00     0.029 A 
ATOM     60  C   UNL A   1      45.045  31.347  28.293  1.00  0.00     0.049 A 
ATOM     61  H   UNL A   1      43.843  29.618  28.156  1.00  0.00     0.167 HD
ATOM     62  C   UNL A   1      42.984  31.946  29.539  1.00  0.00     0.074 A 
ATOM     63  C   UNL A   1      42.167  32.859  30.313  1.00  0.00     0.031 C 
ATOM     64  C   UNL A   1      44.225  32.241  29.077  1.00  0.00     0.034 A 
BRANCH  51  65
ATOM     65  C   UNL A   1      46.888  27.626  25.895  1.00  0.00     0.023 A 
ATOM     66  C   UNL A   1      47.158  27.979  24.560  1.00  0.00     0.031 A 
ATOM     67  C   UNL A   1      47.773  26.737  26.531  1.00  0.00     0.131 A 
ATOM     68  C   UNL A   1      48.230  27.384  23.881  1.00  0.00     0.055 A 
ATOM     69  C   UNL A   1      48.888  26.212  25.874  1.00  0.00     0.041 A 
ATOM     70  F   UNL A   1      47.559  26.350  27.798  1.00  0.00    -0.206 F 
ATOM     71  C   UNL A   1      49.112  26.522  24.535  1.00  0.00     0.022 A 
BRANCH  68  72
ATOM     72  S   UNL A   1      48.369  27.641  22.091  1.00  0.00     0.124 S 
ATOM     73  O   UNL A   1      47.076  28.247  21.780  1.00  0.00    -0.237 OA
ATOM     74  O   UNL A   1      49.528  28.520  21.987  1.00  0.00    -0.237 OA
ATOM     75  O   UNL A   1      48.559  26.292  21.565  1.00  0.00    -0.744 OA
ENDBRANCH  68  72
ENDBRANCH  51  65
BRANCH  52  76
ATOM     76  C   UNL A   1      38.741  30.488  30.975  1.00  0.00     0.023 A 
ATOM     77  C   UNL A   1      37.648  31.135  30.376  1.00  0.00     0.031 A 
ATOM     78  C   UNL A   1      38.703  30.280  32.365  1.00  0.00     0.131 A 
ATOM     79  C   UNL A   1      36.584  31.590  31.170  1.00  0.00     0.055 A 
ATOM     80  C   UNL A   1      37.620  30.692  33.143  1.00  0.00     0.041 A 
ATOM     81  F   UNL A   1      39.720  29.659  32.986  1.00  0.00    -0.206 F 
ATOM     82  C   UNL A   1      36.558  31.363  32.548  1.00  0.00     0.022 A 
BRANCH  79  83
ATOM     83  S   UNL A   1      35.265  32.556  30.382  1.00  0.00     0.124 S 
ATOM     84  O   UNL A   1      34.890  31.693  29.268  1.00  0.00    -0.237 OA
ATOM     85  O   UNL A   1      34.291  32.674  31.461  1.00  0.00    -0.237 OA
ATOM     86  O   UNL A   1      35.934  33.802  30.009  1.00  0.00    -0.744 OA
ENDBRANCH  79  83
ENDBRANCH  52  76
BRANCH  64  87
ATOM     87  C   UNL A   1      44.752  33.623  29.366  1.00  0.00     0.023 A 
ATOM     88  C   UNL A   1      44.659  34.662  28.423  1.00  0.00     0.031 A 
ATOM     89  C   UNL A   1      45.366  33.900  30.600  1.00  0.00     0.131 A 
ATOM     90  C   UNL A   1      45.217  35.917  28.711  1.00  0.00     0.055 A 
ATOM     91  C   UNL A   1      45.871  35.166  30.902  1.00  0.00     0.041 A 
ATOM     92  F   UNL A   1      45.483  32.942  31.535  1.00  0.00    -0.206 F 
ATOM     93  C   UNL A   1      45.808  36.179  29.950  1.00  0.00     0.022 A 
BRANCH  90  94
ATOM     94  S   UNL A   1      45.230  37.183  27.413  1.00  0.00     0.124 S 
ATOM     95  O   UNL A   1      43.805  37.380  27.166  1.00  0.00    -0.237 OA
ATOM     96  O   UNL A   1      45.923  38.291  28.062  1.00  0.00    -0.237 OA
ATOM     97  O   UNL A   1      45.967  36.548  26.321  1.00  0.00    -0.744 OA
ENDBRANCH  90  94
ENDBRANCH  64  87
ENDBRANCH  38  39
ENDBRANCH  30  33
ENDBRANCH  28  29
ENDBRANCH  27  28
ENDBRANCH   1  27
TORSDOF 20
ENDMDL
MODEL 2
REMARK VINA RESULT:     -11.2      1.198      2.253
REMARK SMILES CSCc1ccc(C(=O)N[C@@H](Cc2cnc[nH]2)C(=O)NCCCCNC(=O)c2ccc(-c3c4nc(c(-c5cc(S(=O)(=O)[O-])ccc5F)c5ccc([nH]5)c(-c5cc(S(=O)(=O)[O-])ccc5F)c5nc(c(-c6cc(S(=O)(=O)[O-])ccc6F)c6ccc3[nH]6)C=C5)C=C4)cc2)o1
REMARK SMILES IDX 22 1 21 2 20 3 18 4 19 5 11 7 10 8 8 9 9 10 7 12 4 13 5 14
REMARK SMILES IDX 91 15 6 16 3 17 2 18 1 19 12 20 13 21 14 22 17 23 15 24
REMARK SMILES IDX 16 25 23 27 24 28 25 29 26 30 27 32 28 33 29 34 90 35 30 36
REMARK SMILES IDX 89 37 31 38 32 39 33 40 83 41 34 42 88 43 82 44 84 45 35 46
REMARK SMILES IDX 87 47 81 48 80 49 36 51 68 52 48 53 67 54 49 55 52 56 66 57
REMARK SMILES IDX 85 58 50 59 51 60 65 62 86 63 53 64 37 65 38 66 46 67 39 68
REMARK SMILES IDX 45 69 47 70 44 71 40 72 41 73 42 74 43 75 69 76 70 77 78 78
REMARK SMILES IDX 71 79 77 80 79 81 76 82 72 83 73 84 74 85 75 86 54 87 55 88
REMARK SMILES IDX 63 89 56 90 62 91 64 92 61 93 57 94 58 95 59 96 60 97
REMARK H PARENT 20 6 10 11 17 26 25 31 84 50 52 61
REMARK Flexibility Score: inf
ROOT
ATOM      1  C   UNL A   1      35.246  20.245  25.127  1.00  0.00     0.023 C 
ENDROOT
BRANCH   1   2
ATOM      2  C   UNL A   1      33.779  20.433  25.486  1.00  0.00     0.116 C 
BRANCH   2   3
ATOM      3  N   UNL A   1      32.872  20.339  24.363  1.00  0.00    -0.354 N 
ATOM      4  C   UNL A   1      32.344  21.330  23.589  1.00  0.00     0.242 C 
ATOM      5  O   UNL A   1      31.922  21.009  22.472  1.00  0.00    -0.273 OA
ATOM      6  H   UNL A   1      32.595  19.426  24.122  1.00  0.00     0.163 HD
BRANCH   4   7
ATOM      7  C   UNL A   1      32.294  22.815  24.019  1.00  0.00     0.177 C 
BRANCH   7   8
ATOM      8  N   UNL A   1      31.833  23.020  25.390  1.00  0.00    -0.337 N 
ATOM      9  C   UNL A   1      31.111  24.029  25.986  1.00  0.00     0.287 C 
ATOM     10  O   UNL A   1      30.760  23.769  27.142  1.00  0.00    -0.266 OA
ATOM     11  H   UNL A   1      32.086  22.297  26.008  1.00  0.00     0.164 HD
BRANCH   9  12
ATOM     12  C   UNL A   1      30.804  25.305  25.350  1.00  0.00     0.191 A 
ATOM     13  C   UNL A   1      31.397  27.380  24.773  1.00  0.00     0.114 A 
ATOM     14  C   UNL A   1      30.133  27.181  24.271  1.00  0.00     0.047 A 
ATOM     15  O   UNL A   1      31.797  26.260  25.434  1.00  0.00    -0.455 OA
ATOM     16  C   UNL A   1      29.759  25.861  24.630  1.00  0.00     0.056 A 
BRANCH  13  17
ATOM     17  C   UNL A   1      32.299  28.564  24.731  1.00  0.00     0.144 C 
BRANCH  17  18
ATOM     18  S   UNL A   1      31.702  30.058  25.569  1.00  0.00    -0.157 SA
ATOM     19  C   UNL A   1      32.390  29.756  27.218  1.00  0.00     0.085 C 
ENDBRANCH  17  18
ENDBRANCH  13  17
ENDBRANCH   9  12
ENDBRANCH   7   8
BRANCH   7  20
ATOM     20  C   UNL A   1      33.498  23.690  23.627  1.00  0.00     0.090 C 
BRANCH  20  21
ATOM     21  C   UNL A   1      33.313  24.667  22.520  1.00  0.00     0.037 A 
ATOM     22  C   UNL A   1      33.750  25.969  22.387  1.00  0.00     0.134 A 
ATOM     23  N   UNL A   1      32.685  24.391  21.328  1.00  0.00    -0.348 N 
ATOM     24  N   UNL A   1      33.317  26.508  21.207  1.00  0.00    -0.245 NA
ATOM     25  C   UNL A   1      32.680  25.542  20.589  1.00  0.00     0.196 A 
ATOM     26  H   UNL A   1      32.306  23.524  21.056  1.00  0.00     0.167 HD
ENDBRANCH  20  21
ENDBRANCH   7  20
ENDBRANCH   4   7
ENDBRANCH   2   3
ENDBRANCH   1   2
BRANCH   1  27
ATOM     27  C   UNL A   1      35.938  21.477  24.549  1.00  0.00     0.023 C 
BRANCH  27  28
ATOM     28  C   UNL A   1      37.077  22.062  25.381  1.00  0.00     0.116 C 
BRANCH  28  29
ATOM     29  N   UNL A   1      38.183  21.139  25.598  1.00  0.00    -0.352 N 
ATOM     30  C   UNL A   1      39.422  21.374  26.159  1.00  0.00     0.251 C 
ATOM     31  H   UNL A   1      38.024  20.214  25.303  1.00  0.00     0.163 HD
ATOM     32  O   UNL A   1      40.280  20.504  26.148  1.00  0.00    -0.269 OA
BRANCH  30  33
ATOM     33  C   UNL A   1      39.710  22.707  26.733  1.00  0.00     0.039 A 
ATOM     34  C   UNL A   1      40.639  22.813  27.771  1.00  0.00     0.014 A 
ATOM     35  C   UNL A   1      39.116  23.852  26.199  1.00  0.00     0.014 A 
ATOM     36  C   UNL A   1      41.057  24.076  28.194  1.00  0.00     0.010 A 
ATOM     37  C   UNL A   1      39.594  25.107  26.563  1.00  0.00     0.010 A 
ATOM     38  C   UNL A   1      40.585  25.232  27.550  1.00  0.00    -0.014 A 
BRANCH  38  39
ATOM     39  C   UNL A   1      41.140  26.577  27.860  1.00  0.00     0.031 A 
ATOM     40  C   UNL A   1      42.568  26.901  27.518  1.00  0.00     0.074 A 
ATOM     41  C   UNL A   1      40.386  27.469  28.534  1.00  0.00     0.049 A 
ATOM     42  N   UNL A   1      43.267  27.968  27.809  1.00  0.00    -0.248 NA
ATOM     43  C   UNL A   1      43.317  25.872  26.781  1.00  0.00     0.031 C 
ATOM     44  C   UNL A   1      39.005  27.252  28.970  1.00  0.00     0.029 A 
ATOM     45  N   UNL A   1      40.679  28.732  28.987  1.00  0.00    -0.354 N 
ATOM     46  C   UNL A   1      44.543  27.733  27.307  1.00  0.00     0.074 A 
ATOM     47  C   UNL A   1      44.533  26.397  26.749  1.00  0.00     0.031 C 
ATOM     48  C   UNL A   1      38.564  28.351  29.604  1.00  0.00     0.029 A 
ATOM     49  C   UNL A   1      39.642  29.332  29.665  1.00  0.00     0.049 A 
ATOM     50  H   UNL A   1      41.549  29.168  28.840  1.00  0.00     0.167 HD
ATOM     51  C   UNL A   1      45.616  28.562  27.293  1.00  0.00     0.034 A 
ATOM     52  C   UNL A   1      39.571  30.529  30.277  1.00  0.00     0.034 A 
ATOM     53  C   UNL A   1      45.606  29.898  27.838  1.00  0.00     0.049 A 
ATOM     54  C   UNL A   1      40.779  31.430  30.260  1.00  0.00     0.074 A 
ATOM     55  C   UNL A   1      46.615  30.845  27.820  1.00  0.00     0.029 A 
ATOM     56  N   UNL A   1      44.534  30.475  28.505  1.00  0.00    -0.354 N 
ATOM     57  N   UNL A   1      41.964  31.211  29.737  1.00  0.00    -0.248 NA
ATOM     58  C   UNL A   1      40.639  32.740  30.908  1.00  0.00     0.031 C 
ATOM     59  C   UNL A   1      46.175  31.970  28.526  1.00  0.00     0.029 A 
ATOM     60  C   UNL A   1      44.866  31.754  28.927  1.00  0.00     0.049 A 
ATOM     61  H   UNL A   1      43.663  30.041  28.656  1.00  0.00     0.167 HD
ATOM     62  C   UNL A   1      42.700  32.369  29.971  1.00  0.00     0.074 A 
ATOM     63  C   UNL A   1      41.823  33.285  30.670  1.00  0.00     0.031 C 
ATOM     64  C   UNL A   1      43.985  32.651  29.635  1.00  0.00     0.034 A 
BRANCH  51  65
ATOM     65  C   UNL A   1      46.892  28.030  26.685  1.00  0.00     0.023 A 
ATOM     66  C   UNL A   1      47.159  28.152  25.309  1.00  0.00     0.031 A 
ATOM     67  C   UNL A   1      47.840  27.363  27.481  1.00  0.00     0.131 A 
ATOM     68  C   UNL A   1      48.297  27.545  24.760  1.00  0.00     0.055 A 
ATOM     69  C   UNL A   1      49.013  26.832  26.941  1.00  0.00     0.041 A 
ATOM     70  F   UNL A   1      47.633  27.200  28.798  1.00  0.00    -0.206 F 
ATOM     71  C   UNL A   1      49.239  26.907  25.569  1.00  0.00     0.022 A 
BRANCH  68  72
ATOM     72  S   UNL A   1      48.452  27.475  22.954  1.00  0.00     0.124 S 
ATOM     73  O   UNL A   1      48.424  26.034  22.712  1.00  0.00    -0.237 OA
ATOM     74  O   UNL A   1      47.283  28.221  22.507  1.00  0.00    -0.237 OA
ATOM     75  O   UNL A   1      49.740  28.117  22.696  1.00  0.00    -0.744 OA
ENDBRANCH  68  72
ENDBRANCH  51  65
BRANCH  52  76
ATOM     76  C   UNL A   1      38.320  30.952  30.971  1.00  0.00     0.023 A 
ATOM     77  C   UNL A   1      37.310  31.640  30.280  1.00  0.00     0.031 A 
ATOM     78  C   UNL A   1      38.134  30.710  32.343  1.00  0.00     0.131 A 
ATOM     79  C   UNL A   1      36.179  32.101  30.972  1.00  0.00     0.055 A 
ATOM     80  C   UNL A   1      36.985  31.129  33.016  1.00  0.00     0.041 A 
ATOM     81  F   UNL A   1      39.067  30.050  33.049  1.00  0.00    -0.206 F 
ATOM     82  C   UNL A   1      36.005  31.840  32.332  1.00  0.00     0.022 A 
BRANCH  79  83
ATOM     83  S   UNL A   1      34.971  33.117  30.078  1.00  0.00     0.124 S 
ATOM     84  O   UNL A   1      35.826  34.123  29.460  1.00  0.00    -0.237 OA
ATOM     85  O   UNL A   1      34.367  32.144  29.174  1.00  0.00    -0.237 OA
ATOM     86  O   UNL A   1      34.092  33.609  31.137  1.00  0.00    -0.744 OA
ENDBRANCH  79  83
ENDBRANCH  52  76
BRANCH  64  87
ATOM     87  C   UNL A   1      44.496  34.025  29.988  1.00  0.00     0.023 A 
ATOM     88  C   UNL A   1      44.311  35.125  29.132  1.00  0.00     0.031 A 
ATOM     89  C   UNL A   1      45.189  34.231  31.194  1.00  0.00     0.131 A 
ATOM     90  C   UNL A   1      44.858  36.372  29.472  1.00  0.00     0.055 A 
ATOM     91  C   UNL A   1      45.683  35.486  31.552  1.00  0.00     0.041 A 
ATOM     92  F   UNL A   1      45.396  33.213  32.045  1.00  0.00    -0.206 F 
ATOM     93  C   UNL A   1      45.529  36.562  30.683  1.00  0.00     0.022 A 
BRANCH  90  94
ATOM     94  S   UNL A   1      44.747  37.727  28.272  1.00  0.00     0.124 S 
ATOM     95  O   UNL A   1      44.866  38.903  29.128  1.00  0.00    -0.237 OA
ATOM     96  O   UNL A   1      45.882  37.461  27.393  1.00  0.00    -0.237 OA
ATOM     97  O   UNL A   1      43.434  37.536  27.658  1.00  0.00    -0.744 OA
ENDBRANCH  90  94
ENDBRANCH  64  87
ENDBRANCH  38  39
ENDBRANCH  30  33
ENDBRANCH  28  29
ENDBRANCH  27  28
ENDBRANCH   1  27
TORSDOF 20
ENDMDL
MODEL 3
REMARK VINA RESULT:     -11.1      5.546      8.569
REMARK SMILES CSCc1ccc(C(=O)N[C@@H](Cc2cnc[nH]2)C(=O)NCCCCNC(=O)c2ccc(-c3c4nc(c(-c5cc(S(=O)(=O)[O-])ccc5F)c5ccc([nH]5)c(-c5cc(S(=O)(=O)[O-])ccc5F)c5nc(c(-c6cc(S(=O)(=O)[O-])ccc6F)c6ccc3[nH]6)C=C5)C=C4)cc2)o1
REMARK SMILES IDX 22 1 21 2 20 3 18 4 19 5 11 7 10 8 8 9 9 10 7 12 4 13 5 14
REMARK SMILES IDX 91 15 6 16 3 17 2 18 1 19 12 20 13 21 14 22 17 23 15 24
REMARK SMILES IDX 16 25 23 27 24 28 25 29 26 30 27 32 28 33 29 34 90 35 30 36
REMARK SMILES IDX 89 37 31 38 32 39 33 40 83 41 34 42 88 43 82 44 84 45 35 46
REMARK SMILES IDX 87 47 81 48 80 49 36 51 68 52 48 53 67 54 49 55 52 56 66 57
REMARK SMILES IDX 85 58 50 59 51 60 65 62 86 63 53 64 37 65 38 66 46 67 39 68
REMARK SMILES IDX 45 69 47 70 44 71 40 72 41 73 42 74 43 75 69 76 70 77 78 78
REMARK SMILES IDX 71 79 77 80 79 81 76 82 72 83 73 84 74 85 75 86 54 87 55 88
REMARK SMILES IDX 63 89 56 90 62 91 64 92 61 93 57 94 58 95 59 96 60 97
REMARK H PARENT 20 6 10 11 17 26 25 31 84 50 52 61
REMARK Flexibility Score: inf
ROOT
ATOM      1  C   UNL A   1      32.450  29.578  27.208  1.00  0.00     0.023 C 
ENDROOT
BRANCH   1   2
ATOM      2  C   UNL A   1      33.847  29.106  26.832  1.00  0.00     0.116 C 
BRANCH   2   3
ATOM      3  N   UNL A   1      34.069  28.966  25.410  1.00  0.00    -0.354 N 
ATOM      4  C   UNL A   1      33.897  27.875  24.608  1.00  0.00     0.242 C 
ATOM      5  O   UNL A   1      33.767  28.081  23.396  1.00  0.00    -0.273 OA
ATOM      6  H   UNL A   1      34.391  29.776  24.952  1.00  0.00     0.163 HD
BRANCH   4   7
ATOM      7  C   UNL A   1      33.810  26.427  25.143  1.00  0.00     0.177 C 
BRANCH   7   8
ATOM      8  N   UNL A   1      32.650  26.180  25.998  1.00  0.00    -0.337 N 
ATOM      9  C   UNL A   1      31.296  26.311  25.787  1.00  0.00     0.287 C 
ATOM     10  O   UNL A   1      30.607  25.837  26.696  1.00  0.00    -0.266 OA
ATOM     11  H   UNL A   1      32.880  25.856  26.898  1.00  0.00     0.164 HD
BRANCH   9  12
ATOM     12  C   UNL A   1      30.705  26.970  24.628  1.00  0.00     0.191 A 
ATOM     13  C   UNL A   1      30.029  28.825  23.583  1.00  0.00     0.114 A 
ATOM     14  C   UNL A   1      29.810  27.784  22.712  1.00  0.00     0.047 A 
ATOM     15  O   UNL A   1      30.553  28.337  24.740  1.00  0.00    -0.455 OA
ATOM     16  C   UNL A   1      30.247  26.607  23.371  1.00  0.00     0.056 A 
BRANCH  13  17
ATOM     17  C   UNL A   1      29.760  30.284  23.462  1.00  0.00     0.144 C 
BRANCH  17  18
ATOM     18  S   UNL A   1      28.062  30.754  23.031  1.00  0.00    -0.157 SA
ATOM     19  C   UNL A   1      28.152  30.542  21.234  1.00  0.00     0.085 C 
ENDBRANCH  17  18
ENDBRANCH  13  17
ENDBRANCH   9  12
ENDBRANCH   7   8
BRANCH   7  20
ATOM     20  C   UNL A   1      34.096  25.298  24.138  1.00  0.00     0.090 C 
BRANCH  20  21
ATOM     21  C   UNL A   1      34.613  24.010  24.673  1.00  0.00     0.037 A 
ATOM     22  C   UNL A   1      35.906  23.579  24.890  1.00  0.00     0.134 A 
ATOM     23  N   UNL A   1      33.826  22.982  25.138  1.00  0.00    -0.348 N 
ATOM     24  N   UNL A   1      35.918  22.298  25.369  1.00  0.00    -0.245 NA
ATOM     25  C   UNL A   1      34.657  21.961  25.509  1.00  0.00     0.196 A 
ATOM     26  H   UNL A   1      32.843  22.980  25.193  1.00  0.00     0.167 HD
ENDBRANCH  20  21
ENDBRANCH   7  20
ENDBRANCH   4   7
ENDBRANCH   2   3
ENDBRANCH   1   2
BRANCH   1  27
ATOM     27  C   UNL A   1      32.173  31.058  26.955  1.00  0.00     0.023 C 
BRANCH  27  28
ATOM     28  C   UNL A   1      33.263  32.032  27.396  1.00  0.00     0.116 C 
BRANCH  28  29
ATOM     29  N   UNL A   1      32.792  33.397  27.587  1.00  0.00    -0.352 N 
ATOM     30  C   UNL A   1      33.212  34.350  28.493  1.00  0.00     0.251 C 
ATOM     31  H   UNL A   1      32.071  33.682  26.982  1.00  0.00     0.163 HD
ATOM     32  O   UNL A   1      32.613  35.411  28.596  1.00  0.00    -0.269 OA
BRANCH  30  33
ATOM     33  C   UNL A   1      34.367  34.051  29.368  1.00  0.00     0.039 A 
ATOM     34  C   UNL A   1      34.155  33.355  30.560  1.00  0.00     0.014 A 
ATOM     35  C   UNL A   1      35.662  34.397  28.974  1.00  0.00     0.014 A 
ATOM     36  C   UNL A   1      35.252  32.905  31.298  1.00  0.00     0.010 A 
ATOM     37  C   UNL A   1      36.752  33.879  29.665  1.00  0.00     0.010 A 
ATOM     38  C   UNL A   1      36.559  33.108  30.824  1.00  0.00    -0.014 A 
BRANCH  38  39
ATOM     39  C   UNL A   1      37.735  32.494  31.495  1.00  0.00     0.031 A 
ATOM     40  C   UNL A   1      38.460  31.348  30.847  1.00  0.00     0.074 A 
ATOM     41  C   UNL A   1      38.087  32.906  32.731  1.00  0.00     0.049 A 
ATOM     42  N   UNL A   1      39.429  30.606  31.321  1.00  0.00    -0.248 NA
ATOM     43  C   UNL A   1      38.013  30.965  29.499  1.00  0.00     0.031 C 
ATOM     44  C   UNL A   1      37.426  33.972  33.488  1.00  0.00     0.029 A 
ATOM     45  N   UNL A   1      39.076  32.467  33.575  1.00  0.00    -0.354 N 
ATOM     46  C   UNL A   1      39.694  29.657  30.339  1.00  0.00     0.074 A 
ATOM     47  C   UNL A   1      38.742  29.883  29.272  1.00  0.00     0.031 C 
ATOM     48  C   UNL A   1      38.043  34.120  34.671  1.00  0.00     0.029 A 
ATOM     49  C   UNL A   1      39.110  33.131  34.781  1.00  0.00     0.049 A 
ATOM     50  H   UNL A   1      39.704  31.746  33.341  1.00  0.00     0.167 HD
ATOM     51  C   UNL A   1      40.656  28.702  30.320  1.00  0.00     0.034 A 
ATOM     52  C   UNL A   1      39.900  32.954  35.858  1.00  0.00     0.034 A 
ATOM     53  C   UNL A   1      41.610  28.501  31.384  1.00  0.00     0.049 A 
ATOM     54  C   UNL A   1      40.955  31.878  35.819  1.00  0.00     0.074 A 
ATOM     55  C   UNL A   1      42.665  27.607  31.440  1.00  0.00     0.029 A 
ATOM     56  N   UNL A   1      41.620  29.200  32.584  1.00  0.00    -0.354 N 
ATOM     57  N   UNL A   1      41.225  31.022  34.861  1.00  0.00    -0.248 NA
ATOM     58  C   UNL A   1      41.815  31.751  37.003  1.00  0.00     0.031 C 
ATOM     59  C   UNL A   1      43.275  27.724  32.694  1.00  0.00     0.029 A 
ATOM     60  C   UNL A   1      42.645  28.739  33.396  1.00  0.00     0.049 A 
ATOM     61  H   UNL A   1      40.992  29.919  32.823  1.00  0.00     0.167 HD
ATOM     62  C   UNL A   1      42.305  30.271  35.318  1.00  0.00     0.074 A 
ATOM     63  C   UNL A   1      42.642  30.786  36.630  1.00  0.00     0.031 C 
ATOM     64  C   UNL A   1      42.961  29.252  34.708  1.00  0.00     0.034 A 
BRANCH  51  65
ATOM     65  C   UNL A   1      40.704  27.793  29.114  1.00  0.00     0.023 A 
ATOM     66  C   UNL A   1      41.638  27.990  28.081  1.00  0.00     0.031 A 
ATOM     67  C   UNL A   1      39.785  26.738  28.977  1.00  0.00     0.131 A 
ATOM     68  C   UNL A   1      41.578  27.202  26.923  1.00  0.00     0.055 A 
ATOM     69  C   UNL A   1      39.784  25.903  27.858  1.00  0.00     0.041 A 
ATOM     70  F   UNL A   1      38.859  26.512  29.923  1.00  0.00    -0.206 F 
ATOM     71  C   UNL A   1      40.674  26.143  26.815  1.00  0.00     0.022 A 
BRANCH  68  72
ATOM     72  S   UNL A   1      42.602  27.673  25.502  1.00  0.00     0.124 S 
ATOM     73  O   UNL A   1      42.503  26.482  24.661  1.00  0.00    -0.237 OA
ATOM     74  O   UNL A   1      41.924  28.864  25.005  1.00  0.00    -0.237 OA
ATOM     75  O   UNL A   1      43.919  27.903  26.091  1.00  0.00    -0.744 OA
ENDBRANCH  68  72
ENDBRANCH  51  65
BRANCH  52  76
ATOM     76  C   UNL A   1      39.725  33.802  37.072  1.00  0.00     0.023 A 
ATOM     77  C   UNL A   1      39.037  33.318  38.196  1.00  0.00     0.031 A 
ATOM     78  C   UNL A   1      40.208  35.121  37.112  1.00  0.00     0.131 A 
ATOM     79  C   UNL A   1      38.811  34.162  39.295  1.00  0.00     0.055 A 
ATOM     80  C   UNL A   1      40.023  35.941  38.227  1.00  0.00     0.041 A 
ATOM     81  F   UNL A   1      40.879  35.630  36.065  1.00  0.00    -0.206 F 
ATOM     82  C   UNL A   1      39.309  35.466  39.322  1.00  0.00     0.022 A 
BRANCH  79  83
ATOM     83  S   UNL A   1      37.787  33.550  40.662  1.00  0.00     0.124 S 
ATOM     84  O   UNL A   1      38.676  32.581  41.289  1.00  0.00    -0.237 OA
ATOM     85  O   UNL A   1      37.531  34.771  41.417  1.00  0.00    -0.237 OA
ATOM     86  O   UNL A   1      36.622  32.983  39.984  1.00  0.00    -0.744 OA
ENDBRANCH  79  83
ENDBRANCH  52  76
BRANCH  64  87
ATOM     87  C   UNL A   1      44.136  28.660  35.443  1.00  0.00     0.023 A 
ATOM     88  C   UNL A   1      43.975  27.625  36.381  1.00  0.00     0.031 A 
ATOM     89  C   UNL A   1      45.434  29.147  35.210  1.00  0.00     0.131 A 
ATOM     90  C   UNL A   1      45.088  27.144  37.088  1.00  0.00     0.055 A 
ATOM     91  C   UNL A   1      46.545  28.628  35.876  1.00  0.00     0.041 A 
ATOM     92  F   UNL A   1      45.642  30.137  34.326  1.00  0.00    -0.206 F 
ATOM     93  C   UNL A   1      46.373  27.629  36.830  1.00  0.00     0.022 A 
BRANCH  90  94
ATOM     94  S   UNL A   1      44.823  25.929  38.409  1.00  0.00     0.124 S 
ATOM     95  O   UNL A   1      43.861  26.616  39.265  1.00  0.00    -0.237 OA
ATOM     96  O   UNL A   1      44.313  24.776  37.675  1.00  0.00    -0.237 OA
ATOM     97  O   UNL A   1      46.155  25.755  38.986  1.00  0.00    -0.744 OA
ENDBRANCH  90  94
ENDBRANCH  64  87
ENDBRANCH  38  39
ENDBRANCH  30  33
ENDBRANCH  28  29
ENDBRANCH  27  28
ENDBRANCH   1  27
TORSDOF 20
ENDMDL
