MODEL 1
REMARK VINA RESULT:     -12.8      0.000      0.000
REMARK SMILES Cc1cc(C(=O)N2C[C@@H](C(=O)NCCCCNC(=O)c3ccc(-c4c5nc(c(-c6cc(S(=O)(=O)[O-])ccc6F)c6ccc([nH]6)c(-c6cc(S(=O)(=O)[O-])ccc6F)c6nc(c(-c7cc(S(=O)(=O)[O-])ccc7F)c7ccc4[nH]7)C=C6)C=C5)cc3)[C@H](C3CC3)C2)sc1C
REMARK SMILES IDX 15 1 14 2 13 3 12 4 10 5 11 6 9 8 7 9 8 10 87 11 83 12 5 13
REMARK SMILES IDX 6 14 4 15 1 16 2 17 3 18 89 19 88 20 90 21 84 22 85 23 86 24
REMARK SMILES IDX 16 25 17 26 18 27 19 29 20 30 21 31 82 32 22 33 81 34 23 35
REMARK SMILES IDX 24 36 25 37 75 38 26 39 80 40 74 41 76 42 27 43 79 44 73 45
REMARK SMILES IDX 72 46 28 48 60 49 40 50 59 51 41 52 44 53 58 54 77 55 42 56
REMARK SMILES IDX 43 57 57 59 78 60 45 61 29 62 30 63 38 64 31 65 37 66 39 67
REMARK SMILES IDX 36 68 32 69 33 70 34 71 35 72 61 73 62 74 70 75 63 76 69 77
REMARK SMILES IDX 71 78 68 79 64 80 65 81 66 82 67 83 46 84 47 85 55 86 48 87
REMARK SMILES IDX 54 88 56 89 53 90 49 91 50 92 51 93 52 94
REMARK H PARENT 12 7 17 28 76 47 44 58
REMARK Flexibility Score: inf
ROOT
ATOM      1  C   UNL A   1      36.013  21.231  25.109  1.00  0.00     0.023 C 
ENDROOT
BRANCH   1   2
ATOM      2  C   UNL A   1      35.379  22.120  26.177  1.00  0.00     0.023 C 
BRANCH   2   3
ATOM      3  C   UNL A   1      34.406  21.437  27.130  1.00  0.00     0.116 C 
BRANCH   3   4
ATOM      4  N   UNL A   1      33.438  20.577  26.471  1.00  0.00    -0.356 N 
ATOM      5  C   UNL A   1      32.533  20.881  25.494  1.00  0.00     0.225 C 
ATOM      6  O   UNL A   1      31.915  19.956  24.966  1.00  0.00    -0.275 OA
ATOM      7  H   UNL A   1      33.433  19.640  26.773  1.00  0.00     0.163 HD
BRANCH   5   8
ATOM      8  C   UNL A   1      32.288  22.324  25.100  1.00  0.00     0.103 C 
ATOM      9  N   UNL A   1      30.732  24.040  25.159  1.00  0.00    -0.337 N 
ATOM     10  C   UNL A   1      31.139  22.886  25.937  1.00  0.00     0.133 C 
ATOM     11  C   UNL A   1      30.803  23.714  23.751  1.00  0.00     0.124 C 
ATOM     12  C   UNL A   1      31.763  22.501  23.653  1.00  0.00     0.026 C 
BRANCH   9  13
ATOM     13  C   UNL A   1      30.375  25.318  25.553  1.00  0.00     0.263 C 
ATOM     14  O   UNL A   1      29.538  25.451  26.452  1.00  0.00    -0.268 OA
BRANCH  13  15
ATOM     15  C   UNL A   1      30.904  26.490  24.858  1.00  0.00     0.093 A 
ATOM     16  C   UNL A   1      30.434  29.227  22.306  1.00  0.00     0.045 C 
ATOM     17  C   UNL A   1      30.988  28.272  23.311  1.00  0.00    -0.037 A 
ATOM     18  C   UNL A   1      30.178  27.339  24.041  1.00  0.00     0.029 A 
ATOM     19  C   UNL A   1      32.323  28.129  23.646  1.00  0.00     0.005 A 
ATOM     20  S   UNL A   1      32.573  26.825  24.719  1.00  0.00    -0.135 S 
ATOM     21  C   UNL A   1      33.500  28.903  23.150  1.00  0.00     0.056 C 
ENDBRANCH  13  15
ENDBRANCH   9  13
BRANCH  12  22
ATOM     22  C   UNL A   1      32.781  22.738  22.558  1.00  0.00    -0.005 C 
ATOM     23  C   UNL A   1      33.170  24.093  22.018  1.00  0.00     0.004 C 
ATOM     24  C   UNL A   1      34.142  23.307  22.858  1.00  0.00     0.004 C 
ENDBRANCH  12  22
ENDBRANCH   5   8
ENDBRANCH   3   4
ENDBRANCH   2   3
ENDBRANCH   1   2
BRANCH   1  25
ATOM     25  C   UNL A   1      37.469  21.528  24.760  1.00  0.00     0.116 C 
BRANCH  25  26
ATOM     26  N   UNL A   1      38.412  20.561  25.304  1.00  0.00    -0.352 N 
ATOM     27  C   UNL A   1      39.497  20.745  26.134  1.00  0.00     0.251 C 
ATOM     28  H   UNL A   1      38.248  19.628  25.036  1.00  0.00     0.163 HD
ATOM     29  O   UNL A   1      40.221  19.796  26.402  1.00  0.00    -0.269 OA
BRANCH  27  30
ATOM     30  C   UNL A   1      39.812  22.095  26.654  1.00  0.00     0.039 A 
ATOM     31  C   UNL A   1      40.859  22.234  27.568  1.00  0.00     0.014 A 
ATOM     32  C   UNL A   1      39.114  23.222  26.211  1.00  0.00     0.014 A 
ATOM     33  C   UNL A   1      41.285  23.511  27.943  1.00  0.00     0.010 A 
ATOM     34  C   UNL A   1      39.588  24.493  26.527  1.00  0.00     0.010 A 
ATOM     35  C   UNL A   1      40.697  24.652  27.373  1.00  0.00    -0.014 A 
BRANCH  35  36
ATOM     36  C   UNL A   1      41.269  26.007  27.592  1.00  0.00     0.031 A 
ATOM     37  C   UNL A   1      42.640  26.352  27.078  1.00  0.00     0.074 A 
ATOM     38  C   UNL A   1      40.584  26.899  28.336  1.00  0.00     0.049 A 
ATOM     39  N   UNL A   1      43.339  27.444  27.256  1.00  0.00    -0.248 NA
ATOM     40  C   UNL A   1      43.323  25.321  26.283  1.00  0.00     0.031 C 
ATOM     41  C   UNL A   1      39.266  26.667  28.934  1.00  0.00     0.029 A 
ATOM     42  N   UNL A   1      40.901  28.175  28.732  1.00  0.00    -0.354 N 
ATOM     43  C   UNL A   1      44.549  27.230  26.606  1.00  0.00     0.074 A 
ATOM     44  C   UNL A   1      44.505  25.882  26.078  1.00  0.00     0.031 C 
ATOM     45  C   UNL A   1      38.882  27.767  29.601  1.00  0.00     0.029 A 
ATOM     46  C   UNL A   1      39.943  28.766  29.524  1.00  0.00     0.049 A 
ATOM     47  H   UNL A   1      41.739  28.625  28.475  1.00  0.00     0.167 HD
ATOM     48  C   UNL A   1      45.590  28.086  26.447  1.00  0.00     0.034 A 
ATOM     49  C   UNL A   1      39.924  29.967  30.134  1.00  0.00     0.034 A 
ATOM     50  C   UNL A   1      45.615  29.429  26.973  1.00  0.00     0.049 A 
ATOM     51  C   UNL A   1      41.105  30.888  29.968  1.00  0.00     0.074 A 
ATOM     52  C   UNL A   1      46.589  30.400  26.811  1.00  0.00     0.029 A 
ATOM     53  N   UNL A   1      44.628  29.992  27.772  1.00  0.00    -0.354 N 
ATOM     54  N   UNL A   1      42.218  30.690  29.300  1.00  0.00    -0.248 NA
ATOM     55  C   UNL A   1      41.024  32.194  30.635  1.00  0.00     0.031 C 
ATOM     56  C   UNL A   1      46.224  31.521  27.565  1.00  0.00     0.029 A 
ATOM     57  C   UNL A   1      44.987  31.279  28.141  1.00  0.00     0.049 A 
ATOM     58  H   UNL A   1      43.794  29.541  28.039  1.00  0.00     0.167 HD
ATOM     59  C   UNL A   1      42.960  31.859  29.448  1.00  0.00     0.074 A 
ATOM     60  C   UNL A   1      42.159  32.759  30.252  1.00  0.00     0.031 C 
ATOM     61  C   UNL A   1      44.191  32.160  28.962  1.00  0.00     0.034 A 
BRANCH  48  62
ATOM     62  C   UNL A   1      46.795  27.578  25.691  1.00  0.00     0.023 A 
ATOM     63  C   UNL A   1      47.044  27.959  24.361  1.00  0.00     0.031 A 
ATOM     64  C   UNL A   1      47.696  26.689  26.302  1.00  0.00     0.131 A 
ATOM     65  C   UNL A   1      48.123  27.396  23.662  1.00  0.00     0.055 A 
ATOM     66  C   UNL A   1      48.814  26.194  25.626  1.00  0.00     0.041 A 
ATOM     67  F   UNL A   1      47.501  26.276  27.564  1.00  0.00    -0.206 F 
ATOM     68  C   UNL A   1      49.024  26.535  24.293  1.00  0.00     0.022 A 
BRANCH  65  69
ATOM     69  S   UNL A   1      48.252  27.700  21.879  1.00  0.00     0.124 S 
ATOM     70  O   UNL A   1      46.950  28.297  21.587  1.00  0.00    -0.237 OA
ATOM     71  O   UNL A   1      49.398  28.598  21.794  1.00  0.00    -0.237 OA
ATOM     72  O   UNL A   1      48.459  26.367  21.317  1.00  0.00    -0.744 OA
ENDBRANCH  65  69
ENDBRANCH  48  62
BRANCH  49  73
ATOM     73  C   UNL A   1      38.763  30.367  30.979  1.00  0.00     0.023 A 
ATOM     74  C   UNL A   1      37.670  31.055  30.426  1.00  0.00     0.031 A 
ATOM     75  C   UNL A   1      38.747  30.109  32.361  1.00  0.00     0.131 A 
ATOM     76  C   UNL A   1      36.631  31.500  31.257  1.00  0.00     0.055 A 
ATOM     77  C   UNL A   1      37.687  30.508  33.175  1.00  0.00     0.041 A 
ATOM     78  F   UNL A   1      39.764  29.449  32.939  1.00  0.00    -0.206 F 
ATOM     79  C   UNL A   1      36.625  31.220  32.626  1.00  0.00     0.022 A 
BRANCH  76  80
ATOM     80  S   UNL A   1      35.318  32.522  30.533  1.00  0.00     0.124 S 
ATOM     81  O   UNL A   1      34.972  31.758  29.339  1.00  0.00    -0.237 OA
ATOM     82  O   UNL A   1      34.322  32.533  31.599  1.00  0.00    -0.237 OA
ATOM     83  O   UNL A   1      35.980  33.801  30.286  1.00  0.00    -0.744 OA
ENDBRANCH  76  80
ENDBRANCH  49  73
BRANCH  61  84
ATOM     84  C   UNL A   1      44.725  33.538  29.269  1.00  0.00     0.023 A 
ATOM     85  C   UNL A   1      44.379  34.654  28.487  1.00  0.00     0.031 A 
ATOM     86  C   UNL A   1      45.607  33.731  30.346  1.00  0.00     0.131 A 
ATOM     87  C   UNL A   1      44.956  35.903  28.760  1.00  0.00     0.055 A 
ATOM     88  C   UNL A   1      46.132  34.988  30.649  1.00  0.00     0.041 A 
ATOM     89  F   UNL A   1      45.973  32.700  31.125  1.00  0.00    -0.206 F 
ATOM     90  C   UNL A   1      45.817  36.081  29.845  1.00  0.00     0.022 A 
BRANCH  87  91
ATOM     91  S   UNL A   1      44.632  37.278  27.621  1.00  0.00     0.124 S 
ATOM     92  O   UNL A   1      45.925  37.438  26.964  1.00  0.00    -0.237 OA
ATOM     93  O   UNL A   1      43.555  36.750  26.792  1.00  0.00    -0.237 OA
ATOM     94  O   UNL A   1      44.249  38.375  28.509  1.00  0.00    -0.744 OA
ENDBRANCH  87  91
ENDBRANCH  61  84
ENDBRANCH  35  36
ENDBRANCH  27  30
ENDBRANCH  25  26
ENDBRANCH   1  25
TORSDOF 17
ENDMDL
MODEL 2
REMARK VINA RESULT:     -12.6      5.620      8.870
REMARK SMILES Cc1cc(C(=O)N2C[C@@H](C(=O)NCCCCNC(=O)c3ccc(-c4c5nc(c(-c6cc(S(=O)(=O)[O-])ccc6F)c6ccc([nH]6)c(-c6cc(S(=O)(=O)[O-])ccc6F)c6nc(c(-c7cc(S(=O)(=O)[O-])ccc7F)c7ccc4[nH]7)C=C6)C=C5)cc3)[C@H](C3CC3)C2)sc1C
REMARK SMILES IDX 15 1 14 2 13 3 12 4 10 5 11 6 9 8 7 9 8 10 87 11 83 12 5 13
REMARK SMILES IDX 6 14 4 15 1 16 2 17 3 18 89 19 88 20 90 21 84 22 85 23 86 24
REMARK SMILES IDX 16 25 17 26 18 27 19 29 20 30 21 31 82 32 22 33 81 34 23 35
REMARK SMILES IDX 24 36 25 37 75 38 26 39 80 40 74 41 76 42 27 43 79 44 73 45
REMARK SMILES IDX 72 46 28 48 60 49 40 50 59 51 41 52 44 53 58 54 77 55 42 56
REMARK SMILES IDX 43 57 57 59 78 60 45 61 29 62 30 63 38 64 31 65 37 66 39 67
REMARK SMILES IDX 36 68 32 69 33 70 34 71 35 72 61 73 62 74 70 75 63 76 69 77
REMARK SMILES IDX 71 78 68 79 64 80 65 81 66 82 67 83 46 84 47 85 55 86 48 87
REMARK SMILES IDX 54 88 56 89 53 90 49 91 50 92 51 93 52 94
REMARK H PARENT 12 7 17 28 76 47 44 58
REMARK Flexibility Score: inf
ROOT
ATOM      1  C   UNL A   1      32.193  30.915  26.854  1.00  0.00     0.023 C 
ENDROOT
BRANCH   1   2
ATOM      2  C   UNL A   1      32.454  29.424  27.058  1.00  0.00     0.023 C 
BRANCH   2   3
ATOM      3  C   UNL A   1      33.661  28.846  26.331  1.00  0.00     0.116 C 
BRANCH   3   4
ATOM      4  N   UNL A   1      33.783  29.278  24.950  1.00  0.00    -0.356 N 
ATOM      5  C   UNL A   1      33.506  28.593  23.801  1.00  0.00     0.225 C 
ATOM      6  O   UNL A   1      33.531  29.211  22.735  1.00  0.00    -0.275 OA
ATOM      7  H   UNL A   1      34.114  30.196  24.823  1.00  0.00     0.163 HD
BRANCH   5   8
ATOM      8  C   UNL A   1      33.202  27.109  23.848  1.00  0.00     0.103 C 
ATOM      9  N   UNL A   1      32.899  25.219  22.541  1.00  0.00    -0.337 N 
ATOM     10  C   UNL A   1      33.646  26.462  22.536  1.00  0.00     0.133 C 
ATOM     11  C   UNL A   1      31.576  25.462  23.074  1.00  0.00     0.124 C 
ATOM     12  C   UNL A   1      31.689  26.777  23.887  1.00  0.00     0.026 C 
BRANCH   9  13
ATOM     13  C   UNL A   1      33.276  23.934  22.191  1.00  0.00     0.263 C 
ATOM     14  O   UNL A   1      33.317  23.633  20.994  1.00  0.00    -0.268 OA
BRANCH  13  15
ATOM     15  C   UNL A   1      33.529  22.924  23.215  1.00  0.00     0.093 A 
ATOM     16  C   UNL A   1      35.982  21.075  25.405  1.00  0.00     0.045 C 
ATOM     17  C   UNL A   1      34.765  21.533  24.669  1.00  0.00    -0.037 A 
ATOM     18  C   UNL A   1      34.727  22.731  23.881  1.00  0.00     0.029 A 
ATOM     19  C   UNL A   1      33.552  20.872  24.614  1.00  0.00     0.005 A 
ATOM     20  S   UNL A   1      32.461  21.632  23.543  1.00  0.00    -0.135 S 
ATOM     21  C   UNL A   1      33.144  19.608  25.297  1.00  0.00     0.056 C 
ENDBRANCH  13  15
ENDBRANCH   9  13
BRANCH  12  22
ATOM     22  C   UNL A   1      31.041  26.599  25.243  1.00  0.00    -0.005 C 
ATOM     23  C   UNL A   1      30.097  25.480  25.610  1.00  0.00     0.004 C 
ATOM     24  C   UNL A   1      31.485  25.518  26.192  1.00  0.00     0.004 C 
ENDBRANCH  12  22
ENDBRANCH   5   8
ENDBRANCH   3   4
ENDBRANCH   2   3
ENDBRANCH   1   2
BRANCH   1  25
ATOM     25  C   UNL A   1      33.272  31.865  27.365  1.00  0.00     0.116 C 
BRANCH  25  26
ATOM     26  N   UNL A   1      32.798  33.223  27.591  1.00  0.00    -0.352 N 
ATOM     27  C   UNL A   1      33.235  34.183  28.478  1.00  0.00     0.251 C 
ATOM     28  H   UNL A   1      32.045  33.499  27.019  1.00  0.00     0.163 HD
ATOM     29  O   UNL A   1      32.630  35.242  28.570  1.00  0.00    -0.269 OA
BRANCH  27  30
ATOM     30  C   UNL A   1      34.399  33.909  29.352  1.00  0.00     0.039 A 
ATOM     31  C   UNL A   1      34.202  33.169  30.520  1.00  0.00     0.014 A 
ATOM     32  C   UNL A   1      35.683  34.338  29.003  1.00  0.00     0.014 A 
ATOM     33  C   UNL A   1      35.304  32.754  31.271  1.00  0.00     0.010 A 
ATOM     34  C   UNL A   1      36.784  33.860  29.710  1.00  0.00     0.010 A 
ATOM     35  C   UNL A   1      36.608  33.040  30.835  1.00  0.00    -0.014 A 
BRANCH  35  36
ATOM     36  C   UNL A   1      37.794  32.432  31.496  1.00  0.00     0.031 A 
ATOM     37  C   UNL A   1      38.526  31.286  30.854  1.00  0.00     0.074 A 
ATOM     38  C   UNL A   1      38.154  32.860  32.724  1.00  0.00     0.049 A 
ATOM     39  N   UNL A   1      39.515  30.570  31.325  1.00  0.00    -0.248 NA
ATOM     40  C   UNL A   1      38.065  30.877  29.520  1.00  0.00     0.031 C 
ATOM     41  C   UNL A   1      37.493  33.930  33.475  1.00  0.00     0.029 A 
ATOM     42  N   UNL A   1      39.154  32.440  33.567  1.00  0.00    -0.354 N 
ATOM     43  C   UNL A   1      39.790  29.617  30.350  1.00  0.00     0.074 A 
ATOM     44  C   UNL A   1      38.825  29.816  29.289  1.00  0.00     0.031 C 
ATOM     45  C   UNL A   1      38.115  34.094  34.653  1.00  0.00     0.029 A 
ATOM     46  C   UNL A   1      39.187  33.112  34.767  1.00  0.00     0.049 A 
ATOM     47  H   UNL A   1      39.788  31.723  33.334  1.00  0.00     0.167 HD
ATOM     48  C   UNL A   1      40.769  28.677  30.334  1.00  0.00     0.034 A 
ATOM     49  C   UNL A   1      39.977  32.947  35.847  1.00  0.00     0.034 A 
ATOM     50  C   UNL A   1      41.729  28.497  31.397  1.00  0.00     0.049 A 
ATOM     51  C   UNL A   1      41.037  31.876  35.817  1.00  0.00     0.074 A 
ATOM     52  C   UNL A   1      42.801  27.622  31.450  1.00  0.00     0.029 A 
ATOM     53  N   UNL A   1      41.729  29.193  32.599  1.00  0.00    -0.354 N 
ATOM     54  N   UNL A   1      41.320  31.022  34.862  1.00  0.00    -0.248 NA
ATOM     55  C   UNL A   1      41.886  31.754  37.009  1.00  0.00     0.031 C 
ATOM     56  C   UNL A   1      43.406  27.742  32.706  1.00  0.00     0.029 A 
ATOM     57  C   UNL A   1      42.757  28.742  33.413  1.00  0.00     0.049 A 
ATOM     58  H   UNL A   1      41.090  29.903  32.839  1.00  0.00     0.167 HD
ATOM     59  C   UNL A   1      42.396  30.273  35.331  1.00  0.00     0.074 A 
ATOM     60  C   UNL A   1      42.721  30.792  36.644  1.00  0.00     0.031 C 
ATOM     61  C   UNL A   1      43.058  29.252  34.730  1.00  0.00     0.034 A 
BRANCH  48  62
ATOM     62  C   UNL A   1      40.830  27.761  29.136  1.00  0.00     0.023 A 
ATOM     63  C   UNL A   1      41.758  27.963  28.100  1.00  0.00     0.031 A 
ATOM     64  C   UNL A   1      39.937  26.680  29.019  1.00  0.00     0.131 A 
ATOM     65  C   UNL A   1      41.725  27.145  26.960  1.00  0.00     0.055 A 
ATOM     66  C   UNL A   1      39.961  25.821  27.918  1.00  0.00     0.041 A 
ATOM     67  F   UNL A   1      39.017  26.448  29.968  1.00  0.00    -0.206 F 
ATOM     68  C   UNL A   1      40.849  26.061  26.873  1.00  0.00     0.022 A 
BRANCH  65  69
ATOM     69  S   UNL A   1      42.750  27.603  25.536  1.00  0.00     0.124 S 
ATOM     70  O   UNL A   1      42.083  28.818  25.072  1.00  0.00    -0.237 OA
ATOM     71  O   UNL A   1      44.065  27.788  26.140  1.00  0.00    -0.237 OA
ATOM     72  O   UNL A   1      42.629  26.454  24.642  1.00  0.00    -0.744 OA
ENDBRANCH  65  69
ENDBRANCH  48  62
BRANCH  49  73
ATOM     73  C   UNL A   1      39.788  33.794  37.058  1.00  0.00     0.023 A 
ATOM     74  C   UNL A   1      39.111  33.302  38.186  1.00  0.00     0.031 A 
ATOM     75  C   UNL A   1      40.244  35.125  37.091  1.00  0.00     0.131 A 
ATOM     76  C   UNL A   1      38.868  34.147  39.279  1.00  0.00     0.055 A 
ATOM     77  C   UNL A   1      40.046  35.945  38.202  1.00  0.00     0.041 A 
ATOM     78  F   UNL A   1      40.903  35.642  36.042  1.00  0.00    -0.206 F 
ATOM     79  C   UNL A   1      39.342  35.462  39.301  1.00  0.00     0.022 A 
BRANCH  76  80
ATOM     80  S   UNL A   1      37.852  33.526  40.648  1.00  0.00     0.124 S 
ATOM     81  O   UNL A   1      38.739  32.536  41.250  1.00  0.00    -0.237 OA
ATOM     82  O   UNL A   1      37.619  34.738  41.426  1.00  0.00    -0.237 OA
ATOM     83  O   UNL A   1      36.674  32.981  39.976  1.00  0.00    -0.744 OA
ENDBRANCH  76  80
ENDBRANCH  49  73
BRANCH  61  84
ATOM     84  C   UNL A   1      44.218  28.654  35.486  1.00  0.00     0.023 A 
ATOM     85  C   UNL A   1      44.039  27.597  36.396  1.00  0.00     0.031 A 
ATOM     86  C   UNL A   1      45.516  29.163  35.310  1.00  0.00     0.131 A 
ATOM     87  C   UNL A   1      45.131  27.119  37.135  1.00  0.00     0.055 A 
ATOM     88  C   UNL A   1      46.609  28.644  36.005  1.00  0.00     0.041 A 
ATOM     89  F   UNL A   1      45.744  30.174  34.456  1.00  0.00    -0.206 F 
ATOM     90  C   UNL A   1      46.418  27.625  36.934  1.00  0.00     0.022 A 
BRANCH  87  91
ATOM     91  S   UNL A   1      44.832  25.884  38.430  1.00  0.00     0.124 S 
ATOM     92  O   UNL A   1      44.155  24.825  37.689  1.00  0.00    -0.237 OA
ATOM     93  O   UNL A   1      46.183  25.578  38.887  1.00  0.00    -0.237 OA
ATOM     94  O   UNL A   1      43.998  26.596  39.397  1.00  0.00    -0.744 OA
ENDBRANCH  87  91
ENDBRANCH  61  84
ENDBRANCH  35  36
ENDBRANCH  27  30
ENDBRANCH  25  26
ENDBRANCH   1  25
TORSDOF 17
ENDMDL
MODEL 3
REMARK VINA RESULT:     -12.5      5.165      8.433
REMARK SMILES Cc1cc(C(=O)N2C[C@@H](C(=O)NCCCCNC(=O)c3ccc(-c4c5nc(c(-c6cc(S(=O)(=O)[O-])ccc6F)c6ccc([nH]6)c(-c6cc(S(=O)(=O)[O-])ccc6F)c6nc(c(-c7cc(S(=O)(=O)[O-])ccc7F)c7ccc4[nH]7)C=C6)C=C5)cc3)[C@H](C3CC3)C2)sc1C
REMARK SMILES IDX 15 1 14 2 13 3 12 4 10 5 11 6 9 8 7 9 8 10 87 11 83 12 5 13
REMARK SMILES IDX 6 14 4 15 1 16 2 17 3 18 89 19 88 20 90 21 84 22 85 23 86 24
REMARK SMILES IDX 16 25 17 26 18 27 19 29 20 30 21 31 82 32 22 33 81 34 23 35
REMARK SMILES IDX 24 36 25 37 75 38 26 39 80 40 74 41 76 42 27 43 79 44 73 45
REMARK SMILES IDX 72 46 28 48 60 49 40 50 59 51 41 52 44 53 58 54 77 55 42 56
REMARK SMILES IDX 43 57 57 59 78 60 45 61 29 62 30 63 38 64 31 65 37 66 39 67
REMARK SMILES IDX 36 68 32 69 33 70 34 71 35 72 61 73 62 74 70 75 63 76 69 77
REMARK SMILES IDX 71 78 68 79 64 80 65 81 66 82 67 83 46 84 47 85 55 86 48 87
REMARK SMILES IDX 54 88 56 89 53 90 49 91 50 92 51 93 52 94
REMARK H PARENT 12 7 17 28 76 47 44 58
REMARK Flexibility Score: inf
ROOT
ATOM      1  C   UNL A   1      31.375  32.037  26.913  1.00  0.00     0.023 C 
ENDROOT
BRANCH   1   2
ATOM      2  C   UNL A   1      31.601  30.638  26.343  1.00  0.00     0.023 C 
BRANCH   2   3
ATOM      3  C   UNL A   1      32.909  29.959  26.728  1.00  0.00     0.116 C 
BRANCH   3   4
ATOM      4  N   UNL A   1      33.701  29.513  25.594  1.00  0.00    -0.356 N 
ATOM      5  C   UNL A   1      33.593  28.366  24.859  1.00  0.00     0.225 C 
ATOM      6  O   UNL A   1      34.271  28.266  23.836  1.00  0.00    -0.275 OA
ATOM      7  H   UNL A   1      34.420  30.125  25.316  1.00  0.00     0.163 HD
BRANCH   5   8
ATOM      8  C   UNL A   1      32.678  27.247  25.317  1.00  0.00     0.103 C 
ATOM      9  N   UNL A   1      32.488  24.945  25.500  1.00  0.00    -0.337 N 
ATOM     10  C   UNL A   1      33.505  25.980  25.532  1.00  0.00     0.133 C 
ATOM     11  C   UNL A   1      31.508  25.273  24.488  1.00  0.00     0.124 C 
ATOM     12  C   UNL A   1      31.651  26.798  24.248  1.00  0.00     0.026 C 
BRANCH   9  13
ATOM     13  C   UNL A   1      32.318  23.818  26.285  1.00  0.00     0.263 C 
ATOM     14  O   UNL A   1      31.616  23.900  27.298  1.00  0.00    -0.268 OA
BRANCH  13  15
ATOM     15  C   UNL A   1      33.029  22.579  25.978  1.00  0.00     0.093 A 
ATOM     16  C   UNL A   1      36.264  20.817  25.165  1.00  0.00     0.045 C 
ATOM     17  C   UNL A   1      34.830  21.169  25.391  1.00  0.00    -0.037 A 
ATOM     18  C   UNL A   1      34.404  22.427  25.933  1.00  0.00     0.029 A 
ATOM     19  C   UNL A   1      33.740  20.374  25.085  1.00  0.00     0.005 A 
ATOM     20  S   UNL A   1      32.263  21.190  25.343  1.00  0.00    -0.135 S 
ATOM     21  C   UNL A   1      33.721  18.989  24.527  1.00  0.00     0.056 C 
ENDBRANCH  13  15
ENDBRANCH   9  13
BRANCH  12  22
ATOM     22  C   UNL A   1      30.285  27.450  24.263  1.00  0.00    -0.005 C 
ATOM     23  C   UNL A   1      29.522  27.887  23.037  1.00  0.00     0.004 C 
ATOM     24  C   UNL A   1      29.050  26.702  23.837  1.00  0.00     0.004 C 
ENDBRANCH  12  22
ENDBRANCH   5   8
ENDBRANCH   3   4
ENDBRANCH   2   3
ENDBRANCH   1   2
BRANCH   1  25
ATOM     25  C   UNL A   1      32.527  33.025  26.754  1.00  0.00     0.116 C 
BRANCH  25  26
ATOM     26  N   UNL A   1      32.455  34.161  27.662  1.00  0.00    -0.352 N 
ATOM     27  C   UNL A   1      33.266  34.507  28.722  1.00  0.00     0.251 C 
ATOM     28  H   UNL A   1      31.708  34.779  27.492  1.00  0.00     0.163 HD
ATOM     29  O   UNL A   1      32.970  35.466  29.421  1.00  0.00    -0.269 OA
BRANCH  27  30
ATOM     30  C   UNL A   1      34.457  33.688  29.041  1.00  0.00     0.039 A 
ATOM     31  C   UNL A   1      35.724  34.213  28.774  1.00  0.00     0.014 A 
ATOM     32  C   UNL A   1      34.333  32.432  29.642  1.00  0.00     0.014 A 
ATOM     33  C   UNL A   1      36.862  33.536  29.219  1.00  0.00     0.010 A 
ATOM     34  C   UNL A   1      35.463  31.797  30.150  1.00  0.00     0.010 A 
ATOM     35  C   UNL A   1      36.738  32.356  29.969  1.00  0.00    -0.014 A 
BRANCH  35  36
ATOM     36  C   UNL A   1      37.916  31.735  30.632  1.00  0.00     0.031 A 
ATOM     37  C   UNL A   1      38.712  30.667  29.934  1.00  0.00     0.074 A 
ATOM     38  C   UNL A   1      38.210  32.073  31.904  1.00  0.00     0.049 A 
ATOM     39  N   UNL A   1      39.705  29.946  30.389  1.00  0.00    -0.248 NA
ATOM     40  C   UNL A   1      38.321  30.351  28.553  1.00  0.00     0.031 C 
ATOM     41  C   UNL A   1      37.482  33.059  32.707  1.00  0.00     0.029 A 
ATOM     42  N   UNL A   1      39.188  31.618  32.754  1.00  0.00    -0.354 N 
ATOM     43  C   UNL A   1      40.052  29.083  29.356  1.00  0.00     0.074 A 
ATOM     44  C   UNL A   1      39.125  29.337  28.273  1.00  0.00     0.031 C 
ATOM     45  C   UNL A   1      38.049  33.147  33.921  1.00  0.00     0.029 A 
ATOM     46  C   UNL A   1      39.149  32.192  34.004  1.00  0.00     0.049 A 
ATOM     47  H   UNL A   1      39.856  30.942  32.493  1.00  0.00     0.167 HD
ATOM     48  C   UNL A   1      41.063  28.178  29.309  1.00  0.00     0.034 A 
ATOM     49  C   UNL A   1      39.898  31.966  35.100  1.00  0.00     0.034 A 
ATOM     50  C   UNL A   1      41.983  27.943  30.395  1.00  0.00     0.049 A 
ATOM     51  C   UNL A   1      40.995  30.934  35.033  1.00  0.00     0.074 A 
ATOM     52  C   UNL A   1      43.082  27.100  30.425  1.00  0.00     0.029 A 
ATOM     53  N   UNL A   1      41.910  28.540  31.646  1.00  0.00    -0.354 N 
ATOM     54  N   UNL A   1      41.346  30.168  34.027  1.00  0.00    -0.248 NA
ATOM     55  C   UNL A   1      41.798  30.742  36.248  1.00  0.00     0.031 C 
ATOM     56  C   UNL A   1      43.630  27.137  31.713  1.00  0.00     0.029 A 
ATOM     57  C   UNL A   1      42.919  28.057  32.467  1.00  0.00     0.049 A 
ATOM     58  H   UNL A   1      41.238  29.209  31.914  1.00  0.00     0.167 HD
ATOM     59  C   UNL A   1      42.427  29.418  34.482  1.00  0.00     0.074 A 
ATOM     60  C   UNL A   1      42.680  29.839  35.845  1.00  0.00     0.031 C 
ATOM     61  C   UNL A   1      43.147  28.469  33.832  1.00  0.00     0.034 A 
BRANCH  48  62
ATOM     62  C   UNL A   1      41.204  27.363  28.046  1.00  0.00     0.023 A 
ATOM     63  C   UNL A   1      40.825  26.010  27.995  1.00  0.00     0.031 A 
ATOM     64  C   UNL A   1      41.742  27.941  26.882  1.00  0.00     0.131 A 
ATOM     65  C   UNL A   1      41.055  25.261  26.831  1.00  0.00     0.055 A 
ATOM     66  C   UNL A   1      41.896  27.210  25.702  1.00  0.00     0.041 A 
ATOM     67  F   UNL A   1      42.139  29.223  26.875  1.00  0.00    -0.206 F 
ATOM     68  C   UNL A   1      41.566  25.857  25.676  1.00  0.00     0.022 A 
BRANCH  65  69
ATOM     69  S   UNL A   1      40.806  23.466  26.894  1.00  0.00     0.124 S 
ATOM     70  O   UNL A   1      39.375  23.358  26.617  1.00  0.00    -0.237 OA
ATOM     71  O   UNL A   1      41.697  22.986  25.845  1.00  0.00    -0.237 OA
ATOM     72  O   UNL A   1      41.198  23.112  28.257  1.00  0.00    -0.744 OA
ENDBRANCH  65  69
ENDBRANCH  48  62
BRANCH  49  73
ATOM     73  C   UNL A   1      39.632  32.707  36.366  1.00  0.00     0.023 A 
ATOM     74  C   UNL A   1      38.713  32.219  37.309  1.00  0.00     0.031 A 
ATOM     75  C   UNL A   1      40.258  33.938  36.631  1.00  0.00     0.131 A 
ATOM     76  C   UNL A   1      38.412  32.978  38.450  1.00  0.00     0.055 A 
ATOM     77  C   UNL A   1      39.995  34.664  37.793  1.00  0.00     0.041 A 
ATOM     78  F   UNL A   1      41.150  34.445  35.766  1.00  0.00    -0.206 F 
ATOM     79  C   UNL A   1      39.056  34.192  38.705  1.00  0.00     0.022 A 
BRANCH  76  80
ATOM     80  S   UNL A   1      37.104  32.392  39.562  1.00  0.00     0.124 S 
ATOM     81  O   UNL A   1      37.413  30.970  39.660  1.00  0.00    -0.237 OA
ATOM     82  O   UNL A   1      37.349  33.187  40.761  1.00  0.00    -0.237 OA
ATOM     83  O   UNL A   1      35.875  32.716  38.842  1.00  0.00    -0.744 OA
ENDBRANCH  76  80
ENDBRANCH  49  73
BRANCH  61  84
ATOM     84  C   UNL A   1      44.296  27.848  34.589  1.00  0.00     0.023 A 
ATOM     85  C   UNL A   1      45.594  28.383  34.528  1.00  0.00     0.031 A 
ATOM     86  C   UNL A   1      44.091  26.694  35.365  1.00  0.00     0.131 A 
ATOM     87  C   UNL A   1      46.649  27.733  35.186  1.00  0.00     0.055 A 
ATOM     88  C   UNL A   1      45.133  26.085  36.065  1.00  0.00     0.041 A 
ATOM     89  F   UNL A   1      42.871  26.139  35.456  1.00  0.00    -0.206 F 
ATOM     90  C   UNL A   1      46.424  26.597  35.967  1.00  0.00     0.022 A 
BRANCH  87  91
ATOM     91  S   UNL A   1      48.339  28.344  34.936  1.00  0.00     0.124 S 
ATOM     92  O   UNL A   1      48.502  28.204  33.493  1.00  0.00    -0.237 OA
ATOM     93  O   UNL A   1      48.254  29.711  35.438  1.00  0.00    -0.237 OA
ATOM     94  O   UNL A   1      49.154  27.437  35.743  1.00  0.00    -0.744 OA
ENDBRANCH  87  91
ENDBRANCH  61  84
ENDBRANCH  35  36
ENDBRANCH  27  30
ENDBRANCH  25  26
ENDBRANCH   1  25
TORSDOF 17
ENDMDL
