MODEL 1
REMARK VINA RESULT:     -12.3      0.000      0.000
REMARK SMILES COc1ccccc1[C@H](C)NC(=O)[C@@H]1CC=CC[C@@H]1C(=O)NCCCCNC(=O)c1ccc(-c2c3nc(c(-c4cc(S(=O)(=O)[O-])ccc4F)c4ccc([nH]4)c(-c4cc(S(=O)(=O)[O-])ccc4F)c4nc(c(-c5cc(S(=O)(=O)[O-])ccc5F)c5ccc2[nH]5)C=C4)C=C3)cc1
REMARK SMILES IDX 24 1 23 2 22 3 20 4 21 5 19 7 14 8 15 9 16 10 18 11 17 12
REMARK SMILES IDX 12 13 11 14 13 16 9 17 10 18 8 19 3 20 4 21 5 22 7 23 6 24
REMARK SMILES IDX 2 25 1 26 25 27 26 28 27 29 28 30 29 32 30 33 31 34 92 35
REMARK SMILES IDX 32 36 91 37 33 38 34 39 35 40 85 41 36 42 90 43 84 44 86 45
REMARK SMILES IDX 37 46 89 47 83 48 82 49 38 51 70 52 50 53 69 54 51 55 54 56
REMARK SMILES IDX 68 57 87 58 52 59 53 60 67 62 88 63 55 64 39 65 40 66 48 67
REMARK SMILES IDX 41 68 47 69 49 70 46 71 42 72 43 73 44 74 45 75 71 76 72 77
REMARK SMILES IDX 80 78 73 79 79 80 81 81 78 82 74 83 75 84 76 85 77 86 56 87
REMARK SMILES IDX 57 88 65 89 58 90 64 91 66 92 63 93 59 94 60 95 61 96 62 97
REMARK H PARENT 22 6 11 15 27 31 86 50 54 61
REMARK Flexibility Score: inf
ROOT
ATOM      1  C   UNL A   1      37.515  22.272  24.702  1.00  0.00     0.023 C 
ENDROOT
BRANCH   1   2
ATOM      2  C   UNL A   1      36.821  23.105  25.775  1.00  0.00     0.116 C 
BRANCH   2   3
ATOM      3  N   UNL A   1      35.894  22.273  26.502  1.00  0.00    -0.356 N 
ATOM      4  C   UNL A   1      34.535  22.278  26.514  1.00  0.00     0.224 C 
ATOM      5  O   UNL A   1      34.011  21.551  27.362  1.00  0.00    -0.275 OA
ATOM      6  H   UNL A   1      36.312  21.594  27.080  1.00  0.00     0.163 HD
BRANCH   4   7
ATOM      7  C   UNL A   1      33.717  23.079  25.477  1.00  0.00     0.095 C 
ATOM      8  C   UNL A   1      32.175  22.992  25.578  1.00  0.00     0.095 C 
ATOM      9  C   UNL A   1      31.716  21.526  25.563  1.00  0.00     0.041 C 
ATOM     10  C   UNL A   1      32.331  20.771  24.417  1.00  0.00    -0.030 C 
ATOM     11  C   UNL A   1      34.098  22.523  24.073  1.00  0.00     0.041 C 
ATOM     12  C   UNL A   1      33.381  21.237  23.721  1.00  0.00    -0.030 C 
BRANCH   8  13
ATOM     13  C   UNL A   1      31.508  23.757  26.712  1.00  0.00     0.224 C 
ATOM     14  N   UNL A   1      31.611  25.123  26.745  1.00  0.00    -0.349 N 
ATOM     15  H   UNL A   1      32.049  25.552  27.515  1.00  0.00     0.164 HD
ATOM     16  O   UNL A   1      30.838  23.210  27.586  1.00  0.00    -0.275 OA
BRANCH  14  17
ATOM     17  C   UNL A   1      31.089  25.956  25.675  1.00  0.00     0.113 C 
ATOM     18  C   UNL A   1      29.571  25.742  25.561  1.00  0.00     0.036 C 
BRANCH  17  19
ATOM     19  C   UNL A   1      31.423  27.420  25.839  1.00  0.00     0.016 A 
ATOM     20  C   UNL A   1      31.407  28.299  24.741  1.00  0.00     0.124 A 
ATOM     21  C   UNL A   1      31.641  29.666  24.909  1.00  0.00     0.047 A 
ATOM     22  C   UNL A   1      31.877  30.185  26.181  1.00  0.00     0.004 A 
ATOM     23  C   UNL A   1      31.699  27.961  27.110  1.00  0.00     0.010 A 
ATOM     24  C   UNL A   1      31.916  29.331  27.279  1.00  0.00     0.001 A 
BRANCH  20  25
ATOM     25  O   UNL A   1      31.265  27.851  23.454  1.00  0.00    -0.496 OA
ATOM     26  C   UNL A   1      30.218  28.519  22.750  1.00  0.00     0.278 C 
ENDBRANCH  20  25
ENDBRANCH  17  19
ENDBRANCH  14  17
ENDBRANCH   8  13
ENDBRANCH   4   7
ENDBRANCH   2   3
ENDBRANCH   1   2
BRANCH   1  27
ATOM     27  C   UNL A   1      38.062  20.932  25.158  1.00  0.00     0.023 C 
BRANCH  27  28
ATOM     28  C   UNL A   1      39.339  21.021  25.969  1.00  0.00     0.116 C 
BRANCH  28  29
ATOM     29  N   UNL A   1      40.111  19.784  25.990  1.00  0.00    -0.352 N 
ATOM     30  C   UNL A   1      41.474  19.634  26.129  1.00  0.00     0.251 C 
ATOM     31  H   UNL A   1      39.594  18.952  25.893  1.00  0.00     0.163 HD
ATOM     32  O   UNL A   1      41.994  18.533  26.033  1.00  0.00    -0.269 OA
BRANCH  30  33
ATOM     33  C   UNL A   1      42.282  20.852  26.345  1.00  0.00     0.039 A 
ATOM     34  C   UNL A   1      42.607  21.655  25.253  1.00  0.00     0.014 A 
ATOM     35  C   UNL A   1      42.585  21.256  27.647  1.00  0.00     0.014 A 
ATOM     36  C   UNL A   1      43.160  22.916  25.478  1.00  0.00     0.010 A 
ATOM     37  C   UNL A   1      43.024  22.552  27.871  1.00  0.00     0.010 A 
ATOM     38  C   UNL A   1      43.324  23.395  26.789  1.00  0.00    -0.014 A 
BRANCH  38  39
ATOM     39  C   UNL A   1      43.819  24.768  27.060  1.00  0.00     0.031 A 
ATOM     40  C   UNL A   1      42.882  25.791  27.644  1.00  0.00     0.074 A 
ATOM     41  C   UNL A   1      45.075  25.111  26.710  1.00  0.00     0.049 A 
ATOM     42  N   UNL A   1      43.084  27.063  27.877  1.00  0.00    -0.248 NA
ATOM     43  C   UNL A   1      41.521  25.333  27.962  1.00  0.00     0.031 C 
ATOM     44  C   UNL A   1      46.050  24.222  26.071  1.00  0.00     0.029 A 
ATOM     45  N   UNL A   1      45.747  26.300  26.837  1.00  0.00    -0.354 N 
ATOM     46  C   UNL A   1      41.871  27.556  28.346  1.00  0.00     0.074 A 
ATOM     47  C   UNL A   1      40.921  26.467  28.284  1.00  0.00     0.031 C 
ATOM     48  C   UNL A   1      47.205  24.886  25.900  1.00  0.00     0.029 A 
ATOM     49  C   UNL A   1      47.043  26.256  26.374  1.00  0.00     0.049 A 
ATOM     50  H   UNL A   1      45.342  27.108  27.224  1.00  0.00     0.167 HD
ATOM     51  C   UNL A   1      41.585  28.794  28.819  1.00  0.00     0.034 A 
ATOM     52  C   UNL A   1      47.989  27.215  26.336  1.00  0.00     0.034 A 
ATOM     53  C   UNL A   1      42.555  29.856  28.901  1.00  0.00     0.049 A 
ATOM     54  C   UNL A   1      47.655  28.580  26.883  1.00  0.00     0.074 A 
ATOM     55  C   UNL A   1      42.401  31.129  29.419  1.00  0.00     0.029 A 
ATOM     56  N   UNL A   1      43.867  29.768  28.450  1.00  0.00    -0.354 N 
ATOM     57  N   UNL A   1      46.520  29.014  27.383  1.00  0.00    -0.248 NA
ATOM     58  C   UNL A   1      48.732  29.577  26.876  1.00  0.00     0.031 C 
ATOM     59  C   UNL A   1      43.598  31.828  29.228  1.00  0.00     0.029 A 
ATOM     60  C   UNL A   1      44.524  30.970  28.658  1.00  0.00     0.049 A 
ATOM     61  H   UNL A   1      44.270  28.967  28.041  1.00  0.00     0.167 HD
ATOM     62  C   UNL A   1      46.759  30.328  27.777  1.00  0.00     0.074 A 
ATOM     63  C   UNL A   1      48.149  30.604  27.474  1.00  0.00     0.031 C 
ATOM     64  C   UNL A   1      45.910  31.227  28.339  1.00  0.00     0.034 A 
BRANCH  51  65
ATOM     65  C   UNL A   1      40.164  29.052  29.265  1.00  0.00     0.023 A 
ATOM     66  C   UNL A   1      39.799  29.015  30.624  1.00  0.00     0.031 A 
ATOM     67  C   UNL A   1      39.151  29.293  28.321  1.00  0.00     0.131 A 
ATOM     68  C   UNL A   1      38.450  29.123  30.991  1.00  0.00     0.055 A 
ATOM     69  C   UNL A   1      37.822  29.489  28.701  1.00  0.00     0.041 A 
ATOM     70  F   UNL A   1      39.432  29.318  27.009  1.00  0.00    -0.206 F 
ATOM     71  C   UNL A   1      37.461  29.387  30.042  1.00  0.00     0.022 A 
BRANCH  68  72
ATOM     72  S   UNL A   1      37.990  28.754  32.706  1.00  0.00     0.124 S 
ATOM     73  O   UNL A   1      39.020  29.476  33.450  1.00  0.00    -0.237 OA
ATOM     74  O   UNL A   1      36.640  29.298  32.795  1.00  0.00    -0.237 OA
ATOM     75  O   UNL A   1      38.083  27.298  32.781  1.00  0.00    -0.744 OA
ENDBRANCH  68  72
ENDBRANCH  51  65
BRANCH  52  76
ATOM     76  C   UNL A   1      49.340  26.927  25.774  1.00  0.00     0.023 A 
ATOM     77  C   UNL A   1      49.711  27.403  24.506  1.00  0.00     0.031 A 
ATOM     78  C   UNL A   1      50.267  26.137  26.476  1.00  0.00     0.131 A 
ATOM     79  C   UNL A   1      50.953  27.047  23.957  1.00  0.00     0.055 A 
ATOM     80  C   UNL A   1      51.522  25.828  25.949  1.00  0.00     0.041 A 
ATOM     81  F   UNL A   1      49.968  25.662  27.695  1.00  0.00    -0.206 F 
ATOM     82  C   UNL A   1      51.866  26.272  24.676  1.00  0.00     0.022 A 
BRANCH  79  83
ATOM     83  S   UNL A   1      51.325  27.543  22.252  1.00  0.00     0.124 S 
ATOM     84  O   UNL A   1      50.355  26.759  21.496  1.00  0.00    -0.237 OA
ATOM     85  O   UNL A   1      51.091  28.982  22.299  1.00  0.00    -0.237 OA
ATOM     86  O   UNL A   1      52.721  27.145  22.079  1.00  0.00    -0.744 OA
ENDBRANCH  79  83
ENDBRANCH  52  76
BRANCH  64  87
ATOM     87  C   UNL A   1      46.485  32.573  28.701  1.00  0.00     0.023 A 
ATOM     88  C   UNL A   1      46.666  33.582  27.739  1.00  0.00     0.031 A 
ATOM     89  C   UNL A   1      46.872  32.843  30.025  1.00  0.00     0.131 A 
ATOM     90  C   UNL A   1      47.280  34.789  28.102  1.00  0.00     0.055 A 
ATOM     91  C   UNL A   1      47.423  34.070  30.394  1.00  0.00     0.041 A 
ATOM     92  F   UNL A   1      46.722  31.915  30.984  1.00  0.00    -0.206 F 
ATOM     93  C   UNL A   1      47.644  35.047  29.427  1.00  0.00     0.022 A 
BRANCH  90  94
ATOM     94  S   UNL A   1      47.689  35.983  26.800  1.00  0.00     0.124 S 
ATOM     95  O   UNL A   1      49.092  36.270  27.082  1.00  0.00    -0.237 OA
ATOM     96  O   UNL A   1      47.426  35.220  25.584  1.00  0.00    -0.237 OA
ATOM     97  O   UNL A   1      46.768  37.091  27.048  1.00  0.00    -0.744 OA
ENDBRANCH  90  94
ENDBRANCH  64  87
ENDBRANCH  38  39
ENDBRANCH  30  33
ENDBRANCH  28  29
ENDBRANCH  27  28
ENDBRANCH   1  27
TORSDOF 18
ENDMDL
MODEL 2
REMARK VINA RESULT:     -12.3      5.707     11.776
REMARK SMILES COc1ccccc1[C@H](C)NC(=O)[C@@H]1CC=CC[C@@H]1C(=O)NCCCCNC(=O)c1ccc(-c2c3nc(c(-c4cc(S(=O)(=O)[O-])ccc4F)c4ccc([nH]4)c(-c4cc(S(=O)(=O)[O-])ccc4F)c4nc(c(-c5cc(S(=O)(=O)[O-])ccc5F)c5ccc2[nH]5)C=C4)C=C3)cc1
REMARK SMILES IDX 24 1 23 2 22 3 20 4 21 5 19 7 14 8 15 9 16 10 18 11 17 12
REMARK SMILES IDX 12 13 11 14 13 16 9 17 10 18 8 19 3 20 4 21 5 22 7 23 6 24
REMARK SMILES IDX 2 25 1 26 25 27 26 28 27 29 28 30 29 32 30 33 31 34 92 35
REMARK SMILES IDX 32 36 91 37 33 38 34 39 35 40 85 41 36 42 90 43 84 44 86 45
REMARK SMILES IDX 37 46 89 47 83 48 82 49 38 51 70 52 50 53 69 54 51 55 54 56
REMARK SMILES IDX 68 57 87 58 52 59 53 60 67 62 88 63 55 64 39 65 40 66 48 67
REMARK SMILES IDX 41 68 47 69 49 70 46 71 42 72 43 73 44 74 45 75 71 76 72 77
REMARK SMILES IDX 80 78 73 79 79 80 81 81 78 82 74 83 75 84 76 85 77 86 56 87
REMARK SMILES IDX 57 88 65 89 58 90 64 91 66 92 63 93 59 94 60 95 61 96 62 97
REMARK H PARENT 22 6 11 15 27 31 86 50 54 61
REMARK Flexibility Score: inf
ROOT
ATOM      1  C   UNL A   1      32.708  29.667  27.215  1.00  0.00     0.023 C 
ENDROOT
BRANCH   1   2
ATOM      2  C   UNL A   1      33.791  29.036  26.345  1.00  0.00     0.116 C 
BRANCH   2   3
ATOM      3  N   UNL A   1      33.536  29.353  24.961  1.00  0.00    -0.356 N 
ATOM      4  C   UNL A   1      33.089  28.563  23.949  1.00  0.00     0.224 C 
ATOM      5  O   UNL A   1      33.121  29.074  22.826  1.00  0.00    -0.275 OA
ATOM      6  H   UNL A   1      33.713  30.288  24.710  1.00  0.00     0.163 HD
BRANCH   4   7
ATOM      7  C   UNL A   1      32.506  27.157  24.214  1.00  0.00     0.095 C 
ATOM      8  C   UNL A   1      32.095  26.322  22.977  1.00  0.00     0.095 C 
ATOM      9  C   UNL A   1      31.122  27.115  22.091  1.00  0.00     0.041 C 
ATOM     10  C   UNL A   1      29.985  27.680  22.896  1.00  0.00    -0.030 C 
ATOM     11  C   UNL A   1      31.215  27.354  25.061  1.00  0.00     0.041 C 
ATOM     12  C   UNL A   1      30.011  27.754  24.236  1.00  0.00    -0.030 C 
BRANCH   8  13
ATOM     13  C   UNL A   1      33.214  25.714  22.144  1.00  0.00     0.224 C 
ATOM     14  N   UNL A   1      34.115  24.876  22.748  1.00  0.00    -0.349 N 
ATOM     15  H   UNL A   1      35.067  25.123  22.757  1.00  0.00     0.164 HD
ATOM     16  O   UNL A   1      33.328  25.905  20.935  1.00  0.00    -0.275 OA
BRANCH  14  17
ATOM     17  C   UNL A   1      33.701  23.632  23.374  1.00  0.00     0.113 C 
ATOM     18  C   UNL A   1      32.920  22.786  22.354  1.00  0.00     0.036 C 
BRANCH  17  19
ATOM     19  C   UNL A   1      34.848  22.849  23.967  1.00  0.00     0.016 A 
ATOM     20  C   UNL A   1      34.648  21.958  25.037  1.00  0.00     0.124 A 
ATOM     21  C   UNL A   1      35.697  21.179  25.532  1.00  0.00     0.047 A 
ATOM     22  C   UNL A   1      36.963  21.261  24.955  1.00  0.00     0.004 A 
ATOM     23  C   UNL A   1      36.144  22.942  23.422  1.00  0.00     0.010 A 
ATOM     24  C   UNL A   1      37.189  22.150  23.907  1.00  0.00     0.001 A 
BRANCH  20  25
ATOM     25  O   UNL A   1      33.455  21.885  25.707  1.00  0.00    -0.496 OA
ATOM     26  C   UNL A   1      33.596  21.359  27.027  1.00  0.00     0.278 C 
ENDBRANCH  20  25
ENDBRANCH  17  19
ENDBRANCH  14  17
ENDBRANCH   8  13
ENDBRANCH   4   7
ENDBRANCH   2   3
ENDBRANCH   1   2
BRANCH   1  27
ATOM     27  C   UNL A   1      32.399  31.125  26.931  1.00  0.00     0.023 C 
BRANCH  27  28
ATOM     28  C   UNL A   1      33.397  32.103  27.518  1.00  0.00     0.116 C 
BRANCH  28  29
ATOM     29  N   UNL A   1      32.878  33.458  27.665  1.00  0.00    -0.352 N 
ATOM     30  C   UNL A   1      33.267  34.424  28.567  1.00  0.00     0.251 C 
ATOM     31  H   UNL A   1      32.158  33.713  27.043  1.00  0.00     0.163 HD
ATOM     32  O   UNL A   1      32.673  35.489  28.635  1.00  0.00    -0.269 OA
BRANCH  30  33
ATOM     33  C   UNL A   1      34.388  34.107  29.475  1.00  0.00     0.039 A 
ATOM     34  C   UNL A   1      34.125  33.453  30.678  1.00  0.00     0.014 A 
ATOM     35  C   UNL A   1      35.701  34.336  29.056  1.00  0.00     0.014 A 
ATOM     36  C   UNL A   1      35.190  32.944  31.422  1.00  0.00     0.010 A 
ATOM     37  C   UNL A   1      36.746  33.728  29.735  1.00  0.00     0.010 A 
ATOM     38  C   UNL A   1      36.504  33.031  30.929  1.00  0.00    -0.014 A 
BRANCH  38  39
ATOM     39  C   UNL A   1      37.646  32.416  31.650  1.00  0.00     0.031 A 
ATOM     40  C   UNL A   1      38.398  31.278  31.011  1.00  0.00     0.074 A 
ATOM     41  C   UNL A   1      37.954  32.823  32.898  1.00  0.00     0.049 A 
ATOM     42  N   UNL A   1      39.366  30.547  31.500  1.00  0.00    -0.248 NA
ATOM     43  C   UNL A   1      37.970  30.881  29.661  1.00  0.00     0.031 C 
ATOM     44  C   UNL A   1      37.249  33.868  33.646  1.00  0.00     0.029 A 
ATOM     45  N   UNL A   1      38.934  32.405  33.761  1.00  0.00    -0.354 N 
ATOM     46  C   UNL A   1      39.643  29.592  30.527  1.00  0.00     0.074 A 
ATOM     47  C   UNL A   1      38.687  29.788  29.460  1.00  0.00     0.031 C 
ATOM     48  C   UNL A   1      37.846  34.036  34.838  1.00  0.00     0.029 A 
ATOM     49  C   UNL A   1      38.944  33.085  34.959  1.00  0.00     0.049 A 
ATOM     50  H   UNL A   1      39.571  31.688  33.545  1.00  0.00     0.167 HD
ATOM     51  C   UNL A   1      40.628  28.661  30.508  1.00  0.00     0.034 A 
ATOM     52  C   UNL A   1      39.750  32.950  36.032  1.00  0.00     0.034 A 
ATOM     53  C   UNL A   1      41.591  28.503  31.569  1.00  0.00     0.049 A 
ATOM     54  C   UNL A   1      40.850  31.920  35.983  1.00  0.00     0.074 A 
ATOM     55  C   UNL A   1      42.671  27.641  31.634  1.00  0.00     0.029 A 
ATOM     56  N   UNL A   1      41.590  29.228  32.755  1.00  0.00    -0.354 N 
ATOM     57  N   UNL A   1      41.139  31.065  35.027  1.00  0.00    -0.248 NA
ATOM     58  C   UNL A   1      41.739  31.848  37.148  1.00  0.00     0.031 C 
ATOM     59  C   UNL A   1      43.285  27.802  32.881  1.00  0.00     0.029 A 
ATOM     60  C   UNL A   1      42.635  28.817  33.566  1.00  0.00     0.049 A 
ATOM     61  H   UNL A   1      40.940  29.931  32.985  1.00  0.00     0.167 HD
ATOM     62  C   UNL A   1      42.265  30.375  35.467  1.00  0.00     0.074 A 
ATOM     63  C   UNL A   1      42.610  30.927  36.762  1.00  0.00     0.031 C 
ATOM     64  C   UNL A   1      42.955  29.375  34.859  1.00  0.00     0.034 A 
BRANCH  51  65
ATOM     65  C   UNL A   1      40.691  27.744  29.308  1.00  0.00     0.023 A 
ATOM     66  C   UNL A   1      41.604  27.963  28.260  1.00  0.00     0.031 A 
ATOM     67  C   UNL A   1      39.798  26.666  29.186  1.00  0.00     0.131 A 
ATOM     68  C   UNL A   1      41.542  27.176  27.101  1.00  0.00     0.055 A 
ATOM     69  C   UNL A   1      39.802  25.829  28.067  1.00  0.00     0.041 A 
ATOM     70  F   UNL A   1      38.889  26.418  30.142  1.00  0.00    -0.206 F 
ATOM     71  C   UNL A   1      40.667  26.093  27.007  1.00  0.00     0.022 A 
BRANCH  68  72
ATOM     72  S   UNL A   1      42.513  27.688  25.657  1.00  0.00     0.124 S 
ATOM     73  O   UNL A   1      42.230  26.609  24.713  1.00  0.00    -0.237 OA
ATOM     74  O   UNL A   1      41.935  28.987  25.332  1.00  0.00    -0.237 OA
ATOM     75  O   UNL A   1      43.884  27.723  26.159  1.00  0.00    -0.744 OA
ENDBRANCH  68  72
ENDBRANCH  51  65
BRANCH  52  76
ATOM     76  C   UNL A   1      39.560  33.810  37.235  1.00  0.00     0.023 A 
ATOM     77  C   UNL A   1      38.952  33.304  38.396  1.00  0.00     0.031 A 
ATOM     78  C   UNL A   1      39.946  35.162  37.231  1.00  0.00     0.131 A 
ATOM     79  C   UNL A   1      38.704  34.153  39.485  1.00  0.00     0.055 A 
ATOM     80  C   UNL A   1      39.743  35.991  38.336  1.00  0.00     0.041 A 
ATOM     81  F   UNL A   1      40.538  35.696  36.151  1.00  0.00    -0.206 F 
ATOM     82  C   UNL A   1      39.106  35.491  39.468  1.00  0.00     0.022 A 
BRANCH  79  83
ATOM     83  S   UNL A   1      37.769  33.504  40.898  1.00  0.00     0.124 S 
ATOM     84  O   UNL A   1      36.980  34.666  41.292  1.00  0.00    -0.237 OA
ATOM     85  O   UNL A   1      37.030  32.402  40.290  1.00  0.00    -0.237 OA
ATOM     86  O   UNL A   1      38.811  33.107  41.842  1.00  0.00    -0.744 OA
ENDBRANCH  79  83
ENDBRANCH  52  76
BRANCH  64  87
ATOM     87  C   UNL A   1      44.176  28.856  35.576  1.00  0.00     0.023 A 
ATOM     88  C   UNL A   1      44.100  27.785  36.484  1.00  0.00     0.031 A 
ATOM     89  C   UNL A   1      45.430  29.453  35.359  1.00  0.00     0.131 A 
ATOM     90  C   UNL A   1      45.245  27.388  37.190  1.00  0.00     0.055 A 
ATOM     91  C   UNL A   1      46.578  29.012  36.017  1.00  0.00     0.041 A 
ATOM     92  F   UNL A   1      45.560  30.480  34.504  1.00  0.00    -0.206 F 
ATOM     93  C   UNL A   1      46.487  27.982  36.949  1.00  0.00     0.022 A 
BRANCH  90  94
ATOM     94  S   UNL A   1      45.070  26.148  38.502  1.00  0.00     0.124 S 
ATOM     95  O   UNL A   1      44.417  25.050  37.796  1.00  0.00    -0.237 OA
ATOM     96  O   UNL A   1      46.455  25.917  38.899  1.00  0.00    -0.237 OA
ATOM     97  O   UNL A   1      44.243  26.821  39.502  1.00  0.00    -0.744 OA
ENDBRANCH  90  94
ENDBRANCH  64  87
ENDBRANCH  38  39
ENDBRANCH  30  33
ENDBRANCH  28  29
ENDBRANCH  27  28
ENDBRANCH   1  27
TORSDOF 18
ENDMDL
MODEL 3
REMARK VINA RESULT:     -12.2      5.922     11.262
REMARK SMILES COc1ccccc1[C@H](C)NC(=O)[C@@H]1CC=CC[C@@H]1C(=O)NCCCCNC(=O)c1ccc(-c2c3nc(c(-c4cc(S(=O)(=O)[O-])ccc4F)c4ccc([nH]4)c(-c4cc(S(=O)(=O)[O-])ccc4F)c4nc(c(-c5cc(S(=O)(=O)[O-])ccc5F)c5ccc2[nH]5)C=C4)C=C3)cc1
REMARK SMILES IDX 24 1 23 2 22 3 20 4 21 5 19 7 14 8 15 9 16 10 18 11 17 12
REMARK SMILES IDX 12 13 11 14 13 16 9 17 10 18 8 19 3 20 4 21 5 22 7 23 6 24
REMARK SMILES IDX 2 25 1 26 25 27 26 28 27 29 28 30 29 32 30 33 31 34 92 35
REMARK SMILES IDX 32 36 91 37 33 38 34 39 35 40 85 41 36 42 90 43 84 44 86 45
REMARK SMILES IDX 37 46 89 47 83 48 82 49 38 51 70 52 50 53 69 54 51 55 54 56
REMARK SMILES IDX 68 57 87 58 52 59 53 60 67 62 88 63 55 64 39 65 40 66 48 67
REMARK SMILES IDX 41 68 47 69 49 70 46 71 42 72 43 73 44 74 45 75 71 76 72 77
REMARK SMILES IDX 80 78 73 79 79 80 81 81 78 82 74 83 75 84 76 85 77 86 56 87
REMARK SMILES IDX 57 88 65 89 58 90 64 91 66 92 63 93 59 94 60 95 61 96 62 97
REMARK H PARENT 22 6 11 15 27 31 86 50 54 61
REMARK Flexibility Score: inf
ROOT
ATOM      1  C   UNL A   1      31.989  30.040  26.968  1.00  0.00     0.023 C 
ENDROOT
BRANCH   1   2
ATOM      2  C   UNL A   1      33.258  29.742  26.175  1.00  0.00     0.116 C 
BRANCH   2   3
ATOM      3  N   UNL A   1      32.966  29.806  24.765  1.00  0.00    -0.356 N 
ATOM      4  C   UNL A   1      32.720  28.809  23.875  1.00  0.00     0.224 C 
ATOM      5  O   UNL A   1      32.661  29.157  22.692  1.00  0.00    -0.275 OA
ATOM      6  H   UNL A   1      32.941  30.714  24.387  1.00  0.00     0.163 HD
BRANCH   4   7
ATOM      7  C   UNL A   1      32.451  27.358  24.335  1.00  0.00     0.095 C 
ATOM      8  C   UNL A   1      32.241  26.297  23.228  1.00  0.00     0.095 C 
ATOM      9  C   UNL A   1      31.128  26.737  22.264  1.00  0.00     0.041 C 
ATOM     10  C   UNL A   1      29.888  27.147  23.009  1.00  0.00    -0.030 C 
ATOM     11  C   UNL A   1      31.140  27.385  25.174  1.00  0.00     0.041 C 
ATOM     12  C   UNL A   1      29.885  27.403  24.327  1.00  0.00    -0.030 C 
BRANCH   8  13
ATOM     13  C   UNL A   1      33.472  25.838  22.461  1.00  0.00     0.224 C 
ATOM     14  N   UNL A   1      34.281  24.878  23.011  1.00  0.00    -0.349 N 
ATOM     15  H   UNL A   1      35.220  25.096  23.205  1.00  0.00     0.164 HD
ATOM     16  O   UNL A   1      33.759  26.258  21.342  1.00  0.00    -0.275 OA
BRANCH  14  17
ATOM     17  C   UNL A   1      33.788  23.546  23.316  1.00  0.00     0.113 C 
ATOM     18  C   UNL A   1      33.186  22.925  22.044  1.00  0.00     0.036 C 
BRANCH  17  19
ATOM     19  C   UNL A   1      34.837  22.642  23.919  1.00  0.00     0.016 A 
ATOM     20  C   UNL A   1      34.481  21.554  24.735  1.00  0.00     0.124 A 
ATOM     21  C   UNL A   1      35.449  20.675  25.229  1.00  0.00     0.047 A 
ATOM     22  C   UNL A   1      36.791  20.856  24.900  1.00  0.00     0.004 A 
ATOM     23  C   UNL A   1      36.203  22.827  23.629  1.00  0.00     0.010 A 
ATOM     24  C   UNL A   1      37.170  21.938  24.110  1.00  0.00     0.001 A 
BRANCH  20  25
ATOM     25  O   UNL A   1      33.195  21.360  25.167  1.00  0.00    -0.496 OA
ATOM     26  C   UNL A   1      32.980  21.845  26.493  1.00  0.00     0.278 C 
ENDBRANCH  20  25
ENDBRANCH  17  19
ENDBRANCH  14  17
ENDBRANCH   8  13
ENDBRANCH   4   7
ENDBRANCH   2   3
ENDBRANCH   1   2
BRANCH   1  27
ATOM     27  C   UNL A   1      31.428  31.441  26.815  1.00  0.00     0.023 C 
BRANCH  27  28
ATOM     28  C   UNL A   1      32.467  32.502  26.512  1.00  0.00     0.116 C 
BRANCH  28  29
ATOM     29  N   UNL A   1      32.248  33.760  27.217  1.00  0.00    -0.352 N 
ATOM     30  C   UNL A   1      33.007  34.313  28.226  1.00  0.00     0.251 C 
ATOM     31  H   UNL A   1      31.459  34.278  26.939  1.00  0.00     0.163 HD
ATOM     32  O   UNL A   1      32.646  35.334  28.790  1.00  0.00    -0.269 OA
BRANCH  30  33
ATOM     33  C   UNL A   1      34.238  33.602  28.630  1.00  0.00     0.039 A 
ATOM     34  C   UNL A   1      35.451  34.289  28.632  1.00  0.00     0.014 A 
ATOM     35  C   UNL A   1      34.149  32.304  29.138  1.00  0.00     0.014 A 
ATOM     36  C   UNL A   1      36.564  33.700  29.231  1.00  0.00     0.010 A 
ATOM     37  C   UNL A   1      35.223  31.772  29.835  1.00  0.00     0.010 A 
ATOM     38  C   UNL A   1      36.446  32.461  29.884  1.00  0.00    -0.014 A 
BRANCH  38  39
ATOM     39  C   UNL A   1      37.587  31.854  30.614  1.00  0.00     0.031 A 
ATOM     40  C   UNL A   1      38.434  30.814  29.931  1.00  0.00     0.074 A 
ATOM     41  C   UNL A   1      37.811  32.179  31.903  1.00  0.00     0.049 A 
ATOM     42  N   UNL A   1      39.419  30.100  30.412  1.00  0.00    -0.248 NA
ATOM     43  C   UNL A   1      38.094  30.501  28.534  1.00  0.00     0.031 C 
ATOM     44  C   UNL A   1      37.011  33.122  32.691  1.00  0.00     0.029 A 
ATOM     45  N   UNL A   1      38.772  31.750  32.782  1.00  0.00    -0.354 N 
ATOM     46  C   UNL A   1      39.797  29.241  29.385  1.00  0.00     0.074 A 
ATOM     47  C   UNL A   1      38.882  29.467  28.289  1.00  0.00     0.031 C 
ATOM     48  C   UNL A   1      37.540  33.228  33.921  1.00  0.00     0.029 A 
ATOM     49  C   UNL A   1      38.686  32.332  34.026  1.00  0.00     0.049 A 
ATOM     50  H   UNL A   1      39.460  31.088  32.545  1.00  0.00     0.167 HD
ATOM     51  C   UNL A   1      40.835  28.370  29.347  1.00  0.00     0.034 A 
ATOM     52  C   UNL A   1      39.447  32.159  35.126  1.00  0.00     0.034 A 
ATOM     53  C   UNL A   1      41.754  28.183  30.440  1.00  0.00     0.049 A 
ATOM     54  C   UNL A   1      40.607  31.197  35.056  1.00  0.00     0.074 A 
ATOM     55  C   UNL A   1      42.879  27.379  30.496  1.00  0.00     0.029 A 
ATOM     56  N   UNL A   1      41.655  28.812  31.676  1.00  0.00    -0.354 N 
ATOM     57  N   UNL A   1      40.991  30.438  34.055  1.00  0.00    -0.248 NA
ATOM     58  C   UNL A   1      41.443  31.083  36.257  1.00  0.00     0.031 C 
ATOM     59  C   UNL A   1      43.423  27.475  31.781  1.00  0.00     0.029 A 
ATOM     60  C   UNL A   1      42.683  28.396  32.507  1.00  0.00     0.049 A 
ATOM     61  H   UNL A   1      40.955  29.458  31.925  1.00  0.00     0.167 HD
ATOM     62  C   UNL A   1      42.133  29.778  34.499  1.00  0.00     0.074 A 
ATOM     63  C   UNL A   1      42.383  30.246  35.847  1.00  0.00     0.031 C 
ATOM     64  C   UNL A   1      42.909  28.869  33.853  1.00  0.00     0.034 A 
BRANCH  51  65
ATOM     65  C   UNL A   1      41.008  27.555  28.086  1.00  0.00     0.023 A 
ATOM     66  C   UNL A   1      40.658  26.193  28.033  1.00  0.00     0.031 A 
ATOM     67  C   UNL A   1      41.573  28.132  26.935  1.00  0.00     0.131 A 
ATOM     68  C   UNL A   1      40.959  25.436  26.892  1.00  0.00     0.055 A 
ATOM     69  C   UNL A   1      41.787  27.392  25.770  1.00  0.00     0.041 A 
ATOM     70  F   UNL A   1      41.948  29.421  26.929  1.00  0.00    -0.206 F 
ATOM     71  C   UNL A   1      41.496  26.031  25.750  1.00  0.00     0.022 A 
BRANCH  68  72
ATOM     72  S   UNL A   1      40.785  23.632  26.983  1.00  0.00     0.124 S 
ATOM     73  O   UNL A   1      41.243  23.360  28.343  1.00  0.00    -0.237 OA
ATOM     74  O   UNL A   1      39.360  23.440  26.738  1.00  0.00    -0.237 OA
ATOM     75  O   UNL A   1      41.671  23.149  25.926  1.00  0.00    -0.744 OA
ENDBRANCH  68  72
ENDBRANCH  51  65
BRANCH  52  76
ATOM     76  C   UNL A   1      39.151  32.910  36.380  1.00  0.00     0.023 A 
ATOM     77  C   UNL A   1      39.665  34.201  36.585  1.00  0.00     0.031 A 
ATOM     78  C   UNL A   1      38.385  32.335  37.408  1.00  0.00     0.131 A 
ATOM     79  C   UNL A   1      39.448  34.856  37.808  1.00  0.00     0.055 A 
ATOM     80  C   UNL A   1      38.128  33.011  38.603  1.00  0.00     0.041 A 
ATOM     81  F   UNL A   1      37.863  31.108  37.262  1.00  0.00    -0.206 F 
ATOM     82  C   UNL A   1      38.673  34.274  38.814  1.00  0.00     0.022 A 
BRANCH  79  83
ATOM     83  S   UNL A   1      40.267  36.448  38.098  1.00  0.00     0.124 S 
ATOM     84  O   UNL A   1      40.641  36.842  36.744  1.00  0.00    -0.237 OA
ATOM     85  O   UNL A   1      39.202  37.226  38.722  1.00  0.00    -0.237 OA
ATOM     86  O   UNL A   1      41.382  36.103  38.979  1.00  0.00    -0.744 OA
ENDBRANCH  79  83
ENDBRANCH  52  76
BRANCH  64  87
ATOM     87  C   UNL A   1      44.123  28.363  34.590  1.00  0.00     0.023 A 
ATOM     88  C   UNL A   1      44.103  27.149  35.301  1.00  0.00     0.031 A 
ATOM     89  C   UNL A   1      45.310  29.115  34.596  1.00  0.00     0.131 A 
ATOM     90  C   UNL A   1      45.229  26.756  36.039  1.00  0.00     0.055 A 
ATOM     91  C   UNL A   1      46.447  28.688  35.281  1.00  0.00     0.041 A 
ATOM     92  F   UNL A   1      45.383  30.282  33.936  1.00  0.00    -0.206 F 
ATOM     93  C   UNL A   1      46.407  27.509  36.020  1.00  0.00     0.022 A 
BRANCH  90  94
ATOM     94  S   UNL A   1      45.100  25.298  37.109  1.00  0.00     0.124 S 
ATOM     95  O   UNL A   1      43.876  24.671  36.621  1.00  0.00    -0.237 OA
ATOM     96  O   UNL A   1      46.340  24.587  36.816  1.00  0.00    -0.237 OA
ATOM     97  O   UNL A   1      45.014  25.864  38.454  1.00  0.00    -0.744 OA
ENDBRANCH  90  94
ENDBRANCH  64  87
ENDBRANCH  38  39
ENDBRANCH  30  33
ENDBRANCH  28  29
ENDBRANCH  27  28
ENDBRANCH   1  27
TORSDOF 18
ENDMDL
