MODEL 1
REMARK VINA RESULT:     -13.2      0.000      0.000
REMARK SMILES C[C@@H](CCC(=O)NCCCCNC(=O)c1ccc(-c2c3nc(c(-c4cc(S(=O)(=O)[O-])ccc4F)c4ccc([nH]4)c(-c4cc(S(=O)(=O)[O-])ccc4F)c4nc(c(-c5cc(S(=O)(=O)[O-])ccc5F)c5ccc2[nH]5)C=C4)C=C3)cc1)[C@@H]1CC[C@@H]2[C@H]3CC[C@@H]4CC(=O)CC[C@]4(C)[C@@H]3CC(=O)[C@]21C
REMARK SMILES IDX 9 1 8 2 7 3 5 4 6 5 4 7 3 8 2 9 1 10 78 11 79 12 97 13 80 14
REMARK SMILES IDX 81 15 95 16 98 17 82 18 94 19 96 20 83 21 93 22 84 23 91 24
REMARK SMILES IDX 85 25 90 26 92 27 86 28 89 29 87 30 88 31 10 32 11 33 12 34
REMARK SMILES IDX 13 35 14 37 15 38 16 39 77 40 17 41 76 42 18 43 19 44 20 45
REMARK SMILES IDX 70 46 21 47 75 48 69 49 71 50 22 51 74 52 68 53 67 54 23 56
REMARK SMILES IDX 55 57 35 58 54 59 36 60 39 61 53 62 72 63 37 64 38 65 52 67
REMARK SMILES IDX 73 68 40 69 24 70 25 71 33 72 26 73 32 74 34 75 31 76 27 77
REMARK SMILES IDX 28 78 29 79 30 80 56 81 57 82 65 83 58 84 64 85 66 86 63 87
REMARK SMILES IDX 59 88 60 89 61 90 62 91 41 92 42 93 50 94 43 95 49 96 51 97
REMARK SMILES IDX 48 98 44 99 45 100 46 101 47 102
REMARK H PARENT 7 6 12 36 71 55 39 66
REMARK Flexibility Score: inf
ROOT
ATOM      1  C   UNL A   1      36.416  19.913  25.162  1.00  0.00     0.023 C 
ENDROOT
BRANCH   1   2
ATOM      2  C   UNL A   1      35.603  18.722  24.637  1.00  0.00     0.116 C 
BRANCH   2   3
ATOM      3  N   UNL A   1      34.339  18.457  25.313  1.00  0.00    -0.356 N 
ATOM      4  C   UNL A   1      33.046  18.573  24.906  1.00  0.00     0.220 C 
ATOM      5  O   UNL A   1      32.180  17.988  25.563  1.00  0.00    -0.275 OA
ATOM      6  H   UNL A   1      34.441  18.134  26.238  1.00  0.00     0.163 HD
BRANCH   4   7
ATOM      7  C   UNL A   1      32.659  19.395  23.699  1.00  0.00     0.100 C 
BRANCH   7   8
ATOM      8  C   UNL A   1      32.559  20.914  23.972  1.00  0.00     0.013 C 
BRANCH   8   9
ATOM      9  C   UNL A   1      31.717  21.801  23.001  1.00  0.00    -0.010 C 
ATOM     10  C   UNL A   1      31.781  21.132  21.616  1.00  0.00     0.008 C 
BRANCH   9  11
ATOM     11  C   UNL A   1      32.109  23.305  23.002  1.00  0.00     0.005 C 
ATOM     12  C   UNL A   1      33.281  23.686  22.035  1.00  0.00     0.005 C 
ATOM     13  C   UNL A   1      32.581  24.056  24.305  1.00  0.00     0.032 C 
ATOM     14  C   UNL A   1      33.797  25.069  22.482  1.00  0.00     0.005 C 
ATOM     15  C   UNL A   1      32.856  25.425  23.622  1.00  0.00     0.006 C 
ATOM     16  C   UNL A   1      31.621  24.345  25.453  1.00  0.00     0.139 C 
ATOM     17  C   UNL A   1      33.820  23.394  24.943  1.00  0.00     0.020 C 
ATOM     18  C   UNL A   1      33.136  26.677  24.468  1.00  0.00    -0.003 C 
ATOM     19  C   UNL A   1      32.040  25.447  26.413  1.00  0.00     0.080 C 
ATOM     20  O   UNL A   1      30.596  23.708  25.672  1.00  0.00    -0.299 OA
ATOM     21  C   UNL A   1      32.949  27.926  23.577  1.00  0.00     0.004 C 
ATOM     22  C   UNL A   1      32.127  26.761  25.648  1.00  0.00     0.006 C 
ATOM     23  C   UNL A   1      32.828  29.257  24.313  1.00  0.00     0.005 C 
ATOM     24  C   UNL A   1      32.323  28.048  26.525  1.00  0.00    -0.025 C 
ATOM     25  C   UNL A   1      31.972  29.234  25.596  1.00  0.00     0.002 C 
ATOM     26  C   UNL A   1      33.753  28.224  27.117  1.00  0.00     0.015 C 
ATOM     27  C   UNL A   1      31.332  28.015  27.722  1.00  0.00     0.012 C 
ATOM     28  C   UNL A   1      32.013  30.560  26.362  1.00  0.00     0.079 C 
ATOM     29  C   UNL A   1      34.319  29.651  27.134  1.00  0.00     0.076 C 
ATOM     30  C   UNL A   1      33.297  30.761  27.121  1.00  0.00     0.133 C 
ATOM     31  O   UNL A   1      33.524  31.835  27.679  1.00  0.00    -0.300 OA
ENDBRANCH   9  11
ENDBRANCH   8   9
ENDBRANCH   7   8
ENDBRANCH   4   7
ENDBRANCH   2   3
ENDBRANCH   1   2
BRANCH   1  32
ATOM     32  C   UNL A   1      37.870  19.992  24.704  1.00  0.00     0.023 C 
BRANCH  32  33
ATOM     33  C   UNL A   1      38.900  20.431  25.730  1.00  0.00     0.116 C 
BRANCH  33  34
ATOM     34  N   UNL A   1      40.001  19.491  25.855  1.00  0.00    -0.352 N 
ATOM     35  C   UNL A   1      41.341  19.669  26.125  1.00  0.00     0.251 C 
ATOM     36  H   UNL A   1      39.741  18.550  25.722  1.00  0.00     0.163 HD
ATOM     37  O   UNL A   1      42.068  18.678  26.050  1.00  0.00    -0.269 OA
BRANCH  35  38
ATOM     38  C   UNL A   1      41.949  21.001  26.432  1.00  0.00     0.039 A 
ATOM     39  C   UNL A   1      42.278  21.844  25.357  1.00  0.00     0.014 A 
ATOM     40  C   UNL A   1      42.219  21.450  27.724  1.00  0.00     0.014 A 
ATOM     41  C   UNL A   1      42.775  23.137  25.578  1.00  0.00     0.010 A 
ATOM     42  C   UNL A   1      42.617  22.769  27.952  1.00  0.00     0.010 A 
ATOM     43  C   UNL A   1      42.905  23.626  26.881  1.00  0.00    -0.014 A 
BRANCH  43  44
ATOM     44  C   UNL A   1      43.511  24.952  27.167  1.00  0.00     0.031 A 
ATOM     45  C   UNL A   1      42.607  26.032  27.679  1.00  0.00     0.074 A 
ATOM     46  C   UNL A   1      44.811  25.213  26.920  1.00  0.00     0.049 A 
ATOM     47  N   UNL A   1      42.870  27.286  27.927  1.00  0.00    -0.248 NA
ATOM     48  C   UNL A   1      41.206  25.647  27.915  1.00  0.00     0.031 C 
ATOM     49  C   UNL A   1      45.778  24.246  26.427  1.00  0.00     0.029 A 
ATOM     50  N   UNL A   1      45.547  26.366  27.035  1.00  0.00    -0.354 N 
ATOM     51  C   UNL A   1      41.670  27.837  28.355  1.00  0.00     0.074 A 
ATOM     52  C   UNL A   1      40.664  26.806  28.244  1.00  0.00     0.031 C 
ATOM     53  C   UNL A   1      46.977  24.825  26.276  1.00  0.00     0.029 A 
ATOM     54  C   UNL A   1      46.861  26.229  26.637  1.00  0.00     0.049 A 
ATOM     55  H   UNL A   1      45.172  27.212  27.369  1.00  0.00     0.167 HD
ATOM     56  C   UNL A   1      41.441  29.083  28.834  1.00  0.00     0.034 A 
ATOM     57  C   UNL A   1      47.858  27.134  26.569  1.00  0.00     0.034 A 
ATOM     58  C   UNL A   1      42.461  30.095  28.917  1.00  0.00     0.049 A 
ATOM     59  C   UNL A   1      47.562  28.536  27.035  1.00  0.00     0.074 A 
ATOM     60  C   UNL A   1      42.359  31.388  29.393  1.00  0.00     0.029 A 
ATOM     61  N   UNL A   1      43.777  29.926  28.498  1.00  0.00    -0.354 N 
ATOM     62  N   UNL A   1      46.433  29.031  27.488  1.00  0.00    -0.248 NA
ATOM     63  C   UNL A   1      48.674  29.491  27.006  1.00  0.00     0.031 C 
ATOM     64  C   UNL A   1      43.592  32.020  29.202  1.00  0.00     0.029 A 
ATOM     65  C   UNL A   1      44.488  31.101  28.674  1.00  0.00     0.049 A 
ATOM     66  H   UNL A   1      44.148  29.093  28.129  1.00  0.00     0.167 HD
ATOM     67  C   UNL A   1      46.711  30.346  27.842  1.00  0.00     0.074 A 
ATOM     68  C   UNL A   1      48.117  30.561  27.553  1.00  0.00     0.031 C 
ATOM     69  C   UNL A   1      45.887  31.288  28.368  1.00  0.00     0.034 A 
BRANCH  56  70
ATOM     70  C   UNL A   1      40.026  29.392  29.251  1.00  0.00     0.023 A 
ATOM     71  C   UNL A   1      39.652  29.417  30.609  1.00  0.00     0.031 A 
ATOM     72  C   UNL A   1      39.018  29.558  28.288  1.00  0.00     0.131 A 
ATOM     73  C   UNL A   1      38.296  29.493  30.959  1.00  0.00     0.055 A 
ATOM     74  C   UNL A   1      37.680  29.730  28.649  1.00  0.00     0.041 A 
ATOM     75  F   UNL A   1      39.310  29.514  26.978  1.00  0.00    -0.206 F 
ATOM     76  C   UNL A   1      37.310  29.676  29.990  1.00  0.00     0.022 A 
BRANCH  73  77
ATOM     77  S   UNL A   1      37.829  29.162  32.681  1.00  0.00     0.124 S 
ATOM     78  O   UNL A   1      38.868  29.887  33.410  1.00  0.00    -0.237 OA
ATOM     79  O   UNL A   1      36.486  29.720  32.760  1.00  0.00    -0.237 OA
ATOM     80  O   UNL A   1      37.909  27.706  32.784  1.00  0.00    -0.744 OA
ENDBRANCH  73  77
ENDBRANCH  56  70
BRANCH  57  81
ATOM     81  C   UNL A   1      49.209  26.757  26.056  1.00  0.00     0.023 A 
ATOM     82  C   UNL A   1      49.687  27.254  24.833  1.00  0.00     0.031 A 
ATOM     83  C   UNL A   1      50.028  25.856  26.760  1.00  0.00     0.131 A 
ATOM     84  C   UNL A   1      50.919  26.810  24.325  1.00  0.00     0.055 A 
ATOM     85  C   UNL A   1      51.275  25.454  26.276  1.00  0.00     0.041 A 
ATOM     86  F   UNL A   1      49.629  25.353  27.941  1.00  0.00    -0.206 F 
ATOM     87  C   UNL A   1      51.722  25.920  25.044  1.00  0.00     0.022 A 
BRANCH  84  88
ATOM     88  S   UNL A   1      51.422  27.338  22.662  1.00  0.00     0.124 S 
ATOM     89  O   UNL A   1      50.411  26.700  21.829  1.00  0.00    -0.237 OA
ATOM     90  O   UNL A   1      51.343  28.792  22.769  1.00  0.00    -0.237 OA
ATOM     91  O   UNL A   1      52.774  26.799  22.528  1.00  0.00    -0.744 OA
ENDBRANCH  84  88
ENDBRANCH  57  81
BRANCH  69  92
ATOM     92  C   UNL A   1      46.509  32.619  28.704  1.00  0.00     0.023 A 
ATOM     93  C   UNL A   1      46.526  33.679  27.783  1.00  0.00     0.031 A 
ATOM     94  C   UNL A   1      47.097  32.822  29.964  1.00  0.00     0.131 A 
ATOM     95  C   UNL A   1      47.167  34.879  28.116  1.00  0.00     0.055 A 
ATOM     96  C   UNL A   1      47.679  34.041  30.313  1.00  0.00     0.041 A 
ATOM     97  F   UNL A   1      47.110  31.839  30.879  1.00  0.00    -0.206 F 
ATOM     98  C   UNL A   1      47.726  35.073  29.381  1.00  0.00     0.022 A 
BRANCH  95  99
ATOM     99  S   UNL A   1      47.335  36.155  26.838  1.00  0.00     0.124 S 
ATOM    100  O   UNL A   1      45.950  36.571  26.641  1.00  0.00    -0.237 OA
ATOM    101  O   UNL A   1      48.207  37.131  27.483  1.00  0.00    -0.237 OA
ATOM    102  O   UNL A   1      47.934  35.437  25.714  1.00  0.00    -0.744 OA
ENDBRANCH  95  99
ENDBRANCH  69  92
ENDBRANCH  43  44
ENDBRANCH  35  38
ENDBRANCH  33  34
ENDBRANCH  32  33
ENDBRANCH   1  32
TORSDOF 17
ENDMDL
MODEL 2
REMARK VINA RESULT:     -13.1      1.640      7.426
REMARK SMILES C[C@@H](CCC(=O)NCCCCNC(=O)c1ccc(-c2c3nc(c(-c4cc(S(=O)(=O)[O-])ccc4F)c4ccc([nH]4)c(-c4cc(S(=O)(=O)[O-])ccc4F)c4nc(c(-c5cc(S(=O)(=O)[O-])ccc5F)c5ccc2[nH]5)C=C4)C=C3)cc1)[C@@H]1CC[C@@H]2[C@H]3CC[C@@H]4CC(=O)CC[C@]4(C)[C@@H]3CC(=O)[C@]21C
REMARK SMILES IDX 9 1 8 2 7 3 5 4 6 5 4 7 3 8 2 9 1 10 78 11 79 12 97 13 80 14
REMARK SMILES IDX 81 15 95 16 98 17 82 18 94 19 96 20 83 21 93 22 84 23 91 24
REMARK SMILES IDX 85 25 90 26 92 27 86 28 89 29 87 30 88 31 10 32 11 33 12 34
REMARK SMILES IDX 13 35 14 37 15 38 16 39 77 40 17 41 76 42 18 43 19 44 20 45
REMARK SMILES IDX 70 46 21 47 75 48 69 49 71 50 22 51 74 52 68 53 67 54 23 56
REMARK SMILES IDX 55 57 35 58 54 59 36 60 39 61 53 62 72 63 37 64 38 65 52 67
REMARK SMILES IDX 73 68 40 69 24 70 25 71 33 72 26 73 32 74 34 75 31 76 27 77
REMARK SMILES IDX 28 78 29 79 30 80 56 81 57 82 65 83 58 84 64 85 66 86 63 87
REMARK SMILES IDX 59 88 60 89 61 90 62 91 41 92 42 93 50 94 43 95 49 96 51 97
REMARK SMILES IDX 48 98 44 99 45 100 46 101 47 102
REMARK H PARENT 7 6 12 36 71 55 39 66
REMARK Flexibility Score: inf
ROOT
ATOM      1  C   UNL A   1      36.337  19.808  24.897  1.00  0.00     0.023 C 
ENDROOT
BRANCH   1   2
ATOM      2  C   UNL A   1      35.655  18.459  24.634  1.00  0.00     0.116 C 
BRANCH   2   3
ATOM      3  N   UNL A   1      34.345  18.270  25.245  1.00  0.00    -0.356 N 
ATOM      4  C   UNL A   1      33.084  18.491  24.785  1.00  0.00     0.220 C 
ATOM      5  O   UNL A   1      32.148  17.955  25.385  1.00  0.00    -0.275 OA
ATOM      6  H   UNL A   1      34.380  17.917  26.164  1.00  0.00     0.163 HD
BRANCH   4   7
ATOM      7  C   UNL A   1      32.814  19.371  23.587  1.00  0.00     0.100 C 
BRANCH   7   8
ATOM      8  C   UNL A   1      32.674  20.874  23.922  1.00  0.00     0.013 C 
BRANCH   8   9
ATOM      9  C   UNL A   1      31.787  21.772  23.003  1.00  0.00    -0.010 C 
ATOM     10  C   UNL A   1      31.779  21.115  21.611  1.00  0.00     0.008 C 
BRANCH   9  11
ATOM     11  C   UNL A   1      32.185  23.275  22.997  1.00  0.00     0.005 C 
ATOM     12  C   UNL A   1      33.370  23.645  22.042  1.00  0.00     0.005 C 
ATOM     13  C   UNL A   1      32.643  24.034  24.300  1.00  0.00     0.032 C 
ATOM     14  C   UNL A   1      33.885  25.029  22.484  1.00  0.00     0.005 C 
ATOM     15  C   UNL A   1      32.931  25.397  23.610  1.00  0.00     0.006 C 
ATOM     16  C   UNL A   1      31.670  24.336  25.434  1.00  0.00     0.139 C 
ATOM     17  C   UNL A   1      33.872  23.373  24.959  1.00  0.00     0.020 C 
ATOM     18  C   UNL A   1      33.205  26.655  24.449  1.00  0.00    -0.003 C 
ATOM     19  C   UNL A   1      32.081  25.444  26.390  1.00  0.00     0.080 C 
ATOM     20  O   UNL A   1      30.640  23.704  25.645  1.00  0.00    -0.299 OA
ATOM     21  C   UNL A   1      33.034  27.898  23.547  1.00  0.00     0.004 C 
ATOM     22  C   UNL A   1      32.182  26.752  25.616  1.00  0.00     0.006 C 
ATOM     23  C   UNL A   1      32.908  29.235  24.270  1.00  0.00     0.005 C 
ATOM     24  C   UNL A   1      32.372  28.044  26.486  1.00  0.00    -0.025 C 
ATOM     25  C   UNL A   1      32.036  29.225  25.543  1.00  0.00     0.002 C 
ATOM     26  C   UNL A   1      33.794  28.220  27.094  1.00  0.00     0.015 C 
ATOM     27  C   UNL A   1      31.365  28.024  27.671  1.00  0.00     0.012 C 
ATOM     28  C   UNL A   1      32.072  30.556  26.299  1.00  0.00     0.079 C 
ATOM     29  C   UNL A   1      34.365  29.645  27.107  1.00  0.00     0.076 C 
ATOM     30  C   UNL A   1      33.347  30.759  27.073  1.00  0.00     0.133 C 
ATOM     31  O   UNL A   1      33.571  31.836  27.626  1.00  0.00    -0.300 OA
ENDBRANCH   9  11
ENDBRANCH   8   9
ENDBRANCH   7   8
ENDBRANCH   4   7
ENDBRANCH   2   3
ENDBRANCH   1   2
BRANCH   1  32
ATOM     32  C   UNL A   1      37.844  19.859  24.659  1.00  0.00     0.023 C 
BRANCH  32  33
ATOM     33  C   UNL A   1      38.688  20.580  25.697  1.00  0.00     0.116 C 
BRANCH  33  34
ATOM     34  N   UNL A   1      39.833  19.796  26.129  1.00  0.00    -0.352 N 
ATOM     35  C   UNL A   1      41.058  20.158  26.645  1.00  0.00     0.251 C 
ATOM     36  H   UNL A   1      39.709  18.823  26.036  1.00  0.00     0.163 HD
ATOM     37  O   UNL A   1      41.887  19.263  26.812  1.00  0.00    -0.269 OA
BRANCH  35  38
ATOM     38  C   UNL A   1      41.441  21.574  26.941  1.00  0.00     0.039 A 
ATOM     39  C   UNL A   1      41.383  22.510  25.895  1.00  0.00     0.014 A 
ATOM     40  C   UNL A   1      41.862  22.017  28.194  1.00  0.00     0.014 A 
ATOM     41  C   UNL A   1      41.649  23.868  26.124  1.00  0.00     0.010 A 
ATOM     42  C   UNL A   1      42.029  23.380  28.450  1.00  0.00     0.010 A 
ATOM     43  C   UNL A   1      41.930  24.320  27.416  1.00  0.00    -0.014 A 
BRANCH  43  44
ATOM     44  C   UNL A   1      42.308  25.731  27.691  1.00  0.00     0.031 A 
ATOM     45  C   UNL A   1      43.688  26.167  27.299  1.00  0.00     0.074 A 
ATOM     46  C   UNL A   1      41.479  26.584  28.325  1.00  0.00     0.049 A 
ATOM     47  N   UNL A   1      44.284  27.310  27.501  1.00  0.00    -0.248 NA
ATOM     48  C   UNL A   1      44.516  25.163  26.612  1.00  0.00     0.031 C 
ATOM     49  C   UNL A   1      40.123  26.272  28.747  1.00  0.00     0.029 A 
ATOM     50  N   UNL A   1      41.648  27.881  28.741  1.00  0.00    -0.354 N 
ATOM     51  C   UNL A   1      45.553  27.165  26.958  1.00  0.00     0.074 A 
ATOM     52  C   UNL A   1      45.669  25.797  26.506  1.00  0.00     0.031 C 
ATOM     53  C   UNL A   1      39.573  27.329  29.360  1.00  0.00     0.029 A 
ATOM     54  C   UNL A   1      40.556  28.400  29.403  1.00  0.00     0.049 A 
ATOM     55  H   UNL A   1      42.474  28.393  28.582  1.00  0.00     0.167 HD
ATOM     56  C   UNL A   1      46.521  28.103  26.819  1.00  0.00     0.034 A 
ATOM     57  C   UNL A   1      40.369  29.603  29.982  1.00  0.00     0.034 A 
ATOM     58  C   UNL A   1      46.383  29.454  27.295  1.00  0.00     0.049 A 
ATOM     59  C   UNL A   1      41.487  30.608  29.883  1.00  0.00     0.074 A 
ATOM     60  C   UNL A   1      47.282  30.499  27.204  1.00  0.00     0.029 A 
ATOM     61  N   UNL A   1      45.268  29.943  27.969  1.00  0.00    -0.354 N 
ATOM     62  N   UNL A   1      42.666  30.473  29.320  1.00  0.00    -0.248 NA
ATOM     63  C   UNL A   1      41.242  31.930  30.469  1.00  0.00     0.031 C 
ATOM     64  C   UNL A   1      46.740  31.599  27.878  1.00  0.00     0.029 A 
ATOM     65  C   UNL A   1      45.470  31.266  28.328  1.00  0.00     0.049 A 
ATOM     66  H   UNL A   1      44.454  29.425  28.163  1.00  0.00     0.167 HD
ATOM     67  C   UNL A   1      43.288  31.710  29.445  1.00  0.00     0.074 A 
ATOM     68  C   UNL A   1      42.349  32.576  30.133  1.00  0.00     0.031 C 
ATOM     69  C   UNL A   1      44.518  32.101  29.022  1.00  0.00     0.034 A 
BRANCH  56  70
ATOM     70  C   UNL A   1      47.802  27.654  26.162  1.00  0.00     0.023 A 
ATOM     71  C   UNL A   1      48.024  27.846  24.784  1.00  0.00     0.031 A 
ATOM     72  C   UNL A   1      48.763  26.935  26.891  1.00  0.00     0.131 A 
ATOM     73  C   UNL A   1      49.119  27.232  24.162  1.00  0.00     0.055 A 
ATOM     74  C   UNL A   1      49.902  26.409  26.279  1.00  0.00     0.041 A 
ATOM     75  F   UNL A   1      48.591  26.697  28.200  1.00  0.00    -0.206 F 
ATOM     76  C   UNL A   1      50.075  26.537  24.904  1.00  0.00     0.022 A 
BRANCH  73  77
ATOM     77  S   UNL A   1      49.175  27.199  22.348  1.00  0.00     0.124 S 
ATOM     78  O   UNL A   1      48.529  25.920  22.060  1.00  0.00    -0.237 OA
ATOM     79  O   UNL A   1      48.421  28.392  21.985  1.00  0.00    -0.237 OA
ATOM     80  O   UNL A   1      50.605  27.248  22.049  1.00  0.00    -0.744 OA
ENDBRANCH  73  77
ENDBRANCH  56  70
BRANCH  57  81
ATOM     81  C   UNL A   1      39.095  29.929  30.692  1.00  0.00     0.023 A 
ATOM     82  C   UNL A   1      38.203  30.887  30.182  1.00  0.00     0.031 A 
ATOM     83  C   UNL A   1      38.771  29.321  31.918  1.00  0.00     0.131 A 
ATOM     84  C   UNL A   1      37.061  31.247  30.916  1.00  0.00     0.055 A 
ATOM     85  C   UNL A   1      37.609  29.646  32.622  1.00  0.00     0.041 A 
ATOM     86  F   UNL A   1      39.581  28.392  32.452  1.00  0.00    -0.206 F 
ATOM     87  C   UNL A   1      36.753  30.625  32.129  1.00  0.00     0.022 A 
BRANCH  84  88
ATOM     88  S   UNL A   1      36.026  32.610  30.312  1.00  0.00     0.124 S 
ATOM     89  O   UNL A   1      36.491  33.722  31.131  1.00  0.00    -0.237 OA
ATOM     90  O   UNL A   1      36.385  32.660  28.898  1.00  0.00    -0.237 OA
ATOM     91  O   UNL A   1      34.666  32.155  30.590  1.00  0.00    -0.744 OA
ENDBRANCH  84  88
ENDBRANCH  57  81
BRANCH  69  92
ATOM     92  C   UNL A   1      44.886  33.543  29.256  1.00  0.00     0.023 A 
ATOM     93  C   UNL A   1      44.451  34.565  28.395  1.00  0.00     0.031 A 
ATOM     94  C   UNL A   1      45.688  33.894  30.354  1.00  0.00     0.131 A 
ATOM     95  C   UNL A   1      44.866  35.884  28.618  1.00  0.00     0.055 A 
ATOM     96  C   UNL A   1      46.046  35.219  30.607  1.00  0.00     0.041 A 
ATOM     97  F   UNL A   1      46.132  32.955  31.205  1.00  0.00    -0.206 F 
ATOM     98  C   UNL A   1      45.645  36.220  29.728  1.00  0.00     0.022 A 
BRANCH  95  99
ATOM     99  S   UNL A   1      44.445  37.145  27.385  1.00  0.00     0.124 S 
ATOM    100  O   UNL A   1      43.922  38.223  28.219  1.00  0.00    -0.237 OA
ATOM    101  O   UNL A   1      45.730  37.401  26.745  1.00  0.00    -0.237 OA
ATOM    102  O   UNL A   1      43.455  36.479  26.539  1.00  0.00    -0.744 OA
ENDBRANCH  95  99
ENDBRANCH  69  92
ENDBRANCH  43  44
ENDBRANCH  35  38
ENDBRANCH  33  34
ENDBRANCH  32  33
ENDBRANCH   1  32
TORSDOF 17
ENDMDL
MODEL 3
REMARK VINA RESULT:     -13.0      1.673      2.014
REMARK SMILES C[C@@H](CCC(=O)NCCCCNC(=O)c1ccc(-c2c3nc(c(-c4cc(S(=O)(=O)[O-])ccc4F)c4ccc([nH]4)c(-c4cc(S(=O)(=O)[O-])ccc4F)c4nc(c(-c5cc(S(=O)(=O)[O-])ccc5F)c5ccc2[nH]5)C=C4)C=C3)cc1)[C@@H]1CC[C@@H]2[C@H]3CC[C@@H]4CC(=O)CC[C@]4(C)[C@@H]3CC(=O)[C@]21C
REMARK SMILES IDX 9 1 8 2 7 3 5 4 6 5 4 7 3 8 2 9 1 10 78 11 79 12 97 13 80 14
REMARK SMILES IDX 81 15 95 16 98 17 82 18 94 19 96 20 83 21 93 22 84 23 91 24
REMARK SMILES IDX 85 25 90 26 92 27 86 28 89 29 87 30 88 31 10 32 11 33 12 34
REMARK SMILES IDX 13 35 14 37 15 38 16 39 77 40 17 41 76 42 18 43 19 44 20 45
REMARK SMILES IDX 70 46 21 47 75 48 69 49 71 50 22 51 74 52 68 53 67 54 23 56
REMARK SMILES IDX 55 57 35 58 54 59 36 60 39 61 53 62 72 63 37 64 38 65 52 67
REMARK SMILES IDX 73 68 40 69 24 70 25 71 33 72 26 73 32 74 34 75 31 76 27 77
REMARK SMILES IDX 28 78 29 79 30 80 56 81 57 82 65 83 58 84 64 85 66 86 63 87
REMARK SMILES IDX 59 88 60 89 61 90 62 91 41 92 42 93 50 94 43 95 49 96 51 97
REMARK SMILES IDX 48 98 44 99 45 100 46 101 47 102
REMARK H PARENT 7 6 12 36 71 55 39 66
REMARK Flexibility Score: inf
ROOT
ATOM      1  C   UNL A   1      36.437  19.864  24.993  1.00  0.00     0.023 C 
ENDROOT
BRANCH   1   2
ATOM      2  C   UNL A   1      35.691  18.561  24.675  1.00  0.00     0.116 C 
BRANCH   2   3
ATOM      3  N   UNL A   1      34.393  18.391  25.316  1.00  0.00    -0.356 N 
ATOM      4  C   UNL A   1      33.126  18.646  24.890  1.00  0.00     0.220 C 
ATOM      5  O   UNL A   1      32.194  18.120  25.505  1.00  0.00    -0.275 OA
ATOM      6  H   UNL A   1      34.443  18.021  26.227  1.00  0.00     0.163 HD
BRANCH   4   7
ATOM      7  C   UNL A   1      32.846  19.551  23.713  1.00  0.00     0.100 C 
BRANCH   7   8
ATOM      8  C   UNL A   1      32.507  21.009  24.101  1.00  0.00     0.013 C 
BRANCH   8   9
ATOM      9  C   UNL A   1      31.713  21.893  23.088  1.00  0.00    -0.010 C 
ATOM     10  C   UNL A   1      31.823  21.207  21.715  1.00  0.00     0.008 C 
BRANCH   9  11
ATOM     11  C   UNL A   1      32.124  23.393  23.087  1.00  0.00     0.005 C 
ATOM     12  C   UNL A   1      33.299  23.760  22.118  1.00  0.00     0.005 C 
ATOM     13  C   UNL A   1      32.606  24.140  24.388  1.00  0.00     0.032 C 
ATOM     14  C   UNL A   1      33.831  25.137  22.562  1.00  0.00     0.005 C 
ATOM     15  C   UNL A   1      32.895  25.505  23.703  1.00  0.00     0.006 C 
ATOM     16  C   UNL A   1      31.650  24.442  25.537  1.00  0.00     0.139 C 
ATOM     17  C   UNL A   1      33.837  23.465  25.026  1.00  0.00     0.020 C 
ATOM     18  C   UNL A   1      33.191  26.755  24.547  1.00  0.00    -0.003 C 
ATOM     19  C   UNL A   1      32.083  25.540  26.495  1.00  0.00     0.080 C 
ATOM     20  O   UNL A   1      30.618  23.817  25.758  1.00  0.00    -0.299 OA
ATOM     21  C   UNL A   1      33.018  28.005  23.655  1.00  0.00     0.004 C 
ATOM     22  C   UNL A   1      32.184  26.853  25.727  1.00  0.00     0.006 C 
ATOM     23  C   UNL A   1      32.912  29.338  24.388  1.00  0.00     0.005 C 
ATOM     24  C   UNL A   1      32.396  28.138  26.603  1.00  0.00    -0.025 C 
ATOM     25  C   UNL A   1      32.057  29.327  25.673  1.00  0.00     0.002 C 
ATOM     26  C   UNL A   1      33.828  28.298  27.193  1.00  0.00     0.015 C 
ATOM     27  C   UNL A   1      31.406  28.118  27.801  1.00  0.00     0.012 C 
ATOM     28  C   UNL A   1      32.115  30.653  26.437  1.00  0.00     0.079 C 
ATOM     29  C   UNL A   1      34.411  29.719  27.207  1.00  0.00     0.076 C 
ATOM     30  C   UNL A   1      33.402  30.841  27.194  1.00  0.00     0.133 C 
ATOM     31  O   UNL A   1      33.642  31.913  27.751  1.00  0.00    -0.300 OA
ENDBRANCH   9  11
ENDBRANCH   8   9
ENDBRANCH   7   8
ENDBRANCH   4   7
ENDBRANCH   2   3
ENDBRANCH   1   2
BRANCH   1  32
ATOM     32  C   UNL A   1      37.931  19.880  24.677  1.00  0.00     0.023 C 
BRANCH  32  33
ATOM     33  C   UNL A   1      38.871  20.337  25.780  1.00  0.00     0.116 C 
BRANCH  33  34
ATOM     34  N   UNL A   1      40.007  19.448  25.949  1.00  0.00    -0.352 N 
ATOM     35  C   UNL A   1      41.341  19.692  26.195  1.00  0.00     0.251 C 
ATOM     36  H   UNL A   1      39.781  18.492  25.876  1.00  0.00     0.163 HD
ATOM     37  O   UNL A   1      42.104  18.726  26.173  1.00  0.00    -0.269 OA
BRANCH  35  38
ATOM     38  C   UNL A   1      41.901  21.061  26.416  1.00  0.00     0.039 A 
ATOM     39  C   UNL A   1      42.330  21.402  27.710  1.00  0.00     0.014 A 
ATOM     40  C   UNL A   1      42.013  22.024  25.414  1.00  0.00     0.014 A 
ATOM     41  C   UNL A   1      42.940  22.639  27.968  1.00  0.00     0.010 A 
ATOM     42  C   UNL A   1      42.708  23.213  25.642  1.00  0.00     0.010 A 
ATOM     43  C   UNL A   1      43.175  23.536  26.923  1.00  0.00    -0.014 A 
BRANCH  43  44
ATOM     44  C   UNL A   1      43.733  24.893  27.163  1.00  0.00     0.031 A 
ATOM     45  C   UNL A   1      42.808  25.934  27.717  1.00  0.00     0.074 A 
ATOM     46  C   UNL A   1      45.002  25.212  26.839  1.00  0.00     0.049 A 
ATOM     47  N   UNL A   1      43.025  27.202  27.938  1.00  0.00    -0.248 NA
ATOM     48  C   UNL A   1      41.443  25.487  28.037  1.00  0.00     0.031 C 
ATOM     49  C   UNL A   1      45.985  24.286  26.300  1.00  0.00     0.029 A 
ATOM     50  N   UNL A   1      45.688  26.399  26.902  1.00  0.00    -0.354 N 
ATOM     51  C   UNL A   1      41.827  27.700  28.431  1.00  0.00     0.074 A 
ATOM     52  C   UNL A   1      40.866  26.622  28.386  1.00  0.00     0.031 C 
ATOM     53  C   UNL A   1      47.145  24.920  26.076  1.00  0.00     0.029 A 
ATOM     54  C   UNL A   1      46.982  26.320  26.431  1.00  0.00     0.049 A 
ATOM     55  H   UNL A   1      45.293  27.231  27.250  1.00  0.00     0.167 HD
ATOM     56  C   UNL A   1      41.566  28.939  28.911  1.00  0.00     0.034 A 
ATOM     57  C   UNL A   1      47.929  27.270  26.298  1.00  0.00     0.034 A 
ATOM     58  C   UNL A   1      42.539  30.000  28.927  1.00  0.00     0.049 A 
ATOM     59  C   UNL A   1      47.594  28.662  26.767  1.00  0.00     0.074 A 
ATOM     60  C   UNL A   1      42.403  31.292  29.397  1.00  0.00     0.029 A 
ATOM     61  N   UNL A   1      43.836  29.888  28.434  1.00  0.00    -0.354 N 
ATOM     62  N   UNL A   1      46.470  29.108  27.281  1.00  0.00    -0.248 NA
ATOM     63  C   UNL A   1      48.656  29.668  26.667  1.00  0.00     0.031 C 
ATOM     64  C   UNL A   1      43.592  31.979  29.130  1.00  0.00     0.029 A 
ATOM     65  C   UNL A   1      44.499  31.098  28.560  1.00  0.00     0.049 A 
ATOM     66  H   UNL A   1      44.225  29.069  28.052  1.00  0.00     0.167 HD
ATOM     67  C   UNL A   1      46.705  30.439  27.607  1.00  0.00     0.074 A 
ATOM     68  C   UNL A   1      48.080  30.717  27.236  1.00  0.00     0.031 C 
ATOM     69  C   UNL A   1      45.868  31.347  28.172  1.00  0.00     0.034 A 
BRANCH  56  70
ATOM     70  C   UNL A   1      40.164  29.186  29.407  1.00  0.00     0.023 A 
ATOM     71  C   UNL A   1      39.842  29.086  30.774  1.00  0.00     0.031 A 
ATOM     72  C   UNL A   1      39.117  29.417  28.499  1.00  0.00     0.131 A 
ATOM     73  C   UNL A   1      38.501  29.108  31.180  1.00  0.00     0.055 A 
ATOM     74  C   UNL A   1      37.792  29.533  28.924  1.00  0.00     0.041 A 
ATOM     75  F   UNL A   1      39.359  29.493  27.181  1.00  0.00    -0.206 F 
ATOM     76  C   UNL A   1      37.475  29.357  30.268  1.00  0.00     0.022 A 
BRANCH  73  77
ATOM     77  S   UNL A   1      38.106  28.620  32.883  1.00  0.00     0.124 S 
ATOM     78  O   UNL A   1      38.238  27.166  32.808  1.00  0.00    -0.237 OA
ATOM     79  O   UNL A   1      39.125  29.315  33.658  1.00  0.00    -0.237 OA
ATOM     80  O   UNL A   1      36.739  29.104  33.070  1.00  0.00    -0.744 OA
ENDBRANCH  73  77
ENDBRANCH  56  70
BRANCH  57  81
ATOM     81  C   UNL A   1      49.265  26.953  25.711  1.00  0.00     0.023 A 
ATOM     82  C   UNL A   1      50.365  26.647  26.529  1.00  0.00     0.031 A 
ATOM     83  C   UNL A   1      49.476  26.995  24.320  1.00  0.00     0.131 A 
ATOM     84  C   UNL A   1      51.634  26.448  25.959  1.00  0.00     0.055 A 
ATOM     85  C   UNL A   1      50.729  26.747  23.753  1.00  0.00     0.041 A 
ATOM     86  F   UNL A   1      48.460  27.272  23.486  1.00  0.00    -0.206 F 
ATOM     87  C   UNL A   1      51.820  26.486  24.574  1.00  0.00     0.022 A 
BRANCH  84  88
ATOM     88  S   UNL A   1      53.062  26.230  27.057  1.00  0.00     0.124 S 
ATOM     89  O   UNL A   1      53.911  27.349  26.668  1.00  0.00    -0.237 OA
ATOM     90  O   UNL A   1      52.446  26.320  28.378  1.00  0.00    -0.237 OA
ATOM     91  O   UNL A   1      53.569  24.907  26.699  1.00  0.00    -0.744 OA
ENDBRANCH  84  88
ENDBRANCH  57  81
BRANCH  69  92
ATOM     92  C   UNL A   1      46.444  32.709  28.460  1.00  0.00     0.023 A 
ATOM     93  C   UNL A   1      47.046  33.010  29.693  1.00  0.00     0.031 A 
ATOM     94  C   UNL A   1      46.382  33.719  27.485  1.00  0.00     0.131 A 
ATOM     95  C   UNL A   1      47.515  34.307  29.939  1.00  0.00     0.055 A 
ATOM     96  C   UNL A   1      46.908  34.990  27.713  1.00  0.00     0.041 A 
ATOM     97  F   UNL A   1      45.815  33.482  26.291  1.00  0.00    -0.206 F 
ATOM     98  C   UNL A   1      47.468  35.293  28.950  1.00  0.00     0.022 A 
BRANCH  95  99
ATOM     99  S   UNL A   1      48.112  34.712  31.603  1.00  0.00     0.124 S 
ATOM    100  O   UNL A   1      49.543  34.890  31.376  1.00  0.00    -0.237 OA
ATOM    101  O   UNL A   1      47.362  35.922  31.919  1.00  0.00    -0.237 OA
ATOM    102  O   UNL A   1      47.750  33.535  32.391  1.00  0.00    -0.744 OA
ENDBRANCH  95  99
ENDBRANCH  69  92
ENDBRANCH  43  44
ENDBRANCH  35  38
ENDBRANCH  33  34
ENDBRANCH  32  33
ENDBRANCH   1  32
TORSDOF 17
ENDMDL
