MODEL 1
REMARK VINA RESULT:     -12.3      0.000      0.000
REMARK SMILES O=C(C[C@@H](NS(=O)(=O)c1ccc2c(c1)OCCO2)c1ccccc1)NCCCCNC(=O)c1ccc(-c2c3nc(c(-c4cc(S(=O)(=O)[O-])ccc4F)c4ccc([nH]4)c(-c4cc(S(=O)(=O)[O-])ccc4F)c4nc(c(-c5cc(S(=O)(=O)[O-])ccc5F)c5ccc2[nH]5)C=C4)C=C3)cc1
REMARK SMILES IDX 27 1 26 2 25 3 1 4 2 5 3 7 4 8 5 9 6 11 7 12 8 13 9 14 10 15
REMARK SMILES IDX 14 16 11 17 13 18 12 19 15 20 18 21 16 22 17 23 19 24 20 25
REMARK SMILES IDX 24 26 21 27 23 28 22 29 28 30 29 31 30 32 31 33 32 35 33 36
REMARK SMILES IDX 34 37 95 38 35 39 94 40 36 41 37 42 38 43 88 44 39 45 93 46
REMARK SMILES IDX 87 47 89 48 40 49 92 50 86 51 85 52 41 54 73 55 53 56 72 57
REMARK SMILES IDX 54 58 57 59 71 60 90 61 55 62 56 63 70 65 91 66 58 67 42 68
REMARK SMILES IDX 43 69 51 70 44 71 50 72 52 73 49 74 45 75 46 76 47 77 48 78
REMARK SMILES IDX 74 79 75 80 83 81 76 82 82 83 84 84 81 85 77 86 78 87 79 88
REMARK SMILES IDX 80 89 59 90 60 91 68 92 61 93 67 94 69 95 66 96 62 97 63 98
REMARK SMILES IDX 64 99 65 100
REMARK H PARENT 25 6 5 10 30 34 89 53 57 64
REMARK Flexibility Score: inf
ROOT
ATOM      1  C   UNL A   1      31.857  30.306  26.907  1.00  0.00     0.023 C 
ENDROOT
BRANCH   1   2
ATOM      2  C   UNL A   1      32.221  29.526  25.645  1.00  0.00     0.116 C 
BRANCH   2   3
ATOM      3  N   UNL A   1      32.860  28.264  25.960  1.00  0.00    -0.356 N 
ATOM      4  O   UNL A   1      33.763  27.924  23.872  1.00  0.00    -0.275 OA
ATOM      5  C   UNL A   1      33.582  27.556  25.027  1.00  0.00     0.221 C 
ATOM      6  H   UNL A   1      32.774  27.902  26.871  1.00  0.00     0.163 HD
BRANCH   5   7
ATOM      7  C   UNL A   1      34.148  26.265  25.558  1.00  0.00     0.124 C 
BRANCH   7   8
ATOM      8  C   UNL A   1      33.216  25.086  25.244  1.00  0.00     0.109 C 
BRANCH   8   9
ATOM      9  N   UNL A   1      32.354  25.412  24.080  1.00  0.00    -0.203 NA
ATOM     10  H   UNL A   1      32.777  24.975  23.261  1.00  0.00     0.142 HD
BRANCH   9  11
ATOM     11  S   UNL A   1      30.729  24.937  24.114  1.00  0.00     0.241 S 
ATOM     12  O   UNL A   1      30.547  23.967  23.056  1.00  0.00    -0.207 OA
ATOM     13  O   UNL A   1      30.461  24.601  25.496  1.00  0.00    -0.207 OA
BRANCH  11  14
ATOM     14  C   UNL A   1      29.821  26.403  23.726  1.00  0.00     0.086 A 
ATOM     15  C   UNL A   1      28.470  26.486  24.088  1.00  0.00     0.026 A 
ATOM     16  C   UNL A   1      30.435  27.430  23.005  1.00  0.00     0.072 A 
ATOM     17  C   UNL A   1      27.707  27.573  23.661  1.00  0.00     0.052 A 
ATOM     18  C   UNL A   1      29.663  28.509  22.575  1.00  0.00     0.162 A 
ATOM     19  C   UNL A   1      28.294  28.561  22.874  1.00  0.00     0.161 A 
ATOM     20  O   UNL A   1      30.299  29.458  21.816  1.00  0.00    -0.486 OA
ATOM     21  O   UNL A   1      27.460  29.546  22.407  1.00  0.00    -0.486 OA
ATOM     22  C   UNL A   1      29.492  30.630  21.651  1.00  0.00     0.271 C 
ATOM     23  C   UNL A   1      28.060  30.249  21.315  1.00  0.00     0.271 C 
ENDBRANCH  11  14
ENDBRANCH   9  11
ENDBRANCH   8   9
BRANCH   8  24
ATOM     24  C   UNL A   1      34.091  23.875  24.963  1.00  0.00    -0.029 A 
ATOM     25  C   UNL A   1      33.522  22.598  24.869  1.00  0.00     0.005 A 
ATOM     26  C   UNL A   1      35.479  24.012  24.787  1.00  0.00     0.005 A 
ATOM     27  C   UNL A   1      34.322  21.487  24.590  1.00  0.00     0.000 A 
ATOM     28  C   UNL A   1      36.276  22.902  24.511  1.00  0.00     0.000 A 
ATOM     29  C   UNL A   1      35.696  21.641  24.411  1.00  0.00     0.000 A 
ENDBRANCH   8  24
ENDBRANCH   7   8
ENDBRANCH   5   7
ENDBRANCH   2   3
ENDBRANCH   1   2
BRANCH   1  30
ATOM     30  C   UNL A   1      31.758  31.824  26.728  1.00  0.00     0.023 C 
BRANCH  30  31
ATOM     31  C   UNL A   1      32.981  32.618  27.180  1.00  0.00     0.116 C 
BRANCH  31  32
ATOM     32  N   UNL A   1      32.637  33.961  27.612  1.00  0.00    -0.352 N 
ATOM     33  C   UNL A   1      33.138  34.693  28.661  1.00  0.00     0.251 C 
ATOM     34  H   UNL A   1      31.946  34.412  27.075  1.00  0.00     0.163 HD
ATOM     35  O   UNL A   1      32.588  35.745  28.978  1.00  0.00    -0.269 OA
BRANCH  33  36
ATOM     36  C   UNL A   1      34.307  34.203  29.427  1.00  0.00     0.039 A 
ATOM     37  C   UNL A   1      34.087  33.431  30.571  1.00  0.00     0.014 A 
ATOM     38  C   UNL A   1      35.614  34.505  29.032  1.00  0.00     0.014 A 
ATOM     39  C   UNL A   1      35.174  32.906  31.277  1.00  0.00     0.010 A 
ATOM     40  C   UNL A   1      36.694  33.926  29.698  1.00  0.00     0.010 A 
ATOM     41  C   UNL A   1      36.487  33.117  30.825  1.00  0.00    -0.014 A 
BRANCH  41  42
ATOM     42  C   UNL A   1      37.650  32.499  31.517  1.00  0.00     0.031 A 
ATOM     43  C   UNL A   1      38.382  31.346  30.884  1.00  0.00     0.074 A 
ATOM     44  C   UNL A   1      38.008  32.933  32.741  1.00  0.00     0.049 A 
ATOM     45  N   UNL A   1      39.361  30.622  31.365  1.00  0.00    -0.248 NA
ATOM     46  C   UNL A   1      37.935  30.939  29.544  1.00  0.00     0.031 C 
ATOM     47  C   UNL A   1      37.355  34.020  33.476  1.00  0.00     0.029 A 
ATOM     48  N   UNL A   1      38.999  32.509  33.591  1.00  0.00    -0.354 N 
ATOM     49  C   UNL A   1      39.641  29.668  30.393  1.00  0.00     0.074 A 
ATOM     50  C   UNL A   1      38.686  29.871  29.322  1.00  0.00     0.031 C 
ATOM     51  C   UNL A   1      37.972  34.185  34.658  1.00  0.00     0.029 A 
ATOM     52  C   UNL A   1      39.032  33.190  34.787  1.00  0.00     0.049 A 
ATOM     53  H   UNL A   1      39.627  31.786  33.367  1.00  0.00     0.167 HD
ATOM     54  C   UNL A   1      40.614  28.722  30.383  1.00  0.00     0.034 A 
ATOM     55  C   UNL A   1      39.815  33.023  35.872  1.00  0.00     0.034 A 
ATOM     56  C   UNL A   1      41.561  28.532  31.456  1.00  0.00     0.049 A 
ATOM     57  C   UNL A   1      40.873  31.949  35.852  1.00  0.00     0.074 A 
ATOM     58  C   UNL A   1      42.614  27.636  31.529  1.00  0.00     0.029 A 
ATOM     59  N   UNL A   1      41.567  29.245  32.649  1.00  0.00    -0.354 N 
ATOM     60  N   UNL A   1      41.152  31.083  34.905  1.00  0.00    -0.248 NA
ATOM     61  C   UNL A   1      41.728  31.839  37.040  1.00  0.00     0.031 C 
ATOM     62  C   UNL A   1      43.214  27.763  32.787  1.00  0.00     0.029 A 
ATOM     63  C   UNL A   1      42.586  28.789  33.473  1.00  0.00     0.049 A 
ATOM     64  H   UNL A   1      40.939  29.969  32.876  1.00  0.00     0.167 HD
ATOM     65  C   UNL A   1      42.236  30.345  35.374  1.00  0.00     0.074 A 
ATOM     66  C   UNL A   1      42.567  30.878  36.680  1.00  0.00     0.031 C 
ATOM     67  C   UNL A   1      42.900  29.321  34.779  1.00  0.00     0.034 A 
BRANCH  54  68
ATOM     68  C   UNL A   1      40.682  27.809  29.182  1.00  0.00     0.023 A 
ATOM     69  C   UNL A   1      41.616  28.015  28.150  1.00  0.00     0.031 A 
ATOM     70  C   UNL A   1      39.786  26.732  29.051  1.00  0.00     0.131 A 
ATOM     71  C   UNL A   1      41.582  27.209  27.003  1.00  0.00     0.055 A 
ATOM     72  C   UNL A   1      39.812  25.883  27.943  1.00  0.00     0.041 A 
ATOM     73  F   UNL A   1      38.860  26.495  29.994  1.00  0.00    -0.206 F 
ATOM     74  C   UNL A   1      40.703  26.129  26.902  1.00  0.00     0.022 A 
BRANCH  71  75
ATOM     75  S   UNL A   1      42.609  27.681  25.584  1.00  0.00     0.124 S 
ATOM     76  O   UNL A   1      43.900  27.927  26.222  1.00  0.00    -0.237 OA
ATOM     77  O   UNL A   1      42.532  26.500  24.732  1.00  0.00    -0.237 OA
ATOM     78  O   UNL A   1      41.944  28.872  25.060  1.00  0.00    -0.744 OA
ENDBRANCH  71  75
ENDBRANCH  54  68
BRANCH  55  79
ATOM     79  C   UNL A   1      39.622  33.876  37.081  1.00  0.00     0.023 A 
ATOM     80  C   UNL A   1      38.972  33.381  38.222  1.00  0.00     0.031 A 
ATOM     81  C   UNL A   1      40.049  35.216  37.094  1.00  0.00     0.131 A 
ATOM     82  C   UNL A   1      38.724  34.231  39.311  1.00  0.00     0.055 A 
ATOM     83  C   UNL A   1      39.847  36.044  38.201  1.00  0.00     0.041 A 
ATOM     84  F   UNL A   1      40.681  35.739  36.032  1.00  0.00    -0.206 F 
ATOM     85  C   UNL A   1      39.168  35.555  39.313  1.00  0.00     0.022 A 
BRANCH  82  86
ATOM     86  S   UNL A   1      37.733  33.604  40.694  1.00  0.00     0.124 S 
ATOM     87  O   UNL A   1      38.672  32.700  41.347  1.00  0.00    -0.237 OA
ATOM     88  O   UNL A   1      37.413  34.831  41.418  1.00  0.00    -0.237 OA
ATOM     89  O   UNL A   1      36.600  32.959  40.035  1.00  0.00    -0.744 OA
ENDBRANCH  82  86
ENDBRANCH  55  79
BRANCH  67  90
ATOM     90  C   UNL A   1      44.081  28.747  35.521  1.00  0.00     0.023 A 
ATOM     91  C   UNL A   1      43.938  27.696  36.445  1.00  0.00     0.031 A 
ATOM     92  C   UNL A   1      45.370  29.270  35.308  1.00  0.00     0.131 A 
ATOM     93  C   UNL A   1      45.055  27.240  37.161  1.00  0.00     0.055 A 
ATOM     94  C   UNL A   1      46.486  28.772  35.981  1.00  0.00     0.041 A 
ATOM     95  F   UNL A   1      45.564  30.276  34.439  1.00  0.00    -0.206 F 
ATOM     96  C   UNL A   1      46.330  27.760  36.924  1.00  0.00     0.022 A 
BRANCH  93  97
ATOM     97  S   UNL A   1      44.806  26.016  38.477  1.00  0.00     0.124 S 
ATOM     98  O   UNL A   1      44.216  24.899  37.746  1.00  0.00    -0.237 OA
ATOM     99  O   UNL A   1      46.164  25.807  38.970  1.00  0.00    -0.237 OA
ATOM    100  O   UNL A   1      43.906  26.692  39.411  1.00  0.00    -0.744 OA
ENDBRANCH  93  97
ENDBRANCH  67  90
ENDBRANCH  41  42
ENDBRANCH  33  36
ENDBRANCH  31  32
ENDBRANCH  30  31
ENDBRANCH   1  30
TORSDOF 19
ENDMDL
MODEL 2
REMARK VINA RESULT:     -12.3      3.192      8.288
REMARK SMILES O=C(C[C@@H](NS(=O)(=O)c1ccc2c(c1)OCCO2)c1ccccc1)NCCCCNC(=O)c1ccc(-c2c3nc(c(-c4cc(S(=O)(=O)[O-])ccc4F)c4ccc([nH]4)c(-c4cc(S(=O)(=O)[O-])ccc4F)c4nc(c(-c5cc(S(=O)(=O)[O-])ccc5F)c5ccc2[nH]5)C=C4)C=C3)cc1
REMARK SMILES IDX 27 1 26 2 25 3 1 4 2 5 3 7 4 8 5 9 6 11 7 12 8 13 9 14 10 15
REMARK SMILES IDX 14 16 11 17 13 18 12 19 15 20 18 21 16 22 17 23 19 24 20 25
REMARK SMILES IDX 24 26 21 27 23 28 22 29 28 30 29 31 30 32 31 33 32 35 33 36
REMARK SMILES IDX 34 37 95 38 35 39 94 40 36 41 37 42 38 43 88 44 39 45 93 46
REMARK SMILES IDX 87 47 89 48 40 49 92 50 86 51 85 52 41 54 73 55 53 56 72 57
REMARK SMILES IDX 54 58 57 59 71 60 90 61 55 62 56 63 70 65 91 66 58 67 42 68
REMARK SMILES IDX 43 69 51 70 44 71 50 72 52 73 49 74 45 75 46 76 47 77 48 78
REMARK SMILES IDX 74 79 75 80 83 81 76 82 82 83 84 84 81 85 77 86 78 87 79 88
REMARK SMILES IDX 80 89 59 90 60 91 68 92 61 93 67 94 69 95 66 96 62 97 63 98
REMARK SMILES IDX 64 99 65 100
REMARK H PARENT 25 6 5 10 30 34 89 53 57 64
REMARK Flexibility Score: inf
ROOT
ATOM      1  C   UNL A   1      31.851  28.267  27.453  1.00  0.00     0.023 C 
ENDROOT
BRANCH   1   2
ATOM      2  C   UNL A   1      31.224  27.035  26.803  1.00  0.00     0.116 C 
BRANCH   2   3
ATOM      3  N   UNL A   1      32.190  25.970  26.630  1.00  0.00    -0.356 N 
ATOM      4  O   UNL A   1      30.678  24.245  26.785  1.00  0.00    -0.275 OA
ATOM      5  C   UNL A   1      31.828  24.643  26.644  1.00  0.00     0.221 C 
ATOM      6  H   UNL A   1      33.138  26.204  26.498  1.00  0.00     0.163 HD
BRANCH   5   7
ATOM      7  C   UNL A   1      32.989  23.701  26.462  1.00  0.00     0.124 C 
BRANCH   7   8
ATOM      8  C   UNL A   1      33.281  23.470  24.972  1.00  0.00     0.109 C 
BRANCH   8   9
ATOM      9  N   UNL A   1      33.186  24.753  24.229  1.00  0.00    -0.203 NA
ATOM     10  H   UNL A   1      34.139  25.053  24.024  1.00  0.00     0.142 HD
BRANCH   9  11
ATOM     11  S   UNL A   1      32.330  24.783  22.768  1.00  0.00     0.241 S 
ATOM     12  O   UNL A   1      33.259  25.199  21.739  1.00  0.00    -0.207 OA
ATOM     13  O   UNL A   1      31.656  23.505  22.697  1.00  0.00    -0.207 OA
BRANCH  11  14
ATOM     14  C   UNL A   1      31.102  26.035  22.988  1.00  0.00     0.086 A 
ATOM     15  C   UNL A   1      29.951  25.739  23.729  1.00  0.00     0.026 A 
ATOM     16  C   UNL A   1      31.258  27.277  22.369  1.00  0.00     0.072 A 
ATOM     17  C   UNL A   1      28.912  26.668  23.788  1.00  0.00     0.052 A 
ATOM     18  C   UNL A   1      30.212  28.196  22.426  1.00  0.00     0.162 A 
ATOM     19  C   UNL A   1      29.027  27.877  23.106  1.00  0.00     0.161 A 
ATOM     20  O   UNL A   1      30.389  29.375  21.748  1.00  0.00    -0.486 OA
ATOM     21  O   UNL A   1      27.927  28.698  23.126  1.00  0.00    -0.486 OA
ATOM     22  C   UNL A   1      29.379  30.335  22.083  1.00  0.00     0.271 C 
ATOM     23  C   UNL A   1      28.006  29.684  22.092  1.00  0.00     0.271 C 
ENDBRANCH  11  14
ENDBRANCH   9  11
ENDBRANCH   8   9
BRANCH   8  24
ATOM     24  C   UNL A   1      34.674  22.871  24.867  1.00  0.00    -0.029 A 
ATOM     25  C   UNL A   1      34.861  21.488  24.992  1.00  0.00     0.005 A 
ATOM     26  C   UNL A   1      35.796  23.687  24.637  1.00  0.00     0.005 A 
ATOM     27  C   UNL A   1      36.138  20.934  24.874  1.00  0.00     0.000 A 
ATOM     28  C   UNL A   1      37.070  23.132  24.524  1.00  0.00     0.000 A 
ATOM     29  C   UNL A   1      37.239  21.756  24.640  1.00  0.00     0.000 A 
ENDBRANCH   8  24
ENDBRANCH   7   8
ENDBRANCH   5   7
ENDBRANCH   2   3
ENDBRANCH   1   2
BRANCH   1  30
ATOM     30  C   UNL A   1      33.365  28.404  27.263  1.00  0.00     0.023 C 
BRANCH  30  31
ATOM     31  C   UNL A   1      33.810  29.550  26.359  1.00  0.00     0.116 C 
BRANCH  31  32
ATOM     32  N   UNL A   1      33.715  30.840  27.018  1.00  0.00    -0.352 N 
ATOM     33  C   UNL A   1      34.501  31.370  28.014  1.00  0.00     0.251 C 
ATOM     34  H   UNL A   1      32.982  31.420  26.707  1.00  0.00     0.163 HD
ATOM     35  O   UNL A   1      34.150  32.406  28.571  1.00  0.00    -0.269 OA
BRANCH  33  36
ATOM     36  C   UNL A   1      35.742  30.680  28.437  1.00  0.00     0.039 A 
ATOM     37  C   UNL A   1      36.917  30.905  27.714  1.00  0.00     0.014 A 
ATOM     38  C   UNL A   1      35.753  29.809  29.531  1.00  0.00     0.014 A 
ATOM     39  C   UNL A   1      38.114  30.313  28.129  1.00  0.00     0.010 A 
ATOM     40  C   UNL A   1      36.959  29.274  29.982  1.00  0.00     0.010 A 
ATOM     41  C   UNL A   1      38.154  29.522  29.289  1.00  0.00    -0.014 A 
BRANCH  41  42
ATOM     42  C   UNL A   1      39.433  28.952  29.790  1.00  0.00     0.031 A 
ATOM     43  C   UNL A   1      40.171  29.623  30.918  1.00  0.00     0.074 A 
ATOM     44  C   UNL A   1      39.962  27.867  29.191  1.00  0.00     0.049 A 
ATOM     45  N   UNL A   1      41.337  29.328  31.436  1.00  0.00    -0.248 NA
ATOM     46  C   UNL A   1      39.522  30.794  31.524  1.00  0.00     0.031 C 
ATOM     47  C   UNL A   1      39.360  27.147  28.065  1.00  0.00     0.029 A 
ATOM     48  N   UNL A   1      41.129  27.186  29.432  1.00  0.00    -0.354 N 
ATOM     49  C   UNL A   1      41.566  30.283  32.421  1.00  0.00     0.074 A 
ATOM     50  C   UNL A   1      40.444  31.198  32.384  1.00  0.00     0.031 C 
ATOM     51  C   UNL A   1      40.156  26.120  27.725  1.00  0.00     0.029 A 
ATOM     52  C   UNL A   1      41.343  26.131  28.574  1.00  0.00     0.049 A 
ATOM     53  H   UNL A   1      41.755  27.429  30.152  1.00  0.00     0.167 HD
ATOM     54  C   UNL A   1      42.605  30.377  33.289  1.00  0.00     0.034 A 
ATOM     55  C   UNL A   1      42.384  25.280  28.469  1.00  0.00     0.034 A 
ATOM     56  C   UNL A   1      43.716  29.456  33.318  1.00  0.00     0.049 A 
ATOM     57  C   UNL A   1      43.541  25.419  29.426  1.00  0.00     0.074 A 
ATOM     58  C   UNL A   1      44.796  29.433  34.183  1.00  0.00     0.029 A 
ATOM     59  N   UNL A   1      43.895  28.397  32.436  1.00  0.00    -0.354 N 
ATOM     60  N   UNL A   1      43.721  26.302  30.380  1.00  0.00    -0.248 NA
ATOM     61  C   UNL A   1      44.627  24.440  29.299  1.00  0.00     0.031 C 
ATOM     62  C   UNL A   1      45.657  28.404  33.786  1.00  0.00     0.029 A 
ATOM     63  C   UNL A   1      45.080  27.734  32.720  1.00  0.00     0.049 A 
ATOM     64  H   UNL A   1      43.271  28.152  31.715  1.00  0.00     0.167 HD
ATOM     65  C   UNL A   1      44.929  25.965  30.986  1.00  0.00     0.074 A 
ATOM     66  C   UNL A   1      45.423  24.789  30.299  1.00  0.00     0.031 C 
ATOM     67  C   UNL A   1      45.569  26.569  32.020  1.00  0.00     0.034 A 
BRANCH  54  68
ATOM     68  C   UNL A   1      42.593  31.534  34.260  1.00  0.00     0.023 A 
ATOM     69  C   UNL A   1      41.798  31.516  35.420  1.00  0.00     0.031 A 
ATOM     70  C   UNL A   1      43.369  32.682  34.014  1.00  0.00     0.131 A 
ATOM     71  C   UNL A   1      41.735  32.648  36.246  1.00  0.00     0.055 A 
ATOM     72  C   UNL A   1      43.363  33.775  34.884  1.00  0.00     0.041 A 
ATOM     73  F   UNL A   1      44.134  32.767  32.915  1.00  0.00    -0.206 F 
ATOM     74  C   UNL A   1      42.530  33.769  36.000  1.00  0.00     0.022 A 
BRANCH  71  75
ATOM     75  S   UNL A   1      40.492  32.689  37.566  1.00  0.00     0.124 S 
ATOM     76  O   UNL A   1      39.529  31.696  37.095  1.00  0.00    -0.237 OA
ATOM     77  O   UNL A   1      41.268  32.317  38.743  1.00  0.00    -0.237 OA
ATOM     78  O   UNL A   1      40.012  34.069  37.544  1.00  0.00    -0.744 OA
ENDBRANCH  71  75
ENDBRANCH  54  68
BRANCH  55  79
ATOM     79  C   UNL A   1      42.397  24.231  27.409  1.00  0.00     0.023 A 
ATOM     80  C   UNL A   1      41.787  22.984  27.616  1.00  0.00     0.031 A 
ATOM     81  C   UNL A   1      43.059  24.447  26.187  1.00  0.00     0.131 A 
ATOM     82  C   UNL A   1      41.892  21.982  26.637  1.00  0.00     0.055 A 
ATOM     83  C   UNL A   1      43.115  23.466  25.195  1.00  0.00     0.041 A 
ATOM     84  F   UNL A   1      43.654  25.624  25.935  1.00  0.00    -0.206 F 
ATOM     85  C   UNL A   1      42.541  22.220  25.424  1.00  0.00     0.022 A 
BRANCH  82  86
ATOM     86  S   UNL A   1      41.240  20.332  27.010  1.00  0.00     0.124 S 
ATOM     87  O   UNL A   1      40.843  20.477  28.406  1.00  0.00    -0.237 OA
ATOM     88  O   UNL A   1      40.155  20.209  26.042  1.00  0.00    -0.237 OA
ATOM     89  O   UNL A   1      42.384  19.454  26.774  1.00  0.00    -0.744 OA
ENDBRANCH  82  86
ENDBRANCH  55  79
BRANCH  67  90
ATOM     90  C   UNL A   1      46.853  25.934  32.496  1.00  0.00     0.023 A 
ATOM     91  C   UNL A   1      46.869  24.972  33.522  1.00  0.00     0.031 A 
ATOM     92  C   UNL A   1      48.080  26.309  31.921  1.00  0.00     0.131 A 
ATOM     93  C   UNL A   1      48.092  24.459  33.979  1.00  0.00     0.055 A 
ATOM     94  C   UNL A   1      49.289  25.751  32.340  1.00  0.00     0.041 A 
ATOM     95  F   UNL A   1      48.124  27.225  30.940  1.00  0.00    -0.206 F 
ATOM     96  C   UNL A   1      49.300  24.830  33.384  1.00  0.00     0.022 A 
BRANCH  93  97
ATOM     97  S   UNL A   1      48.093  23.364  35.425  1.00  0.00     0.124 S 
ATOM     98  O   UNL A   1      49.509  23.033  35.554  1.00  0.00    -0.237 OA
ATOM     99  O   UNL A   1      47.544  24.224  36.469  1.00  0.00    -0.237 OA
ATOM    100  O   UNL A   1      47.231  22.256  35.019  1.00  0.00    -0.744 OA
ENDBRANCH  93  97
ENDBRANCH  67  90
ENDBRANCH  41  42
ENDBRANCH  33  36
ENDBRANCH  31  32
ENDBRANCH  30  31
ENDBRANCH   1  30
TORSDOF 19
ENDMDL
MODEL 3
REMARK VINA RESULT:     -12.2      2.362      8.331
REMARK SMILES O=C(C[C@@H](NS(=O)(=O)c1ccc2c(c1)OCCO2)c1ccccc1)NCCCCNC(=O)c1ccc(-c2c3nc(c(-c4cc(S(=O)(=O)[O-])ccc4F)c4ccc([nH]4)c(-c4cc(S(=O)(=O)[O-])ccc4F)c4nc(c(-c5cc(S(=O)(=O)[O-])ccc5F)c5ccc2[nH]5)C=C4)C=C3)cc1
REMARK SMILES IDX 27 1 26 2 25 3 1 4 2 5 3 7 4 8 5 9 6 11 7 12 8 13 9 14 10 15
REMARK SMILES IDX 14 16 11 17 13 18 12 19 15 20 18 21 16 22 17 23 19 24 20 25
REMARK SMILES IDX 24 26 21 27 23 28 22 29 28 30 29 31 30 32 31 33 32 35 33 36
REMARK SMILES IDX 34 37 95 38 35 39 94 40 36 41 37 42 38 43 88 44 39 45 93 46
REMARK SMILES IDX 87 47 89 48 40 49 92 50 86 51 85 52 41 54 73 55 53 56 72 57
REMARK SMILES IDX 54 58 57 59 71 60 90 61 55 62 56 63 70 65 91 66 58 67 42 68
REMARK SMILES IDX 43 69 51 70 44 71 50 72 52 73 49 74 45 75 46 76 47 77 48 78
REMARK SMILES IDX 74 79 75 80 83 81 76 82 82 83 84 84 81 85 77 86 78 87 79 88
REMARK SMILES IDX 80 89 59 90 60 91 68 92 61 93 67 94 69 95 66 96 62 97 63 98
REMARK SMILES IDX 64 99 65 100
REMARK H PARENT 25 6 5 10 30 34 89 53 57 64
REMARK Flexibility Score: inf
ROOT
ATOM      1  C   UNL A   1      34.070  29.319  26.526  1.00  0.00     0.023 C 
ENDROOT
BRANCH   1   2
ATOM      2  C   UNL A   1      33.723  27.835  26.421  1.00  0.00     0.116 C 
BRANCH   2   3
ATOM      3  N   UNL A   1      32.672  27.598  25.453  1.00  0.00    -0.356 N 
ATOM      4  O   UNL A   1      31.221  26.579  26.917  1.00  0.00    -0.275 OA
ATOM      5  C   UNL A   1      31.494  26.972  25.789  1.00  0.00     0.221 C 
ATOM      6  H   UNL A   1      32.805  27.894  24.523  1.00  0.00     0.163 HD
BRANCH   5   7
ATOM      7  C   UNL A   1      30.545  26.813  24.630  1.00  0.00     0.124 C 
BRANCH   7   8
ATOM      8  C   UNL A   1      31.092  27.504  23.373  1.00  0.00     0.109 C 
BRANCH   8   9
ATOM      9  N   UNL A   1      31.450  26.490  22.348  1.00  0.00    -0.203 NA
ATOM     10  H   UNL A   1      31.076  26.818  21.457  1.00  0.00     0.142 HD
BRANCH   9  11
ATOM     11  S   UNL A   1      33.087  26.131  22.098  1.00  0.00     0.241 S 
ATOM     12  O   UNL A   1      33.276  25.981  20.672  1.00  0.00    -0.207 OA
ATOM     13  O   UNL A   1      33.813  27.130  22.851  1.00  0.00    -0.207 OA
BRANCH  11  14
ATOM     14  C   UNL A   1      33.333  24.570  22.889  1.00  0.00     0.086 A 
ATOM     15  C   UNL A   1      32.775  23.419  22.317  1.00  0.00     0.026 A 
ATOM     16  C   UNL A   1      34.018  24.507  24.105  1.00  0.00     0.072 A 
ATOM     17  C   UNL A   1      32.839  22.207  23.005  1.00  0.00     0.052 A 
ATOM     18  C   UNL A   1      34.070  23.294  24.789  1.00  0.00     0.162 A 
ATOM     19  C   UNL A   1      33.451  22.154  24.255  1.00  0.00     0.161 A 
ATOM     20  O   UNL A   1      34.699  23.300  26.008  1.00  0.00    -0.486 OA
ATOM     21  O   UNL A   1      33.387  20.954  24.916  1.00  0.00    -0.486 OA
ATOM     22  C   UNL A   1      34.919  21.971  26.496  1.00  0.00     0.271 C 
ATOM     23  C   UNL A   1      33.674  21.121  26.309  1.00  0.00     0.271 C 
ENDBRANCH  11  14
ENDBRANCH   9  11
ENDBRANCH   8   9
BRANCH   8  24
ATOM     24  C   UNL A   1      30.015  28.448  22.865  1.00  0.00    -0.029 A 
ATOM     25  C   UNL A   1      28.667  28.210  23.166  1.00  0.00     0.005 A 
ATOM     26  C   UNL A   1      30.346  29.575  22.092  1.00  0.00     0.005 A 
ATOM     27  C   UNL A   1      27.678  29.088  22.717  1.00  0.00     0.000 A 
ATOM     28  C   UNL A   1      29.357  30.448  21.643  1.00  0.00     0.000 A 
ATOM     29  C   UNL A   1      28.023  30.205  21.958  1.00  0.00     0.000 A 
ENDBRANCH   8  24
ENDBRANCH   7   8
ENDBRANCH   5   7
ENDBRANCH   2   3
ENDBRANCH   1   2
BRANCH   1  30
ATOM     30  C   UNL A   1      33.007  30.276  25.979  1.00  0.00     0.023 C 
BRANCH  30  31
ATOM     31  C   UNL A   1      32.072  30.881  27.024  1.00  0.00     0.116 C 
BRANCH  31  32
ATOM     32  N   UNL A   1      32.079  32.333  26.994  1.00  0.00    -0.352 N 
ATOM     33  C   UNL A   1      32.925  33.214  27.624  1.00  0.00     0.251 C 
ATOM     34  H   UNL A   1      31.375  32.746  26.442  1.00  0.00     0.163 HD
ATOM     35  O   UNL A   1      32.656  34.412  27.623  1.00  0.00    -0.269 OA
BRANCH  33  36
ATOM     36  C   UNL A   1      34.130  32.720  28.330  1.00  0.00     0.039 A 
ATOM     37  C   UNL A   1      34.028  32.381  29.681  1.00  0.00     0.014 A 
ATOM     38  C   UNL A   1      35.358  32.599  27.673  1.00  0.00     0.014 A 
ATOM     39  C   UNL A   1      35.136  31.856  30.354  1.00  0.00     0.010 A 
ATOM     40  C   UNL A   1      36.442  32.013  28.326  1.00  0.00     0.010 A 
ATOM     41  C   UNL A   1      36.343  31.632  29.672  1.00  0.00    -0.014 A 
BRANCH  41  42
ATOM     42  C   UNL A   1      37.506  30.999  30.351  1.00  0.00     0.031 A 
ATOM     43  C   UNL A   1      37.880  31.407  31.750  1.00  0.00     0.074 A 
ATOM     44  C   UNL A   1      38.262  30.103  29.685  1.00  0.00     0.049 A 
ATOM     45  N   UNL A   1      38.904  31.034  32.476  1.00  0.00    -0.248 NA
ATOM     46  C   UNL A   1      36.999  32.381  32.409  1.00  0.00     0.031 C 
ATOM     47  C   UNL A   1      38.024  29.652  28.312  1.00  0.00     0.029 A 
ATOM     48  N   UNL A   1      39.390  29.421  30.066  1.00  0.00    -0.354 N 
ATOM     49  C   UNL A   1      38.797  31.736  33.672  1.00  0.00     0.074 A 
ATOM     50  C   UNL A   1      37.640  32.599  33.547  1.00  0.00     0.031 C 
ATOM     51  C   UNL A   1      38.968  28.759  27.973  1.00  0.00     0.029 A 
ATOM     52  C   UNL A   1      39.903  28.606  29.082  1.00  0.00     0.049 A 
ATOM     53  H   UNL A   1      39.795  29.506  30.959  1.00  0.00     0.167 HD
ATOM     54  C   UNL A   1      39.577  31.654  34.780  1.00  0.00     0.034 A 
ATOM     55  C   UNL A   1      41.011  27.836  29.067  1.00  0.00     0.034 A 
ATOM     56  C   UNL A   1      40.725  30.787  34.892  1.00  0.00     0.049 A 
ATOM     57  C   UNL A   1      41.879  27.781  30.299  1.00  0.00     0.074 A 
ATOM     58  C   UNL A   1      41.557  30.593  35.982  1.00  0.00     0.029 A 
ATOM     59  N   UNL A   1      41.211  29.972  33.876  1.00  0.00    -0.354 N 
ATOM     60  N   UNL A   1      41.738  28.419  31.437  1.00  0.00    -0.248 NA
ATOM     61  C   UNL A   1      43.047  26.893  30.246  1.00  0.00     0.031 C 
ATOM     62  C   UNL A   1      42.579  29.714  35.606  1.00  0.00     0.029 A 
ATOM     63  C   UNL A   1      42.345  29.298  34.305  1.00  0.00     0.049 A 
ATOM     64  H   UNL A   1      40.808  29.885  32.982  1.00  0.00     0.167 HD
ATOM     65  C   UNL A   1      42.785  27.985  32.247  1.00  0.00     0.074 A 
ATOM     66  C   UNL A   1      43.538  27.021  31.470  1.00  0.00     0.031 C 
ATOM     67  C   UNL A   1      43.094  28.347  33.518  1.00  0.00     0.034 A 
BRANCH  54  68
ATOM     68  C   UNL A   1      39.222  32.548  35.944  1.00  0.00     0.023 A 
ATOM     69  C   UNL A   1      39.649  33.886  36.005  1.00  0.00     0.031 A 
ATOM     70  C   UNL A   1      38.466  32.050  37.022  1.00  0.00     0.131 A 
ATOM     71  C   UNL A   1      39.386  34.656  37.148  1.00  0.00     0.055 A 
ATOM     72  C   UNL A   1      38.138  32.847  38.121  1.00  0.00     0.041 A 
ATOM     73  F   UNL A   1      38.045  30.776  37.031  1.00  0.00    -0.206 F 
ATOM     74  C   UNL A   1      38.613  34.154  38.196  1.00  0.00     0.022 A 
BRANCH  71  75
ATOM     75  S   UNL A   1      40.190  36.274  37.305  1.00  0.00     0.124 S 
ATOM     76  O   UNL A   1      40.007  36.827  35.966  1.00  0.00    -0.237 OA
ATOM     77  O   UNL A   1      39.420  36.908  38.369  1.00  0.00    -0.237 OA
ATOM     78  O   UNL A   1      41.571  35.940  37.649  1.00  0.00    -0.744 OA
ENDBRANCH  71  75
ENDBRANCH  54  68
BRANCH  55  79
ATOM     79  C   UNL A   1      41.379  27.068  27.843  1.00  0.00     0.023 A 
ATOM     80  C   UNL A   1      41.166  25.683  27.764  1.00  0.00     0.031 A 
ATOM     81  C   UNL A   1      41.992  27.704  26.748  1.00  0.00     0.131 A 
ATOM     82  C   UNL A   1      41.604  24.970  26.637  1.00  0.00     0.055 A 
ATOM     83  C   UNL A   1      42.378  26.999  25.606  1.00  0.00     0.041 A 
ATOM     84  F   UNL A   1      42.214  29.028  26.768  1.00  0.00    -0.206 F 
ATOM     85  C   UNL A   1      42.197  25.621  25.552  1.00  0.00     0.022 A 
BRANCH  82  86
ATOM     86  S   UNL A   1      41.465  23.162  26.644  1.00  0.00     0.124 S 
ATOM     87  O   UNL A   1      42.045  22.825  27.939  1.00  0.00    -0.237 OA
ATOM     88  O   UNL A   1      40.024  22.969  26.515  1.00  0.00    -0.237 OA
ATOM     89  O   UNL A   1      42.253  22.756  25.482  1.00  0.00    -0.744 OA
ENDBRANCH  82  86
ENDBRANCH  55  79
BRANCH  67  90
ATOM     90  C   UNL A   1      44.273  27.657  34.160  1.00  0.00     0.023 A 
ATOM     91  C   UNL A   1      44.128  26.462  34.887  1.00  0.00     0.031 A 
ATOM     92  C   UNL A   1      45.560  28.214  34.053  1.00  0.00     0.131 A 
ATOM     93  C   UNL A   1      45.241  25.893  35.523  1.00  0.00     0.055 A 
ATOM     94  C   UNL A   1      46.673  27.612  34.639  1.00  0.00     0.041 A 
ATOM     95  F   UNL A   1      45.756  29.356  33.373  1.00  0.00    -0.206 F 
ATOM     96  C   UNL A   1      46.515  26.451  35.391  1.00  0.00     0.022 A 
BRANCH  93  97
ATOM     97  S   UNL A   1      44.989  24.458  36.605  1.00  0.00     0.124 S 
ATOM     98  O   UNL A   1      43.796  24.847  37.350  1.00  0.00    -0.237 OA
ATOM     99  O   UNL A   1      44.815  23.371  35.647  1.00  0.00    -0.237 OA
ATOM    100  O   UNL A   1      46.220  24.399  37.391  1.00  0.00    -0.744 OA
ENDBRANCH  93  97
ENDBRANCH  67  90
ENDBRANCH  41  42
ENDBRANCH  33  36
ENDBRANCH  31  32
ENDBRANCH  30  31
ENDBRANCH   1  30
TORSDOF 19
ENDMDL
