MODEL 1
REMARK VINA RESULT:     -12.9      0.000      0.000
REMARK SMILES CS(=O)(=O)c1ccc(C2=NN(c3ccc(C(=O)NCCCCNC(=O)c4ccc(-c5c6nc(c(-c7cc(S(=O)(=O)[O-])ccc7F)c7ccc([nH]7)c(-c7cc(S(=O)(=O)[O-])ccc7F)c7nc(c(-c8cc(S(=O)(=O)[O-])ccc8F)c8ccc5[nH]8)C=C7)C=C6)cc4)cc3)[C@H](c3ccc(F)cc3)C2)cc1
REMARK SMILES IDX 20 1 19 2 18 3 16 4 17 5 15 7 12 8 13 9 90 10 14 11 89 12
REMARK SMILES IDX 11 13 9 14 10 15 99 16 91 17 8 18 5 19 6 20 101 21 7 22
REMARK SMILES IDX 100 23 2 24 1 25 3 26 4 27 92 28 93 29 98 30 94 31 97 32
REMARK SMILES IDX 95 33 96 34 21 35 22 36 23 37 24 38 25 40 26 41 27 42 88 43
REMARK SMILES IDX 28 44 87 45 29 46 30 47 31 48 81 49 32 50 86 51 80 52 82 53
REMARK SMILES IDX 33 54 85 55 79 56 78 57 34 59 66 60 46 61 65 62 47 63 50 64
REMARK SMILES IDX 64 65 83 66 48 67 49 68 63 70 84 71 51 72 35 73 36 74 44 75
REMARK SMILES IDX 37 76 43 77 45 78 42 79 38 80 39 81 40 82 41 83 67 84 68 85
REMARK SMILES IDX 76 86 69 87 75 88 77 89 74 90 70 91 71 92 72 93 73 94 52 95
REMARK SMILES IDX 53 96 61 97 54 98 60 99 62 100 59 101 55 102 56 103 57 104
REMARK SMILES IDX 58 105
REMARK H PARENT 18 6 23 39 82 58 50 69
REMARK Flexibility Score: inf
ROOT
ATOM      1  C   UNL A   1      40.077  19.940  26.154  1.00  0.00     0.023 C 
ENDROOT
BRANCH   1   2
ATOM      2  C   UNL A   1      39.066  20.947  25.603  1.00  0.00     0.116 C 
BRANCH   2   3
ATOM      3  N   UNL A   1      39.451  22.308  25.931  1.00  0.00    -0.352 N 
ATOM      4  C   UNL A   1      38.703  23.458  26.012  1.00  0.00     0.251 C 
ATOM      5  O   UNL A   1      39.240  24.491  26.408  1.00  0.00    -0.269 OA
ATOM      6  H   UNL A   1      40.408  22.428  26.128  1.00  0.00     0.163 HD
BRANCH   4   7
ATOM      7  C   UNL A   1      37.250  23.469  25.704  1.00  0.00     0.039 A 
ATOM      8  C   UNL A   1      34.529  23.664  25.012  1.00  0.00     0.060 A 
ATOM      9  C   UNL A   1      35.515  23.686  24.020  1.00  0.00     0.029 A 
ATOM     10  C   UNL A   1      34.915  23.457  26.337  1.00  0.00     0.029 A 
ATOM     11  C   UNL A   1      36.867  23.585  24.362  1.00  0.00     0.016 A 
ATOM     12  C   UNL A   1      36.261  23.343  26.680  1.00  0.00     0.016 A 
BRANCH   8  13
ATOM     13  N   UNL A   1      33.194  23.863  24.721  1.00  0.00    -0.257 N 
ATOM     14  C   UNL A   1      31.497  25.100  24.466  1.00  0.00     0.071 C 
ATOM     15  N   UNL A   1      32.781  25.078  24.302  1.00  0.00    -0.176 NA
ATOM     16  C   UNL A   1      30.895  23.868  25.089  1.00  0.00     0.091 C 
ATOM     17  C   UNL A   1      32.126  22.944  25.108  1.00  0.00     0.144 C 
BRANCH  14  18
ATOM     18  C   UNL A   1      30.695  26.274  24.090  1.00  0.00    -0.002 A 
ATOM     19  C   UNL A   1      29.118  28.398  23.229  1.00  0.00     0.067 A 
ATOM     20  C   UNL A   1      28.517  27.179  23.560  1.00  0.00     0.021 A 
ATOM     21  C   UNL A   1      30.504  28.562  23.332  1.00  0.00     0.021 A 
ATOM     22  C   UNL A   1      29.310  26.112  23.976  1.00  0.00     0.011 A 
ATOM     23  C   UNL A   1      31.295  27.495  23.774  1.00  0.00     0.011 A 
BRANCH  19  24
ATOM     24  S   UNL A   1      28.056  29.713  22.680  1.00  0.00     0.175 S 
ATOM     25  C   UNL A   1      28.615  31.190  23.476  1.00  0.00     0.163 C 
ATOM     26  O   UNL A   1      26.733  29.426  23.217  1.00  0.00    -0.224 OA
ATOM     27  O   UNL A   1      28.274  29.860  21.259  1.00  0.00    -0.224 OA
ENDBRANCH  19  24
ENDBRANCH  14  18
BRANCH  17  28
ATOM     28  C   UNL A   1      32.126  21.724  24.185  1.00  0.00    -0.023 A 
ATOM     29  C   UNL A   1      31.898  21.787  22.801  1.00  0.00     0.009 A 
ATOM     30  C   UNL A   1      32.442  20.465  24.743  1.00  0.00     0.009 A 
ATOM     31  C   UNL A   1      31.964  20.634  22.010  1.00  0.00     0.039 A 
ATOM     32  C   UNL A   1      32.534  19.319  23.950  1.00  0.00     0.039 A 
ATOM     33  C   UNL A   1      32.287  19.413  22.590  1.00  0.00     0.123 A 
ATOM     34  F   UNL A   1      32.370  18.319  21.823  1.00  0.00    -0.207 F 
ENDBRANCH  17  28
ENDBRANCH   8  13
ENDBRANCH   4   7
ENDBRANCH   2   3
ENDBRANCH   1   2
BRANCH   1  35
ATOM     35  C   UNL A   1      40.851  20.431  27.376  1.00  0.00     0.023 C 
BRANCH  35  36
ATOM     36  C   UNL A   1      42.261  19.873  27.505  1.00  0.00     0.116 C 
BRANCH  36  37
ATOM     37  N   UNL A   1      42.777  19.323  26.261  1.00  0.00    -0.352 N 
ATOM     38  C   UNL A   1      43.530  19.960  25.302  1.00  0.00     0.251 C 
ATOM     39  H   UNL A   1      42.562  18.379  26.084  1.00  0.00     0.163 HD
ATOM     40  O   UNL A   1      43.800  19.397  24.247  1.00  0.00    -0.269 OA
BRANCH  38  41
ATOM     41  C   UNL A   1      43.965  21.349  25.553  1.00  0.00     0.039 A 
ATOM     42  C   UNL A   1      43.130  22.400  25.169  1.00  0.00     0.014 A 
ATOM     43  C   UNL A   1      45.153  21.599  26.244  1.00  0.00     0.014 A 
ATOM     44  C   UNL A   1      43.449  23.704  25.552  1.00  0.00     0.010 A 
ATOM     45  C   UNL A   1      45.430  22.888  26.686  1.00  0.00     0.010 A 
ATOM     46  C   UNL A   1      44.578  23.952  26.351  1.00  0.00    -0.014 A 
BRANCH  46  47
ATOM     47  C   UNL A   1      44.889  25.314  26.860  1.00  0.00     0.031 A 
ATOM     48  C   UNL A   1      43.794  26.150  27.464  1.00  0.00     0.074 A 
ATOM     49  C   UNL A   1      46.126  25.825  26.697  1.00  0.00     0.049 A 
ATOM     50  N   UNL A   1      43.820  27.402  27.838  1.00  0.00    -0.248 NA
ATOM     51  C   UNL A   1      42.487  25.496  27.634  1.00  0.00     0.031 C 
ATOM     52  C   UNL A   1      47.261  25.121  26.094  1.00  0.00     0.029 A 
ATOM     53  N   UNL A   1      46.633  27.063  27.004  1.00  0.00    -0.354 N 
ATOM     54  C   UNL A   1      42.530  27.694  28.268  1.00  0.00     0.074 A 
ATOM     55  C   UNL A   1      41.737  26.502  28.055  1.00  0.00     0.031 C 
ATOM     56  C   UNL A   1      48.330  25.933  26.088  1.00  0.00     0.029 A 
ATOM     57  C   UNL A   1      47.949  27.231  26.634  1.00  0.00     0.049 A 
ATOM     58  H   UNL A   1      46.105  27.766  27.448  1.00  0.00     0.167 HD
ATOM     59  C   UNL A   1      42.058  28.845  28.808  1.00  0.00     0.034 A 
ATOM     60  C   UNL A   1      48.748  28.315  26.705  1.00  0.00     0.034 A 
ATOM     61  C   UNL A   1      42.869  30.016  29.029  1.00  0.00     0.049 A 
ATOM     62  C   UNL A   1      48.193  29.593  27.286  1.00  0.00     0.074 A 
ATOM     63  C   UNL A   1      42.511  31.212  29.626  1.00  0.00     0.029 A 
ATOM     64  N   UNL A   1      44.201  30.145  28.654  1.00  0.00    -0.354 N 
ATOM     65  N   UNL A   1      46.983  29.837  27.736  1.00  0.00    -0.248 NA
ATOM     66  C   UNL A   1      49.110  30.736  27.377  1.00  0.00     0.031 C 
ATOM     67  C   UNL A   1      43.600  32.086  29.549  1.00  0.00     0.029 A 
ATOM     68  C   UNL A   1      44.666  31.409  28.977  1.00  0.00     0.049 A 
ATOM     69  H   UNL A   1      44.736  29.440  28.222  1.00  0.00     0.167 HD
ATOM     70  C   UNL A   1      47.008  31.152  28.194  1.00  0.00     0.074 A 
ATOM     71  C   UNL A   1      48.353  31.643  27.976  1.00  0.00     0.031 C 
ATOM     72  C   UNL A   1      46.011  31.885  28.752  1.00  0.00     0.034 A 
BRANCH  59  73
ATOM     73  C   UNL A   1      40.592  28.897  29.167  1.00  0.00     0.023 A 
ATOM     74  C   UNL A   1      40.157  28.855  30.503  1.00  0.00     0.031 A 
ATOM     75  C   UNL A   1      39.617  28.973  28.158  1.00  0.00     0.131 A 
ATOM     76  C   UNL A   1      38.783  28.815  30.790  1.00  0.00     0.055 A 
ATOM     77  C   UNL A   1      38.252  29.016  28.455  1.00  0.00     0.041 A 
ATOM     78  F   UNL A   1      39.971  28.993  26.864  1.00  0.00    -0.206 F 
ATOM     79  C   UNL A   1      37.829  28.922  29.777  1.00  0.00     0.022 A 
BRANCH  76  80
ATOM     80  S   UNL A   1      38.265  28.480  32.496  1.00  0.00     0.124 S 
ATOM     81  O   UNL A   1      39.324  29.137  33.259  1.00  0.00    -0.237 OA
ATOM     82  O   UNL A   1      36.951  29.107  32.556  1.00  0.00    -0.237 OA
ATOM     83  O   UNL A   1      38.266  27.021  32.573  1.00  0.00    -0.744 OA
ENDBRANCH  76  80
ENDBRANCH  59  73
BRANCH  60  84
ATOM     84  C   UNL A   1      50.149  28.259  26.193  1.00  0.00     0.023 A 
ATOM     85  C   UNL A   1      50.442  28.546  24.851  1.00  0.00     0.031 A 
ATOM     86  C   UNL A   1      51.210  27.865  27.029  1.00  0.00     0.131 A 
ATOM     87  C   UNL A   1      51.751  28.384  24.368  1.00  0.00     0.055 A 
ATOM     88  C   UNL A   1      52.521  27.762  26.558  1.00  0.00     0.041 A 
ATOM     89  F   UNL A   1      50.988  27.582  28.322  1.00  0.00    -0.206 F 
ATOM     90  C   UNL A   1      52.794  28.007  25.217  1.00  0.00     0.022 A 
BRANCH  87  91
ATOM     91  S   UNL A   1      52.051  28.576  22.590  1.00  0.00     0.124 S 
ATOM     92  O   UNL A   1      51.520  27.324  22.063  1.00  0.00    -0.237 OA
ATOM     93  O   UNL A   1      51.283  29.779  22.283  1.00  0.00    -0.237 OA
ATOM     94  O   UNL A   1      53.501  28.726  22.504  1.00  0.00    -0.744 OA
ENDBRANCH  87  91
ENDBRANCH  60  84
BRANCH  72  95
ATOM     95  C   UNL A   1      46.356  33.279  29.218  1.00  0.00     0.023 A 
ATOM     96  C   UNL A   1      46.205  34.401  28.384  1.00  0.00     0.031 A 
ATOM     97  C   UNL A   1      46.836  33.483  30.525  1.00  0.00     0.131 A 
ATOM     98  C   UNL A   1      46.573  35.671  28.853  1.00  0.00     0.055 A 
ATOM     99  C   UNL A   1      47.144  34.756  31.003  1.00  0.00     0.041 A 
ATOM    100  F   UNL A   1      47.001  32.446  31.361  1.00  0.00    -0.206 F 
ATOM    101  C   UNL A   1      47.024  35.858  30.163  1.00  0.00     0.022 A 
BRANCH  98 102
ATOM    102  S   UNL A   1      46.526  37.073  27.702  1.00  0.00     0.124 S 
ATOM    103  O   UNL A   1      46.306  36.408  26.423  1.00  0.00    -0.237 OA
ATOM    104  O   UNL A   1      45.408  37.860  28.213  1.00  0.00    -0.237 OA
ATOM    105  O   UNL A   1      47.841  37.692  27.862  1.00  0.00    -0.744 OA
ENDBRANCH  98 102
ENDBRANCH  72  95
ENDBRANCH  46  47
ENDBRANCH  38  41
ENDBRANCH  36  37
ENDBRANCH  35  36
ENDBRANCH   1  35
TORSDOF 18
ENDMDL
MODEL 2
REMARK VINA RESULT:     -12.2      6.111     11.141
REMARK SMILES CS(=O)(=O)c1ccc(C2=NN(c3ccc(C(=O)NCCCCNC(=O)c4ccc(-c5c6nc(c(-c7cc(S(=O)(=O)[O-])ccc7F)c7ccc([nH]7)c(-c7cc(S(=O)(=O)[O-])ccc7F)c7nc(c(-c8cc(S(=O)(=O)[O-])ccc8F)c8ccc5[nH]8)C=C7)C=C6)cc4)cc3)[C@H](c3ccc(F)cc3)C2)cc1
REMARK SMILES IDX 20 1 19 2 18 3 16 4 17 5 15 7 12 8 13 9 90 10 14 11 89 12
REMARK SMILES IDX 11 13 9 14 10 15 99 16 91 17 8 18 5 19 6 20 101 21 7 22
REMARK SMILES IDX 100 23 2 24 1 25 3 26 4 27 92 28 93 29 98 30 94 31 97 32
REMARK SMILES IDX 95 33 96 34 21 35 22 36 23 37 24 38 25 40 26 41 27 42 88 43
REMARK SMILES IDX 28 44 87 45 29 46 30 47 31 48 81 49 32 50 86 51 80 52 82 53
REMARK SMILES IDX 33 54 85 55 79 56 78 57 34 59 66 60 46 61 65 62 47 63 50 64
REMARK SMILES IDX 64 65 83 66 48 67 49 68 63 70 84 71 51 72 35 73 36 74 44 75
REMARK SMILES IDX 37 76 43 77 45 78 42 79 38 80 39 81 40 82 41 83 67 84 68 85
REMARK SMILES IDX 76 86 69 87 75 88 77 89 74 90 70 91 71 92 72 93 73 94 52 95
REMARK SMILES IDX 53 96 61 97 54 98 60 99 62 100 59 101 55 102 56 103 57 104
REMARK SMILES IDX 58 105
REMARK H PARENT 18 6 23 39 82 58 50 69
REMARK Flexibility Score: inf
ROOT
ATOM      1  C   UNL A   1      34.441  32.454  28.591  1.00  0.00     0.023 C 
ENDROOT
BRANCH   1   2
ATOM      2  C   UNL A   1      34.083  31.213  27.769  1.00  0.00     0.116 C 
BRANCH   2   3
ATOM      3  N   UNL A   1      32.899  31.445  26.960  1.00  0.00    -0.352 N 
ATOM      4  C   UNL A   1      32.205  30.604  26.125  1.00  0.00     0.251 C 
ATOM      5  O   UNL A   1      31.161  31.003  25.612  1.00  0.00    -0.269 OA
ATOM      6  H   UNL A   1      32.534  32.357  27.019  1.00  0.00     0.163 HD
BRANCH   4   7
ATOM      7  C   UNL A   1      32.642  29.205  25.884  1.00  0.00     0.039 A 
ATOM      8  C   UNL A   1      33.523  26.545  25.627  1.00  0.00     0.060 A 
ATOM      9  C   UNL A   1      32.585  26.888  26.606  1.00  0.00     0.029 A 
ATOM     10  C   UNL A   1      33.945  27.526  24.729  1.00  0.00     0.029 A 
ATOM     11  C   UNL A   1      32.143  28.209  26.732  1.00  0.00     0.016 A 
ATOM     12  C   UNL A   1      33.497  28.840  24.844  1.00  0.00     0.016 A 
BRANCH   8  13
ATOM     13  N   UNL A   1      34.057  25.274  25.539  1.00  0.00    -0.257 N 
ATOM     14  C   UNL A   1      35.687  23.933  25.401  1.00  0.00     0.071 C 
ATOM     15  N   UNL A   1      35.333  25.064  25.923  1.00  0.00    -0.176 NA
ATOM     16  C   UNL A   1      34.658  23.265  24.528  1.00  0.00     0.091 C 
ATOM     17  C   UNL A   1      33.447  24.181  24.785  1.00  0.00     0.144 C 
BRANCH  14  18
ATOM     18  C   UNL A   1      37.025  23.367  25.630  1.00  0.00    -0.002 A 
ATOM     19  C   UNL A   1      39.473  22.158  26.163  1.00  0.00     0.067 A 
ATOM     20  C   UNL A   1      38.499  21.460  25.441  1.00  0.00     0.021 A 
ATOM     21  C   UNL A   1      39.231  23.459  26.615  1.00  0.00     0.021 A 
ATOM     22  C   UNL A   1      37.268  22.062  25.189  1.00  0.00     0.011 A 
ATOM     23  C   UNL A   1      38.002  24.070  26.338  1.00  0.00     0.011 A 
BRANCH  19  24
ATOM     24  S   UNL A   1      41.013  21.327  26.474  1.00  0.00     0.175 S 
ATOM     25  C   UNL A   1      41.608  21.916  28.033  1.00  0.00     0.163 C 
ATOM     26  O   UNL A   1      41.950  21.801  25.465  1.00  0.00    -0.224 OA
ATOM     27  O   UNL A   1      40.708  19.921  26.614  1.00  0.00    -0.224 OA
ENDBRANCH  19  24
ENDBRANCH  14  18
BRANCH  17  28
ATOM     28  C   UNL A   1      32.261  23.608  25.561  1.00  0.00    -0.023 A 
ATOM     29  C   UNL A   1      32.387  22.789  26.695  1.00  0.00     0.009 A 
ATOM     30  C   UNL A   1      30.958  23.978  25.157  1.00  0.00     0.009 A 
ATOM     31  C   UNL A   1      31.254  22.344  27.386  1.00  0.00     0.039 A 
ATOM     32  C   UNL A   1      29.829  23.554  25.862  1.00  0.00     0.039 A 
ATOM     33  C   UNL A   1      29.988  22.734  26.967  1.00  0.00     0.123 A 
ATOM     34  F   UNL A   1      28.910  22.321  27.646  1.00  0.00    -0.207 F 
ENDBRANCH  17  28
ENDBRANCH   8  13
ENDBRANCH   4   7
ENDBRANCH   2   3
ENDBRANCH   1   2
BRANCH   1  35
ATOM     35  C   UNL A   1      33.710  33.725  28.161  1.00  0.00     0.023 C 
BRANCH  35  36
ATOM     36  C   UNL A   1      34.162  34.992  28.871  1.00  0.00     0.116 C 
BRANCH  36  37
ATOM     37  N   UNL A   1      33.169  35.518  29.796  1.00  0.00    -0.352 N 
ATOM     38  C   UNL A   1      33.123  35.369  31.163  1.00  0.00     0.251 C 
ATOM     39  H   UNL A   1      32.442  36.046  29.395  1.00  0.00     0.163 HD
ATOM     40  O   UNL A   1      32.160  35.777  31.802  1.00  0.00    -0.269 OA
BRANCH  38  41
ATOM     41  C   UNL A   1      34.236  34.667  31.834  1.00  0.00     0.039 A 
ATOM     42  C   UNL A   1      34.058  33.341  32.234  1.00  0.00     0.014 A 
ATOM     43  C   UNL A   1      35.475  35.296  31.984  1.00  0.00     0.014 A 
ATOM     44  C   UNL A   1      35.152  32.617  32.713  1.00  0.00     0.010 A 
ATOM     45  C   UNL A   1      36.575  34.551  32.392  1.00  0.00     0.010 A 
ATOM     46  C   UNL A   1      36.428  33.203  32.754  1.00  0.00    -0.014 A 
BRANCH  46  47
ATOM     47  C   UNL A   1      37.629  32.429  33.162  1.00  0.00     0.031 A 
ATOM     48  C   UNL A   1      38.301  32.735  34.472  1.00  0.00     0.074 A 
ATOM     49  C   UNL A   1      38.163  31.523  32.318  1.00  0.00     0.049 A 
ATOM     50  N   UNL A   1      39.428  32.279  34.950  1.00  0.00    -0.248 NA
ATOM     51  C   UNL A   1      37.628  33.712  35.342  1.00  0.00     0.031 C 
ATOM     52  C   UNL A   1      37.619  31.166  31.005  1.00  0.00     0.029 A 
ATOM     53  N   UNL A   1      39.292  30.750  32.428  1.00  0.00    -0.354 N 
ATOM     54  C   UNL A   1      39.613  32.928  36.167  1.00  0.00     0.074 A 
ATOM     55  C   UNL A   1      38.506  33.849  36.323  1.00  0.00     0.031 C 
ATOM     56  C   UNL A   1      38.408  30.238  30.440  1.00  0.00     0.029 A 
ATOM     57  C   UNL A   1      39.540  29.971  31.320  1.00  0.00     0.049 A 
ATOM     58  H   UNL A   1      39.870  30.752  33.224  1.00  0.00     0.167 HD
ATOM     59  C   UNL A   1      40.604  32.757  37.076  1.00  0.00     0.034 A 
ATOM     60  C   UNL A   1      40.575  29.154  31.037  1.00  0.00     0.034 A 
ATOM     61  C   UNL A   1      41.688  31.821  36.910  1.00  0.00     0.049 A 
ATOM     62  C   UNL A   1      41.680  28.998  32.054  1.00  0.00     0.074 A 
ATOM     63  C   UNL A   1      42.708  31.520  37.795  1.00  0.00     0.029 A 
ATOM     64  N   UNL A   1      41.899  31.038  35.781  1.00  0.00    -0.354 N 
ATOM     65  N   UNL A   1      41.813  29.582  33.223  1.00  0.00    -0.248 NA
ATOM     66  C   UNL A   1      42.767  28.070  31.718  1.00  0.00     0.031 C 
ATOM     67  C   UNL A   1      43.574  30.613  37.176  1.00  0.00     0.029 A 
ATOM     68  C   UNL A   1      43.050  30.283  35.935  1.00  0.00     0.049 A 
ATOM     69  H   UNL A   1      41.316  31.023  34.989  1.00  0.00     0.167 HD
ATOM     70  C   UNL A   1      42.981  29.063  33.774  1.00  0.00     0.074 A 
ATOM     71  C   UNL A   1      43.508  28.114  32.816  1.00  0.00     0.031 C 
ATOM     72  C   UNL A   1      43.564  29.341  34.969  1.00  0.00     0.034 A 
BRANCH  59  73
ATOM     73  C   UNL A   1      40.571  33.621  38.314  1.00  0.00     0.023 A 
ATOM     74  C   UNL A   1      39.673  33.373  39.366  1.00  0.00     0.031 A 
ATOM     75  C   UNL A   1      41.442  34.718  38.436  1.00  0.00     0.131 A 
ATOM     76  C   UNL A   1      39.614  34.253  40.458  1.00  0.00     0.055 A 
ATOM     77  C   UNL A   1      41.435  35.542  39.564  1.00  0.00     0.041 A 
ATOM     78  F   UNL A   1      42.307  35.018  37.454  1.00  0.00    -0.206 F 
ATOM     79  C   UNL A   1      40.507  35.320  40.576  1.00  0.00     0.022 A 
BRANCH  76  80
ATOM     80  S   UNL A   1      38.261  34.062  41.651  1.00  0.00     0.124 S 
ATOM     81  O   UNL A   1      38.956  33.468  42.791  1.00  0.00    -0.237 OA
ATOM     82  O   UNL A   1      37.799  35.434  41.827  1.00  0.00    -0.237 OA
ATOM     83  O   UNL A   1      37.326  33.170  40.968  1.00  0.00    -0.744 OA
ENDBRANCH  76  80
ENDBRANCH  59  73
BRANCH  60  84
ATOM     84  C   UNL A   1      40.640  28.436  29.730  1.00  0.00     0.023 A 
ATOM     85  C   UNL A   1      41.577  28.798  28.750  1.00  0.00     0.031 A 
ATOM     86  C   UNL A   1      39.727  27.411  29.420  1.00  0.00     0.131 A 
ATOM     87  C   UNL A   1      41.549  28.180  27.489  1.00  0.00     0.055 A 
ATOM     88  C   UNL A   1      39.741  26.759  28.186  1.00  0.00     0.041 A 
ATOM     89  F   UNL A   1      38.811  27.022  30.321  1.00  0.00    -0.206 F 
ATOM     90  C   UNL A   1      40.646  27.153  27.206  1.00  0.00     0.022 A 
BRANCH  87  91
ATOM     91  S   UNL A   1      42.647  28.808  26.189  1.00  0.00     0.124 S 
ATOM     92  O   UNL A   1      41.836  28.608  24.994  1.00  0.00    -0.237 OA
ATOM     93  O   UNL A   1      42.846  30.193  26.606  1.00  0.00    -0.237 OA
ATOM     94  O   UNL A   1      43.825  27.952  26.297  1.00  0.00    -0.744 OA
ENDBRANCH  87  91
ENDBRANCH  60  84
BRANCH  72  95
ATOM     95  C   UNL A   1      44.806  28.564  35.329  1.00  0.00     0.023 A 
ATOM     96  C   UNL A   1      44.745  27.335  36.007  1.00  0.00     0.031 A 
ATOM     97  C   UNL A   1      46.074  29.065  34.975  1.00  0.00     0.131 A 
ATOM     98  C   UNL A   1      45.932  26.668  36.349  1.00  0.00     0.055 A 
ATOM     99  C   UNL A   1      47.246  28.368  35.267  1.00  0.00     0.041 A 
ATOM    100  F   UNL A   1      46.189  30.236  34.329  1.00  0.00    -0.206 F 
ATOM    101  C   UNL A   1      47.180  27.167  35.968  1.00  0.00     0.022 A 
BRANCH  98 102
ATOM    102  S   UNL A   1      45.829  25.171  37.369  1.00  0.00     0.124 S 
ATOM    103  O   UNL A   1      46.532  25.580  38.580  1.00  0.00    -0.237 OA
ATOM    104  O   UNL A   1      44.388  24.982  37.502  1.00  0.00    -0.237 OA
ATOM    105  O   UNL A   1      46.513  24.160  36.565  1.00  0.00    -0.744 OA
ENDBRANCH  98 102
ENDBRANCH  72  95
ENDBRANCH  46  47
ENDBRANCH  38  41
ENDBRANCH  36  37
ENDBRANCH  35  36
ENDBRANCH   1  35
TORSDOF 18
ENDMDL
MODEL 3
REMARK VINA RESULT:     -12.2      5.017      9.826
REMARK SMILES CS(=O)(=O)c1ccc(C2=NN(c3ccc(C(=O)NCCCCNC(=O)c4ccc(-c5c6nc(c(-c7cc(S(=O)(=O)[O-])ccc7F)c7ccc([nH]7)c(-c7cc(S(=O)(=O)[O-])ccc7F)c7nc(c(-c8cc(S(=O)(=O)[O-])ccc8F)c8ccc5[nH]8)C=C7)C=C6)cc4)cc3)[C@H](c3ccc(F)cc3)C2)cc1
REMARK SMILES IDX 20 1 19 2 18 3 16 4 17 5 15 7 12 8 13 9 90 10 14 11 89 12
REMARK SMILES IDX 11 13 9 14 10 15 99 16 91 17 8 18 5 19 6 20 101 21 7 22
REMARK SMILES IDX 100 23 2 24 1 25 3 26 4 27 92 28 93 29 98 30 94 31 97 32
REMARK SMILES IDX 95 33 96 34 21 35 22 36 23 37 24 38 25 40 26 41 27 42 88 43
REMARK SMILES IDX 28 44 87 45 29 46 30 47 31 48 81 49 32 50 86 51 80 52 82 53
REMARK SMILES IDX 33 54 85 55 79 56 78 57 34 59 66 60 46 61 65 62 47 63 50 64
REMARK SMILES IDX 64 65 83 66 48 67 49 68 63 70 84 71 51 72 35 73 36 74 44 75
REMARK SMILES IDX 37 76 43 77 45 78 42 79 38 80 39 81 40 82 41 83 67 84 68 85
REMARK SMILES IDX 76 86 69 87 75 88 77 89 74 90 70 91 71 92 72 93 73 94 52 95
REMARK SMILES IDX 53 96 61 97 54 98 60 99 62 100 59 101 55 102 56 103 57 104
REMARK SMILES IDX 58 105
REMARK H PARENT 18 6 23 39 82 58 50 69
REMARK Flexibility Score: inf
ROOT
ATOM      1  C   UNL A   1      37.178  29.883  28.391  1.00  0.00     0.023 C 
ENDROOT
BRANCH   1   2
ATOM      2  C   UNL A   1      35.769  29.691  28.957  1.00  0.00     0.116 C 
BRANCH   2   3
ATOM      3  N   UNL A   1      34.878  30.746  28.509  1.00  0.00    -0.352 N 
ATOM      4  C   UNL A   1      33.811  30.712  27.643  1.00  0.00     0.251 C 
ATOM      5  O   UNL A   1      33.138  31.728  27.488  1.00  0.00    -0.269 OA
ATOM      6  H   UNL A   1      35.069  31.634  28.887  1.00  0.00     0.163 HD
BRANCH   4   7
ATOM      7  C   UNL A   1      33.409  29.463  26.947  1.00  0.00     0.039 A 
ATOM      8  C   UNL A   1      32.679  27.196  25.447  1.00  0.00     0.060 A 
ATOM      9  C   UNL A   1      33.904  27.831  25.219  1.00  0.00     0.029 A 
ATOM     10  C   UNL A   1      31.869  27.655  26.487  1.00  0.00     0.029 A 
ATOM     11  C   UNL A   1      34.270  28.955  25.966  1.00  0.00     0.016 A 
ATOM     12  C   UNL A   1      32.236  28.767  27.241  1.00  0.00     0.016 A 
BRANCH   8  13
ATOM     13  N   UNL A   1      32.240  26.148  24.661  1.00  0.00    -0.257 N 
ATOM     14  C   UNL A   1      32.343  24.148  23.981  1.00  0.00     0.071 C 
ATOM     15  N   UNL A   1      32.517  24.881  25.034  1.00  0.00    -0.176 NA
ATOM     16  C   UNL A   1      31.968  24.887  22.724  1.00  0.00     0.091 C 
ATOM     17  C   UNL A   1      31.748  26.300  23.295  1.00  0.00     0.144 C 
BRANCH  14  18
ATOM     18  C   UNL A   1      32.533  22.690  24.019  1.00  0.00    -0.002 A 
ATOM     19  C   UNL A   1      33.080  19.963  24.074  1.00  0.00     0.067 A 
ATOM     20  C   UNL A   1      33.597  20.793  25.074  1.00  0.00     0.021 A 
ATOM     21  C   UNL A   1      32.286  20.489  23.049  1.00  0.00     0.021 A 
ATOM     22  C   UNL A   1      33.334  22.160  25.036  1.00  0.00     0.011 A 
ATOM     23  C   UNL A   1      32.004  21.860  23.028  1.00  0.00     0.011 A 
BRANCH  19  24
ATOM     24  S   UNL A   1      33.470  18.231  24.164  1.00  0.00     0.175 S 
ATOM     25  C   UNL A   1      32.590  17.579  25.552  1.00  0.00     0.163 C 
ATOM     26  O   UNL A   1      34.887  18.144  24.490  1.00  0.00    -0.224 OA
ATOM     27  O   UNL A   1      32.936  17.621  22.968  1.00  0.00    -0.224 OA
ENDBRANCH  19  24
ENDBRANCH  14  18
BRANCH  17  28
ATOM     28  C   UNL A   1      30.325  26.859  23.311  1.00  0.00    -0.023 A 
ATOM     29  C   UNL A   1      29.229  26.198  23.890  1.00  0.00     0.009 A 
ATOM     30  C   UNL A   1      30.107  28.147  22.773  1.00  0.00     0.009 A 
ATOM     31  C   UNL A   1      27.963  26.795  23.912  1.00  0.00     0.039 A 
ATOM     32  C   UNL A   1      28.850  28.753  22.819  1.00  0.00     0.039 A 
ATOM     33  C   UNL A   1      27.786  28.067  23.383  1.00  0.00     0.123 A 
ATOM     34  F   UNL A   1      26.577  28.639  23.427  1.00  0.00    -0.207 F 
ENDBRANCH  17  28
ENDBRANCH   8  13
ENDBRANCH   4   7
ENDBRANCH   2   3
ENDBRANCH   1   2
BRANCH   1  35
ATOM     35  C   UNL A   1      37.826  31.218  28.756  1.00  0.00     0.023 C 
BRANCH  35  36
ATOM     36  C   UNL A   1      38.053  31.432  30.245  1.00  0.00     0.116 C 
BRANCH  36  37
ATOM     37  N   UNL A   1      37.261  32.522  30.796  1.00  0.00    -0.352 N 
ATOM     38  C   UNL A   1      37.653  33.821  31.023  1.00  0.00     0.251 C 
ATOM     39  H   UNL A   1      36.332  32.304  31.036  1.00  0.00     0.163 HD
ATOM     40  O   UNL A   1      36.907  34.605  31.599  1.00  0.00    -0.269 OA
BRANCH  38  41
ATOM     41  C   UNL A   1      39.006  34.235  30.598  1.00  0.00     0.039 A 
ATOM     42  C   UNL A   1      40.052  34.183  31.522  1.00  0.00     0.014 A 
ATOM     43  C   UNL A   1      39.247  34.588  29.268  1.00  0.00     0.014 A 
ATOM     44  C   UNL A   1      41.361  34.407  31.089  1.00  0.00     0.010 A 
ATOM     45  C   UNL A   1      40.557  34.738  28.827  1.00  0.00     0.010 A 
ATOM     46  C   UNL A   1      41.627  34.642  29.730  1.00  0.00    -0.014 A 
BRANCH  46  47
ATOM     47  C   UNL A   1      43.017  34.784  29.221  1.00  0.00     0.031 A 
ATOM     48  C   UNL A   1      43.511  36.133  28.777  1.00  0.00     0.074 A 
ATOM     49  C   UNL A   1      43.793  33.692  29.075  1.00  0.00     0.049 A 
ATOM     50  N   UNL A   1      44.630  36.448  28.178  1.00  0.00    -0.248 NA
ATOM     51  C   UNL A   1      42.609  37.272  29.007  1.00  0.00     0.031 C 
ATOM     52  C   UNL A   1      43.410  32.326  29.439  1.00  0.00     0.029 A 
ATOM     53  N   UNL A   1      45.060  33.552  28.564  1.00  0.00    -0.354 N 
ATOM     54  C   UNL A   1      44.558  37.818  27.940  1.00  0.00     0.074 A 
ATOM     55  C   UNL A   1      43.261  38.257  28.411  1.00  0.00     0.031 C 
ATOM     56  C   UNL A   1      44.422  31.492  29.151  1.00  0.00     0.029 A 
ATOM     57  C   UNL A   1      45.505  32.250  28.534  1.00  0.00     0.049 A 
ATOM     58  H   UNL A   1      45.599  34.313  28.248  1.00  0.00     0.167 HD
ATOM     59  C   UNL A   1      45.495  38.632  27.395  1.00  0.00     0.034 A 
ATOM     60  C   UNL A   1      46.646  31.724  28.042  1.00  0.00     0.034 A 
ATOM     61  C   UNL A   1      46.788  38.177  26.950  1.00  0.00     0.049 A 
ATOM     62  C   UNL A   1      47.664  32.648  27.419  1.00  0.00     0.074 A 
ATOM     63  C   UNL A   1      47.836  38.925  26.443  1.00  0.00     0.029 A 
ATOM     64  N   UNL A   1      47.210  36.853  26.947  1.00  0.00    -0.354 N 
ATOM     65  N   UNL A   1      47.601  33.949  27.246  1.00  0.00    -0.248 NA
ATOM     66  C   UNL A   1      48.906  32.036  26.930  1.00  0.00     0.031 C 
ATOM     67  C   UNL A   1      48.861  38.049  26.069  1.00  0.00     0.029 A 
ATOM     68  C   UNL A   1      48.487  36.761  26.418  1.00  0.00     0.049 A 
ATOM     69  H   UNL A   1      46.679  36.091  27.275  1.00  0.00     0.167 HD
ATOM     70  C   UNL A   1      48.811  34.312  26.662  1.00  0.00     0.074 A 
ATOM     71  C   UNL A   1      49.586  33.097  26.521  1.00  0.00     0.031 C 
ATOM     72  C   UNL A   1      49.247  35.541  26.282  1.00  0.00     0.034 A 
BRANCH  59  73
ATOM     73  C   UNL A   1      45.140  40.090  27.229  1.00  0.00     0.023 A 
ATOM     74  C   UNL A   1      44.564  40.581  26.045  1.00  0.00     0.031 A 
ATOM     75  C   UNL A   1      45.396  41.005  28.265  1.00  0.00     0.131 A 
ATOM     76  C   UNL A   1      44.332  41.958  25.898  1.00  0.00     0.055 A 
ATOM     77  C   UNL A   1      45.086  42.361  28.144  1.00  0.00     0.041 A 
ATOM     78  F   UNL A   1      45.965  40.599  29.412  1.00  0.00    -0.206 F 
ATOM     79  C   UNL A   1      44.564  42.846  26.949  1.00  0.00     0.022 A 
BRANCH  76  80
ATOM     80  S   UNL A   1      43.853  42.584  24.264  1.00  0.00     0.124 S 
ATOM     81  O   UNL A   1      42.691  41.753  23.960  1.00  0.00    -0.237 OA
ATOM     82  O   UNL A   1      43.581  43.991  24.533  1.00  0.00    -0.237 OA
ATOM     83  O   UNL A   1      45.030  42.322  23.439  1.00  0.00    -0.744 OA
ENDBRANCH  76  80
ENDBRANCH  59  73
BRANCH  60  84
ATOM     84  C   UNL A   1      46.886  30.252  28.091  1.00  0.00     0.023 A 
ATOM     85  C   UNL A   1      46.469  29.415  27.045  1.00  0.00     0.031 A 
ATOM     86  C   UNL A   1      47.488  29.654  29.213  1.00  0.00     0.131 A 
ATOM     87  C   UNL A   1      46.610  28.022  27.161  1.00  0.00     0.055 A 
ATOM     88  C   UNL A   1      47.680  28.273  29.299  1.00  0.00     0.041 A 
ATOM     89  F   UNL A   1      47.909  30.406  30.242  1.00  0.00    -0.206 F 
ATOM     90  C   UNL A   1      47.226  27.448  28.275  1.00  0.00     0.022 A 
BRANCH  87  91
ATOM     91  S   UNL A   1      45.886  26.966  25.877  1.00  0.00     0.124 S 
ATOM     92  O   UNL A   1      47.076  26.384  25.267  1.00  0.00    -0.237 OA
ATOM     93  O   UNL A   1      45.059  26.057  26.665  1.00  0.00    -0.237 OA
ATOM     94  O   UNL A   1      45.149  27.907  25.038  1.00  0.00    -0.744 OA
ENDBRANCH  87  91
ENDBRANCH  60  84
BRANCH  72  95
ATOM     95  C   UNL A   1      50.648  35.637  25.730  1.00  0.00     0.023 A 
ATOM     96  C   UNL A   1      51.778  35.348  26.514  1.00  0.00     0.031 A 
ATOM     97  C   UNL A   1      50.850  36.017  24.390  1.00  0.00     0.131 A 
ATOM     98  C   UNL A   1      53.062  35.486  25.964  1.00  0.00     0.055 A 
ATOM     99  C   UNL A   1      52.126  36.096  23.834  1.00  0.00     0.041 A 
ATOM    100  F   UNL A   1      49.805  36.307  23.598  1.00  0.00    -0.206 F 
ATOM    101  C   UNL A   1      53.242  35.840  24.624  1.00  0.00     0.022 A 
BRANCH  98 102
ATOM    102  S   UNL A   1      54.503  35.269  27.046  1.00  0.00     0.124 S 
ATOM    103  O   UNL A   1      53.901  35.355  28.372  1.00  0.00    -0.237 OA
ATOM    104  O   UNL A   1      54.994  33.952  26.652  1.00  0.00    -0.237 OA
ATOM    105  O   UNL A   1      55.373  36.386  26.685  1.00  0.00    -0.744 OA
ENDBRANCH  98 102
ENDBRANCH  72  95
ENDBRANCH  46  47
ENDBRANCH  38  41
ENDBRANCH  36  37
ENDBRANCH  35  36
ENDBRANCH   1  35
TORSDOF 18
ENDMDL
