MODEL 1
REMARK VINA RESULT:     -13.0      0.000      0.000
REMARK SMILES O=C(NCCCCNC(=O)c1ccc2c(=O)[nH]c(N3CC[NH2+]CC3)nc2c1)c1ccc(-c2c3nc(c(-c4cc(S(=O)(=O)[O-])ccc4F)c4ccc([nH]4)c(-c4cc(S(=O)(=O)[O-])ccc4F)c4nc(c(-c5cc(S(=O)(=O)[O-])ccc5F)c5ccc2[nH]5)C=C4)C=C3)cc1
REMARK SMILES IDX 4 1 3 2 1 3 2 4 28 6 29 7 90 8 30 9 89 10 31 11 32 12 33 13
REMARK SMILES IDX 83 14 34 15 88 16 82 17 84 18 35 19 87 20 81 21 80 22 36 24
REMARK SMILES IDX 68 25 48 26 67 27 49 28 52 29 66 30 85 31 50 32 51 33 65 35
REMARK SMILES IDX 86 36 53 37 37 38 38 39 46 40 39 41 45 42 47 43 44 44 40 45
REMARK SMILES IDX 41 46 42 47 43 48 69 49 70 50 78 51 71 52 77 53 79 54 76 55
REMARK SMILES IDX 72 56 73 57 74 58 75 59 54 60 55 61 63 62 56 63 62 64 64 65
REMARK SMILES IDX 61 66 57 67 58 68 59 69 60 70 5 71 6 72 7 73 8 74 9 75 10 77
REMARK SMILES IDX 11 78 12 79 27 80 13 81 26 82 14 83 25 84 15 85 18 86 16 87
REMARK SMILES IDX 17 88 19 90 20 91 24 92 21 93 23 94 22 95
REMARK H PARENT 3 5 84 23 52 34 8 76 17 89 22 96 22 97
REMARK Flexibility Score: inf
ROOT
ATOM      1  C   UNL A   1      32.932  32.052  27.194  1.00  0.00     0.116 C 
ENDROOT
BRANCH   1   2
ATOM      2  N   UNL A   1      32.637  33.431  27.553  1.00  0.00    -0.352 N 
ATOM      3  O   UNL A   1      32.747  35.334  28.748  1.00  0.00    -0.269 OA
ATOM      4  C   UNL A   1      33.229  34.233  28.497  1.00  0.00     0.251 C 
ATOM      5  H   UNL A   1      31.905  33.850  27.044  1.00  0.00     0.163 HD
BRANCH   4   6
ATOM      6  C   UNL A   1      34.428  33.763  29.224  1.00  0.00     0.039 A 
ATOM      7  C   UNL A   1      35.705  34.213  28.877  1.00  0.00     0.014 A 
ATOM      8  C   UNL A   1      34.262  32.863  30.279  1.00  0.00     0.014 A 
ATOM      9  C   UNL A   1      36.825  33.671  29.502  1.00  0.00     0.010 A 
ATOM     10  C   UNL A   1      35.382  32.368  30.948  1.00  0.00     0.010 A 
ATOM     11  C   UNL A   1      36.674  32.746  30.547  1.00  0.00    -0.014 A 
BRANCH  11  12
ATOM     12  C   UNL A   1      37.865  32.192  31.238  1.00  0.00     0.031 A 
ATOM     13  C   UNL A   1      38.654  31.074  30.617  1.00  0.00     0.074 A 
ATOM     14  C   UNL A   1      38.210  32.676  32.445  1.00  0.00     0.049 A 
ATOM     15  N   UNL A   1      39.652  30.388  31.114  1.00  0.00    -0.248 NA
ATOM     16  C   UNL A   1      38.257  30.666  29.263  1.00  0.00     0.031 C 
ATOM     17  C   UNL A   1      37.521  33.761  33.145  1.00  0.00     0.029 A 
ATOM     18  N   UNL A   1      39.214  32.308  33.305  1.00  0.00    -0.354 N 
ATOM     19  C   UNL A   1      39.990  29.451  30.143  1.00  0.00     0.074 A 
ATOM     20  C   UNL A   1      39.064  29.639  29.044  1.00  0.00     0.031 C 
ATOM     21  C   UNL A   1      38.118  33.969  34.327  1.00  0.00     0.029 A 
ATOM     22  C   UNL A   1      39.190  32.994  34.496  1.00  0.00     0.049 A 
ATOM     23  H   UNL A   1      39.885  31.621  33.090  1.00  0.00     0.167 HD
ATOM     24  C   UNL A   1      40.984  28.527  30.168  1.00  0.00     0.034 A 
ATOM     25  C   UNL A   1      39.916  32.830  35.618  1.00  0.00     0.034 A 
ATOM     26  C   UNL A   1      41.891  28.354  31.279  1.00  0.00     0.049 A 
ATOM     27  C   UNL A   1      40.975  31.763  35.652  1.00  0.00     0.074 A 
ATOM     28  C   UNL A   1      42.958  27.480  31.397  1.00  0.00     0.029 A 
ATOM     29  N   UNL A   1      41.829  29.062  32.474  1.00  0.00    -0.354 N 
ATOM     30  N   UNL A   1      41.298  30.894  34.723  1.00  0.00    -0.248 NA
ATOM     31  C   UNL A   1      41.771  31.658  36.881  1.00  0.00     0.031 C 
ATOM     32  C   UNL A   1      43.493  27.609  32.684  1.00  0.00     0.029 A 
ATOM     33  C   UNL A   1      42.813  28.619  33.345  1.00  0.00     0.049 A 
ATOM     34  H   UNL A   1      41.179  29.775  32.673  1.00  0.00     0.167 HD
ATOM     35  C   UNL A   1      42.352  30.154  35.245  1.00  0.00     0.074 A 
ATOM     36  C   UNL A   1      42.611  30.679  36.571  1.00  0.00     0.031 C 
ATOM     37  C   UNL A   1      43.051  29.141  34.671  1.00  0.00     0.034 A 
BRANCH  24  38
ATOM     38  C   UNL A   1      41.095  27.599  28.979  1.00  0.00     0.023 A 
ATOM     39  C   UNL A   1      42.104  27.752  28.011  1.00  0.00     0.031 A 
ATOM     40  C   UNL A   1      40.148  26.578  28.782  1.00  0.00     0.131 A 
ATOM     41  C   UNL A   1      42.086  26.966  26.849  1.00  0.00     0.055 A 
ATOM     42  C   UNL A   1      40.188  25.739  27.666  1.00  0.00     0.041 A 
ATOM     43  F   UNL A   1      39.150  26.392  29.660  1.00  0.00    -0.206 F 
ATOM     44  C   UNL A   1      41.149  25.944  26.681  1.00  0.00     0.022 A 
BRANCH  41  45
ATOM     45  S   UNL A   1      43.193  27.416  25.483  1.00  0.00     0.124 S 
ATOM     46  O   UNL A   1      42.319  28.243  24.653  1.00  0.00    -0.237 OA
ATOM     47  O   UNL A   1      44.271  28.116  26.169  1.00  0.00    -0.237 OA
ATOM     48  O   UNL A   1      43.556  26.128  24.896  1.00  0.00    -0.744 OA
ENDBRANCH  41  45
ENDBRANCH  24  38
BRANCH  25  49
ATOM     49  C   UNL A   1      39.618  33.669  36.810  1.00  0.00     0.023 A 
ATOM     50  C   UNL A   1      38.938  33.146  37.919  1.00  0.00     0.031 A 
ATOM     51  C   UNL A   1      40.045  35.008  36.862  1.00  0.00     0.131 A 
ATOM     52  C   UNL A   1      38.691  33.964  39.031  1.00  0.00     0.055 A 
ATOM     53  C   UNL A   1      39.833  35.806  37.987  1.00  0.00     0.041 A 
ATOM     54  F   UNL A   1      40.711  35.549  35.829  1.00  0.00    -0.206 F 
ATOM     55  C   UNL A   1      39.146  35.285  39.079  1.00  0.00     0.022 A 
BRANCH  52  56
ATOM     56  S   UNL A   1      37.737  33.286  40.416  1.00  0.00     0.124 S 
ATOM     57  O   UNL A   1      38.486  32.074  40.727  1.00  0.00    -0.237 OA
ATOM     58  O   UNL A   1      37.819  34.362  41.399  1.00  0.00    -0.237 OA
ATOM     59  O   UNL A   1      36.410  33.071  39.842  1.00  0.00    -0.744 OA
ENDBRANCH  52  56
ENDBRANCH  25  49
BRANCH  37  60
ATOM     60  C   UNL A   1      44.203  28.571  35.459  1.00  0.00     0.023 A 
ATOM     61  C   UNL A   1      44.028  27.529  36.385  1.00  0.00     0.031 A 
ATOM     62  C   UNL A   1      45.502  29.074  35.260  1.00  0.00     0.131 A 
ATOM     63  C   UNL A   1      45.132  27.044  37.104  1.00  0.00     0.055 A 
ATOM     64  C   UNL A   1      46.602  28.556  35.943  1.00  0.00     0.041 A 
ATOM     65  F   UNL A   1      45.720  30.072  34.388  1.00  0.00    -0.206 F 
ATOM     66  C   UNL A   1      46.420  27.540  36.877  1.00  0.00     0.022 A 
BRANCH  63  67
ATOM     67  S   UNL A   1      44.862  25.785  38.381  1.00  0.00     0.124 S 
ATOM     68  O   UNL A   1      46.215  25.289  38.609  1.00  0.00    -0.237 OA
ATOM     69  O   UNL A   1      44.274  26.560  39.469  1.00  0.00    -0.237 OA
ATOM     70  O   UNL A   1      43.954  24.835  37.740  1.00  0.00    -0.744 OA
ENDBRANCH  63  67
ENDBRANCH  37  60
ENDBRANCH  11  12
ENDBRANCH   4   6
ENDBRANCH   1   2
BRANCH   1  71
ATOM     71  C   UNL A   1      31.738  31.333  26.572  1.00  0.00     0.023 C 
BRANCH  71  72
ATOM     72  C   UNL A   1      31.830  29.808  26.547  1.00  0.00     0.023 C 
BRANCH  72  73
ATOM     73  C   UNL A   1      32.791  29.232  25.512  1.00  0.00     0.116 C 
BRANCH  73  74
ATOM     74  N   UNL A   1      32.202  29.155  24.185  1.00  0.00    -0.352 N 
ATOM     75  C   UNL A   1      31.580  28.094  23.579  1.00  0.00     0.251 C 
ATOM     76  H   UNL A   1      32.257  29.978  23.648  1.00  0.00     0.163 HD
ATOM     77  O   UNL A   1      31.236  28.144  22.403  1.00  0.00    -0.269 OA
BRANCH  75  78
ATOM     78  C   UNL A   1      31.326  26.870  24.358  1.00  0.00     0.041 A 
ATOM     79  C   UNL A   1      30.169  26.764  25.140  1.00  0.00     0.015 A 
ATOM     80  C   UNL A   1      32.254  25.824  24.293  1.00  0.00     0.043 A 
ATOM     81  C   UNL A   1      29.969  25.626  25.913  1.00  0.00     0.017 A 
ATOM     82  C   UNL A   1      32.056  24.675  25.058  1.00  0.00     0.081 A 
ATOM     83  C   UNL A   1      30.916  24.598  25.864  1.00  0.00     0.066 A 
ATOM     84  N   UNL A   1      33.004  23.638  24.991  1.00  0.00    -0.214 NA
ATOM     85  C   UNL A   1      30.740  23.379  26.662  1.00  0.00     0.260 A 
ATOM     86  C   UNL A   1      32.781  22.548  25.654  1.00  0.00     0.206 A 
ATOM     87  O   UNL A   1      29.817  23.241  27.456  1.00  0.00    -0.269 OA
ATOM     88  N   UNL A   1      31.684  22.411  26.463  1.00  0.00    -0.292 N 
ATOM     89  H   UNL A   1      31.567  21.555  26.934  1.00  0.00     0.173 HD
BRANCH  86  90
ATOM     90  N   UNL A   1      33.631  21.475  25.632  1.00  0.00    -0.331 N 
ATOM     91  C   UNL A   1      33.121  20.101  25.593  1.00  0.00     0.181 C 
ATOM     92  C   UNL A   1      35.043  21.577  26.009  1.00  0.00     0.181 C 
ATOM     93  C   UNL A   1      34.018  19.256  24.656  1.00  0.00     0.282 C 
ATOM     94  C   UNL A   1      35.902  20.706  25.071  1.00  0.00     0.282 C 
ATOM     95  N   UNL A   1      35.459  19.298  25.005  1.00  0.00    -0.343 N 
ATOM     96  H   UNL A   1      35.996  18.804  24.293  1.00  0.00     0.346 HD
ATOM     97  H   UNL A   1      35.606  18.850  25.909  1.00  0.00     0.346 HD
ENDBRANCH  86  90
ENDBRANCH  75  78
ENDBRANCH  73  74
ENDBRANCH  72  73
ENDBRANCH  71  72
ENDBRANCH   1  71
TORSDOF 15
ENDMDL
MODEL 2
REMARK VINA RESULT:     -12.9      1.519      2.140
REMARK SMILES O=C(NCCCCNC(=O)c1ccc2c(=O)[nH]c(N3CC[NH2+]CC3)nc2c1)c1ccc(-c2c3nc(c(-c4cc(S(=O)(=O)[O-])ccc4F)c4ccc([nH]4)c(-c4cc(S(=O)(=O)[O-])ccc4F)c4nc(c(-c5cc(S(=O)(=O)[O-])ccc5F)c5ccc2[nH]5)C=C4)C=C3)cc1
REMARK SMILES IDX 4 1 3 2 1 3 2 4 28 6 29 7 90 8 30 9 89 10 31 11 32 12 33 13
REMARK SMILES IDX 83 14 34 15 88 16 82 17 84 18 35 19 87 20 81 21 80 22 36 24
REMARK SMILES IDX 68 25 48 26 67 27 49 28 52 29 66 30 85 31 50 32 51 33 65 35
REMARK SMILES IDX 86 36 53 37 37 38 38 39 46 40 39 41 45 42 47 43 44 44 40 45
REMARK SMILES IDX 41 46 42 47 43 48 69 49 70 50 78 51 71 52 77 53 79 54 76 55
REMARK SMILES IDX 72 56 73 57 74 58 75 59 54 60 55 61 63 62 56 63 62 64 64 65
REMARK SMILES IDX 61 66 57 67 58 68 59 69 60 70 5 71 6 72 7 73 8 74 9 75 10 77
REMARK SMILES IDX 11 78 12 79 27 80 13 81 26 82 14 83 25 84 15 85 18 86 16 87
REMARK SMILES IDX 17 88 19 90 20 91 24 92 21 93 23 94 22 95
REMARK H PARENT 3 5 84 23 52 34 8 76 17 89 22 96 22 97
REMARK Flexibility Score: inf
ROOT
ATOM      1  C   UNL A   1      32.618  32.753  27.216  1.00  0.00     0.116 C 
ENDROOT
BRANCH   1   2
ATOM      2  N   UNL A   1      32.465  34.112  27.713  1.00  0.00    -0.352 N 
ATOM      3  O   UNL A   1      32.787  35.873  29.075  1.00  0.00    -0.269 OA
ATOM      4  C   UNL A   1      33.155  34.761  28.705  1.00  0.00     0.251 C 
ATOM      5  H   UNL A   1      31.763  34.643  27.271  1.00  0.00     0.163 HD
BRANCH   4   6
ATOM      6  C   UNL A   1      34.323  34.115  29.342  1.00  0.00     0.039 A 
ATOM      7  C   UNL A   1      34.159  33.181  30.369  1.00  0.00     0.014 A 
ATOM      8  C   UNL A   1      35.602  34.448  28.892  1.00  0.00     0.014 A 
ATOM      9  C   UNL A   1      35.275  32.671  31.028  1.00  0.00     0.010 A 
ATOM     10  C   UNL A   1      36.721  33.887  29.511  1.00  0.00     0.010 A 
ATOM     11  C   UNL A   1      36.567  33.017  30.602  1.00  0.00    -0.014 A 
BRANCH  11  12
ATOM     12  C   UNL A   1      37.759  32.449  31.280  1.00  0.00     0.031 A 
ATOM     13  C   UNL A   1      38.505  31.296  30.671  1.00  0.00     0.074 A 
ATOM     14  C   UNL A   1      38.146  32.955  32.466  1.00  0.00     0.049 A 
ATOM     15  N   UNL A   1      39.496  30.596  31.163  1.00  0.00    -0.248 NA
ATOM     16  C   UNL A   1      38.065  30.864  29.338  1.00  0.00     0.031 C 
ATOM     17  C   UNL A   1      37.501  34.076  33.152  1.00  0.00     0.029 A 
ATOM     18  N   UNL A   1      39.160  32.583  33.312  1.00  0.00    -0.354 N 
ATOM     19  C   UNL A   1      39.786  29.626  30.209  1.00  0.00     0.074 A 
ATOM     20  C   UNL A   1      38.840  29.810  29.127  1.00  0.00     0.031 C 
ATOM     21  C   UNL A   1      38.131  34.298  34.314  1.00  0.00     0.029 A 
ATOM     22  C   UNL A   1      39.181  33.299  34.485  1.00  0.00     0.049 A 
ATOM     23  H   UNL A   1      39.807  31.873  33.100  1.00  0.00     0.167 HD
ATOM     24  C   UNL A   1      40.757  28.677  30.235  1.00  0.00     0.034 A 
ATOM     25  C   UNL A   1      39.929  33.145  35.594  1.00  0.00     0.034 A 
ATOM     26  C   UNL A   1      41.686  28.509  31.330  1.00  0.00     0.049 A 
ATOM     27  C   UNL A   1      40.960  32.052  35.631  1.00  0.00     0.074 A 
ATOM     28  C   UNL A   1      42.731  27.610  31.446  1.00  0.00     0.029 A 
ATOM     29  N   UNL A   1      41.669  29.249  32.507  1.00  0.00    -0.354 N 
ATOM     30  N   UNL A   1      41.239  31.151  34.718  1.00  0.00    -0.248 NA
ATOM     31  C   UNL A   1      41.783  31.957  36.844  1.00  0.00     0.031 C 
ATOM     32  C   UNL A   1      43.300  27.758  32.717  1.00  0.00     0.029 A 
ATOM     33  C   UNL A   1      42.662  28.803  33.367  1.00  0.00     0.049 A 
ATOM     34  H   UNL A   1      41.043  29.983  32.702  1.00  0.00     0.167 HD
ATOM     35  C   UNL A   1      42.285  30.397  35.235  1.00  0.00     0.074 A 
ATOM     36  C   UNL A   1      42.589  30.949  36.541  1.00  0.00     0.031 C 
ATOM     37  C   UNL A   1      42.945  29.352  34.673  1.00  0.00     0.034 A 
BRANCH  24  38
ATOM     38  C   UNL A   1      40.816  27.717  29.070  1.00  0.00     0.023 A 
ATOM     39  C   UNL A   1      41.763  27.858  28.039  1.00  0.00     0.031 A 
ATOM     40  C   UNL A   1      39.878  26.674  28.957  1.00  0.00     0.131 A 
ATOM     41  C   UNL A   1      41.693  27.038  26.903  1.00  0.00     0.055 A 
ATOM     42  C   UNL A   1      39.869  25.803  27.866  1.00  0.00     0.041 A 
ATOM     43  F   UNL A   1      38.937  26.497  29.898  1.00  0.00    -0.206 F 
ATOM     44  C   UNL A   1      40.767  25.995  26.820  1.00  0.00     0.022 A 
BRANCH  41  45
ATOM     45  S   UNL A   1      42.709  27.467  25.462  1.00  0.00     0.124 S 
ATOM     46  O   UNL A   1      42.676  26.224  24.695  1.00  0.00    -0.237 OA
ATOM     47  O   UNL A   1      41.982  28.592  24.889  1.00  0.00    -0.237 OA
ATOM     48  O   UNL A   1      44.009  27.793  26.044  1.00  0.00    -0.744 OA
ENDBRANCH  41  45
ENDBRANCH  24  38
BRANCH  25  49
ATOM     49  C   UNL A   1      39.681  34.022  36.770  1.00  0.00     0.023 A 
ATOM     50  C   UNL A   1      39.079  33.527  37.936  1.00  0.00     0.031 A 
ATOM     51  C   UNL A   1      40.079  35.371  36.748  1.00  0.00     0.131 A 
ATOM     52  C   UNL A   1      38.878  34.381  39.030  1.00  0.00     0.055 A 
ATOM     53  C   UNL A   1      39.913  36.206  37.853  1.00  0.00     0.041 A 
ATOM     54  F   UNL A   1      40.670  35.886  35.658  1.00  0.00    -0.206 F 
ATOM     55  C   UNL A   1      39.304  35.712  39.002  1.00  0.00     0.022 A 
BRANCH  52  56
ATOM     56  S   UNL A   1      38.022  33.735  40.492  1.00  0.00     0.124 S 
ATOM     57  O   UNL A   1      36.928  32.983  39.888  1.00  0.00    -0.237 OA
ATOM     58  O   UNL A   1      39.068  32.945  41.133  1.00  0.00    -0.237 OA
ATOM     59  O   UNL A   1      37.626  34.942  41.215  1.00  0.00    -0.744 OA
ENDBRANCH  52  56
ENDBRANCH  25  49
BRANCH  37  60
ATOM     60  C   UNL A   1      44.100  28.772  35.448  1.00  0.00     0.023 A 
ATOM     61  C   UNL A   1      43.929  27.717  36.360  1.00  0.00     0.031 A 
ATOM     62  C   UNL A   1      45.397  29.279  35.253  1.00  0.00     0.131 A 
ATOM     63  C   UNL A   1      45.036  27.223  37.069  1.00  0.00     0.055 A 
ATOM     64  C   UNL A   1      46.500  28.752  35.925  1.00  0.00     0.041 A 
ATOM     65  F   UNL A   1      45.612  30.289  34.394  1.00  0.00    -0.206 F 
ATOM     66  C   UNL A   1      46.322  27.724  36.844  1.00  0.00     0.022 A 
BRANCH  63  67
ATOM     67  S   UNL A   1      44.771  25.946  38.330  1.00  0.00     0.124 S 
ATOM     68  O   UNL A   1      44.145  26.708  39.406  1.00  0.00    -0.237 OA
ATOM     69  O   UNL A   1      43.908  24.994  37.637  1.00  0.00    -0.237 OA
ATOM     70  O   UNL A   1      46.120  25.462  38.616  1.00  0.00    -0.744 OA
ENDBRANCH  63  67
ENDBRANCH  37  60
ENDBRANCH  11  12
ENDBRANCH   4   6
ENDBRANCH   1   2
BRANCH   1  71
ATOM     71  C   UNL A   1      31.336  32.197  26.603  1.00  0.00     0.023 C 
BRANCH  71  72
ATOM     72  C   UNL A   1      31.446  30.795  26.005  1.00  0.00     0.023 C 
BRANCH  72  73
ATOM     73  C   UNL A   1      31.720  29.681  27.010  1.00  0.00     0.116 C 
BRANCH  73  74
ATOM     74  N   UNL A   1      33.087  29.702  27.507  1.00  0.00    -0.352 N 
ATOM     75  C   UNL A   1      34.174  28.994  27.065  1.00  0.00     0.251 C 
ATOM     76  H   UNL A   1      33.254  30.308  28.264  1.00  0.00     0.163 HD
ATOM     77  O   UNL A   1      35.245  29.029  27.664  1.00  0.00    -0.269 OA
BRANCH  75  78
ATOM     78  C   UNL A   1      34.052  28.173  25.849  1.00  0.00     0.041 A 
ATOM     79  C   UNL A   1      33.974  28.787  24.592  1.00  0.00     0.015 A 
ATOM     80  C   UNL A   1      34.022  26.779  25.976  1.00  0.00     0.043 A 
ATOM     81  C   UNL A   1      33.802  28.002  23.457  1.00  0.00     0.017 A 
ATOM     82  C   UNL A   1      33.860  25.984  24.842  1.00  0.00     0.081 A 
ATOM     83  C   UNL A   1      33.745  26.612  23.596  1.00  0.00     0.066 A 
ATOM     84  N   UNL A   1      33.819  24.585  24.987  1.00  0.00    -0.214 NA
ATOM     85  C   UNL A   1      33.569  25.748  22.424  1.00  0.00     0.260 A 
ATOM     86  C   UNL A   1      33.733  23.851  23.923  1.00  0.00     0.206 A 
ATOM     87  O   UNL A   1      33.384  26.197  21.299  1.00  0.00    -0.269 OA
ATOM     88  N   UNL A   1      33.616  24.405  22.676  1.00  0.00    -0.292 N 
ATOM     89  H   UNL A   1      33.562  23.794  21.907  1.00  0.00     0.173 HD
BRANCH  86  90
ATOM     90  N   UNL A   1      33.713  22.483  23.961  1.00  0.00    -0.331 N 
ATOM     91  C   UNL A   1      34.889  21.716  24.383  1.00  0.00     0.181 C 
ATOM     92  C   UNL A   1      32.702  21.688  23.260  1.00  0.00     0.181 C 
ATOM     93  C   UNL A   1      34.427  20.512  25.237  1.00  0.00     0.282 C 
ATOM     94  C   UNL A   1      32.283  20.486  24.130  1.00  0.00     0.282 C 
ATOM     95  N   UNL A   1      33.421  19.651  24.569  1.00  0.00    -0.343 N 
ATOM     96  H   UNL A   1      33.091  18.941  25.222  1.00  0.00     0.346 HD
ATOM     97  H   UNL A   1      33.842  19.195  23.760  1.00  0.00     0.346 HD
ENDBRANCH  86  90
ENDBRANCH  75  78
ENDBRANCH  73  74
ENDBRANCH  72  73
ENDBRANCH  71  72
ENDBRANCH   1  71
TORSDOF 15
ENDMDL
MODEL 3
REMARK VINA RESULT:     -12.9      1.415      1.734
REMARK SMILES O=C(NCCCCNC(=O)c1ccc2c(=O)[nH]c(N3CC[NH2+]CC3)nc2c1)c1ccc(-c2c3nc(c(-c4cc(S(=O)(=O)[O-])ccc4F)c4ccc([nH]4)c(-c4cc(S(=O)(=O)[O-])ccc4F)c4nc(c(-c5cc(S(=O)(=O)[O-])ccc5F)c5ccc2[nH]5)C=C4)C=C3)cc1
REMARK SMILES IDX 4 1 3 2 1 3 2 4 28 6 29 7 90 8 30 9 89 10 31 11 32 12 33 13
REMARK SMILES IDX 83 14 34 15 88 16 82 17 84 18 35 19 87 20 81 21 80 22 36 24
REMARK SMILES IDX 68 25 48 26 67 27 49 28 52 29 66 30 85 31 50 32 51 33 65 35
REMARK SMILES IDX 86 36 53 37 37 38 38 39 46 40 39 41 45 42 47 43 44 44 40 45
REMARK SMILES IDX 41 46 42 47 43 48 69 49 70 50 78 51 71 52 77 53 79 54 76 55
REMARK SMILES IDX 72 56 73 57 74 58 75 59 54 60 55 61 63 62 56 63 62 64 64 65
REMARK SMILES IDX 61 66 57 67 58 68 59 69 60 70 5 71 6 72 7 73 8 74 9 75 10 77
REMARK SMILES IDX 11 78 12 79 27 80 13 81 26 82 14 83 25 84 15 85 18 86 16 87
REMARK SMILES IDX 17 88 19 90 20 91 24 92 21 93 23 94 22 95
REMARK H PARENT 3 5 84 23 52 34 8 76 17 89 22 96 22 97
REMARK Flexibility Score: inf
ROOT
ATOM      1  C   UNL A   1      32.905  31.922  26.920  1.00  0.00     0.116 C 
ENDROOT
BRANCH   1   2
ATOM      2  N   UNL A   1      32.646  33.288  27.350  1.00  0.00    -0.352 N 
ATOM      3  O   UNL A   1      32.825  35.133  28.624  1.00  0.00    -0.269 OA
ATOM      4  C   UNL A   1      33.280  34.036  28.310  1.00  0.00     0.251 C 
ATOM      5  H   UNL A   1      31.907  33.742  26.883  1.00  0.00     0.163 HD
BRANCH   4   6
ATOM      6  C   UNL A   1      34.491  33.514  28.978  1.00  0.00     0.039 A 
ATOM      7  C   UNL A   1      35.758  34.017  28.672  1.00  0.00     0.014 A 
ATOM      8  C   UNL A   1      34.346  32.509  29.937  1.00  0.00     0.014 A 
ATOM      9  C   UNL A   1      36.891  33.433  29.232  1.00  0.00     0.010 A 
ATOM     10  C   UNL A   1      35.479  31.967  30.547  1.00  0.00     0.010 A 
ATOM     11  C   UNL A   1      36.762  32.404  30.178  1.00  0.00    -0.014 A 
BRANCH  11  12
ATOM     12  C   UNL A   1      37.966  31.801  30.803  1.00  0.00     0.031 A 
ATOM     13  C   UNL A   1      38.757  30.751  30.075  1.00  0.00     0.074 A 
ATOM     14  C   UNL A   1      38.324  32.180  32.044  1.00  0.00     0.049 A 
ATOM     15  N   UNL A   1      39.766  30.032  30.496  1.00  0.00    -0.248 NA
ATOM     16  C   UNL A   1      38.344  30.461  28.695  1.00  0.00     0.031 C 
ATOM     17  C   UNL A   1      37.635  33.193  32.845  1.00  0.00     0.029 A 
ATOM     18  N   UNL A   1      39.342  31.746  32.855  1.00  0.00    -0.354 N 
ATOM     19  C   UNL A   1      40.098  29.188  29.442  1.00  0.00     0.074 A 
ATOM     20  C   UNL A   1      39.157  29.464  28.376  1.00  0.00     0.031 C 
ATOM     21  C   UNL A   1      38.246  33.300  34.033  1.00  0.00     0.029 A 
ATOM     22  C   UNL A   1      39.328  32.323  34.102  1.00  0.00     0.049 A 
ATOM     23  H   UNL A   1      40.015  31.087  32.571  1.00  0.00     0.167 HD
ATOM     24  C   UNL A   1      41.100  28.274  29.372  1.00  0.00     0.034 A 
ATOM     25  C   UNL A   1      40.070  32.067  35.196  1.00  0.00     0.034 A 
ATOM     26  C   UNL A   1      42.024  28.012  30.452  1.00  0.00     0.049 A 
ATOM     27  C   UNL A   1      41.138  31.011  35.122  1.00  0.00     0.074 A 
ATOM     28  C   UNL A   1      43.098  27.140  30.479  1.00  0.00     0.029 A 
ATOM     29  N   UNL A   1      41.971  28.611  31.706  1.00  0.00    -0.354 N 
ATOM     30  N   UNL A   1      41.455  30.231  34.115  1.00  0.00    -0.248 NA
ATOM     31  C   UNL A   1      41.951  30.805  36.326  1.00  0.00     0.031 C 
ATOM     32  C   UNL A   1      43.650  27.160  31.765  1.00  0.00     0.029 A 
ATOM     33  C   UNL A   1      42.970  28.101  32.522  1.00  0.00     0.049 A 
ATOM     34  H   UNL A   1      41.319  29.297  31.976  1.00  0.00     0.167 HD
ATOM     35  C   UNL A   1      42.522  29.457  34.556  1.00  0.00     0.074 A 
ATOM     36  C   UNL A   1      42.795  29.865  35.921  1.00  0.00     0.031 C 
ATOM     37  C   UNL A   1      43.222  28.506  33.886  1.00  0.00     0.034 A 
BRANCH  24  38
ATOM     38  C   UNL A   1      41.203  27.457  28.105  1.00  0.00     0.023 A 
ATOM     39  C   UNL A   1      40.795  26.111  28.054  1.00  0.00     0.031 A 
ATOM     40  C   UNL A   1      41.766  28.014  26.942  1.00  0.00     0.131 A 
ATOM     41  C   UNL A   1      41.042  25.345  26.905  1.00  0.00     0.055 A 
ATOM     42  C   UNL A   1      41.927  27.271  25.771  1.00  0.00     0.041 A 
ATOM     43  F   UNL A   1      42.191  29.287  26.931  1.00  0.00    -0.206 F 
ATOM     44  C   UNL A   1      41.583  25.922  25.754  1.00  0.00     0.022 A 
BRANCH  41  45
ATOM     45  S   UNL A   1      40.812  23.548  26.997  1.00  0.00     0.124 S 
ATOM     46  O   UNL A   1      41.251  23.262  28.361  1.00  0.00    -0.237 OA
ATOM     47  O   UNL A   1      39.385  23.400  26.741  1.00  0.00    -0.237 OA
ATOM     48  O   UNL A   1      41.692  23.034  25.950  1.00  0.00    -0.744 OA
ENDBRANCH  41  45
ENDBRANCH  24  38
BRANCH  25  49
ATOM     49  C   UNL A   1      39.781  32.794  36.461  1.00  0.00     0.023 A 
ATOM     50  C   UNL A   1      38.794  32.348  37.351  1.00  0.00     0.031 A 
ATOM     51  C   UNL A   1      40.523  33.938  36.810  1.00  0.00     0.131 A 
ATOM     52  C   UNL A   1      38.563  33.052  38.542  1.00  0.00     0.055 A 
ATOM     53  C   UNL A   1      40.317  34.610  38.014  1.00  0.00     0.041 A 
ATOM     54  F   UNL A   1      41.487  34.396  35.995  1.00  0.00    -0.206 F 
ATOM     55  C   UNL A   1      39.327  34.170  38.887  1.00  0.00     0.022 A 
BRANCH  52  56
ATOM     56  S   UNL A   1      37.224  32.500  39.633  1.00  0.00     0.124 S 
ATOM     57  O   UNL A   1      37.238  33.530  40.665  1.00  0.00    -0.237 OA
ATOM     58  O   UNL A   1      36.074  32.509  38.733  1.00  0.00    -0.237 OA
ATOM     59  O   UNL A   1      37.661  31.174  40.066  1.00  0.00    -0.744 OA
ENDBRANCH  52  56
ENDBRANCH  25  49
BRANCH  37  60
ATOM     60  C   UNL A   1      44.389  27.879  34.606  1.00  0.00     0.023 A 
ATOM     61  C   UNL A   1      44.260  26.681  35.329  1.00  0.00     0.031 A 
ATOM     62  C   UNL A   1      45.655  28.488  34.546  1.00  0.00     0.131 A 
ATOM     63  C   UNL A   1      45.375  26.147  35.994  1.00  0.00     0.055 A 
ATOM     64  C   UNL A   1      46.769  27.927  35.170  1.00  0.00     0.041 A 
ATOM     65  F   UNL A   1      45.829  29.634  33.870  1.00  0.00    -0.206 F 
ATOM     66  C   UNL A   1      46.632  26.754  35.905  1.00  0.00     0.022 A 
BRANCH  63  67
ATOM     67  S   UNL A   1      45.157  24.668  37.023  1.00  0.00     0.124 S 
ATOM     68  O   UNL A   1      44.408  25.197  38.158  1.00  0.00    -0.237 OA
ATOM     69  O   UNL A   1      44.423  23.772  36.135  1.00  0.00    -0.237 OA
ATOM     70  O   UNL A   1      46.526  24.254  37.323  1.00  0.00    -0.744 OA
ENDBRANCH  63  67
ENDBRANCH  37  60
ENDBRANCH  11  12
ENDBRANCH   4   6
ENDBRANCH   1   2
BRANCH   1  71
ATOM     71  C   UNL A   1      31.655  31.215  26.404  1.00  0.00     0.023 C 
BRANCH  71  72
ATOM     72  C   UNL A   1      31.771  29.698  26.258  1.00  0.00     0.023 C 
BRANCH  72  73
ATOM     73  C   UNL A   1      32.670  29.222  25.121  1.00  0.00     0.116 C 
BRANCH  73  74
ATOM     74  N   UNL A   1      31.960  29.114  23.857  1.00  0.00    -0.352 N 
ATOM     75  C   UNL A   1      31.274  28.044  23.343  1.00  0.00     0.251 C 
ATOM     76  H   UNL A   1      31.973  29.920  23.293  1.00  0.00     0.163 HD
ATOM     77  O   UNL A   1      30.823  28.063  22.202  1.00  0.00    -0.269 OA
BRANCH  75  78
ATOM     78  C   UNL A   1      31.080  26.846  24.178  1.00  0.00     0.041 A 
ATOM     79  C   UNL A   1      29.946  26.735  24.993  1.00  0.00     0.015 A 
ATOM     80  C   UNL A   1      32.041  25.830  24.134  1.00  0.00     0.043 A 
ATOM     81  C   UNL A   1      29.804  25.626  25.819  1.00  0.00     0.017 A 
ATOM     82  C   UNL A   1      31.901  24.708  24.950  1.00  0.00     0.081 A 
ATOM     83  C   UNL A   1      30.783  24.628  25.788  1.00  0.00     0.066 A 
ATOM     84  N   UNL A   1      32.881  23.701  24.904  1.00  0.00    -0.214 NA
ATOM     85  C   UNL A   1      30.668  23.439  26.640  1.00  0.00     0.260 A 
ATOM     86  C   UNL A   1      32.712  22.633  25.617  1.00  0.00     0.206 A 
ATOM     87  O   UNL A   1      29.770  23.305  27.463  1.00  0.00    -0.269 OA
ATOM     88  N   UNL A   1      31.639  22.495  26.458  1.00  0.00    -0.292 N 
ATOM     89  H   UNL A   1      31.563  21.657  26.968  1.00  0.00     0.173 HD
BRANCH  86  90
ATOM     90  N   UNL A   1      33.596  21.589  25.617  1.00  0.00    -0.331 N 
ATOM     91  C   UNL A   1      33.133  20.198  25.595  1.00  0.00     0.181 C 
ATOM     92  C   UNL A   1      35.001  21.743  26.004  1.00  0.00     0.181 C 
ATOM     93  C   UNL A   1      34.064  19.370  24.679  1.00  0.00     0.282 C 
ATOM     94  C   UNL A   1      35.896  20.887  25.086  1.00  0.00     0.282 C 
ATOM     95  N   UNL A   1      35.500  19.464  25.038  1.00  0.00    -0.343 N 
ATOM     96  H   UNL A   1      36.059  18.977  24.338  1.00  0.00     0.346 HD
ATOM     97  H   UNL A   1      35.654  19.035  25.951  1.00  0.00     0.346 HD
ENDBRANCH  86  90
ENDBRANCH  75  78
ENDBRANCH  73  74
ENDBRANCH  72  73
ENDBRANCH  71  72
ENDBRANCH   1  71
TORSDOF 15
ENDMDL
