MODEL 1
REMARK VINA RESULT:     -11.6      0.000      0.000
REMARK SMILES C[C@@H]1CCCN(c2cc(Br)ccc2/C=C/C(=O)NCCCCNC(=O)c2ccc(-c3c4nc(c(-c5cc(S(=O)(=O)[O-])ccc5F)c5ccc([nH]5)c(-c5cc(S(=O)(=O)[O-])ccc5F)c5nc(c(-c6cc(S(=O)(=O)[O-])ccc6F)c6ccc3[nH]6)C=C5)C=C4)cc2)C1
REMARK SMILES IDX 21 1 20 2 19 3 18 4 16 5 17 6 15 8 14 9 13 10 7 11 8 12 9 13
REMARK SMILES IDX 12 14 10 15 11 16 6 17 1 18 2 19 3 20 89 21 4 22 5 23 22 24
REMARK SMILES IDX 23 25 24 26 25 28 26 29 27 30 88 31 28 32 87 33 29 34 30 35
REMARK SMILES IDX 31 36 81 37 32 38 86 39 80 40 82 41 33 42 85 43 79 44 78 45
REMARK SMILES IDX 34 47 66 48 46 49 65 50 47 51 50 52 64 53 83 54 48 55 49 56
REMARK SMILES IDX 63 58 84 59 51 60 35 61 36 62 44 63 37 64 43 65 45 66 42 67
REMARK SMILES IDX 38 68 39 69 40 70 41 71 67 72 68 73 76 74 69 75 75 76 77 77
REMARK SMILES IDX 74 78 70 79 71 80 72 81 73 82 52 83 53 84 61 85 54 86 60 87
REMARK SMILES IDX 62 88 59 89 55 90 56 91 57 92 58 93
REMARK H PARENT 18 7 23 27 82 46 50 57
REMARK Flexibility Score: inf
ROOT
ATOM      1  C   UNL A   1      35.033  23.294  25.739  1.00  0.00     0.023 C 
ENDROOT
BRANCH   1   2
ATOM      2  C   UNL A   1      34.246  23.990  24.628  1.00  0.00     0.023 C 
BRANCH   2   3
ATOM      3  C   UNL A   1      32.842  23.427  24.410  1.00  0.00     0.116 C 
BRANCH   3   4
ATOM      4  N   UNL A   1      32.050  23.520  25.618  1.00  0.00    -0.353 N 
ATOM      5  C   UNL A   1      31.003  24.337  25.905  1.00  0.00     0.244 C 
ATOM      6  O   UNL A   1      30.391  24.205  26.963  1.00  0.00    -0.270 OA
ATOM      7  H   UNL A   1      32.310  22.901  26.338  1.00  0.00     0.163 HD
BRANCH   5   8
ATOM      8  C   UNL A   1      30.521  25.330  24.916  1.00  0.00     0.072 C 
ATOM      9  C   UNL A   1      30.587  26.662  25.070  1.00  0.00     0.016 C 
BRANCH   9  10
ATOM     10  C   UNL A   1      30.036  27.634  24.103  1.00  0.00    -0.002 A 
ATOM     11  C   UNL A   1      30.754  28.801  23.737  1.00  0.00     0.045 A 
ATOM     12  C   UNL A   1      30.129  29.732  22.889  1.00  0.00     0.042 A 
ATOM     13  C   UNL A   1      28.833  29.524  22.418  1.00  0.00     0.020 A 
ATOM     14  C   UNL A   1      28.721  27.454  23.632  1.00  0.00     0.011 A 
ATOM     15  Br  UNL A   1      28.030  30.801  21.279  1.00  0.00    -0.051 Br
ATOM     16  C   UNL A   1      28.124  28.389  22.787  1.00  0.00     0.016 A 
BRANCH  11  17
ATOM     17  N   UNL A   1      32.042  29.062  24.177  1.00  0.00    -0.371 N 
ATOM     18  C   UNL A   1      33.423  30.087  27.572  1.00  0.00     0.009 C 
ATOM     19  C   UNL A   1      33.038  29.150  26.428  1.00  0.00     0.005 C 
ATOM     20  C   UNL A   1      34.292  28.478  25.845  1.00  0.00     0.007 C 
ATOM     21  C   UNL A   1      32.271  29.916  25.338  1.00  0.00     0.119 C 
ATOM     22  C   UNL A   1      33.932  27.585  24.660  1.00  0.00     0.022 C 
ATOM     23  C   UNL A   1      33.178  28.366  23.587  1.00  0.00     0.116 C 
ENDBRANCH  11  17
ENDBRANCH   9  10
ENDBRANCH   5   8
ENDBRANCH   3   4
ENDBRANCH   2   3
ENDBRANCH   1   2
BRANCH   1  24
ATOM     24  C   UNL A   1      36.483  23.751  25.885  1.00  0.00     0.116 C 
BRANCH  24  25
ATOM     25  N   UNL A   1      37.436  22.652  25.899  1.00  0.00    -0.352 N 
ATOM     26  C   UNL A   1      38.763  22.673  26.261  1.00  0.00     0.251 C 
ATOM     27  H   UNL A   1      37.084  21.779  25.613  1.00  0.00     0.163 HD
ATOM     28  O   UNL A   1      39.451  21.674  26.107  1.00  0.00    -0.269 OA
BRANCH  26  29
ATOM     29  C   UNL A   1      39.351  23.925  26.788  1.00  0.00     0.039 A 
ATOM     30  C   UNL A   1      39.965  24.805  25.895  1.00  0.00     0.014 A 
ATOM     31  C   UNL A   1      39.271  24.242  28.147  1.00  0.00     0.014 A 
ATOM     32  C   UNL A   1      40.442  26.034  26.355  1.00  0.00     0.010 A 
ATOM     33  C   UNL A   1      39.684  25.496  28.591  1.00  0.00     0.010 A 
ATOM     34  C   UNL A   1      40.273  26.405  27.700  1.00  0.00    -0.014 A 
BRANCH  34  35
ATOM     35  C   UNL A   1      40.712  27.740  28.185  1.00  0.00     0.031 A 
ATOM     36  C   UNL A   1      42.177  28.067  28.281  1.00  0.00     0.074 A 
ATOM     37  C   UNL A   1      39.788  28.636  28.590  1.00  0.00     0.049 A 
ATOM     38  N   UNL A   1      42.756  29.158  28.713  1.00  0.00    -0.248 NA
ATOM     39  C   UNL A   1      43.115  27.014  27.863  1.00  0.00     0.031 C 
ATOM     40  C   UNL A   1      38.341  28.413  28.594  1.00  0.00     0.029 A 
ATOM     41  N   UNL A   1      39.928  29.911  29.077  1.00  0.00    -0.354 N 
ATOM     42  C   UNL A   1      44.123  28.922  28.627  1.00  0.00     0.074 A 
ATOM     43  C   UNL A   1      44.283  27.558  28.166  1.00  0.00     0.031 C 
ATOM     44  C   UNL A   1      37.726  29.522  29.034  1.00  0.00     0.029 A 
ATOM     45  C   UNL A   1      38.732  30.522  29.379  1.00  0.00     0.049 A 
ATOM     46  H   UNL A   1      40.802  30.348  29.200  1.00  0.00     0.167 HD
ATOM     47  C   UNL A   1      45.150  29.771  28.885  1.00  0.00     0.034 A 
ATOM     48  C   UNL A   1      38.477  31.747  29.879  1.00  0.00     0.034 A 
ATOM     49  C   UNL A   1      44.972  31.130  29.334  1.00  0.00     0.049 A 
ATOM     50  C   UNL A   1      39.634  32.671  30.163  1.00  0.00     0.074 A 
ATOM     51  C   UNL A   1      45.936  32.094  29.572  1.00  0.00     0.029 A 
ATOM     52  N   UNL A   1      43.745  31.720  29.620  1.00  0.00    -0.354 N 
ATOM     53  N   UNL A   1      40.921  32.453  30.018  1.00  0.00    -0.248 NA
ATOM     54  C   UNL A   1      39.301  34.012  30.661  1.00  0.00     0.031 C 
ATOM     55  C   UNL A   1      45.300  33.242  30.062  1.00  0.00     0.029 A 
ATOM     56  C   UNL A   1      43.932  33.022  30.059  1.00  0.00     0.049 A 
ATOM     57  H   UNL A   1      42.872  31.276  29.526  1.00  0.00     0.167 HD
ATOM     58  C   UNL A   1      41.549  33.642  30.381  1.00  0.00     0.074 A 
ATOM     59  C   UNL A   1      40.498  34.575  30.731  1.00  0.00     0.031 C 
ATOM     60  C   UNL A   1      42.874  33.938  30.418  1.00  0.00     0.034 A 
BRANCH  47  61
ATOM     61  C   UNL A   1      46.552  29.237  28.703  1.00  0.00     0.023 A 
ATOM     62  C   UNL A   1      47.114  29.058  27.426  1.00  0.00     0.031 A 
ATOM     63  C   UNL A   1      47.328  28.874  29.818  1.00  0.00     0.131 A 
ATOM     64  C   UNL A   1      48.374  28.457  27.293  1.00  0.00     0.055 A 
ATOM     65  C   UNL A   1      48.616  28.354  29.681  1.00  0.00     0.041 A 
ATOM     66  F   UNL A   1      46.840  29.002  31.063  1.00  0.00    -0.206 F 
ATOM     67  C   UNL A   1      49.141  28.127  28.412  1.00  0.00     0.022 A 
BRANCH  64  68
ATOM     68  S   UNL A   1      48.930  27.975  25.635  1.00  0.00     0.124 S 
ATOM     69  O   UNL A   1      47.807  28.412  24.809  1.00  0.00    -0.237 OA
ATOM     70  O   UNL A   1      50.168  28.732  25.484  1.00  0.00    -0.237 OA
ATOM     71  O   UNL A   1      49.093  26.526  25.735  1.00  0.00    -0.744 OA
ENDBRANCH  64  68
ENDBRANCH  47  61
BRANCH  48  72
ATOM     72  C   UNL A   1      37.075  32.179  30.143  1.00  0.00     0.023 A 
ATOM     73  C   UNL A   1      36.329  32.856  29.165  1.00  0.00     0.031 A 
ATOM     74  C   UNL A   1      36.474  31.960  31.395  1.00  0.00     0.131 A 
ATOM     75  C   UNL A   1      35.045  33.333  29.468  1.00  0.00     0.055 A 
ATOM     76  C   UNL A   1      35.175  32.389  31.675  1.00  0.00     0.041 A 
ATOM     77  F   UNL A   1      37.139  31.310  32.364  1.00  0.00    -0.206 F 
ATOM     78  C   UNL A   1      34.458  33.094  30.713  1.00  0.00     0.022 A 
BRANCH  75  79
ATOM     79  S   UNL A   1      34.182  34.346  28.236  1.00  0.00     0.124 S 
ATOM     80  O   UNL A   1      35.189  34.462  27.188  1.00  0.00    -0.237 OA
ATOM     81  O   UNL A   1      33.021  33.520  27.924  1.00  0.00    -0.237 OA
ATOM     82  O   UNL A   1      33.889  35.583  28.959  1.00  0.00    -0.744 OA
ENDBRANCH  75  79
ENDBRANCH  48  72
BRANCH  60  83
ATOM     83  C   UNL A   1      43.249  35.345  30.812  1.00  0.00     0.023 A 
ATOM     84  C   UNL A   1      43.288  35.751  32.158  1.00  0.00     0.031 A 
ATOM     85  C   UNL A   1      43.547  36.300  29.825  1.00  0.00     0.131 A 
ATOM     86  C   UNL A   1      43.557  37.091  32.477  1.00  0.00     0.055 A 
ATOM     87  C   UNL A   1      43.876  37.616  30.151  1.00  0.00     0.041 A 
ATOM     88  F   UNL A   1      43.523  35.969  28.523  1.00  0.00    -0.206 F 
ATOM     89  C   UNL A   1      43.867  38.022  31.482  1.00  0.00     0.022 A 
BRANCH  86  90
ATOM     90  S   UNL A   1      43.396  37.624  34.203  1.00  0.00     0.124 S 
ATOM     91  O   UNL A   1      42.837  38.964  34.056  1.00  0.00    -0.237 OA
ATOM     92  O   UNL A   1      42.499  36.616  34.759  1.00  0.00    -0.237 OA
ATOM     93  O   UNL A   1      44.767  37.576  34.706  1.00  0.00    -0.744 OA
ENDBRANCH  86  90
ENDBRANCH  60  83
ENDBRANCH  34  35
ENDBRANCH  26  29
ENDBRANCH  24  25
ENDBRANCH   1  24
TORSDOF 16
ENDMDL
MODEL 2
REMARK VINA RESULT:     -11.5      5.000      7.720
REMARK SMILES C[C@@H]1CCCN(c2cc(Br)ccc2/C=C/C(=O)NCCCCNC(=O)c2ccc(-c3c4nc(c(-c5cc(S(=O)(=O)[O-])ccc5F)c5ccc([nH]5)c(-c5cc(S(=O)(=O)[O-])ccc5F)c5nc(c(-c6cc(S(=O)(=O)[O-])ccc6F)c6ccc3[nH]6)C=C5)C=C4)cc2)C1
REMARK SMILES IDX 21 1 20 2 19 3 18 4 16 5 17 6 15 8 14 9 13 10 7 11 8 12 9 13
REMARK SMILES IDX 12 14 10 15 11 16 6 17 1 18 2 19 3 20 89 21 4 22 5 23 22 24
REMARK SMILES IDX 23 25 24 26 25 28 26 29 27 30 88 31 28 32 87 33 29 34 30 35
REMARK SMILES IDX 31 36 81 37 32 38 86 39 80 40 82 41 33 42 85 43 79 44 78 45
REMARK SMILES IDX 34 47 66 48 46 49 65 50 47 51 50 52 64 53 83 54 48 55 49 56
REMARK SMILES IDX 63 58 84 59 51 60 35 61 36 62 44 63 37 64 43 65 45 66 42 67
REMARK SMILES IDX 38 68 39 69 40 70 41 71 67 72 68 73 76 74 69 75 75 76 77 77
REMARK SMILES IDX 74 78 70 79 71 80 72 81 73 82 52 83 53 84 61 85 54 86 60 87
REMARK SMILES IDX 62 88 59 89 55 90 56 91 57 92 58 93
REMARK H PARENT 18 7 23 27 82 46 50 57
REMARK Flexibility Score: inf
ROOT
ATOM      1  C   UNL A   1      32.948  27.602  25.183  1.00  0.00     0.023 C 
ENDROOT
BRANCH   1   2
ATOM      2  C   UNL A   1      31.456  27.481  24.866  1.00  0.00     0.023 C 
BRANCH   2   3
ATOM      3  C   UNL A   1      31.075  26.194  24.134  1.00  0.00     0.116 C 
BRANCH   3   4
ATOM      4  N   UNL A   1      31.840  26.045  22.914  1.00  0.00    -0.353 N 
ATOM      5  C   UNL A   1      32.364  24.923  22.354  1.00  0.00     0.244 C 
ATOM      6  O   UNL A   1      32.910  24.982  21.254  1.00  0.00    -0.270 OA
ATOM      7  H   UNL A   1      32.004  26.879  22.417  1.00  0.00     0.163 HD
BRANCH   5   8
ATOM      8  C   UNL A   1      32.206  23.602  23.007  1.00  0.00     0.072 C 
ATOM      9  C   UNL A   1      33.128  22.626  23.000  1.00  0.00     0.016 C 
BRANCH   9  10
ATOM     10  C   UNL A   1      32.921  21.290  23.597  1.00  0.00    -0.002 A 
ATOM     11  C   UNL A   1      33.442  20.964  24.876  1.00  0.00     0.045 A 
ATOM     12  C   UNL A   1      33.294  19.645  25.340  1.00  0.00     0.042 A 
ATOM     13  C   UNL A   1      32.657  18.674  24.569  1.00  0.00     0.020 A 
ATOM     14  C   UNL A   1      32.299  20.290  22.827  1.00  0.00     0.011 A 
ATOM     15  Br  UNL A   1      32.479  16.913  25.232  1.00  0.00    -0.051 Br
ATOM     16  C   UNL A   1      32.160  18.990  23.312  1.00  0.00     0.016 A 
BRANCH  11  17
ATOM     17  N   UNL A   1      34.087  21.887  25.684  1.00  0.00    -0.371 N 
ATOM     18  C   UNL A   1      37.407  23.712  25.331  1.00  0.00     0.009 C 
ATOM     19  C   UNL A   1      35.897  23.497  25.243  1.00  0.00     0.005 C 
ATOM     20  C   UNL A   1      35.163  24.495  26.153  1.00  0.00     0.007 C 
ATOM     21  C   UNL A   1      35.535  22.050  25.614  1.00  0.00     0.119 C 
ATOM     22  C   UNL A   1      33.655  24.254  26.124  1.00  0.00     0.022 C 
ATOM     23  C   UNL A   1      33.318  22.815  26.503  1.00  0.00     0.116 C 
ENDBRANCH  11  17
ENDBRANCH   9  10
ENDBRANCH   5   8
ENDBRANCH   3   4
ENDBRANCH   2   3
ENDBRANCH   1   2
BRANCH   1  24
ATOM     24  C   UNL A   1      33.553  28.978  24.912  1.00  0.00     0.116 C 
BRANCH  24  25
ATOM     25  N   UNL A   1      32.702  30.077  25.340  1.00  0.00    -0.352 N 
ATOM     26  C   UNL A   1      32.803  30.847  26.475  1.00  0.00     0.251 C 
ATOM     27  H   UNL A   1      31.956  30.298  24.737  1.00  0.00     0.163 HD
ATOM     28  O   UNL A   1      31.930  31.663  26.735  1.00  0.00    -0.269 OA
BRANCH  26  29
ATOM     29  C   UNL A   1      33.946  30.640  27.392  1.00  0.00     0.039 A 
ATOM     30  C   UNL A   1      34.099  29.393  28.001  1.00  0.00     0.014 A 
ATOM     31  C   UNL A   1      34.875  31.658  27.626  1.00  0.00     0.014 A 
ATOM     32  C   UNL A   1      35.221  29.146  28.795  1.00  0.00     0.010 A 
ATOM     33  C   UNL A   1      36.028  31.388  28.360  1.00  0.00     0.010 A 
ATOM     34  C   UNL A   1      36.213  30.129  28.952  1.00  0.00    -0.014 A 
BRANCH  34  35
ATOM     35  C   UNL A   1      37.446  29.853  29.734  1.00  0.00     0.031 A 
ATOM     36  C   UNL A   1      38.518  28.962  29.169  1.00  0.00     0.074 A 
ATOM     37  C   UNL A   1      37.574  30.364  30.976  1.00  0.00     0.049 A 
ATOM     38  N   UNL A   1      39.643  28.573  29.711  1.00  0.00    -0.248 NA
ATOM     39  C   UNL A   1      38.275  28.410  27.828  1.00  0.00     0.031 C 
ATOM     40  C   UNL A   1      36.578  31.199  31.651  1.00  0.00     0.029 A 
ATOM     41  N   UNL A   1      38.590  30.256  31.891  1.00  0.00    -0.354 N 
ATOM     42  C   UNL A   1      40.239  27.726  28.783  1.00  0.00     0.074 A 
ATOM     43  C   UNL A   1      39.316  27.606  27.674  1.00  0.00     0.031 C 
ATOM     44  C   UNL A   1      37.044  31.549  32.861  1.00  0.00     0.029 A 
ATOM     45  C   UNL A   1      38.353  30.936  33.064  1.00  0.00     0.049 A 
ATOM     46  H   UNL A   1      39.412  29.740  31.725  1.00  0.00     0.167 HD
ATOM     47  C   UNL A   1      41.455  27.125  28.839  1.00  0.00     0.034 A 
ATOM     48  C   UNL A   1      39.105  31.050  34.177  1.00  0.00     0.034 A 
ATOM     49  C   UNL A   1      42.367  27.265  29.948  1.00  0.00     0.049 A 
ATOM     50  C   UNL A   1      40.449  30.369  34.218  1.00  0.00     0.074 A 
ATOM     51  C   UNL A   1      43.643  26.747  30.086  1.00  0.00     0.029 A 
ATOM     52  N   UNL A   1      42.098  27.970  31.116  1.00  0.00    -0.354 N 
ATOM     53  N   UNL A   1      41.025  29.620  33.306  1.00  0.00    -0.248 NA
ATOM     54  C   UNL A   1      41.250  30.563  35.434  1.00  0.00     0.031 C 
ATOM     55  C   UNL A   1      44.120  27.084  31.360  1.00  0.00     0.029 A 
ATOM     56  C   UNL A   1      43.172  27.875  31.989  1.00  0.00     0.049 A 
ATOM     57  H   UNL A   1      41.266  28.463  31.297  1.00  0.00     0.167 HD
ATOM     58  C   UNL A   1      42.270  29.279  33.828  1.00  0.00     0.074 A 
ATOM     59  C   UNL A   1      42.365  29.919  35.124  1.00  0.00     0.031 C 
ATOM     60  C   UNL A   1      43.248  28.509  33.285  1.00  0.00     0.034 A 
BRANCH  47  61
ATOM     61  C   UNL A   1      41.848  26.249  27.673  1.00  0.00     0.023 A 
ATOM     62  C   UNL A   1      41.500  24.887  27.622  1.00  0.00     0.031 A 
ATOM     63  C   UNL A   1      42.608  26.772  26.611  1.00  0.00     0.131 A 
ATOM     64  C   UNL A   1      41.977  24.080  26.579  1.00  0.00     0.055 A 
ATOM     65  C   UNL A   1      43.008  25.981  25.532  1.00  0.00     0.041 A 
ATOM     66  F   UNL A   1      42.989  28.059  26.611  1.00  0.00    -0.206 F 
ATOM     67  C   UNL A   1      42.707  24.623  25.520  1.00  0.00     0.022 A 
BRANCH  64  68
ATOM     68  S   UNL A   1      41.756  22.284  26.706  1.00  0.00     0.124 S 
ATOM     69  O   UNL A   1      42.174  21.841  25.377  1.00  0.00    -0.237 OA
ATOM     70  O   UNL A   1      42.646  21.933  27.807  1.00  0.00    -0.237 OA
ATOM     71  O   UNL A   1      40.329  22.132  26.984  1.00  0.00    -0.744 OA
ENDBRANCH  64  68
ENDBRANCH  47  61
BRANCH  48  72
ATOM     72  C   UNL A   1      38.614  31.838  35.343  1.00  0.00     0.023 A 
ATOM     73  C   UNL A   1      38.152  31.199  36.506  1.00  0.00     0.031 A 
ATOM     74  C   UNL A   1      38.558  33.242  35.297  1.00  0.00     0.131 A 
ATOM     75  C   UNL A   1      37.609  31.959  37.554  1.00  0.00     0.055 A 
ATOM     76  C   UNL A   1      38.067  33.997  36.364  1.00  0.00     0.041 A 
ATOM     77  F   UNL A   1      38.995  33.903  34.213  1.00  0.00    -0.206 F 
ATOM     78  C   UNL A   1      37.575  33.354  37.496  1.00  0.00     0.022 A 
BRANCH  75  79
ATOM     79  S   UNL A   1      36.871  31.089  38.963  1.00  0.00     0.124 S 
ATOM     80  O   UNL A   1      36.811  29.718  38.469  1.00  0.00    -0.237 OA
ATOM     81  O   UNL A   1      37.841  31.349  40.022  1.00  0.00    -0.237 OA
ATOM     82  O   UNL A   1      35.577  31.750  39.130  1.00  0.00    -0.744 OA
ENDBRANCH  75  79
ENDBRANCH  48  72
BRANCH  60  83
ATOM     83  C   UNL A   1      44.521  28.359  34.082  1.00  0.00     0.023 A 
ATOM     84  C   UNL A   1      44.696  27.314  35.006  1.00  0.00     0.031 A 
ATOM     85  C   UNL A   1      45.563  29.290  33.931  1.00  0.00     0.131 A 
ATOM     86  C   UNL A   1      45.860  27.261  35.788  1.00  0.00     0.055 A 
ATOM     87  C   UNL A   1      46.745  29.196  34.666  1.00  0.00     0.041 A 
ATOM     88  F   UNL A   1      45.449  30.310  33.064  1.00  0.00    -0.206 F 
ATOM     89  C   UNL A   1      46.892  28.186  35.612  1.00  0.00     0.022 A 
BRANCH  86  90
ATOM     90  S   UNL A   1      45.963  26.025  37.112  1.00  0.00     0.124 S 
ATOM     91  O   UNL A   1      47.009  26.580  37.965  1.00  0.00    -0.237 OA
ATOM     92  O   UNL A   1      44.612  26.045  37.663  1.00  0.00    -0.237 OA
ATOM     93  O   UNL A   1      46.325  24.797  36.406  1.00  0.00    -0.744 OA
ENDBRANCH  86  90
ENDBRANCH  60  83
ENDBRANCH  34  35
ENDBRANCH  26  29
ENDBRANCH  24  25
ENDBRANCH   1  24
TORSDOF 16
ENDMDL
MODEL 3
REMARK VINA RESULT:     -11.4      4.276      9.737
REMARK SMILES C[C@@H]1CCCN(c2cc(Br)ccc2/C=C/C(=O)NCCCCNC(=O)c2ccc(-c3c4nc(c(-c5cc(S(=O)(=O)[O-])ccc5F)c5ccc([nH]5)c(-c5cc(S(=O)(=O)[O-])ccc5F)c5nc(c(-c6cc(S(=O)(=O)[O-])ccc6F)c6ccc3[nH]6)C=C5)C=C4)cc2)C1
REMARK SMILES IDX 21 1 20 2 19 3 18 4 16 5 17 6 15 8 14 9 13 10 7 11 8 12 9 13
REMARK SMILES IDX 12 14 10 15 11 16 6 17 1 18 2 19 3 20 89 21 4 22 5 23 22 24
REMARK SMILES IDX 23 25 24 26 25 28 26 29 27 30 88 31 28 32 87 33 29 34 30 35
REMARK SMILES IDX 31 36 81 37 32 38 86 39 80 40 82 41 33 42 85 43 79 44 78 45
REMARK SMILES IDX 34 47 66 48 46 49 65 50 47 51 50 52 64 53 83 54 48 55 49 56
REMARK SMILES IDX 63 58 84 59 51 60 35 61 36 62 44 63 37 64 43 65 45 66 42 67
REMARK SMILES IDX 38 68 39 69 40 70 41 71 67 72 68 73 76 74 69 75 75 76 77 77
REMARK SMILES IDX 74 78 70 79 71 80 72 81 73 82 52 83 53 84 61 85 54 86 60 87
REMARK SMILES IDX 62 88 59 89 55 90 56 91 57 92 58 93
REMARK H PARENT 18 7 23 27 82 46 50 57
REMARK Flexibility Score: inf
ROOT
ATOM      1  C   UNL A   1      33.976  27.571  26.505  1.00  0.00     0.023 C 
ENDROOT
BRANCH   1   2
ATOM      2  C   UNL A   1      32.559  27.057  26.246  1.00  0.00     0.023 C 
BRANCH   2   3
ATOM      3  C   UNL A   1      32.449  25.533  26.181  1.00  0.00     0.116 C 
BRANCH   3   4
ATOM      4  N   UNL A   1      31.139  25.089  26.606  1.00  0.00    -0.353 N 
ATOM      5  C   UNL A   1      30.681  23.827  26.822  1.00  0.00     0.244 C 
ATOM      6  O   UNL A   1      29.553  23.651  27.276  1.00  0.00    -0.270 OA
ATOM      7  H   UNL A   1      30.482  25.806  26.761  1.00  0.00     0.163 HD
BRANCH   5   8
ATOM      8  C   UNL A   1      31.561  22.653  26.609  1.00  0.00     0.072 C 
ATOM      9  C   UNL A   1      31.797  22.076  25.420  1.00  0.00     0.016 C 
BRANCH   9  10
ATOM     10  C   UNL A   1      32.621  20.863  25.239  1.00  0.00    -0.002 A 
ATOM     11  C   UNL A   1      33.987  20.946  24.866  1.00  0.00     0.045 A 
ATOM     12  C   UNL A   1      34.684  19.751  24.616  1.00  0.00     0.042 A 
ATOM     13  C   UNL A   1      34.056  18.511  24.723  1.00  0.00     0.020 A 
ATOM     14  C   UNL A   1      32.001  19.601  25.323  1.00  0.00     0.011 A 
ATOM     15  Br  UNL A   1      35.031  16.929  24.377  1.00  0.00    -0.051 Br
ATOM     16  C   UNL A   1      32.715  18.430  25.074  1.00  0.00     0.016 A 
BRANCH  11  17
ATOM     17  N   UNL A   1      34.661  22.150  24.741  1.00  0.00    -0.371 N 
ATOM     18  C   UNL A   1      37.658  23.603  26.584  1.00  0.00     0.009 C 
ATOM     19  C   UNL A   1      36.897  22.881  25.472  1.00  0.00     0.005 C 
ATOM     20  C   UNL A   1      37.020  23.656  24.150  1.00  0.00     0.007 C 
ATOM     21  C   UNL A   1      35.421  22.695  25.861  1.00  0.00     0.119 C 
ATOM     22  C   UNL A   1      36.214  22.981  23.043  1.00  0.00     0.022 C 
ATOM     23  C   UNL A   1      34.752  22.813  23.447  1.00  0.00     0.116 C 
ENDBRANCH  11  17
ENDBRANCH   9  10
ENDBRANCH   5   8
ENDBRANCH   3   4
ENDBRANCH   2   3
ENDBRANCH   1   2
BRANCH   1  24
ATOM     24  C   UNL A   1      34.337  28.861  25.772  1.00  0.00     0.116 C 
BRANCH  24  25
ATOM     25  N   UNL A   1      33.779  30.053  26.391  1.00  0.00    -0.352 N 
ATOM     26  C   UNL A   1      34.270  30.776  27.454  1.00  0.00     0.251 C 
ATOM     27  H   UNL A   1      32.941  30.385  25.998  1.00  0.00     0.163 HD
ATOM     28  O   UNL A   1      33.611  31.694  27.920  1.00  0.00    -0.269 OA
BRANCH  26  29
ATOM     29  C   UNL A   1      35.571  30.398  28.049  1.00  0.00     0.039 A 
ATOM     30  C   UNL A   1      35.579  29.731  29.275  1.00  0.00     0.014 A 
ATOM     31  C   UNL A   1      36.772  30.673  27.389  1.00  0.00     0.014 A 
ATOM     32  C   UNL A   1      36.789  29.282  29.809  1.00  0.00     0.010 A 
ATOM     33  C   UNL A   1      37.969  30.163  27.887  1.00  0.00     0.010 A 
ATOM     34  C   UNL A   1      37.990  29.462  29.102  1.00  0.00    -0.014 A 
BRANCH  34  35
ATOM     35  C   UNL A   1      39.273  28.925  29.625  1.00  0.00     0.031 A 
ATOM     36  C   UNL A   1      39.950  29.585  30.795  1.00  0.00     0.074 A 
ATOM     37  C   UNL A   1      39.853  27.874  29.011  1.00  0.00     0.049 A 
ATOM     38  N   UNL A   1      41.087  29.289  31.370  1.00  0.00    -0.248 NA
ATOM     39  C   UNL A   1      39.270  30.754  31.374  1.00  0.00     0.031 C 
ATOM     40  C   UNL A   1      39.318  27.183  27.835  1.00  0.00     0.029 A 
ATOM     41  N   UNL A   1      41.019  27.204  29.286  1.00  0.00    -0.354 N 
ATOM     42  C   UNL A   1      41.264  30.236  32.372  1.00  0.00     0.074 A 
ATOM     43  C   UNL A   1      40.150  31.156  32.279  1.00  0.00     0.031 C 
ATOM     44  C   UNL A   1      40.138  26.172  27.507  1.00  0.00     0.029 A 
ATOM     45  C   UNL A   1      41.275  26.163  28.423  1.00  0.00     0.049 A 
ATOM     46  H   UNL A   1      41.615  27.446  30.030  1.00  0.00     0.167 HD
ATOM     47  C   UNL A   1      42.251  30.317  33.300  1.00  0.00     0.034 A 
ATOM     48  C   UNL A   1      42.310  25.301  28.375  1.00  0.00     0.034 A 
ATOM     49  C   UNL A   1      43.349  29.385  33.385  1.00  0.00     0.049 A 
ATOM     50  C   UNL A   1      43.398  25.413  29.413  1.00  0.00     0.074 A 
ATOM     51  C   UNL A   1      44.373  29.339  34.315  1.00  0.00     0.029 A 
ATOM     52  N   UNL A   1      43.573  28.336  32.500  1.00  0.00    -0.354 N 
ATOM     53  N   UNL A   1      43.519  26.279  30.393  1.00  0.00    -0.248 NA
ATOM     54  C   UNL A   1      44.478  24.422  29.346  1.00  0.00     0.031 C 
ATOM     55  C   UNL A   1      45.247  28.305  33.958  1.00  0.00     0.029 A 
ATOM     56  C   UNL A   1      44.731  27.657  32.847  1.00  0.00     0.049 A 
ATOM     57  H   UNL A   1      42.993  28.109  31.738  1.00  0.00     0.167 HD
ATOM     58  C   UNL A   1      44.676  25.916  31.077  1.00  0.00     0.074 A 
ATOM     59  C   UNL A   1      45.202  24.743  30.409  1.00  0.00     0.031 C 
ATOM     60  C   UNL A   1      45.251  26.496  32.163  1.00  0.00     0.034 A 
BRANCH  47  61
ATOM     61  C   UNL A   1      42.189  31.466  34.278  1.00  0.00     0.023 A 
ATOM     62  C   UNL A   1      41.325  31.445  35.388  1.00  0.00     0.031 A 
ATOM     63  C   UNL A   1      42.980  32.613  34.085  1.00  0.00     0.131 A 
ATOM     64  C   UNL A   1      41.213  32.575  36.212  1.00  0.00     0.055 A 
ATOM     65  C   UNL A   1      42.925  33.701  34.958  1.00  0.00     0.041 A 
ATOM     66  F   UNL A   1      43.810  32.702  33.034  1.00  0.00    -0.206 F 
ATOM     67  C   UNL A   1      42.026  33.694  36.020  1.00  0.00     0.022 A 
BRANCH  64  68
ATOM     68  S   UNL A   1      39.882  32.618  37.444  1.00  0.00     0.124 S 
ATOM     69  O   UNL A   1      40.622  32.395  38.685  1.00  0.00    -0.237 OA
ATOM     70  O   UNL A   1      39.326  33.954  37.262  1.00  0.00    -0.237 OA
ATOM     71  O   UNL A   1      39.008  31.517  37.044  1.00  0.00    -0.744 OA
ENDBRANCH  64  68
ENDBRANCH  47  61
BRANCH  48  72
ATOM     72  C   UNL A   1      42.374  24.255  27.315  1.00  0.00     0.023 A 
ATOM     73  C   UNL A   1      41.626  23.071  27.421  1.00  0.00     0.031 A 
ATOM     74  C   UNL A   1      43.218  24.403  26.201  1.00  0.00     0.131 A 
ATOM     75  C   UNL A   1      41.773  22.061  26.457  1.00  0.00     0.055 A 
ATOM     76  C   UNL A   1      43.320  23.419  25.216  1.00  0.00     0.041 A 
ATOM     77  F   UNL A   1      43.948  25.519  26.046  1.00  0.00    -0.206 F 
ATOM     78  C   UNL A   1      42.605  22.232  25.349  1.00  0.00     0.022 A 
BRANCH  75  79
ATOM     79  S   UNL A   1      40.919  20.482  26.718  1.00  0.00     0.124 S 
ATOM     80  O   UNL A   1      39.641  20.722  26.059  1.00  0.00    -0.237 OA
ATOM     81  O   UNL A   1      41.816  19.540  26.057  1.00  0.00    -0.237 OA
ATOM     82  O   UNL A   1      40.860  20.365  28.174  1.00  0.00    -0.744 OA
ENDBRANCH  75  79
ENDBRANCH  48  72
BRANCH  60  83
ATOM     83  C   UNL A   1      46.491  25.835  32.713  1.00  0.00     0.023 A 
ATOM     84  C   UNL A   1      47.759  26.054  32.146  1.00  0.00     0.031 A 
ATOM     85  C   UNL A   1      46.398  24.957  33.806  1.00  0.00     0.131 A 
ATOM     86  C   UNL A   1      48.873  25.354  32.634  1.00  0.00     0.055 A 
ATOM     87  C   UNL A   1      47.519  24.311  34.328  1.00  0.00     0.041 A 
ATOM     88  F   UNL A   1      45.212  24.709  34.385  1.00  0.00    -0.206 F 
ATOM     89  C   UNL A   1      48.764  24.496  33.732  1.00  0.00     0.022 A 
BRANCH  86  90
ATOM     90  S   UNL A   1      50.450  25.501  31.749  1.00  0.00     0.124 S 
ATOM     91  O   UNL A   1      50.070  26.293  30.584  1.00  0.00    -0.237 OA
ATOM     92  O   UNL A   1      51.296  26.174  32.729  1.00  0.00    -0.237 OA
ATOM     93  O   UNL A   1      50.814  24.115  31.464  1.00  0.00    -0.744 OA
ENDBRANCH  86  90
ENDBRANCH  60  83
ENDBRANCH  34  35
ENDBRANCH  26  29
ENDBRANCH  24  25
ENDBRANCH   1  24
TORSDOF 16
ENDMDL
