MODEL 1
REMARK VINA RESULT:      -9.9      0.000      0.000
REMARK SMILES CCN(CCOC)C(=O)c1cccn1CC(=O)NCCCCNC(=O)c1ccc(-c2c3nc(c(-c4cc(S(=O)(=O)[O-])ccc4F)c4ccc([nH]4)c(-c4cc(S(=O)(=O)[O-])ccc4F)c4nc(c(-c5cc(S(=O)(=O)[O-])ccc5F)c5ccc2[nH]5)C=C4)C=C3)cc1
REMARK SMILES IDX 19 1 18 2 16 3 17 4 15 6 14 7 10 8 11 9 12 10 13 11 8 12
REMARK SMILES IDX 9 13 3 14 2 15 1 16 4 17 5 18 6 19 7 20 20 21 21 22 22 23
REMARK SMILES IDX 23 24 24 25 25 27 26 28 27 29 88 30 28 31 87 32 29 33 30 34
REMARK SMILES IDX 31 35 81 36 32 37 86 38 80 39 82 40 33 41 85 42 79 43 78 44
REMARK SMILES IDX 34 46 66 47 46 48 65 49 47 50 50 51 64 52 83 53 48 54 49 55
REMARK SMILES IDX 63 57 84 58 51 59 35 60 36 61 44 62 37 63 43 64 45 65 42 66
REMARK SMILES IDX 38 67 39 68 40 69 41 70 67 71 68 72 76 73 69 74 75 75 77 76
REMARK SMILES IDX 74 77 70 78 71 79 72 80 73 81 52 82 53 83 61 84 54 85 60 86
REMARK SMILES IDX 62 87 59 88 55 89 56 90 57 91 58 92
REMARK H PARENT 18 5 23 26 82 45 50 56
REMARK Flexibility Score: inf
ROOT
ATOM      1  C   UNL A   1      33.585  28.164  25.185  1.00  0.00     0.116 C 
ENDROOT
BRANCH   1   2
ATOM      2  N   UNL A   1      34.035  28.266  23.810  1.00  0.00    -0.355 N 
ATOM      3  C   UNL A   1      33.546  27.637  22.697  1.00  0.00     0.239 C 
ATOM      4  O   UNL A   1      34.112  27.831  21.618  1.00  0.00    -0.273 OA
ATOM      5  H   UNL A   1      34.797  28.871  23.656  1.00  0.00     0.163 HD
BRANCH   3   6
ATOM      6  C   UNL A   1      32.324  26.740  22.798  1.00  0.00     0.222 C 
BRANCH   6   7
ATOM      7  N   UNL A   1      32.621  25.372  22.394  1.00  0.00    -0.334 N 
ATOM      8  C   UNL A   1      32.810  24.275  23.232  1.00  0.00     0.107 A 
ATOM      9  C   UNL A   1      33.240  23.253  22.393  1.00  0.00     0.033 A 
ATOM     10  C   UNL A   1      33.237  23.708  21.056  1.00  0.00     0.020 A 
ATOM     11  C   UNL A   1      32.805  25.008  21.081  1.00  0.00     0.087 A 
BRANCH   8  12
ATOM     12  C   UNL A   1      32.511  24.304  24.666  1.00  0.00     0.270 C 
ATOM     13  O   UNL A   1      31.408  24.702  25.043  1.00  0.00    -0.267 OA
BRANCH  12  14
ATOM     14  N   UNL A   1      33.473  23.947  25.625  1.00  0.00    -0.335 N 
BRANCH  14  15
ATOM     15  C   UNL A   1      34.714  24.737  25.678  1.00  0.00     0.116 C 
ATOM     16  C   UNL A   1      35.946  23.976  25.203  1.00  0.00     0.027 C 
ENDBRANCH  14  15
BRANCH  14  17
ATOM     17  C   UNL A   1      33.290  22.973  26.705  1.00  0.00     0.148 C 
BRANCH  17  18
ATOM     18  C   UNL A   1      33.991  21.625  26.429  1.00  0.00     0.181 C 
BRANCH  18  19
ATOM     19  O   UNL A   1      33.639  21.042  25.174  1.00  0.00    -0.383 OA
ATOM     20  C   UNL A   1      32.279  20.638  25.069  1.00  0.00     0.194 C 
ENDBRANCH  18  19
ENDBRANCH  17  18
ENDBRANCH  14  17
ENDBRANCH  12  14
ENDBRANCH   8  12
ENDBRANCH   6   7
ENDBRANCH   3   6
ENDBRANCH   1   2
BRANCH   1  21
ATOM     21  C   UNL A   1      32.418  29.108  25.479  1.00  0.00     0.023 C 
BRANCH  21  22
ATOM     22  C   UNL A   1      32.486  29.796  26.848  1.00  0.00     0.023 C 
BRANCH  22  23
ATOM     23  C   UNL A   1      33.855  29.704  27.524  1.00  0.00     0.116 C 
BRANCH  23  24
ATOM     24  N   UNL A   1      34.158  30.917  28.267  1.00  0.00    -0.352 N 
ATOM     25  C   UNL A   1      35.208  31.171  29.116  1.00  0.00     0.251 C 
ATOM     26  H   UNL A   1      33.522  31.658  28.145  1.00  0.00     0.163 HD
ATOM     27  O   UNL A   1      35.102  32.066  29.945  1.00  0.00    -0.269 OA
BRANCH  25  28
ATOM     28  C   UNL A   1      36.453  30.378  29.046  1.00  0.00     0.039 A 
ATOM     29  C   UNL A   1      37.204  30.428  27.866  1.00  0.00     0.014 A 
ATOM     30  C   UNL A   1      36.831  29.527  30.092  1.00  0.00     0.014 A 
ATOM     31  C   UNL A   1      38.372  29.680  27.761  1.00  0.00     0.010 A 
ATOM     32  C   UNL A   1      38.004  28.778  29.989  1.00  0.00     0.010 A 
ATOM     33  C   UNL A   1      38.788  28.874  28.833  1.00  0.00    -0.014 A 
BRANCH  33  34
ATOM     34  C   UNL A   1      40.181  28.357  28.816  1.00  0.00     0.031 A 
ATOM     35  C   UNL A   1      41.180  29.525  29.081  1.00  0.00     0.074 A 
ATOM     36  C   UNL A   1      40.362  27.023  28.539  1.00  0.00     0.049 A 
ATOM     37  N   UNL A   1      42.376  29.737  28.624  1.00  0.00    -0.248 NA
ATOM     38  C   UNL A   1      40.729  30.697  29.895  1.00  0.00     0.031 C 
ATOM     39  C   UNL A   1      39.271  26.029  28.366  1.00  0.00     0.029 A 
ATOM     40  N   UNL A   1      41.470  26.215  28.349  1.00  0.00    -0.354 N 
ATOM     41  C   UNL A   1      42.901  30.880  29.289  1.00  0.00     0.074 A 
ATOM     42  C   UNL A   1      41.786  31.512  29.917  1.00  0.00     0.031 C 
ATOM     43  C   UNL A   1      39.757  24.811  28.018  1.00  0.00     0.029 A 
ATOM     44  C   UNL A   1      41.205  24.866  27.942  1.00  0.00     0.049 A 
ATOM     45  H   UNL A   1      42.387  26.548  28.484  1.00  0.00     0.167 HD
ATOM     46  C   UNL A   1      44.244  31.119  29.425  1.00  0.00     0.034 A 
ATOM     47  C   UNL A   1      42.088  23.888  27.538  1.00  0.00     0.034 A 
ATOM     48  C   UNL A   1      44.962  30.079  28.769  1.00  0.00     0.049 A 
ATOM     49  C   UNL A   1      43.402  24.485  27.809  1.00  0.00     0.074 A 
ATOM     50  C   UNL A   1      45.097  29.728  27.454  1.00  0.00     0.029 A 
ATOM     51  N   UNL A   1      45.370  29.032  29.564  1.00  0.00    -0.354 N 
ATOM     52  N   UNL A   1      43.927  24.610  28.989  1.00  0.00    -0.248 NA
ATOM     53  C   UNL A   1      44.166  25.043  26.686  1.00  0.00     0.031 C 
ATOM     54  C   UNL A   1      45.030  28.323  27.514  1.00  0.00     0.029 A 
ATOM     55  C   UNL A   1      45.153  27.892  28.844  1.00  0.00     0.049 A 
ATOM     56  H   UNL A   1      45.744  29.092  30.473  1.00  0.00     0.167 HD
ATOM     57  C   UNL A   1      44.906  25.544  28.772  1.00  0.00     0.074 A 
ATOM     58  C   UNL A   1      45.222  25.491  27.359  1.00  0.00     0.031 C 
ATOM     59  C   UNL A   1      44.948  26.650  29.556  1.00  0.00     0.034 A 
BRANCH  46  60
ATOM     60  C   UNL A   1      45.074  32.013  30.325  1.00  0.00     0.023 A 
ATOM     61  C   UNL A   1      45.899  32.963  29.661  1.00  0.00     0.031 A 
ATOM     62  C   UNL A   1      45.372  31.781  31.672  1.00  0.00     0.131 A 
ATOM     63  C   UNL A   1      47.062  33.472  30.250  1.00  0.00     0.055 A 
ATOM     64  C   UNL A   1      46.492  32.365  32.292  1.00  0.00     0.041 A 
ATOM     65  F   UNL A   1      44.658  30.929  32.417  1.00  0.00    -0.206 F 
ATOM     66  C   UNL A   1      47.370  33.173  31.569  1.00  0.00     0.022 A 
BRANCH  63  67
ATOM     67  S   UNL A   1      48.251  34.338  29.182  1.00  0.00     0.124 S 
ATOM     68  O   UNL A   1      48.587  35.507  29.987  1.00  0.00    -0.237 OA
ATOM     69  O   UNL A   1      49.307  33.342  29.031  1.00  0.00    -0.237 OA
ATOM     70  O   UNL A   1      47.481  34.614  27.972  1.00  0.00    -0.744 OA
ENDBRANCH  63  67
ENDBRANCH  46  60
BRANCH  47  71
ATOM     71  C   UNL A   1      42.155  22.496  26.889  1.00  0.00     0.023 A 
ATOM     72  C   UNL A   1      43.278  21.847  26.343  1.00  0.00     0.031 A 
ATOM     73  C   UNL A   1      40.962  21.692  26.872  1.00  0.00     0.131 A 
ATOM     74  C   UNL A   1      43.185  20.480  25.918  1.00  0.00     0.055 A 
ATOM     75  C   UNL A   1      40.903  20.336  26.554  1.00  0.00     0.041 A 
ATOM     76  F   UNL A   1      39.753  22.190  27.160  1.00  0.00    -0.206 F 
ATOM     77  C   UNL A   1      42.029  19.713  26.087  1.00  0.00     0.022 A 
BRANCH  74  78
ATOM     78  S   UNL A   1      44.574  19.616  25.115  1.00  0.00     0.124 S 
ATOM     79  O   UNL A   1      44.102  19.500  23.739  1.00  0.00    -0.237 OA
ATOM     80  O   UNL A   1      45.697  20.519  25.338  1.00  0.00    -0.237 OA
ATOM     81  O   UNL A   1      44.650  18.351  25.848  1.00  0.00    -0.744 OA
ENDBRANCH  74  78
ENDBRANCH  47  71
BRANCH  59  82
ATOM     82  C   UNL A   1      44.362  26.473  30.955  1.00  0.00     0.023 A 
ATOM     83  C   UNL A   1      43.288  27.283  31.376  1.00  0.00     0.031 A 
ATOM     84  C   UNL A   1      44.895  25.612  31.932  1.00  0.00     0.131 A 
ATOM     85  C   UNL A   1      42.816  27.239  32.704  1.00  0.00     0.055 A 
ATOM     86  C   UNL A   1      44.424  25.559  33.252  1.00  0.00     0.041 A 
ATOM     87  F   UNL A   1      45.912  24.799  31.647  1.00  0.00    -0.206 F 
ATOM     88  C   UNL A   1      43.379  26.379  33.647  1.00  0.00     0.022 A 
BRANCH  85  89
ATOM     89  S   UNL A   1      41.434  28.310  33.192  1.00  0.00     0.124 S 
ATOM     90  O   UNL A   1      40.412  27.985  32.205  1.00  0.00    -0.237 OA
ATOM     91  O   UNL A   1      41.165  27.877  34.559  1.00  0.00    -0.237 OA
ATOM     92  O   UNL A   1      41.993  29.659  33.078  1.00  0.00    -0.744 OA
ENDBRANCH  85  89
ENDBRANCH  59  82
ENDBRANCH  33  34
ENDBRANCH  25  28
ENDBRANCH  23  24
ENDBRANCH  22  23
ENDBRANCH  21  22
ENDBRANCH   1  21
TORSDOF 21
ENDMDL
MODEL 2
REMARK VINA RESULT:      -9.7      1.914      2.540
REMARK SMILES CCN(CCOC)C(=O)c1cccn1CC(=O)NCCCCNC(=O)c1ccc(-c2c3nc(c(-c4cc(S(=O)(=O)[O-])ccc4F)c4ccc([nH]4)c(-c4cc(S(=O)(=O)[O-])ccc4F)c4nc(c(-c5cc(S(=O)(=O)[O-])ccc5F)c5ccc2[nH]5)C=C4)C=C3)cc1
REMARK SMILES IDX 19 1 18 2 16 3 17 4 15 6 14 7 10 8 11 9 12 10 13 11 8 12
REMARK SMILES IDX 9 13 3 14 2 15 1 16 4 17 5 18 6 19 7 20 20 21 21 22 22 23
REMARK SMILES IDX 23 24 24 25 25 27 26 28 27 29 88 30 28 31 87 32 29 33 30 34
REMARK SMILES IDX 31 35 81 36 32 37 86 38 80 39 82 40 33 41 85 42 79 43 78 44
REMARK SMILES IDX 34 46 66 47 46 48 65 49 47 50 50 51 64 52 83 53 48 54 49 55
REMARK SMILES IDX 63 57 84 58 51 59 35 60 36 61 44 62 37 63 43 64 45 65 42 66
REMARK SMILES IDX 38 67 39 68 40 69 41 70 67 71 68 72 76 73 69 74 75 75 77 76
REMARK SMILES IDX 74 77 70 78 71 79 72 80 73 81 52 82 53 83 61 84 54 85 60 86
REMARK SMILES IDX 62 87 59 88 55 89 56 90 57 91 58 92
REMARK H PARENT 18 5 23 26 82 45 50 56
REMARK Flexibility Score: inf
ROOT
ATOM      1  C   UNL A   1      32.117  27.906  26.463  1.00  0.00     0.116 C 
ENDROOT
BRANCH   1   2
ATOM      2  N   UNL A   1      31.626  28.765  25.403  1.00  0.00    -0.355 N 
ATOM      3  C   UNL A   1      30.867  28.435  24.313  1.00  0.00     0.239 C 
ATOM      4  O   UNL A   1      30.595  29.321  23.498  1.00  0.00    -0.273 OA
ATOM      5  H   UNL A   1      31.873  29.715  25.477  1.00  0.00     0.163 HD
BRANCH   3   6
ATOM      6  C   UNL A   1      30.361  27.014  24.132  1.00  0.00     0.222 C 
BRANCH   6   7
ATOM      7  N   UNL A   1      31.234  26.234  23.264  1.00  0.00    -0.334 N 
ATOM      8  C   UNL A   1      31.935  25.079  23.603  1.00  0.00     0.107 A 
ATOM      9  C   UNL A   1      32.751  24.820  22.507  1.00  0.00     0.033 A 
ATOM     10  C   UNL A   1      32.488  25.766  21.490  1.00  0.00     0.020 A 
ATOM     11  C   UNL A   1      31.512  26.599  21.967  1.00  0.00     0.087 A 
BRANCH   8  12
ATOM     12  C   UNL A   1      31.712  24.346  24.851  1.00  0.00     0.270 C 
ATOM     13  O   UNL A   1      30.610  24.409  25.398  1.00  0.00    -0.267 OA
BRANCH  12  14
ATOM     14  N   UNL A   1      32.743  23.623  25.473  1.00  0.00    -0.335 N 
BRANCH  14  15
ATOM     15  C   UNL A   1      32.793  22.170  25.250  1.00  0.00     0.116 C 
ATOM     16  C   UNL A   1      33.298  21.382  26.452  1.00  0.00     0.027 C 
ENDBRANCH  14  15
BRANCH  14  17
ATOM     17  C   UNL A   1      33.890  24.199  26.183  1.00  0.00     0.148 C 
BRANCH  17  18
ATOM     18  C   UNL A   1      35.211  24.085  25.391  1.00  0.00     0.181 C 
BRANCH  18  19
ATOM     19  O   UNL A   1      36.261  23.446  26.119  1.00  0.00    -0.383 OA
ATOM     20  C   UNL A   1      37.573  23.815  25.711  1.00  0.00     0.194 C 
ENDBRANCH  18  19
ENDBRANCH  17  18
ENDBRANCH  14  17
ENDBRANCH  12  14
ENDBRANCH   8  12
ENDBRANCH   6   7
ENDBRANCH   3   6
ENDBRANCH   1   2
BRANCH   1  21
ATOM     21  C   UNL A   1      32.981  28.671  27.467  1.00  0.00     0.023 C 
BRANCH  21  22
ATOM     22  C   UNL A   1      34.205  29.362  26.854  1.00  0.00     0.023 C 
BRANCH  22  23
ATOM     23  C   UNL A   1      35.483  29.214  27.682  1.00  0.00     0.116 C 
BRANCH  23  24
ATOM     24  N   UNL A   1      35.844  30.468  28.324  1.00  0.00    -0.352 N 
ATOM     25  C   UNL A   1      36.991  30.790  29.007  1.00  0.00     0.251 C 
ATOM     26  H   UNL A   1      35.172  31.184  28.260  1.00  0.00     0.163 HD
ATOM     27  O   UNL A   1      36.969  31.720  29.805  1.00  0.00    -0.269 OA
BRANCH  25  28
ATOM     28  C   UNL A   1      38.241  30.030  28.798  1.00  0.00     0.039 A 
ATOM     29  C   UNL A   1      38.642  29.764  27.485  1.00  0.00     0.014 A 
ATOM     30  C   UNL A   1      38.963  29.510  29.880  1.00  0.00     0.014 A 
ATOM     31  C   UNL A   1      39.805  29.036  27.253  1.00  0.00     0.010 A 
ATOM     32  C   UNL A   1      40.131  28.782  29.649  1.00  0.00     0.010 A 
ATOM     33  C   UNL A   1      40.565  28.567  28.336  1.00  0.00    -0.014 A 
BRANCH  33  34
ATOM     34  C   UNL A   1      41.946  28.089  28.062  1.00  0.00     0.031 A 
ATOM     35  C   UNL A   1      42.930  29.299  28.053  1.00  0.00     0.074 A 
ATOM     36  C   UNL A   1      42.120  26.746  27.827  1.00  0.00     0.049 A 
ATOM     37  N   UNL A   1      43.999  29.516  27.350  1.00  0.00    -0.248 NA
ATOM     38  C   UNL A   1      42.606  30.505  28.877  1.00  0.00     0.031 C 
ATOM     39  C   UNL A   1      41.057  25.713  27.936  1.00  0.00     0.029 A 
ATOM     40  N   UNL A   1      43.198  25.960  27.458  1.00  0.00    -0.354 N 
ATOM     41  C   UNL A   1      44.602  30.712  27.829  1.00  0.00     0.074 A 
ATOM     42  C   UNL A   1      43.613  31.350  28.637  1.00  0.00     0.031 C 
ATOM     43  C   UNL A   1      41.511  24.490  27.563  1.00  0.00     0.029 A 
ATOM     44  C   UNL A   1      42.910  24.581  27.188  1.00  0.00     0.049 A 
ATOM     45  H   UNL A   1      44.109  26.326  27.384  1.00  0.00     0.167 HD
ATOM     46  C   UNL A   1      45.933  30.996  27.674  1.00  0.00     0.034 A 
ATOM     47  C   UNL A   1      43.732  23.606  26.666  1.00  0.00     0.034 A 
ATOM     48  C   UNL A   1      46.545  29.939  26.943  1.00  0.00     0.049 A 
ATOM     49  C   UNL A   1      45.049  24.254  26.630  1.00  0.00     0.074 A 
ATOM     50  C   UNL A   1      46.424  29.511  25.649  1.00  0.00     0.029 A 
ATOM     51  N   UNL A   1      47.147  28.955  27.693  1.00  0.00    -0.354 N 
ATOM     52  N   UNL A   1      45.796  24.467  27.668  1.00  0.00    -0.248 NA
ATOM     53  C   UNL A   1      45.546  24.764  25.345  1.00  0.00     0.031 C 
ATOM     54  C   UNL A   1      46.427  28.111  25.798  1.00  0.00     0.029 A 
ATOM     55  C   UNL A   1      46.834  27.767  27.096  1.00  0.00     0.049 A 
ATOM     56  H   UNL A   1      47.695  29.082  28.502  1.00  0.00     0.167 HD
ATOM     57  C   UNL A   1      46.673  25.413  27.204  1.00  0.00     0.074 A 
ATOM     58  C   UNL A   1      46.697  25.282  25.761  1.00  0.00     0.031 C 
ATOM     59  C   UNL A   1      46.828  26.566  27.902  1.00  0.00     0.034 A 
BRANCH  46  60
ATOM     60  C   UNL A   1      46.892  31.968  28.335  1.00  0.00     0.023 A 
ATOM     61  C   UNL A   1      47.862  32.558  27.478  1.00  0.00     0.031 A 
ATOM     62  C   UNL A   1      47.143  32.076  29.707  1.00  0.00     0.131 A 
ATOM     63  C   UNL A   1      49.089  33.027  27.961  1.00  0.00     0.055 A 
ATOM     64  C   UNL A   1      48.340  32.630  30.197  1.00  0.00     0.041 A 
ATOM     65  F   UNL A   1      46.298  31.584  30.620  1.00  0.00    -0.206 F 
ATOM     66  C   UNL A   1      49.340  33.061  29.325  1.00  0.00     0.022 A 
BRANCH  63  67
ATOM     67  S   UNL A   1      50.406  33.369  26.756  1.00  0.00     0.124 S 
ATOM     68  O   UNL A   1      50.298  34.815  26.591  1.00  0.00    -0.237 OA
ATOM     69  O   UNL A   1      51.594  32.894  27.459  1.00  0.00    -0.237 OA
ATOM     70  O   UNL A   1      50.015  32.577  25.592  1.00  0.00    -0.744 OA
ENDBRANCH  63  67
ENDBRANCH  46  60
BRANCH  47  71
ATOM     71  C   UNL A   1      43.722  22.178  26.095  1.00  0.00     0.023 A 
ATOM     72  C   UNL A   1      44.807  21.440  25.587  1.00  0.00     0.031 A 
ATOM     73  C   UNL A   1      42.486  21.442  26.118  1.00  0.00     0.131 A 
ATOM     74  C   UNL A   1      44.638  20.059  25.237  1.00  0.00     0.055 A 
ATOM     75  C   UNL A   1      42.353  20.075  25.874  1.00  0.00     0.041 A 
ATOM     76  F   UNL A   1      41.306  22.020  26.375  1.00  0.00    -0.206 F 
ATOM     77  C   UNL A   1      43.442  19.367  25.445  1.00  0.00     0.022 A 
BRANCH  74  78
ATOM     78  S   UNL A   1      45.977  19.078  24.485  1.00  0.00     0.124 S 
ATOM     79  O   UNL A   1      47.109  19.995  24.571  1.00  0.00    -0.237 OA
ATOM     80  O   UNL A   1      46.038  17.896  25.337  1.00  0.00    -0.237 OA
ATOM     81  O   UNL A   1      45.487  18.829  23.127  1.00  0.00    -0.744 OA
ENDBRANCH  74  78
ENDBRANCH  47  71
BRANCH  59  82
ATOM     82  C   UNL A   1      46.546  26.459  29.399  1.00  0.00     0.023 A 
ATOM     83  C   UNL A   1      45.432  27.121  29.954  1.00  0.00     0.031 A 
ATOM     84  C   UNL A   1      47.397  25.821  30.320  1.00  0.00     0.131 A 
ATOM     85  C   UNL A   1      45.222  27.154  31.348  1.00  0.00     0.055 A 
ATOM     86  C   UNL A   1      47.189  25.846  31.707  1.00  0.00     0.041 A 
ATOM     87  F   UNL A   1      48.481  25.163  29.909  1.00  0.00    -0.206 F 
ATOM     88  C   UNL A   1      46.096  26.519  32.230  1.00  0.00     0.022 A 
BRANCH  85  89
ATOM     89  S   UNL A   1      43.774  28.028  32.007  1.00  0.00     0.124 S 
ATOM     90  O   UNL A   1      44.098  29.426  31.751  1.00  0.00    -0.237 OA
ATOM     91  O   UNL A   1      42.681  27.469  31.217  1.00  0.00    -0.237 OA
ATOM     92  O   UNL A   1      43.761  27.648  33.421  1.00  0.00    -0.744 OA
ENDBRANCH  85  89
ENDBRANCH  59  82
ENDBRANCH  33  34
ENDBRANCH  25  28
ENDBRANCH  23  24
ENDBRANCH  22  23
ENDBRANCH  21  22
ENDBRANCH   1  21
TORSDOF 21
ENDMDL
MODEL 3
REMARK VINA RESULT:      -9.6      2.877      3.660
REMARK SMILES CCN(CCOC)C(=O)c1cccn1CC(=O)NCCCCNC(=O)c1ccc(-c2c3nc(c(-c4cc(S(=O)(=O)[O-])ccc4F)c4ccc([nH]4)c(-c4cc(S(=O)(=O)[O-])ccc4F)c4nc(c(-c5cc(S(=O)(=O)[O-])ccc5F)c5ccc2[nH]5)C=C4)C=C3)cc1
REMARK SMILES IDX 19 1 18 2 16 3 17 4 15 6 14 7 10 8 11 9 12 10 13 11 8 12
REMARK SMILES IDX 9 13 3 14 2 15 1 16 4 17 5 18 6 19 7 20 20 21 21 22 22 23
REMARK SMILES IDX 23 24 24 25 25 27 26 28 27 29 88 30 28 31 87 32 29 33 30 34
REMARK SMILES IDX 31 35 81 36 32 37 86 38 80 39 82 40 33 41 85 42 79 43 78 44
REMARK SMILES IDX 34 46 66 47 46 48 65 49 47 50 50 51 64 52 83 53 48 54 49 55
REMARK SMILES IDX 63 57 84 58 51 59 35 60 36 61 44 62 37 63 43 64 45 65 42 66
REMARK SMILES IDX 38 67 39 68 40 69 41 70 67 71 68 72 76 73 69 74 75 75 77 76
REMARK SMILES IDX 74 77 70 78 71 79 72 80 73 81 52 82 53 83 61 84 54 85 60 86
REMARK SMILES IDX 62 87 59 88 55 89 56 90 57 91 58 92
REMARK H PARENT 18 5 23 26 82 45 50 56
REMARK Flexibility Score: inf
ROOT
ATOM      1  C   UNL A   1      33.310  29.421  25.434  1.00  0.00     0.116 C 
ENDROOT
BRANCH   1   2
ATOM      2  N   UNL A   1      33.512  29.174  24.019  1.00  0.00    -0.355 N 
ATOM      3  C   UNL A   1      33.729  27.985  23.377  1.00  0.00     0.239 C 
ATOM      4  O   UNL A   1      33.926  28.004  22.159  1.00  0.00    -0.273 OA
ATOM      5  H   UNL A   1      33.492  29.972  23.442  1.00  0.00     0.163 HD
BRANCH   3   6
ATOM      6  C   UNL A   1      33.707  26.679  24.153  1.00  0.00     0.222 C 
BRANCH   6   7
ATOM      7  N   UNL A   1      32.446  25.968  23.980  1.00  0.00    -0.334 N 
ATOM      8  C   UNL A   1      32.236  24.806  23.241  1.00  0.00     0.107 A 
ATOM      9  C   UNL A   1      30.857  24.628  23.238  1.00  0.00     0.033 A 
ATOM     10  C   UNL A   1      30.251  25.629  24.030  1.00  0.00     0.020 A 
ATOM     11  C   UNL A   1      31.261  26.416  24.516  1.00  0.00     0.087 A 
BRANCH   8  12
ATOM     12  C   UNL A   1      33.328  23.996  22.699  1.00  0.00     0.270 C 
ATOM     13  O   UNL A   1      33.603  24.079  21.501  1.00  0.00    -0.267 OA
BRANCH  12  14
ATOM     14  N   UNL A   1      34.032  23.080  23.500  1.00  0.00    -0.335 N 
BRANCH  14  15
ATOM     15  C   UNL A   1      35.363  23.476  23.986  1.00  0.00     0.116 C 
ATOM     16  C   UNL A   1      36.512  22.876  23.185  1.00  0.00     0.027 C 
ENDBRANCH  14  15
BRANCH  14  17
ATOM     17  C   UNL A   1      33.495  21.833  24.053  1.00  0.00     0.148 C 
BRANCH  17  18
ATOM     18  C   UNL A   1      32.975  21.987  25.498  1.00  0.00     0.181 C 
BRANCH  18  19
ATOM     19  O   UNL A   1      33.675  21.181  26.448  1.00  0.00    -0.383 OA
ATOM     20  C   UNL A   1      33.921  21.818  27.696  1.00  0.00     0.194 C 
ENDBRANCH  18  19
ENDBRANCH  17  18
ENDBRANCH  14  17
ENDBRANCH  12  14
ENDBRANCH   8  12
ENDBRANCH   6   7
ENDBRANCH   3   6
ENDBRANCH   1   2
BRANCH   1  21
ATOM     21  C   UNL A   1      32.017  30.191  25.703  1.00  0.00     0.023 C 
BRANCH  21  22
ATOM     22  C   UNL A   1      32.020  31.006  27.002  1.00  0.00     0.023 C 
BRANCH  22  23
ATOM     23  C   UNL A   1      33.379  31.614  27.353  1.00  0.00     0.116 C 
BRANCH  23  24
ATOM     24  N   UNL A   1      33.225  32.871  28.068  1.00  0.00    -0.352 N 
ATOM     25  C   UNL A   1      33.980  33.378  29.097  1.00  0.00     0.251 C 
ATOM     26  H   UNL A   1      32.474  33.436  27.774  1.00  0.00     0.163 HD
ATOM     27  O   UNL A   1      33.493  34.229  29.832  1.00  0.00    -0.269 OA
BRANCH  25  28
ATOM     28  C   UNL A   1      35.361  32.907  29.331  1.00  0.00     0.039 A 
ATOM     29  C   UNL A   1      35.597  32.067  30.425  1.00  0.00     0.014 A 
ATOM     30  C   UNL A   1      36.425  33.356  28.539  1.00  0.00     0.014 A 
ATOM     31  C   UNL A   1      36.889  31.619  30.684  1.00  0.00     0.010 A 
ATOM     32  C   UNL A   1      37.720  32.906  28.796  1.00  0.00     0.010 A 
ATOM     33  C   UNL A   1      37.949  32.017  29.853  1.00  0.00    -0.014 A 
BRANCH  33  34
ATOM     34  C   UNL A   1      39.232  31.274  29.956  1.00  0.00     0.031 A 
ATOM     35  C   UNL A   1      40.363  32.239  30.426  1.00  0.00     0.074 A 
ATOM     36  C   UNL A   1      39.230  29.947  29.597  1.00  0.00     0.049 A 
ATOM     37  N   UNL A   1      41.626  32.274  30.129  1.00  0.00    -0.248 NA
ATOM     38  C   UNL A   1      40.006  33.421  31.272  1.00  0.00     0.031 C 
ATOM     39  C   UNL A   1      38.025  29.164  29.222  1.00  0.00     0.029 A 
ATOM     40  N   UNL A   1      40.209  28.977  29.473  1.00  0.00    -0.354 N 
ATOM     41  C   UNL A   1      42.239  33.270  30.938  1.00  0.00     0.074 A 
ATOM     42  C   UNL A   1      41.169  34.043  31.481  1.00  0.00     0.031 C 
ATOM     43  C   UNL A   1      38.349  27.904  28.837  1.00  0.00     0.029 A 
ATOM     44  C   UNL A   1      39.785  27.718  28.933  1.00  0.00     0.049 A 
ATOM     45  H   UNL A   1      41.143  29.142  29.739  1.00  0.00     0.167 HD
ATOM     46  C   UNL A   1      43.574  33.270  31.246  1.00  0.00     0.034 A 
ATOM     47  C   UNL A   1      40.544  26.631  28.558  1.00  0.00     0.034 A 
ATOM     48  C   UNL A   1      44.194  32.165  30.598  1.00  0.00     0.049 A 
ATOM     49  C   UNL A   1      41.892  26.980  29.026  1.00  0.00     0.074 A 
ATOM     50  C   UNL A   1      44.436  31.874  29.283  1.00  0.00     0.029 A 
ATOM     51  N   UNL A   1      44.324  31.019  31.349  1.00  0.00    -0.354 N 
ATOM     52  N   UNL A   1      42.276  26.946  30.264  1.00  0.00    -0.248 NA
ATOM     53  C   UNL A   1      42.872  27.467  28.045  1.00  0.00     0.031 C 
ATOM     54  C   UNL A   1      44.138  30.499  29.224  1.00  0.00     0.029 A 
ATOM     55  C   UNL A   1      44.020  29.976  30.521  1.00  0.00     0.049 A 
ATOM     56  H   UNL A   1      44.584  30.962  32.297  1.00  0.00     0.167 HD
ATOM     57  C   UNL A   1      43.412  27.712  30.235  1.00  0.00     0.074 A 
ATOM     58  C   UNL A   1      43.892  27.690  28.869  1.00  0.00     0.031 C 
ATOM     59  C   UNL A   1      43.530  28.747  31.104  1.00  0.00     0.034 A 
BRANCH  46  60
ATOM     60  C   UNL A   1      44.415  33.957  32.304  1.00  0.00     0.023 A 
ATOM     61  C   UNL A   1      43.821  34.064  33.592  1.00  0.00     0.031 A 
ATOM     62  C   UNL A   1      45.525  34.778  32.074  1.00  0.00     0.131 A 
ATOM     63  C   UNL A   1      44.184  35.072  34.493  1.00  0.00     0.055 A 
ATOM     64  C   UNL A   1      45.947  35.732  33.018  1.00  0.00     0.041 A 
ATOM     65  F   UNL A   1      46.189  34.757  30.912  1.00  0.00    -0.206 F 
ATOM     66  C   UNL A   1      45.247  35.917  34.210  1.00  0.00     0.022 A 
BRANCH  63  67
ATOM     67  S   UNL A   1      43.094  35.379  35.915  1.00  0.00     0.124 S 
ATOM     68  O   UNL A   1      43.604  34.428  36.898  1.00  0.00    -0.237 OA
ATOM     69  O   UNL A   1      43.351  36.787  36.198  1.00  0.00    -0.237 OA
ATOM     70  O   UNL A   1      41.763  35.083  35.392  1.00  0.00    -0.744 OA
ENDBRANCH  63  67
ENDBRANCH  46  60
BRANCH  47  71
ATOM     71  C   UNL A   1      40.469  25.287  27.814  1.00  0.00     0.023 A 
ATOM     72  C   UNL A   1      41.441  24.271  27.759  1.00  0.00     0.031 A 
ATOM     73  C   UNL A   1      39.250  24.956  27.125  1.00  0.00     0.131 A 
ATOM     74  C   UNL A   1      41.135  23.014  27.139  1.00  0.00     0.055 A 
ATOM     75  C   UNL A   1      38.924  23.699  26.617  1.00  0.00     0.041 A 
ATOM     76  F   UNL A   1      38.286  25.854  26.892  1.00  0.00    -0.206 F 
ATOM     77  C   UNL A   1      39.867  22.708  26.636  1.00  0.00     0.022 A 
BRANCH  74  78
ATOM     78  S   UNL A   1      42.379  21.696  26.950  1.00  0.00     0.124 S 
ATOM     79  O   UNL A   1      42.601  21.694  25.508  1.00  0.00    -0.237 OA
ATOM     80  O   UNL A   1      43.486  22.169  27.773  1.00  0.00    -0.237 OA
ATOM     81  O   UNL A   1      41.692  20.511  27.469  1.00  0.00    -0.744 OA
ENDBRANCH  74  78
ENDBRANCH  47  71
BRANCH  59  82
ATOM     82  C   UNL A   1      42.751  28.590  32.408  1.00  0.00     0.023 A 
ATOM     83  C   UNL A   1      41.695  29.475  32.709  1.00  0.00     0.031 A 
ATOM     84  C   UNL A   1      43.081  27.669  33.420  1.00  0.00     0.131 A 
ATOM     85  C   UNL A   1      41.048  29.441  33.961  1.00  0.00     0.055 A 
ATOM     86  C   UNL A   1      42.435  27.627  34.664  1.00  0.00     0.041 A 
ATOM     87  F   UNL A   1      44.061  26.783  33.247  1.00  0.00    -0.206 F 
ATOM     88  C   UNL A   1      41.413  28.521  34.943  1.00  0.00     0.022 A 
BRANCH  85  89
ATOM     89  S   UNL A   1      39.701  30.610  34.295  1.00  0.00     0.124 S 
ATOM     90  O   UNL A   1      40.376  31.901  34.246  1.00  0.00    -0.237 OA
ATOM     91  O   UNL A   1      38.767  30.334  33.208  1.00  0.00    -0.237 OA
ATOM     92  O   UNL A   1      39.226  30.214  35.622  1.00  0.00    -0.744 OA
ENDBRANCH  85  89
ENDBRANCH  59  82
ENDBRANCH  33  34
ENDBRANCH  25  28
ENDBRANCH  23  24
ENDBRANCH  22  23
ENDBRANCH  21  22
ENDBRANCH   1  21
TORSDOF 21
ENDMDL
