MODEL 1
REMARK VINA RESULT:     -13.2      0.000      0.000
REMARK SMILES C[NH+]1CCN(c2nc3c(cc2F)c(=O)c(C(=O)NCCCCNC(=O)c2ccc(-c4c5nc(c(-c6cc(S(=O)(=O)[O-])ccc6F)c6ccc([nH]6)c(-c6cc(S(=O)(=O)[O-])ccc6F)c6nc(c(-c7cc(S(=O)(=O)[O-])ccc7F)c7ccc4[nH]7)C=C6)C=C5)cc2)cn3-c2ccc(F)cc2F)CC1
REMARK SMILES IDX 21 1 20 2 19 3 18 4 16 5 17 6 15 8 6 9 7 10 11 11 8 12 10 13
REMARK SMILES IDX 12 14 9 15 90 16 13 17 89 18 14 19 5 20 1 21 2 22 3 23
REMARK SMILES IDX 100 24 4 26 99 27 91 28 92 29 97 30 93 31 96 32 98 33 94 34
REMARK SMILES IDX 95 35 22 36 23 37 24 38 25 40 26 41 27 42 88 43 28 44 87 45
REMARK SMILES IDX 29 46 30 47 31 48 81 49 32 50 86 51 80 52 82 53 33 54 85 55
REMARK SMILES IDX 79 56 78 57 34 59 66 60 46 61 65 62 47 63 50 64 64 65 83 66
REMARK SMILES IDX 48 67 49 68 63 70 84 71 51 72 35 73 36 74 44 75 37 76 43 77
REMARK SMILES IDX 45 78 42 79 38 80 39 81 40 82 41 83 67 84 68 85 76 86 69 87
REMARK SMILES IDX 75 88 77 89 74 90 70 91 71 92 72 93 73 94 52 95 53 96 61 97
REMARK SMILES IDX 54 98 60 99 62 100 59 101 55 102 56 103 57 104 58 105
REMARK H PARENT 18 7 2 25 23 39 82 58 50 69
REMARK Flexibility Score: inf
ROOT
ATOM      1  C   UNL A   1      31.771  28.792  25.845  1.00  0.00     0.023 C 
ENDROOT
BRANCH   1   2
ATOM      2  C   UNL A   1      31.781  27.959  24.567  1.00  0.00     0.023 C 
BRANCH   2   3
ATOM      3  C   UNL A   1      33.149  27.390  24.179  1.00  0.00     0.116 C 
BRANCH   3   4
ATOM      4  N   UNL A   1      33.217  27.114  22.758  1.00  0.00    -0.352 N 
ATOM      5  C   UNL A   1      33.351  25.955  22.061  1.00  0.00     0.256 C 
ATOM      6  O   UNL A   1      33.349  26.052  20.830  1.00  0.00    -0.269 OA
ATOM      7  H   UNL A   1      33.153  27.916  22.191  1.00  0.00     0.163 HD
BRANCH   5   8
ATOM      8  C   UNL A   1      33.419  24.607  22.696  1.00  0.00     0.104 A 
ATOM      9  C   UNL A   1      33.462  19.760  24.238  1.00  0.00     0.167 A 
ATOM     10  N   UNL A   1      34.279  20.822  24.451  1.00  0.00    -0.209 NA
ATOM     11  C   UNL A   1      32.305  19.886  23.464  1.00  0.00     0.166 A 
ATOM     12  C   UNL A   1      33.982  22.026  23.896  1.00  0.00     0.151 A 
ATOM     13  C   UNL A   1      31.950  21.117  22.953  1.00  0.00     0.059 A 
ATOM     14  F   UNL A   1      31.486  18.842  23.264  1.00  0.00    -0.203 F 
ATOM     15  C   UNL A   1      32.797  22.199  23.185  1.00  0.00     0.069 A 
ATOM     16  N   UNL A   1      34.870  23.142  24.035  1.00  0.00    -0.297 N 
ATOM     17  C   UNL A   1      32.395  23.541  22.746  1.00  0.00     0.203 A 
ATOM     18  C   UNL A   1      34.546  24.328  23.378  1.00  0.00     0.111 A 
ATOM     19  O   UNL A   1      31.209  23.705  22.500  1.00  0.00    -0.288 OA
BRANCH   9  20
ATOM     20  N   UNL A   1      33.803  18.577  24.841  1.00  0.00    -0.343 N 
ATOM     21  C   UNL A   1      32.645  14.522  25.318  1.00  0.00     0.332 C 
ATOM     22  N   UNL A   1      33.365  15.787  25.444  1.00  0.00    -0.334 N 
ATOM     23  C   UNL A   1      32.479  16.847  25.986  1.00  0.00     0.283 C 
ATOM     24  C   UNL A   1      33.888  16.216  24.124  1.00  0.00     0.283 C 
ATOM     25  H   UNL A   1      34.141  15.642  26.089  1.00  0.00     0.347 HD
ATOM     26  C   UNL A   1      33.189  18.220  26.115  1.00  0.00     0.179 C 
ATOM     27  C   UNL A   1      34.629  17.568  24.191  1.00  0.00     0.179 C 
ENDBRANCH   9  20
BRANCH  16  28
ATOM     28  C   UNL A   1      36.097  23.058  24.762  1.00  0.00     0.083 A 
ATOM     29  C   UNL A   1      37.005  22.011  24.526  1.00  0.00     0.033 A 
ATOM     30  C   UNL A   1      36.439  24.022  25.728  1.00  0.00     0.150 A 
ATOM     31  C   UNL A   1      38.210  21.942  25.228  1.00  0.00     0.041 A 
ATOM     32  C   UNL A   1      37.631  23.953  26.440  1.00  0.00     0.080 A 
ATOM     33  F   UNL A   1      35.593  25.026  26.004  1.00  0.00    -0.205 F 
ATOM     34  C   UNL A   1      38.508  22.911  26.180  1.00  0.00     0.126 A 
ATOM     35  F   UNL A   1      39.661  22.833  26.859  1.00  0.00    -0.207 F 
ENDBRANCH  16  28
ENDBRANCH   5   8
ENDBRANCH   3   4
ENDBRANCH   2   3
ENDBRANCH   1   2
BRANCH   1  36
ATOM     36  C   UNL A   1      32.941  29.753  25.985  1.00  0.00     0.116 C 
BRANCH  36  37
ATOM     37  N   UNL A   1      32.551  31.085  26.427  1.00  0.00    -0.352 N 
ATOM     38  C   UNL A   1      33.244  31.920  27.271  1.00  0.00     0.251 C 
ATOM     39  H   UNL A   1      31.694  31.427  26.083  1.00  0.00     0.163 HD
ATOM     40  O   UNL A   1      32.780  32.997  27.625  1.00  0.00    -0.269 OA
BRANCH  38  41
ATOM     41  C   UNL A   1      34.551  31.459  27.772  1.00  0.00     0.039 A 
ATOM     42  C   UNL A   1      35.573  32.393  27.952  1.00  0.00     0.014 A 
ATOM     43  C   UNL A   1      34.711  30.128  28.169  1.00  0.00     0.014 A 
ATOM     44  C   UNL A   1      36.749  32.001  28.589  1.00  0.00     0.010 A 
ATOM     45  C   UNL A   1      35.860  29.755  28.855  1.00  0.00     0.010 A 
ATOM     46  C   UNL A   1      36.887  30.687  29.066  1.00  0.00    -0.014 A 
BRANCH  46  47
ATOM     47  C   UNL A   1      38.114  30.258  29.774  1.00  0.00     0.031 A 
ATOM     48  C   UNL A   1      38.364  30.744  31.173  1.00  0.00     0.074 A 
ATOM     49  C   UNL A   1      39.024  29.495  29.140  1.00  0.00     0.049 A 
ATOM     50  N   UNL A   1      39.377  30.499  31.959  1.00  0.00    -0.248 NA
ATOM     51  C   UNL A   1      37.353  31.641  31.755  1.00  0.00     0.031 C 
ATOM     52  C   UNL A   1      38.904  29.008  27.764  1.00  0.00     0.029 A 
ATOM     53  N   UNL A   1      40.233  29.002  29.564  1.00  0.00    -0.354 N 
ATOM     54  C   UNL A   1      39.134  31.220  33.120  1.00  0.00     0.074 A 
ATOM     55  C   UNL A   1      37.905  31.951  32.919  1.00  0.00     0.031 C 
ATOM     56  C   UNL A   1      39.986  28.269  27.466  1.00  0.00     0.029 A 
ATOM     57  C   UNL A   1      40.885  28.249  28.617  1.00  0.00     0.049 A 
ATOM     58  H   UNL A   1      40.598  29.172  30.462  1.00  0.00     0.167 HD
ATOM     59  C   UNL A   1      39.861  31.248  34.260  1.00  0.00     0.034 A 
ATOM     60  C   UNL A   1      42.071  27.609  28.677  1.00  0.00     0.034 A 
ATOM     61  C   UNL A   1      41.062  30.486  34.459  1.00  0.00     0.049 A 
ATOM     62  C   UNL A   1      42.861  27.654  29.962  1.00  0.00     0.074 A 
ATOM     63  C   UNL A   1      41.816  30.365  35.612  1.00  0.00     0.029 A 
ATOM     64  N   UNL A   1      41.687  29.720  33.486  1.00  0.00    -0.354 N 
ATOM     65  N   UNL A   1      42.552  28.233  31.097  1.00  0.00    -0.248 NA
ATOM     66  C   UNL A   1      44.153  26.954  29.979  1.00  0.00     0.031 C 
ATOM     67  C   UNL A   1      42.922  29.563  35.324  1.00  0.00     0.029 A 
ATOM     68  C   UNL A   1      42.834  29.147  34.004  1.00  0.00     0.049 A 
ATOM     69  H   UNL A   1      41.362  29.602  32.564  1.00  0.00     0.167 HD
ATOM     70  C   UNL A   1      43.593  27.938  31.973  1.00  0.00     0.074 A 
ATOM     71  C   UNL A   1      44.536  27.122  31.238  1.00  0.00     0.031 C 
ATOM     72  C   UNL A   1      43.750  28.308  33.269  1.00  0.00     0.034 A 
BRANCH  59  73
ATOM     73  C   UNL A   1      39.371  32.104  35.395  1.00  0.00     0.023 A 
ATOM     74  C   UNL A   1      39.846  33.420  35.540  1.00  0.00     0.031 A 
ATOM     75  C   UNL A   1      38.504  31.592  36.376  1.00  0.00     0.131 A 
ATOM     76  C   UNL A   1      39.461  34.176  36.652  1.00  0.00     0.055 A 
ATOM     77  C   UNL A   1      38.100  32.359  37.468  1.00  0.00     0.041 A 
ATOM     78  F   UNL A   1      38.022  30.343  36.274  1.00  0.00    -0.206 F 
ATOM     79  C   UNL A   1      38.585  33.656  37.613  1.00  0.00     0.022 A 
BRANCH  76  80
ATOM     80  S   UNL A   1      40.096  35.853  36.912  1.00  0.00     0.124 S 
ATOM     81  O   UNL A   1      39.663  36.532  35.692  1.00  0.00    -0.237 OA
ATOM     82  O   UNL A   1      39.403  36.256  38.131  1.00  0.00    -0.237 OA
ATOM     83  O   UNL A   1      41.538  35.666  37.036  1.00  0.00    -0.744 OA
ENDBRANCH  76  80
ENDBRANCH  59  73
BRANCH  60  84
ATOM     84  C   UNL A   1      42.532  26.801  27.512  1.00  0.00     0.023 A 
ATOM     85  C   UNL A   1      42.496  25.396  27.531  1.00  0.00     0.031 A 
ATOM     86  C   UNL A   1      43.081  27.436  26.385  1.00  0.00     0.131 A 
ATOM     87  C   UNL A   1      43.036  24.673  26.457  1.00  0.00     0.055 A 
ATOM     88  C   UNL A   1      43.571  26.712  25.296  1.00  0.00     0.041 A 
ATOM     89  F   UNL A   1      43.144  28.775  26.329  1.00  0.00    -0.206 F 
ATOM     90  C   UNL A   1      43.558  25.323  25.335  1.00  0.00     0.022 A 
BRANCH  87  91
ATOM     91  S   UNL A   1      43.150  22.863  26.514  1.00  0.00     0.124 S 
ATOM     92  O   UNL A   1      42.485  22.555  27.777  1.00  0.00    -0.237 OA
ATOM     93  O   UNL A   1      42.419  22.483  25.308  1.00  0.00    -0.237 OA
ATOM     94  O   UNL A   1      44.586  22.607  26.479  1.00  0.00    -0.744 OA
ENDBRANCH  87  91
ENDBRANCH  60  84
BRANCH  72  95
ATOM     95  C   UNL A   1      44.969  27.830  34.012  1.00  0.00     0.023 A 
ATOM     96  C   UNL A   1      44.917  26.624  34.737  1.00  0.00     0.031 A 
ATOM     97  C   UNL A   1      46.110  28.639  34.139  1.00  0.00     0.131 A 
ATOM     98  C   UNL A   1      45.970  26.283  35.594  1.00  0.00     0.055 A 
ATOM     99  C   UNL A   1      47.175  28.273  34.962  1.00  0.00     0.041 A 
ATOM    100  F   UNL A   1      46.198  29.800  33.473  1.00  0.00    -0.206 F 
ATOM    101  C   UNL A   1      47.102  27.097  35.705  1.00  0.00     0.022 A 
BRANCH  98 102
ATOM    102  S   UNL A   1      45.876  24.811  36.649  1.00  0.00     0.124 S 
ATOM    103  O   UNL A   1      44.576  24.255  36.281  1.00  0.00    -0.237 OA
ATOM    104  O   UNL A   1      47.034  24.041  36.203  1.00  0.00    -0.237 OA
ATOM    105  O   UNL A   1      45.960  25.344  38.006  1.00  0.00    -0.744 OA
ENDBRANCH  98 102
ENDBRANCH  72  95
ENDBRANCH  46  47
ENDBRANCH  38  41
ENDBRANCH  36  37
ENDBRANCH   1  36
TORSDOF 16
ENDMDL
MODEL 2
REMARK VINA RESULT:     -13.1      1.929      2.619
REMARK SMILES C[NH+]1CCN(c2nc3c(cc2F)c(=O)c(C(=O)NCCCCNC(=O)c2ccc(-c4c5nc(c(-c6cc(S(=O)(=O)[O-])ccc6F)c6ccc([nH]6)c(-c6cc(S(=O)(=O)[O-])ccc6F)c6nc(c(-c7cc(S(=O)(=O)[O-])ccc7F)c7ccc4[nH]7)C=C6)C=C5)cc2)cn3-c2ccc(F)cc2F)CC1
REMARK SMILES IDX 21 1 20 2 19 3 18 4 16 5 17 6 15 8 6 9 7 10 11 11 8 12 10 13
REMARK SMILES IDX 12 14 9 15 90 16 13 17 89 18 14 19 5 20 1 21 2 22 3 23
REMARK SMILES IDX 100 24 4 26 99 27 91 28 92 29 97 30 93 31 96 32 98 33 94 34
REMARK SMILES IDX 95 35 22 36 23 37 24 38 25 40 26 41 27 42 88 43 28 44 87 45
REMARK SMILES IDX 29 46 30 47 31 48 81 49 32 50 86 51 80 52 82 53 33 54 85 55
REMARK SMILES IDX 79 56 78 57 34 59 66 60 46 61 65 62 47 63 50 64 64 65 83 66
REMARK SMILES IDX 48 67 49 68 63 70 84 71 51 72 35 73 36 74 44 75 37 76 43 77
REMARK SMILES IDX 45 78 42 79 38 80 39 81 40 82 41 83 67 84 68 85 76 86 69 87
REMARK SMILES IDX 75 88 77 89 74 90 70 91 71 92 72 93 73 94 52 95 53 96 61 97
REMARK SMILES IDX 54 98 60 99 62 100 59 101 55 102 56 103 57 104 58 105
REMARK H PARENT 18 7 2 25 23 39 82 58 50 69
REMARK Flexibility Score: inf
ROOT
ATOM      1  C   UNL A   1      32.307  28.420  26.266  1.00  0.00     0.023 C 
ENDROOT
BRANCH   1   2
ATOM      2  C   UNL A   1      32.298  27.777  24.883  1.00  0.00     0.023 C 
BRANCH   2   3
ATOM      3  C   UNL A   1      33.669  27.673  24.210  1.00  0.00     0.116 C 
BRANCH   3   4
ATOM      4  N   UNL A   1      33.537  27.396  22.793  1.00  0.00    -0.352 N 
ATOM      5  C   UNL A   1      33.491  26.232  22.094  1.00  0.00     0.256 C 
ATOM      6  O   UNL A   1      33.344  26.334  20.871  1.00  0.00    -0.269 OA
ATOM      7  H   UNL A   1      33.469  28.203  22.233  1.00  0.00     0.163 HD
BRANCH   5   8
ATOM      8  C   UNL A   1      33.530  24.882  22.724  1.00  0.00     0.104 A 
ATOM      9  C   UNL A   1      33.505  20.026  24.241  1.00  0.00     0.167 A 
ATOM     10  N   UNL A   1      34.308  21.088  24.501  1.00  0.00    -0.209 NA
ATOM     11  C   UNL A   1      32.388  20.154  23.410  1.00  0.00     0.166 A 
ATOM     12  C   UNL A   1      34.037  22.295  23.937  1.00  0.00     0.151 A 
ATOM     13  C   UNL A   1      32.057  21.387  22.888  1.00  0.00     0.059 A 
ATOM     14  F   UNL A   1      31.581  19.110  23.164  1.00  0.00    -0.203 F 
ATOM     15  C   UNL A   1      32.888  22.470  23.169  1.00  0.00     0.069 A 
ATOM     16  N   UNL A   1      34.914  23.412  24.127  1.00  0.00    -0.297 N 
ATOM     17  C   UNL A   1      32.507  23.814  22.717  1.00  0.00     0.203 A 
ATOM     18  C   UNL A   1      34.621  24.601  23.460  1.00  0.00     0.111 A 
ATOM     19  O   UNL A   1      31.334  23.977  22.411  1.00  0.00    -0.288 OA
BRANCH   9  20
ATOM     20  N   UNL A   1      33.816  18.841  24.854  1.00  0.00    -0.343 N 
ATOM     21  C   UNL A   1      32.605  14.799  25.304  1.00  0.00     0.332 C 
ATOM     22  N   UNL A   1      33.334  16.057  25.448  1.00  0.00    -0.334 N 
ATOM     23  C   UNL A   1      32.444  17.126  25.964  1.00  0.00     0.283 C 
ATOM     24  C   UNL A   1      33.897  16.478  24.143  1.00  0.00     0.283 C 
ATOM     25  H   UNL A   1      34.090  15.905  26.114  1.00  0.00     0.347 HD
ATOM     26  C   UNL A   1      33.164  18.492  26.112  1.00  0.00     0.179 C 
ATOM     27  C   UNL A   1      34.649  17.823  24.228  1.00  0.00     0.179 C 
ENDBRANCH   9  20
BRANCH  16  28
ATOM     28  C   UNL A   1      36.103  23.326  24.915  1.00  0.00     0.083 A 
ATOM     29  C   UNL A   1      36.249  24.089  26.086  1.00  0.00     0.033 A 
ATOM     30  C   UNL A   1      37.157  22.468  24.551  1.00  0.00     0.150 A 
ATOM     31  C   UNL A   1      37.407  23.990  26.861  1.00  0.00     0.041 A 
ATOM     32  C   UNL A   1      38.318  22.373  25.311  1.00  0.00     0.080 A 
ATOM     33  F   UNL A   1      37.072  21.737  23.430  1.00  0.00    -0.205 F 
ATOM     34  C   UNL A   1      38.430  23.137  26.463  1.00  0.00     0.126 A 
ATOM     35  F   UNL A   1      39.543  23.054  27.205  1.00  0.00    -0.207 F 
ENDBRANCH  16  28
ENDBRANCH   5   8
ENDBRANCH   3   4
ENDBRANCH   2   3
ENDBRANCH   1   2
BRANCH   1  36
ATOM     36  C   UNL A   1      33.671  28.913  26.727  1.00  0.00     0.116 C 
BRANCH  36  37
ATOM     37  N   UNL A   1      33.694  30.330  27.065  1.00  0.00    -0.352 N 
ATOM     38  C   UNL A   1      34.681  31.010  27.738  1.00  0.00     0.251 C 
ATOM     39  H   UNL A   1      32.915  30.861  26.779  1.00  0.00     0.163 HD
ATOM     40  O   UNL A   1      34.557  32.195  28.024  1.00  0.00    -0.269 OA
BRANCH  38  41
ATOM     41  C   UNL A   1      35.880  30.257  28.143  1.00  0.00     0.039 A 
ATOM     42  C   UNL A   1      37.013  30.302  27.328  1.00  0.00     0.014 A 
ATOM     43  C   UNL A   1      35.907  29.611  29.382  1.00  0.00     0.014 A 
ATOM     44  C   UNL A   1      38.205  29.741  27.787  1.00  0.00     0.010 A 
ATOM     45  C   UNL A   1      37.109  29.105  29.860  1.00  0.00     0.010 A 
ATOM     46  C   UNL A   1      38.264  29.164  29.065  1.00  0.00    -0.014 A 
BRANCH  46  47
ATOM     47  C   UNL A   1      39.526  28.592  29.585  1.00  0.00     0.031 A 
ATOM     48  C   UNL A   1      40.141  29.173  30.825  1.00  0.00     0.074 A 
ATOM     49  C   UNL A   1      40.145  27.604  28.910  1.00  0.00     0.049 A 
ATOM     50  N   UNL A   1      41.244  28.830  31.434  1.00  0.00    -0.248 NA
ATOM     51  C   UNL A   1      39.435  30.304  31.449  1.00  0.00     0.031 C 
ATOM     52  C   UNL A   1      39.661  26.999  27.668  1.00  0.00     0.029 A 
ATOM     53  N   UNL A   1      41.320  26.942  29.167  1.00  0.00    -0.354 N 
ATOM     54  C   UNL A   1      41.372  29.708  32.502  1.00  0.00     0.074 A 
ATOM     55  C   UNL A   1      40.263  30.631  32.430  1.00  0.00     0.031 C 
ATOM     56  C   UNL A   1      40.520  26.041  27.284  1.00  0.00     0.029 A 
ATOM     57  C   UNL A   1      41.626  25.979  28.235  1.00  0.00     0.049 A 
ATOM     58  H   UNL A   1      41.889  27.139  29.946  1.00  0.00     0.167 HD
ATOM     59  C   UNL A   1      42.317  29.724  33.468  1.00  0.00     0.034 A 
ATOM     60  C   UNL A   1      42.678  25.138  28.165  1.00  0.00     0.034 A 
ATOM     61  C   UNL A   1      43.394  28.776  33.548  1.00  0.00     0.049 A 
ATOM     62  C   UNL A   1      43.717  25.175  29.257  1.00  0.00     0.074 A 
ATOM     63  C   UNL A   1      44.344  28.644  34.543  1.00  0.00     0.029 A 
ATOM     64  N   UNL A   1      43.666  27.803  32.597  1.00  0.00    -0.354 N 
ATOM     65  N   UNL A   1      43.754  25.925  30.333  1.00  0.00    -0.248 NA
ATOM     66  C   UNL A   1      44.853  24.249  29.133  1.00  0.00     0.031 C 
ATOM     67  C   UNL A   1      45.219  27.620  34.174  1.00  0.00     0.029 A 
ATOM     68  C   UNL A   1      44.788  27.085  32.969  1.00  0.00     0.049 A 
ATOM     69  H   UNL A   1      43.139  27.647  31.781  1.00  0.00     0.167 HD
ATOM     70  C   UNL A   1      44.894  25.537  31.032  1.00  0.00     0.074 A 
ATOM     71  C   UNL A   1      45.515  24.481  30.260  1.00  0.00     0.031 C 
ATOM     72  C   UNL A   1      45.379  26.012  32.206  1.00  0.00     0.034 A 
BRANCH  59  73
ATOM     73  C   UNL A   1      42.224  30.778  34.537  1.00  0.00     0.023 A 
ATOM     74  C   UNL A   1      42.919  31.992  34.391  1.00  0.00     0.031 A 
ATOM     75  C   UNL A   1      41.520  30.548  35.732  1.00  0.00     0.131 A 
ATOM     76  C   UNL A   1      42.906  32.926  35.433  1.00  0.00     0.055 A 
ATOM     77  C   UNL A   1      41.486  31.494  36.755  1.00  0.00     0.041 A 
ATOM     78  F   UNL A   1      40.838  29.404  35.911  1.00  0.00    -0.206 F 
ATOM     79  C   UNL A   1      42.187  32.687  36.610  1.00  0.00     0.022 A 
BRANCH  76  80
ATOM     80  S   UNL A   1      43.836  34.477  35.313  1.00  0.00     0.124 S 
ATOM     81  O   UNL A   1      44.452  34.562  36.636  1.00  0.00    -0.237 OA
ATOM     82  O   UNL A   1      44.754  34.197  34.213  1.00  0.00    -0.237 OA
ATOM     83  O   UNL A   1      42.811  35.480  35.044  1.00  0.00    -0.744 OA
ENDBRANCH  76  80
ENDBRANCH  59  73
BRANCH  60  84
ATOM     84  C   UNL A   1      42.745  24.133  27.065  1.00  0.00     0.023 A 
ATOM     85  C   UNL A   1      42.239  22.832  27.226  1.00  0.00     0.031 A 
ATOM     86  C   UNL A   1      43.384  24.452  25.855  1.00  0.00     0.131 A 
ATOM     87  C   UNL A   1      42.415  21.887  26.205  1.00  0.00     0.055 A 
ATOM     88  C   UNL A   1      43.514  23.522  24.822  1.00  0.00     0.041 A 
ATOM     89  F   UNL A   1      43.891  25.680  25.663  1.00  0.00    -0.206 F 
ATOM     90  C   UNL A   1      43.036  22.229  24.999  1.00  0.00     0.022 A 
BRANCH  87  91
ATOM     91  S   UNL A   1      41.916  20.158  26.436  1.00  0.00     0.124 S 
ATOM     92  O   UNL A   1      40.461  20.249  26.369  1.00  0.00    -0.237 OA
ATOM     93  O   UNL A   1      42.560  19.509  25.296  1.00  0.00    -0.237 OA
ATOM     94  O   UNL A   1      42.467  19.812  27.742  1.00  0.00    -0.744 OA
ENDBRANCH  87  91
ENDBRANCH  60  84
BRANCH  72  95
ATOM     95  C   UNL A   1      46.633  25.397  32.769  1.00  0.00     0.023 A 
ATOM     96  C   UNL A   1      46.540  24.402  33.760  1.00  0.00     0.031 A 
ATOM     97  C   UNL A   1      47.902  25.909  32.451  1.00  0.00     0.131 A 
ATOM     98  C   UNL A   1      47.693  23.980  34.431  1.00  0.00     0.055 A 
ATOM     99  C   UNL A   1      49.053  25.454  33.095  1.00  0.00     0.041 A 
ATOM    100  F   UNL A   1      48.037  26.865  31.519  1.00  0.00    -0.206 F 
ATOM    101  C   UNL A   1      48.950  24.495  34.100  1.00  0.00     0.022 A 
BRANCH  98 102
ATOM    102  S   UNL A   1      47.594  22.804  35.809  1.00  0.00     0.124 S 
ATOM    103  O   UNL A   1      48.557  21.781  35.406  1.00  0.00    -0.237 OA
ATOM    104  O   UNL A   1      47.997  23.628  36.944  1.00  0.00    -0.237 OA
ATOM    105  O   UNL A   1      46.199  22.375  35.807  1.00  0.00    -0.744 OA
ENDBRANCH  98 102
ENDBRANCH  72  95
ENDBRANCH  46  47
ENDBRANCH  38  41
ENDBRANCH  36  37
ENDBRANCH   1  36
TORSDOF 16
ENDMDL
MODEL 3
REMARK VINA RESULT:     -13.0      2.715      3.557
REMARK SMILES C[NH+]1CCN(c2nc3c(cc2F)c(=O)c(C(=O)NCCCCNC(=O)c2ccc(-c4c5nc(c(-c6cc(S(=O)(=O)[O-])ccc6F)c6ccc([nH]6)c(-c6cc(S(=O)(=O)[O-])ccc6F)c6nc(c(-c7cc(S(=O)(=O)[O-])ccc7F)c7ccc4[nH]7)C=C6)C=C5)cc2)cn3-c2ccc(F)cc2F)CC1
REMARK SMILES IDX 21 1 20 2 19 3 18 4 16 5 17 6 15 8 6 9 7 10 11 11 8 12 10 13
REMARK SMILES IDX 12 14 9 15 90 16 13 17 89 18 14 19 5 20 1 21 2 22 3 23
REMARK SMILES IDX 100 24 4 26 99 27 91 28 92 29 97 30 93 31 96 32 98 33 94 34
REMARK SMILES IDX 95 35 22 36 23 37 24 38 25 40 26 41 27 42 88 43 28 44 87 45
REMARK SMILES IDX 29 46 30 47 31 48 81 49 32 50 86 51 80 52 82 53 33 54 85 55
REMARK SMILES IDX 79 56 78 57 34 59 66 60 46 61 65 62 47 63 50 64 64 65 83 66
REMARK SMILES IDX 48 67 49 68 63 70 84 71 51 72 35 73 36 74 44 75 37 76 43 77
REMARK SMILES IDX 45 78 42 79 38 80 39 81 40 82 41 83 67 84 68 85 76 86 69 87
REMARK SMILES IDX 75 88 77 89 74 90 70 91 71 92 72 93 73 94 52 95 53 96 61 97
REMARK SMILES IDX 54 98 60 99 62 100 59 101 55 102 56 103 57 104 58 105
REMARK H PARENT 18 7 2 25 23 39 82 58 50 69
REMARK Flexibility Score: inf
ROOT
ATOM      1  C   UNL A   1      32.580  27.784  26.504  1.00  0.00     0.023 C 
ENDROOT
BRANCH   1   2
ATOM      2  C   UNL A   1      32.463  27.721  24.985  1.00  0.00     0.023 C 
BRANCH   2   3
ATOM      3  C   UNL A   1      33.795  27.779  24.232  1.00  0.00     0.116 C 
BRANCH   3   4
ATOM      4  N   UNL A   1      33.612  27.502  22.821  1.00  0.00    -0.352 N 
ATOM      5  C   UNL A   1      33.521  26.337  22.127  1.00  0.00     0.256 C 
ATOM      6  O   UNL A   1      33.336  26.439  20.909  1.00  0.00    -0.269 OA
ATOM      7  H   UNL A   1      33.539  28.308  22.261  1.00  0.00     0.163 HD
BRANCH   5   8
ATOM      8  C   UNL A   1      33.556  24.988  22.759  1.00  0.00     0.104 A 
ATOM      9  C   UNL A   1      33.507  20.136  24.287  1.00  0.00     0.167 A 
ATOM     10  N   UNL A   1      34.324  21.190  24.532  1.00  0.00    -0.209 NA
ATOM     11  C   UNL A   1      32.379  20.273  23.472  1.00  0.00     0.166 A 
ATOM     12  C   UNL A   1      34.056  22.399  23.970  1.00  0.00     0.151 A 
ATOM     13  C   UNL A   1      32.052  21.508  22.952  1.00  0.00     0.059 A 
ATOM     14  F   UNL A   1      31.559  19.236  23.239  1.00  0.00    -0.203 F 
ATOM     15  C   UNL A   1      32.898  22.583  23.218  1.00  0.00     0.069 A 
ATOM     16  N   UNL A   1      34.947  23.507  24.145  1.00  0.00    -0.297 N 
ATOM     17  C   UNL A   1      32.523  23.930  22.769  1.00  0.00     0.203 A 
ATOM     18  C   UNL A   1      34.656  24.698  23.480  1.00  0.00     0.111 A 
ATOM     19  O   UNL A   1      31.348  24.103  22.481  1.00  0.00    -0.288 OA
BRANCH   9  20
ATOM     20  N   UNL A   1      33.816  18.949  24.897  1.00  0.00    -0.343 N 
ATOM     21  C   UNL A   1      32.710  14.862  25.193  1.00  0.00     0.332 C 
ATOM     22  N   UNL A   1      33.387  16.139  25.408  1.00  0.00    -0.334 N 
ATOM     23  C   UNL A   1      32.430  17.170  25.883  1.00  0.00     0.283 C 
ATOM     24  C   UNL A   1      34.020  16.605  24.150  1.00  0.00     0.283 C 
ATOM     25  H   UNL A   1      34.103  15.998  26.120  1.00  0.00     0.347 HD
ATOM     26  C   UNL A   1      33.095  18.554  26.102  1.00  0.00     0.179 C 
ATOM     27  C   UNL A   1      34.721  17.970  24.310  1.00  0.00     0.179 C 
ENDBRANCH   9  20
BRANCH  16  28
ATOM     28  C   UNL A   1      36.146  23.411  24.915  1.00  0.00     0.083 A 
ATOM     29  C   UNL A   1      36.309  24.162  26.093  1.00  0.00     0.033 A 
ATOM     30  C   UNL A   1      37.195  22.557  24.527  1.00  0.00     0.150 A 
ATOM     31  C   UNL A   1      37.477  24.053  26.851  1.00  0.00     0.041 A 
ATOM     32  C   UNL A   1      38.366  22.453  25.271  1.00  0.00     0.080 A 
ATOM     33  F   UNL A   1      37.093  21.838  23.400  1.00  0.00    -0.205 F 
ATOM     34  C   UNL A   1      38.494  23.203  26.429  1.00  0.00     0.126 A 
ATOM     35  F   UNL A   1      39.617  23.111  27.155  1.00  0.00    -0.207 F 
ENDBRANCH  16  28
ENDBRANCH   5   8
ENDBRANCH   3   4
ENDBRANCH   2   3
ENDBRANCH   1   2
BRANCH   1  36
ATOM     36  C   UNL A   1      33.879  28.388  27.016  1.00  0.00     0.116 C 
BRANCH  36  37
ATOM     37  N   UNL A   1      33.745  29.771  27.454  1.00  0.00    -0.352 N 
ATOM     38  C   UNL A   1      34.688  30.536  28.099  1.00  0.00     0.251 C 
ATOM     39  H   UNL A   1      32.882  30.207  27.268  1.00  0.00     0.163 HD
ATOM     40  O   UNL A   1      34.435  31.672  28.480  1.00  0.00    -0.269 OA
BRANCH  38  41
ATOM     41  C   UNL A   1      36.006  29.928  28.356  1.00  0.00     0.039 A 
ATOM     42  C   UNL A   1      37.029  30.119  27.426  1.00  0.00     0.014 A 
ATOM     43  C   UNL A   1      36.244  29.278  29.570  1.00  0.00     0.014 A 
ATOM     44  C   UNL A   1      38.322  29.702  27.742  1.00  0.00     0.010 A 
ATOM     45  C   UNL A   1      37.543  28.916  29.905  1.00  0.00     0.010 A 
ATOM     46  C   UNL A   1      38.589  29.123  28.992  1.00  0.00    -0.014 A 
BRANCH  46  47
ATOM     47  C   UNL A   1      39.960  28.702  29.361  1.00  0.00     0.031 A 
ATOM     48  C   UNL A   1      40.689  29.443  30.444  1.00  0.00     0.074 A 
ATOM     49  C   UNL A   1      40.563  27.708  28.682  1.00  0.00     0.049 A 
ATOM     50  N   UNL A   1      41.894  29.245  30.905  1.00  0.00    -0.248 NA
ATOM     51  C   UNL A   1      39.979  30.568  31.074  1.00  0.00     0.031 C 
ATOM     52  C   UNL A   1      39.963  26.955  27.579  1.00  0.00     0.029 A 
ATOM     53  N   UNL A   1      41.818  27.167  28.811  1.00  0.00    -0.354 N 
ATOM     54  C   UNL A   1      42.093  30.226  31.868  1.00  0.00     0.074 A 
ATOM     55  C   UNL A   1      40.906  31.049  31.890  1.00  0.00     0.031 C 
ATOM     56  C   UNL A   1      40.843  26.036  27.148  1.00  0.00     0.029 A 
ATOM     57  C   UNL A   1      42.075  26.149  27.924  1.00  0.00     0.049 A 
ATOM     58  H   UNL A   1      42.472  27.479  29.477  1.00  0.00     0.167 HD
ATOM     59  C   UNL A   1      43.161  30.406  32.677  1.00  0.00     0.034 A 
ATOM     60  C   UNL A   1      43.178  25.390  27.764  1.00  0.00     0.034 A 
ATOM     61  C   UNL A   1      44.320  29.557  32.670  1.00  0.00     0.049 A 
ATOM     62  C   UNL A   1      44.355  25.610  28.681  1.00  0.00     0.074 A 
ATOM     63  C   UNL A   1      45.411  29.592  33.518  1.00  0.00     0.029 A 
ATOM     64  N   UNL A   1      44.542  28.525  31.770  1.00  0.00    -0.354 N 
ATOM     65  N   UNL A   1      44.477  26.457  29.676  1.00  0.00    -0.248 NA
ATOM     66  C   UNL A   1      45.541  24.769  28.463  1.00  0.00     0.031 C 
ATOM     67  C   UNL A   1      46.314  28.611  33.105  1.00  0.00     0.029 A 
ATOM     68  C   UNL A   1      45.766  27.934  32.025  1.00  0.00     0.049 A 
ATOM     69  H   UNL A   1      43.920  28.252  31.057  1.00  0.00     0.167 HD
ATOM     70  C   UNL A   1      45.735  26.226  30.224  1.00  0.00     0.074 A 
ATOM     71  C   UNL A   1      46.334  25.155  29.455  1.00  0.00     0.031 C 
ATOM     72  C   UNL A   1      46.338  26.845  31.270  1.00  0.00     0.034 A 
BRANCH  59  73
ATOM     73  C   UNL A   1      43.125  31.544  33.659  1.00  0.00     0.023 A 
ATOM     74  C   UNL A   1      42.496  31.378  34.906  1.00  0.00     0.031 A 
ATOM     75  C   UNL A   1      43.636  32.812  33.329  1.00  0.00     0.131 A 
ATOM     76  C   UNL A   1      42.381  32.470  35.773  1.00  0.00     0.055 A 
ATOM     77  C   UNL A   1      43.544  33.889  34.209  1.00  0.00     0.041 A 
ATOM     78  F   UNL A   1      44.250  33.013  32.151  1.00  0.00    -0.206 F 
ATOM     79  C   UNL A   1      42.909  33.722  35.435  1.00  0.00     0.022 A 
BRANCH  76  80
ATOM     80  S   UNL A   1      41.525  32.318  37.364  1.00  0.00     0.124 S 
ATOM     81  O   UNL A   1      42.328  31.302  38.042  1.00  0.00    -0.237 OA
ATOM     82  O   UNL A   1      41.642  33.669  37.902  1.00  0.00    -0.237 OA
ATOM     83  O   UNL A   1      40.177  31.896  36.997  1.00  0.00    -0.744 OA
ENDBRANCH  76  80
ENDBRANCH  59  73
BRANCH  60  84
ATOM     84  C   UNL A   1      43.179  24.296  26.751  1.00  0.00     0.023 A 
ATOM     85  C   UNL A   1      42.601  23.044  27.021  1.00  0.00     0.031 A 
ATOM     86  C   UNL A   1      43.825  24.477  25.516  1.00  0.00     0.131 A 
ATOM     87  C   UNL A   1      42.716  22.010  26.080  1.00  0.00     0.055 A 
ATOM     88  C   UNL A   1      43.892  23.460  24.563  1.00  0.00     0.041 A 
ATOM     89  F   UNL A   1      44.399  25.654  25.221  1.00  0.00    -0.206 F 
ATOM     90  C   UNL A   1      43.344  22.215  24.848  1.00  0.00     0.022 A 
BRANCH  87  91
ATOM     91  S   UNL A   1      42.121  20.337  26.456  1.00  0.00     0.124 S 
ATOM     92  O   UNL A   1      42.561  19.586  25.283  1.00  0.00    -0.237 OA
ATOM     93  O   UNL A   1      42.834  20.041  27.696  1.00  0.00    -0.237 OA
ATOM     94  O   UNL A   1      40.679  20.506  26.592  1.00  0.00    -0.744 OA
ENDBRANCH  87  91
ENDBRANCH  60  84
BRANCH  72  95
ATOM     95  C   UNL A   1      47.710  26.385  31.686  1.00  0.00     0.023 A 
ATOM     96  C   UNL A   1      48.840  26.821  30.968  1.00  0.00     0.031 A 
ATOM     97  C   UNL A   1      47.882  25.400  32.672  1.00  0.00     0.131 A 
ATOM     98  C   UNL A   1      50.088  26.237  31.216  1.00  0.00     0.055 A 
ATOM     99  C   UNL A   1      49.136  24.852  32.944  1.00  0.00     0.041 A 
ATOM    100  F   UNL A   1      46.831  24.950  33.374  1.00  0.00    -0.206 F 
ATOM    101  C   UNL A   1      50.243  25.260  32.205  1.00  0.00     0.022 A 
BRANCH  98 102
ATOM    102  S   UNL A   1      51.537  26.670  30.215  1.00  0.00     0.124 S 
ATOM    103  O   UNL A   1      52.639  26.226  31.067  1.00  0.00    -0.237 OA
ATOM    104  O   UNL A   1      51.323  25.878  29.008  1.00  0.00    -0.237 OA
ATOM    105  O   UNL A   1      51.430  28.116  30.046  1.00  0.00    -0.744 OA
ENDBRANCH  98 102
ENDBRANCH  72  95
ENDBRANCH  46  47
ENDBRANCH  38  41
ENDBRANCH  36  37
ENDBRANCH   1  36
TORSDOF 16
ENDMDL
