MODEL 1
REMARK VINA RESULT:     -10.6      0.000      0.000
REMARK SMILES [NH3+]CCOCC(=O)N[C@H](C(=O)NCCCCNC(=O)c1ccc(-c2c3nc(c(-c4cc(S(=O)(=O)[O-])ccc4F)c4ccc([nH]4)c(-c4cc(S(=O)(=O)[O-])ccc4F)c4nc(c(-c5cc(S(=O)(=O)[O-])ccc5F)c5ccc2[nH]5)C=C4)C=C3)cc1)C1CCCCC1
REMARK SMILES IDX 13 1 12 2 10 3 11 4 9 6 8 7 6 8 7 9 5 11 4 12 3 13 2 14 1 15
REMARK SMILES IDX 83 19 84 20 88 21 85 22 87 23 86 24 14 25 15 26 16 27 17 28
REMARK SMILES IDX 18 29 19 31 20 32 21 33 82 34 22 35 81 36 23 37 24 38 25 39
REMARK SMILES IDX 75 40 26 41 80 42 74 43 76 44 27 45 79 46 73 47 72 48 28 50
REMARK SMILES IDX 60 51 40 52 59 53 41 54 44 55 58 56 77 57 42 58 43 59 57 61
REMARK SMILES IDX 78 62 45 63 29 64 30 65 38 66 31 67 37 68 39 69 36 70 32 71
REMARK SMILES IDX 33 72 34 73 35 74 61 75 62 76 70 77 63 78 69 79 71 80 68 81
REMARK SMILES IDX 64 82 65 83 66 84 67 85 46 86 47 87 55 88 48 89 54 90 56 91
REMARK SMILES IDX 53 92 49 93 50 94 51 95 52 96
REMARK H PARENT 12 5 8 10 1 16 1 17 1 18 17 30 76 49 44 60
REMARK Flexibility Score: inf
ROOT
ATOM      1  C   UNL A   1      32.311  28.060  25.442  1.00  0.00     0.116 C 
ENDROOT
BRANCH   1   2
ATOM      2  N   UNL A   1      31.289  27.074  25.151  1.00  0.00    -0.354 N 
ATOM      3  C   UNL A   1      30.763  26.727  23.936  1.00  0.00     0.242 C 
ATOM      4  O   UNL A   1      30.085  25.700  23.865  1.00  0.00    -0.273 OA
ATOM      5  H   UNL A   1      30.924  26.593  25.929  1.00  0.00     0.163 HD
BRANCH   3   6
ATOM      6  C   UNL A   1      31.140  27.523  22.659  1.00  0.00     0.174 C 
BRANCH   6   7
ATOM      7  N   UNL A   1      31.591  26.653  21.564  1.00  0.00    -0.342 N 
ATOM      8  C   UNL A   1      32.769  25.976  21.431  1.00  0.00     0.246 C 
ATOM      9  O   UNL A   1      33.031  25.489  20.327  1.00  0.00    -0.272 OA
ATOM     10  H   UNL A   1      30.955  26.541  20.822  1.00  0.00     0.164 HD
BRANCH   8  11
ATOM     11  C   UNL A   1      33.732  25.796  22.614  1.00  0.00     0.260 C 
BRANCH  11  12
ATOM     12  O   UNL A   1      34.311  24.514  22.750  1.00  0.00    -0.366 OA
BRANCH  12  13
ATOM     13  C   UNL A   1      33.707  23.674  23.734  1.00  0.00     0.222 C 
BRANCH  13  14
ATOM     14  C   UNL A   1      32.773  22.587  23.170  1.00  0.00     0.287 C 
BRANCH  14  15
ATOM     15  N   UNL A   1      32.646  22.560  21.711  1.00  0.00    -0.356 N 
ATOM     16  H   UNL A   1      32.942  21.649  21.361  1.00  0.00     0.344 HD
ATOM     17  H   UNL A   1      33.232  23.288  21.304  1.00  0.00     0.344 HD
ATOM     18  H   UNL A   1      31.673  22.723  21.452  1.00  0.00     0.344 HD
ENDBRANCH  14  15
ENDBRANCH  13  14
ENDBRANCH  12  13
ENDBRANCH  11  12
ENDBRANCH   8  11
ENDBRANCH   6   7
BRANCH   6  19
ATOM     19  C   UNL A   1      29.882  28.395  22.317  1.00  0.00     0.021 C 
ATOM     20  C   UNL A   1      28.807  28.277  23.413  1.00  0.00     0.006 C 
ATOM     21  C   UNL A   1      30.119  29.886  22.012  1.00  0.00     0.006 C 
ATOM     22  C   UNL A   1      27.500  28.938  22.969  1.00  0.00     0.000 C 
ATOM     23  C   UNL A   1      28.827  30.541  21.523  1.00  0.00     0.000 C 
ATOM     24  C   UNL A   1      27.698  30.389  22.535  1.00  0.00     0.000 C 
ENDBRANCH   6  19
ENDBRANCH   3   6
ENDBRANCH   1   2
BRANCH   1  25
ATOM     25  C   UNL A   1      31.752  29.463  25.641  1.00  0.00     0.023 C 
BRANCH  25  26
ATOM     26  C   UNL A   1      31.999  30.057  27.022  1.00  0.00     0.023 C 
BRANCH  26  27
ATOM     27  C   UNL A   1      33.159  31.038  27.100  1.00  0.00     0.116 C 
BRANCH  27  28
ATOM     28  N   UNL A   1      32.746  32.428  27.250  1.00  0.00    -0.352 N 
ATOM     29  C   UNL A   1      33.349  33.405  28.011  1.00  0.00     0.251 C 
ATOM     30  H   UNL A   1      31.944  32.701  26.750  1.00  0.00     0.163 HD
ATOM     31  O   UNL A   1      32.870  34.528  28.086  1.00  0.00    -0.269 OA
BRANCH  29  32
ATOM     32  C   UNL A   1      34.554  33.031  28.773  1.00  0.00     0.039 A 
ATOM     33  C   UNL A   1      34.396  32.466  30.039  1.00  0.00     0.014 A 
ATOM     34  C   UNL A   1      35.808  33.100  28.164  1.00  0.00     0.014 A 
ATOM     35  C   UNL A   1      35.499  31.889  30.667  1.00  0.00     0.010 A 
ATOM     36  C   UNL A   1      36.883  32.450  28.753  1.00  0.00     0.010 A 
ATOM     37  C   UNL A   1      36.738  31.834  30.007  1.00  0.00    -0.014 A 
BRANCH  37  38
ATOM     38  C   UNL A   1      37.906  31.148  30.611  1.00  0.00     0.031 A 
ATOM     39  C   UNL A   1      38.382  31.566  31.973  1.00  0.00     0.074 A 
ATOM     40  C   UNL A   1      38.580  30.222  29.902  1.00  0.00     0.049 A 
ATOM     41  N   UNL A   1      39.447  31.190  32.631  1.00  0.00    -0.248 NA
ATOM     42  C   UNL A   1      37.571  32.581  32.665  1.00  0.00     0.031 C 
ATOM     43  C   UNL A   1      38.242  29.776  28.548  1.00  0.00     0.029 A 
ATOM     44  N   UNL A   1      39.702  29.496  30.216  1.00  0.00    -0.354 N 
ATOM     45  C   UNL A   1      39.449  31.941  33.802  1.00  0.00     0.074 A 
ATOM     46  C   UNL A   1      38.316  32.839  33.728  1.00  0.00     0.031 C 
ATOM     47  C   UNL A   1      39.123  28.839  28.159  1.00  0.00     0.029 A 
ATOM     48  C   UNL A   1      40.110  28.646  29.215  1.00  0.00     0.049 A 
ATOM     49  H   UNL A   1      40.170  29.578  31.079  1.00  0.00     0.167 HD
ATOM     50  C   UNL A   1      40.301  31.867  34.854  1.00  0.00     0.034 A 
ATOM     51  C   UNL A   1      41.168  27.812  29.156  1.00  0.00     0.034 A 
ATOM     52  C   UNL A   1      41.403  30.941  34.920  1.00  0.00     0.049 A 
ATOM     53  C   UNL A   1      42.095  27.735  30.342  1.00  0.00     0.074 A 
ATOM     54  C   UNL A   1      42.292  30.728  35.958  1.00  0.00     0.029 A 
ATOM     55  N   UNL A   1      41.768  30.070  33.900  1.00  0.00    -0.354 N 
ATOM     56  N   UNL A   1      42.056  28.415  31.465  1.00  0.00    -0.248 NA
ATOM     57  C   UNL A   1      43.201  26.773  30.257  1.00  0.00     0.031 C 
ATOM     58  C   UNL A   1      43.224  29.767  35.548  1.00  0.00     0.029 A 
ATOM     59  C   UNL A   1      42.880  29.334  34.277  1.00  0.00     0.049 A 
ATOM     60  H   UNL A   1      41.304  29.988  33.035  1.00  0.00     0.167 HD
ATOM     61  C   UNL A   1      43.115  27.940  32.232  1.00  0.00     0.074 A 
ATOM     62  C   UNL A   1      43.766  26.911  31.448  1.00  0.00     0.031 C 
ATOM     63  C   UNL A   1      43.515  28.317  33.473  1.00  0.00     0.034 A 
BRANCH  50  64
ATOM     64  C   UNL A   1      40.072  32.828  35.995  1.00  0.00     0.023 A 
ATOM     65  C   UNL A   1      40.811  34.018  36.115  1.00  0.00     0.031 A 
ATOM     66  C   UNL A   1      39.141  32.527  37.003  1.00  0.00     0.131 A 
ATOM     67  C   UNL A   1      40.676  34.814  37.261  1.00  0.00     0.055 A 
ATOM     68  C   UNL A   1      38.947  33.370  38.101  1.00  0.00     0.041 A 
ATOM     69  F   UNL A   1      38.420  31.396  36.955  1.00  0.00    -0.206 F 
ATOM     70  C   UNL A   1      39.731  34.512  38.244  1.00  0.00     0.022 A 
BRANCH  67  71
ATOM     71  S   UNL A   1      41.865  36.158  37.524  1.00  0.00     0.124 S 
ATOM     72  O   UNL A   1      42.081  36.629  36.158  1.00  0.00    -0.237 OA
ATOM     73  O   UNL A   1      41.130  37.062  38.401  1.00  0.00    -0.237 OA
ATOM     74  O   UNL A   1      43.011  35.488  38.134  1.00  0.00    -0.744 OA
ENDBRANCH  67  71
ENDBRANCH  50  64
BRANCH  51  75
ATOM     75  C   UNL A   1      41.416  26.987  27.941  1.00  0.00     0.023 A 
ATOM     76  C   UNL A   1      41.064  25.628  27.908  1.00  0.00     0.031 A 
ATOM     77  C   UNL A   1      42.039  27.535  26.806  1.00  0.00     0.131 A 
ATOM     78  C   UNL A   1      41.379  24.850  26.783  1.00  0.00     0.055 A 
ATOM     79  C   UNL A   1      42.310  26.768  25.671  1.00  0.00     0.041 A 
ATOM     80  F   UNL A   1      42.386  28.831  26.781  1.00  0.00    -0.206 F 
ATOM     81  C   UNL A   1      41.990  25.413  25.660  1.00  0.00     0.022 A 
BRANCH  78  82
ATOM     82  S   UNL A   1      41.043  23.068  26.839  1.00  0.00     0.124 S 
ATOM     83  O   UNL A   1      41.842  22.580  25.720  1.00  0.00    -0.237 OA
ATOM     84  O   UNL A   1      41.518  22.713  28.171  1.00  0.00    -0.237 OA
ATOM     85  O   UNL A   1      39.595  22.990  26.653  1.00  0.00    -0.744 OA
ENDBRANCH  78  82
ENDBRANCH  51  75
BRANCH  63  86
ATOM     86  C   UNL A   1      44.683  27.574  34.068  1.00  0.00     0.023 A 
ATOM     87  C   UNL A   1      44.505  26.406  34.827  1.00  0.00     0.031 A 
ATOM     88  C   UNL A   1      45.992  28.048  33.872  1.00  0.00     0.131 A 
ATOM     89  C   UNL A   1      45.615  25.775  35.405  1.00  0.00     0.055 A 
ATOM     90  C   UNL A   1      47.098  27.387  34.406  1.00  0.00     0.041 A 
ATOM     91  F   UNL A   1      46.215  29.161  33.154  1.00  0.00    -0.206 F 
ATOM     92  C   UNL A   1      46.912  26.249  35.186  1.00  0.00     0.022 A 
BRANCH  89  93
ATOM     93  S   UNL A   1      45.339  24.363  36.509  1.00  0.00     0.124 S 
ATOM     94  O   UNL A   1      44.483  23.506  35.696  1.00  0.00    -0.237 OA
ATOM     95  O   UNL A   1      46.695  23.875  36.739  1.00  0.00    -0.237 OA
ATOM     96  O   UNL A   1      44.690  24.960  37.675  1.00  0.00    -0.744 OA
ENDBRANCH  89  93
ENDBRANCH  63  86
ENDBRANCH  37  38
ENDBRANCH  29  32
ENDBRANCH  27  28
ENDBRANCH  26  27
ENDBRANCH  25  26
ENDBRANCH   1  25
TORSDOF 21
ENDMDL
MODEL 2
REMARK VINA RESULT:     -10.6      2.102      8.364
REMARK SMILES [NH3+]CCOCC(=O)N[C@H](C(=O)NCCCCNC(=O)c1ccc(-c2c3nc(c(-c4cc(S(=O)(=O)[O-])ccc4F)c4ccc([nH]4)c(-c4cc(S(=O)(=O)[O-])ccc4F)c4nc(c(-c5cc(S(=O)(=O)[O-])ccc5F)c5ccc2[nH]5)C=C4)C=C3)cc1)C1CCCCC1
REMARK SMILES IDX 13 1 12 2 10 3 11 4 9 6 8 7 6 8 7 9 5 11 4 12 3 13 2 14 1 15
REMARK SMILES IDX 83 19 84 20 88 21 85 22 87 23 86 24 14 25 15 26 16 27 17 28
REMARK SMILES IDX 18 29 19 31 20 32 21 33 82 34 22 35 81 36 23 37 24 38 25 39
REMARK SMILES IDX 75 40 26 41 80 42 74 43 76 44 27 45 79 46 73 47 72 48 28 50
REMARK SMILES IDX 60 51 40 52 59 53 41 54 44 55 58 56 77 57 42 58 43 59 57 61
REMARK SMILES IDX 78 62 45 63 29 64 30 65 38 66 31 67 37 68 39 69 36 70 32 71
REMARK SMILES IDX 33 72 34 73 35 74 61 75 62 76 70 77 63 78 69 79 71 80 68 81
REMARK SMILES IDX 64 82 65 83 66 84 67 85 46 86 47 87 55 88 48 89 54 90 56 91
REMARK SMILES IDX 53 92 49 93 50 94 51 95 52 96
REMARK H PARENT 12 5 8 10 1 16 1 17 1 18 17 30 76 49 44 60
REMARK Flexibility Score: inf
ROOT
ATOM      1  C   UNL A   1      33.265  28.416  26.968  1.00  0.00     0.116 C 
ENDROOT
BRANCH   1   2
ATOM      2  N   UNL A   1      31.969  27.784  27.117  1.00  0.00    -0.354 N 
ATOM      3  C   UNL A   1      31.434  26.758  26.385  1.00  0.00     0.242 C 
ATOM      4  O   UNL A   1      30.426  26.196  26.819  1.00  0.00    -0.273 OA
ATOM      5  H   UNL A   1      31.400  28.140  27.837  1.00  0.00     0.163 HD
BRANCH   3   6
ATOM      6  C   UNL A   1      32.166  26.223  25.127  1.00  0.00     0.174 C 
BRANCH   6   7
ATOM      7  N   UNL A   1      32.585  27.300  24.217  1.00  0.00    -0.342 N 
ATOM      8  C   UNL A   1      31.847  27.980  23.292  1.00  0.00     0.246 C 
ATOM      9  O   UNL A   1      32.454  28.685  22.479  1.00  0.00    -0.272 OA
ATOM     10  H   UNL A   1      33.529  27.569  24.285  1.00  0.00     0.164 HD
BRANCH   8  11
ATOM     11  C   UNL A   1      30.314  27.904  23.269  1.00  0.00     0.260 C 
BRANCH  11  12
ATOM     12  O   UNL A   1      29.685  28.452  22.129  1.00  0.00    -0.366 OA
BRANCH  12  13
ATOM     13  C   UNL A   1      28.630  29.375  22.401  1.00  0.00     0.222 C 
BRANCH  13  14
ATOM     14  C   UNL A   1      28.580  30.594  21.462  1.00  0.00     0.287 C 
BRANCH  14  15
ATOM     15  N   UNL A   1      29.511  31.678  21.785  1.00  0.00    -0.356 N 
ATOM     16  H   UNL A   1      29.731  31.652  22.780  1.00  0.00     0.344 HD
ATOM     17  H   UNL A   1      29.083  32.574  21.554  1.00  0.00     0.344 HD
ATOM     18  H   UNL A   1      30.368  31.562  21.245  1.00  0.00     0.344 HD
ENDBRANCH  14  15
ENDBRANCH  13  14
ENDBRANCH  12  13
ENDBRANCH  11  12
ENDBRANCH   8  11
ENDBRANCH   6   7
BRANCH   6  19
ATOM     19  C   UNL A   1      33.342  25.336  25.666  1.00  0.00     0.021 C 
ATOM     20  C   UNL A   1      32.817  24.026  26.280  1.00  0.00     0.006 C 
ATOM     21  C   UNL A   1      34.481  25.003  24.684  1.00  0.00     0.006 C 
ATOM     22  C   UNL A   1      33.935  23.277  27.007  1.00  0.00     0.000 C 
ATOM     23  C   UNL A   1      35.623  24.296  25.416  1.00  0.00     0.000 C 
ATOM     24  C   UNL A   1      35.148  23.027  26.113  1.00  0.00     0.000 C 
ENDBRANCH   6  19
ENDBRANCH   3   6
ENDBRANCH   1   2
BRANCH   1  25
ATOM     25  C   UNL A   1      33.191  29.786  26.305  1.00  0.00     0.023 C 
BRANCH  25  26
ATOM     26  C   UNL A   1      32.618  30.890  27.186  1.00  0.00     0.023 C 
BRANCH  26  27
ATOM     27  C   UNL A   1      33.598  31.996  27.547  1.00  0.00     0.116 C 
BRANCH  27  28
ATOM     28  N   UNL A   1      32.966  33.287  27.792  1.00  0.00    -0.352 N 
ATOM     29  C   UNL A   1      33.314  34.226  28.736  1.00  0.00     0.251 C 
ATOM     30  H   UNL A   1      32.202  33.513  27.215  1.00  0.00     0.163 HD
ATOM     31  O   UNL A   1      32.668  35.255  28.867  1.00  0.00    -0.269 OA
BRANCH  29  32
ATOM     32  C   UNL A   1      34.456  33.918  29.617  1.00  0.00     0.039 A 
ATOM     33  C   UNL A   1      34.242  33.104  30.729  1.00  0.00     0.014 A 
ATOM     34  C   UNL A   1      35.744  34.308  29.244  1.00  0.00     0.014 A 
ATOM     35  C   UNL A   1      35.341  32.608  31.430  1.00  0.00     0.010 A 
ATOM     36  C   UNL A   1      36.835  33.745  29.890  1.00  0.00     0.010 A 
ATOM     37  C   UNL A   1      36.644  32.886  30.985  1.00  0.00    -0.014 A 
BRANCH  37  38
ATOM     38  C   UNL A   1      37.831  32.301  31.655  1.00  0.00     0.031 A 
ATOM     39  C   UNL A   1      38.583  31.189  30.980  1.00  0.00     0.074 A 
ATOM     40  C   UNL A   1      38.171  32.707  32.894  1.00  0.00     0.049 A 
ATOM     41  N   UNL A   1      39.565  30.456  31.435  1.00  0.00    -0.248 NA
ATOM     42  C   UNL A   1      38.135  30.825  29.626  1.00  0.00     0.031 C 
ATOM     43  C   UNL A   1      37.479  33.740  33.669  1.00  0.00     0.029 A 
ATOM     44  N   UNL A   1      39.178  32.290  33.727  1.00  0.00    -0.354 N 
ATOM     45  C   UNL A   1      39.835  29.528  30.435  1.00  0.00     0.074 A 
ATOM     46  C   UNL A   1      38.867  29.750  29.382  1.00  0.00     0.031 C 
ATOM     47  C   UNL A   1      38.096  33.890  34.853  1.00  0.00     0.029 A 
ATOM     48  C   UNL A   1      39.199  32.940  34.939  1.00  0.00     0.049 A 
ATOM     49  H   UNL A   1      39.824  31.589  33.480  1.00  0.00     0.167 HD
ATOM     50  C   UNL A   1      40.817  28.594  30.389  1.00  0.00     0.034 A 
ATOM     51  C   UNL A   1      40.012  32.778  36.002  1.00  0.00     0.034 A 
ATOM     52  C   UNL A   1      41.790  28.413  31.437  1.00  0.00     0.049 A 
ATOM     53  C   UNL A   1      41.107  31.745  35.924  1.00  0.00     0.074 A 
ATOM     54  C   UNL A   1      42.870  27.548  31.473  1.00  0.00     0.029 A 
ATOM     55  N   UNL A   1      41.801  29.113  32.637  1.00  0.00    -0.354 N 
ATOM     56  N   UNL A   1      41.382  30.907  34.951  1.00  0.00    -0.248 NA
ATOM     57  C   UNL A   1      42.005  31.642  37.081  1.00  0.00     0.031 C 
ATOM     58  C   UNL A   1      43.502  27.687  32.714  1.00  0.00     0.029 A 
ATOM     59  C   UNL A   1      42.855  28.684  33.428  1.00  0.00     0.049 A 
ATOM     60  H   UNL A   1      41.155  29.811  32.889  1.00  0.00     0.167 HD
ATOM     61  C   UNL A   1      42.505  30.198  35.368  1.00  0.00     0.074 A 
ATOM     62  C   UNL A   1      42.859  30.714  36.675  1.00  0.00     0.031 C 
ATOM     63  C   UNL A   1      43.184  29.211  34.731  1.00  0.00     0.034 A 
BRANCH  50  64
ATOM     64  C   UNL A   1      40.861  27.700  29.175  1.00  0.00     0.023 A 
ATOM     65  C   UNL A   1      41.782  27.916  28.134  1.00  0.00     0.031 A 
ATOM     66  C   UNL A   1      39.937  26.651  29.029  1.00  0.00     0.131 A 
ATOM     67  C   UNL A   1      41.699  27.159  26.957  1.00  0.00     0.055 A 
ATOM     68  C   UNL A   1      39.917  25.842  27.889  1.00  0.00     0.041 A 
ATOM     69  F   UNL A   1      39.021  26.408  29.979  1.00  0.00    -0.206 F 
ATOM     70  C   UNL A   1      40.789  26.106  26.837  1.00  0.00     0.022 A 
BRANCH  67  71
ATOM     71  S   UNL A   1      42.688  27.674  25.527  1.00  0.00     0.124 S 
ATOM     72  O   UNL A   1      44.002  27.871  26.135  1.00  0.00    -0.237 OA
ATOM     73  O   UNL A   1      42.564  26.531  24.629  1.00  0.00    -0.237 OA
ATOM     74  O   UNL A   1      42.028  28.898  25.076  1.00  0.00    -0.744 OA
ENDBRANCH  67  71
ENDBRANCH  50  64
BRANCH  51  75
ATOM     75  C   UNL A   1      39.830  33.604  37.229  1.00  0.00     0.023 A 
ATOM     76  C   UNL A   1      40.615  34.746  37.453  1.00  0.00     0.031 A 
ATOM     77  C   UNL A   1      38.892  33.244  38.213  1.00  0.00     0.131 A 
ATOM     78  C   UNL A   1      40.481  35.463  38.652  1.00  0.00     0.055 A 
ATOM     79  C   UNL A   1      38.731  33.987  39.384  1.00  0.00     0.041 A 
ATOM     80  F   UNL A   1      38.109  32.168  38.043  1.00  0.00    -0.206 F 
ATOM     81  C   UNL A   1      39.538  35.098  39.615  1.00  0.00     0.022 A 
BRANCH  78  82
ATOM     82  S   UNL A   1      41.616  36.844  38.968  1.00  0.00     0.124 S 
ATOM     83  O   UNL A   1      40.691  37.909  39.339  1.00  0.00    -0.237 OA
ATOM     84  O   UNL A   1      42.448  36.311  40.041  1.00  0.00    -0.237 OA
ATOM     85  O   UNL A   1      42.295  37.025  37.686  1.00  0.00    -0.744 OA
ENDBRANCH  78  82
ENDBRANCH  51  75
BRANCH  63  86
ATOM     86  C   UNL A   1      44.404  28.665  35.427  1.00  0.00     0.023 A 
ATOM     87  C   UNL A   1      44.334  27.536  36.260  1.00  0.00     0.031 A 
ATOM     88  C   UNL A   1      45.652  29.290  35.255  1.00  0.00     0.131 A 
ATOM     89  C   UNL A   1      45.484  27.093  36.930  1.00  0.00     0.055 A 
ATOM     90  C   UNL A   1      46.803  28.813  35.882  1.00  0.00     0.041 A 
ATOM     91  F   UNL A   1      45.770  30.373  34.470  1.00  0.00    -0.206 F 
ATOM     92  C   UNL A   1      46.720  27.715  36.733  1.00  0.00     0.022 A 
BRANCH  89  93
ATOM     93  S   UNL A   1      45.330  25.733  38.119  1.00  0.00     0.124 S 
ATOM     94  O   UNL A   1      45.514  26.422  39.392  1.00  0.00    -0.237 OA
ATOM     95  O   UNL A   1      43.983  25.236  37.853  1.00  0.00    -0.237 OA
ATOM     96  O   UNL A   1      46.411  24.823  37.743  1.00  0.00    -0.744 OA
ENDBRANCH  89  93
ENDBRANCH  63  86
ENDBRANCH  37  38
ENDBRANCH  29  32
ENDBRANCH  27  28
ENDBRANCH  26  27
ENDBRANCH  25  26
ENDBRANCH   1  25
TORSDOF 21
ENDMDL
MODEL 3
REMARK VINA RESULT:     -10.5      3.007      4.842
REMARK SMILES [NH3+]CCOCC(=O)N[C@H](C(=O)NCCCCNC(=O)c1ccc(-c2c3nc(c(-c4cc(S(=O)(=O)[O-])ccc4F)c4ccc([nH]4)c(-c4cc(S(=O)(=O)[O-])ccc4F)c4nc(c(-c5cc(S(=O)(=O)[O-])ccc5F)c5ccc2[nH]5)C=C4)C=C3)cc1)C1CCCCC1
REMARK SMILES IDX 13 1 12 2 10 3 11 4 9 6 8 7 6 8 7 9 5 11 4 12 3 13 2 14 1 15
REMARK SMILES IDX 83 19 84 20 88 21 85 22 87 23 86 24 14 25 15 26 16 27 17 28
REMARK SMILES IDX 18 29 19 31 20 32 21 33 82 34 22 35 81 36 23 37 24 38 25 39
REMARK SMILES IDX 75 40 26 41 80 42 74 43 76 44 27 45 79 46 73 47 72 48 28 50
REMARK SMILES IDX 60 51 40 52 59 53 41 54 44 55 58 56 77 57 42 58 43 59 57 61
REMARK SMILES IDX 78 62 45 63 29 64 30 65 38 66 31 67 37 68 39 69 36 70 32 71
REMARK SMILES IDX 33 72 34 73 35 74 61 75 62 76 70 77 63 78 69 79 71 80 68 81
REMARK SMILES IDX 64 82 65 83 66 84 67 85 46 86 47 87 55 88 48 89 54 90 56 91
REMARK SMILES IDX 53 92 49 93 50 94 51 95 52 96
REMARK H PARENT 12 5 8 10 1 16 1 17 1 18 17 30 76 49 44 60
REMARK Flexibility Score: inf
ROOT
ATOM      1  C   UNL A   1      33.283  25.974  25.919  1.00  0.00     0.116 C 
ENDROOT
BRANCH   1   2
ATOM      2  N   UNL A   1      32.082  25.242  25.570  1.00  0.00    -0.354 N 
ATOM      3  C   UNL A   1      31.932  24.245  24.644  1.00  0.00     0.242 C 
ATOM      4  O   UNL A   1      30.895  23.579  24.666  1.00  0.00    -0.273 OA
ATOM      5  H   UNL A   1      31.268  25.496  26.062  1.00  0.00     0.163 HD
BRANCH   3   6
ATOM      6  C   UNL A   1      33.101  23.868  23.696  1.00  0.00     0.174 C 
BRANCH   6   7
ATOM      7  N   UNL A   1      33.686  25.040  23.030  1.00  0.00    -0.342 N 
ATOM      8  C   UNL A   1      33.116  25.892  22.129  1.00  0.00     0.246 C 
ATOM      9  O   UNL A   1      33.860  26.672  21.525  1.00  0.00    -0.272 OA
ATOM     10  H   UNL A   1      34.621  25.240  23.267  1.00  0.00     0.164 HD
BRANCH   8  11
ATOM     11  C   UNL A   1      31.601  25.911  21.885  1.00  0.00     0.260 C 
BRANCH  11  12
ATOM     12  O   UNL A   1      31.036  27.173  21.594  1.00  0.00    -0.366 OA
BRANCH  12  13
ATOM     13  C   UNL A   1      30.690  27.962  22.732  1.00  0.00     0.222 C 
BRANCH  13  14
ATOM     14  C   UNL A   1      29.831  29.202  22.422  1.00  0.00     0.287 C 
BRANCH  14  15
ATOM     15  N   UNL A   1      30.446  30.188  21.530  1.00  0.00    -0.356 N 
ATOM     16  H   UNL A   1      31.201  30.666  22.021  1.00  0.00     0.344 HD
ATOM     17  H   UNL A   1      29.745  30.868  21.239  1.00  0.00     0.344 HD
ATOM     18  H   UNL A   1      30.822  29.715  20.708  1.00  0.00     0.344 HD
ENDBRANCH  14  15
ENDBRANCH  13  14
ENDBRANCH  12  13
ENDBRANCH  11  12
ENDBRANCH   8  11
ENDBRANCH   6   7
BRANCH   6  19
ATOM     19  C   UNL A   1      34.111  23.050  24.574  1.00  0.00     0.021 C 
ATOM     20  C   UNL A   1      33.933  21.535  24.363  1.00  0.00     0.006 C 
ATOM     21  C   UNL A   1      35.605  23.399  24.440  1.00  0.00     0.006 C 
ATOM     22  C   UNL A   1      34.752  20.742  25.384  1.00  0.00     0.000 C 
ATOM     23  C   UNL A   1      36.423  22.644  25.490  1.00  0.00     0.000 C 
ATOM     24  C   UNL A   1      36.228  21.137  25.382  1.00  0.00     0.000 C 
ENDBRANCH   6  19
ENDBRANCH   3   6
ENDBRANCH   1   2
BRANCH   1  25
ATOM     25  C   UNL A   1      33.299  27.395  25.371  1.00  0.00     0.023 C 
BRANCH  25  26
ATOM     26  C   UNL A   1      32.615  28.427  26.260  1.00  0.00     0.023 C 
BRANCH  26  27
ATOM     27  C   UNL A   1      33.386  28.804  27.515  1.00  0.00     0.116 C 
BRANCH  27  28
ATOM     28  N   UNL A   1      33.530  30.242  27.710  1.00  0.00    -0.352 N 
ATOM     29  C   UNL A   1      34.650  30.924  28.131  1.00  0.00     0.251 C 
ATOM     30  H   UNL A   1      32.735  30.789  27.518  1.00  0.00     0.163 HD
ATOM     31  O   UNL A   1      34.622  32.135  28.298  1.00  0.00    -0.269 OA
BRANCH  29  32
ATOM     32  C   UNL A   1      35.859  30.135  28.428  1.00  0.00     0.039 A 
ATOM     33  C   UNL A   1      36.909  30.149  27.510  1.00  0.00     0.014 A 
ATOM     34  C   UNL A   1      35.998  29.521  29.675  1.00  0.00     0.014 A 
ATOM     35  C   UNL A   1      38.142  29.612  27.879  1.00  0.00     0.010 A 
ATOM     36  C   UNL A   1      37.247  29.065  30.069  1.00  0.00     0.010 A 
ATOM     37  C   UNL A   1      38.332  29.112  29.178  1.00  0.00    -0.014 A 
BRANCH  37  38
ATOM     38  C   UNL A   1      39.655  28.616  29.629  1.00  0.00     0.031 A 
ATOM     39  C   UNL A   1      40.375  29.340  30.731  1.00  0.00     0.074 A 
ATOM     40  C   UNL A   1      40.237  27.581  28.993  1.00  0.00     0.049 A 
ATOM     41  N   UNL A   1      41.583  29.156  31.194  1.00  0.00    -0.248 NA
ATOM     42  C   UNL A   1      39.650  30.453  31.365  1.00  0.00     0.031 C 
ATOM     43  C   UNL A   1      39.655  26.838  27.872  1.00  0.00     0.029 A 
ATOM     44  N   UNL A   1      41.456  26.982  29.187  1.00  0.00    -0.354 N 
ATOM     45  C   UNL A   1      41.773  30.145  32.154  1.00  0.00     0.074 A 
ATOM     46  C   UNL A   1      40.580  30.965  32.155  1.00  0.00     0.031 C 
ATOM     47  C   UNL A   1      40.508  25.870  27.496  1.00  0.00     0.029 A 
ATOM     48  C   UNL A   1      41.711  25.948  28.317  1.00  0.00     0.049 A 
ATOM     49  H   UNL A   1      42.090  27.268  29.885  1.00  0.00     0.167 HD
ATOM     50  C   UNL A   1      42.834  30.334  32.977  1.00  0.00     0.034 A 
ATOM     51  C   UNL A   1      42.797  25.159  28.193  1.00  0.00     0.034 A 
ATOM     52  C   UNL A   1      43.997  29.484  32.980  1.00  0.00     0.049 A 
ATOM     53  C   UNL A   1      43.959  25.377  29.128  1.00  0.00     0.074 A 
ATOM     54  C   UNL A   1      45.103  29.536  33.811  1.00  0.00     0.029 A 
ATOM     55  N   UNL A   1      44.207  28.424  32.106  1.00  0.00    -0.354 N 
ATOM     56  N   UNL A   1      44.104  26.285  30.065  1.00  0.00    -0.248 NA
ATOM     57  C   UNL A   1      45.097  24.459  28.995  1.00  0.00     0.031 C 
ATOM     58  C   UNL A   1      46.002  28.542  33.408  1.00  0.00     0.029 A 
ATOM     59  C   UNL A   1      45.431  27.828  32.365  1.00  0.00     0.049 A 
ATOM     60  H   UNL A   1      43.578  28.137  31.406  1.00  0.00     0.167 HD
ATOM     61  C   UNL A   1      45.339  26.028  30.653  1.00  0.00     0.074 A 
ATOM     62  C   UNL A   1      45.891  24.875  29.972  1.00  0.00     0.031 C 
ATOM     63  C   UNL A   1      45.962  26.682  31.666  1.00  0.00     0.034 A 
BRANCH  50  64
ATOM     64  C   UNL A   1      42.774  31.513  33.916  1.00  0.00     0.023 A 
ATOM     65  C   UNL A   1      42.200  31.407  35.196  1.00  0.00     0.031 A 
ATOM     66  C   UNL A   1      43.249  32.772  33.511  1.00  0.00     0.131 A 
ATOM     67  C   UNL A   1      42.030  32.553  35.985  1.00  0.00     0.055 A 
ATOM     68  C   UNL A   1      43.156  33.895  34.338  1.00  0.00     0.041 A 
ATOM     69  F   UNL A   1      43.789  32.941  32.294  1.00  0.00    -0.206 F 
ATOM     70  C   UNL A   1      42.527  33.793  35.576  1.00  0.00     0.022 A 
BRANCH  67  71
ATOM     71  S   UNL A   1      41.009  32.430  37.478  1.00  0.00     0.124 S 
ATOM     72  O   UNL A   1      41.902  31.712  38.385  1.00  0.00    -0.237 OA
ATOM     73  O   UNL A   1      40.757  33.829  37.805  1.00  0.00    -0.237 OA
ATOM     74  O   UNL A   1      39.842  31.671  37.034  1.00  0.00    -0.744 OA
ENDBRANCH  67  71
ENDBRANCH  50  64
BRANCH  51  75
ATOM     75  C   UNL A   1      42.847  24.096  27.150  1.00  0.00     0.023 A 
ATOM     76  C   UNL A   1      42.173  22.878  27.330  1.00  0.00     0.031 A 
ATOM     77  C   UNL A   1      43.597  24.269  25.973  1.00  0.00     0.131 A 
ATOM     78  C   UNL A   1      42.299  21.860  26.372  1.00  0.00     0.055 A 
ATOM     79  C   UNL A   1      43.683  23.270  25.001  1.00  0.00     0.041 A 
ATOM     80  F   UNL A   1      44.251  25.419  25.748  1.00  0.00    -0.206 F 
ATOM     81  C   UNL A   1      43.040  22.051  25.203  1.00  0.00     0.022 A 
BRANCH  78  82
ATOM     82  S   UNL A   1      41.535  20.250  26.711  1.00  0.00     0.124 S 
ATOM     83  O   UNL A   1      42.412  19.718  27.749  1.00  0.00    -0.237 OA
ATOM     84  O   UNL A   1      40.195  20.635  27.138  1.00  0.00    -0.237 OA
ATOM     85  O   UNL A   1      41.604  19.563  25.423  1.00  0.00    -0.744 OA
ENDBRANCH  78  82
ENDBRANCH  51  75
BRANCH  63  86
ATOM     86  C   UNL A   1      47.288  26.129  32.121  1.00  0.00     0.023 A 
ATOM     87  C   UNL A   1      48.491  26.489  31.491  1.00  0.00     0.031 A 
ATOM     88  C   UNL A   1      47.343  25.226  33.196  1.00  0.00     0.131 A 
ATOM     89  C   UNL A   1      49.697  25.910  31.912  1.00  0.00     0.055 A 
ATOM     90  C   UNL A   1      48.552  24.694  33.645  1.00  0.00     0.041 A 
ATOM     91  F   UNL A   1      46.221  24.851  33.831  1.00  0.00    -0.206 F 
ATOM     92  C   UNL A   1      49.737  25.028  32.995  1.00  0.00     0.022 A 
BRANCH  89  93
ATOM     93  S   UNL A   1      51.209  26.271  30.979  1.00  0.00     0.124 S 
ATOM     94  O   UNL A   1      51.210  27.730  30.957  1.00  0.00    -0.237 OA
ATOM     95  O   UNL A   1      52.241  25.646  31.801  1.00  0.00    -0.237 OA
ATOM     96  O   UNL A   1      50.976  25.631  29.685  1.00  0.00    -0.744 OA
ENDBRANCH  89  93
ENDBRANCH  63  86
ENDBRANCH  37  38
ENDBRANCH  29  32
ENDBRANCH  27  28
ENDBRANCH  26  27
ENDBRANCH  25  26
ENDBRANCH   1  25
TORSDOF 21
ENDMDL
