MODEL 1
REMARK VINA RESULT:     -11.9      0.000      0.000
REMARK SMILES O=C(CN(CC(F)(F)F)c1nc(-c2ccccc2)cs1)NCCCCNC(=O)c1ccc(-c2c3nc(c(-c4cc(S(=O)(=O)[O-])ccc4F)c4ccc([nH]4)c(-c4cc(S(=O)(=O)[O-])ccc4F)c4nc(c(-c5cc(S(=O)(=O)[O-])ccc5F)c5ccc2[nH]5)C=C4)C=C3)cc1
REMARK SMILES IDX 23 1 22 2 21 3 1 4 2 5 3 7 4 8 5 9 6 10 7 11 8 12 9 13 10 14
REMARK SMILES IDX 11 15 20 16 12 17 19 18 13 19 14 20 18 21 15 22 17 23 16 24
REMARK SMILES IDX 24 25 25 26 26 27 27 28 28 30 29 31 30 32 91 33 31 34 90 35
REMARK SMILES IDX 32 36 33 37 34 38 84 39 35 40 89 41 83 42 85 43 36 44 88 45
REMARK SMILES IDX 82 46 81 47 37 49 69 50 49 51 68 52 50 53 53 54 67 55 86 56
REMARK SMILES IDX 51 57 52 58 66 60 87 61 54 62 38 63 39 64 47 65 40 66 46 67
REMARK SMILES IDX 48 68 45 69 41 70 42 71 43 72 44 73 70 74 71 75 79 76 72 77
REMARK SMILES IDX 78 78 80 79 77 80 73 81 74 82 75 83 76 84 55 85 56 86 64 87
REMARK SMILES IDX 57 88 63 89 65 90 62 91 58 92 59 93 60 94 61 95
REMARK H PARENT 21 6 26 29 85 48 53 59
REMARK Flexibility Score: inf
ROOT
ATOM      1  C   UNL A   1      34.954  22.227  26.752  1.00  0.00     0.023 C 
ENDROOT
BRANCH   1   2
ATOM      2  C   UNL A   1      33.599  21.796  27.314  1.00  0.00     0.116 C 
BRANCH   2   3
ATOM      3  N   UNL A   1      32.490  22.106  26.436  1.00  0.00    -0.355 N 
ATOM      4  O   UNL A   1      31.794  23.975  27.578  1.00  0.00    -0.273 OA
ATOM      5  C   UNL A   1      31.712  23.235  26.598  1.00  0.00     0.239 C 
ATOM      6  H   UNL A   1      32.284  21.491  25.696  1.00  0.00     0.163 HD
BRANCH   5   7
ATOM      7  C   UNL A   1      30.629  23.437  25.525  1.00  0.00     0.219 C 
BRANCH   7   8
ATOM      8  N   UNL A   1      31.134  23.927  24.228  1.00  0.00    -0.330 N 
BRANCH   8   9
ATOM      9  C   UNL A   1      31.272  22.972  23.107  1.00  0.00     0.234 C 
BRANCH   9  10
ATOM     10  C   UNL A   1      32.663  22.382  22.817  1.00  0.00     0.406 C 
ATOM     11  F   UNL A   1      32.703  21.045  23.010  1.00  0.00    -0.169 F 
ATOM     12  F   UNL A   1      32.998  22.595  21.521  1.00  0.00    -0.169 F 
ATOM     13  F   UNL A   1      33.629  22.948  23.574  1.00  0.00    -0.169 F 
ENDBRANCH   9  10
ENDBRANCH   8   9
BRANCH   8  14
ATOM     14  C   UNL A   1      31.226  25.277  24.055  1.00  0.00     0.186 A 
ATOM     15  N   UNL A   1      30.249  25.997  23.550  1.00  0.00    -0.220 NA
ATOM     16  S   UNL A   1      32.647  26.194  24.417  1.00  0.00    -0.105 S 
ATOM     17  C   UNL A   1      30.609  27.331  23.459  1.00  0.00     0.083 A 
ATOM     18  C   UNL A   1      31.892  27.619  23.869  1.00  0.00     0.097 A 
BRANCH  17  19
ATOM     19  C   UNL A   1      29.678  28.356  23.027  1.00  0.00     0.001 A 
ATOM     20  C   UNL A   1      28.302  28.228  23.258  1.00  0.00     0.010 A 
ATOM     21  C   UNL A   1      30.154  29.467  22.321  1.00  0.00     0.010 A 
ATOM     22  C   UNL A   1      27.413  29.186  22.767  1.00  0.00     0.001 A 
ATOM     23  C   UNL A   1      29.263  30.419  21.822  1.00  0.00     0.001 A 
ATOM     24  C   UNL A   1      27.893  30.276  22.041  1.00  0.00     0.000 A 
ENDBRANCH  17  19
ENDBRANCH   8  14
ENDBRANCH   7   8
ENDBRANCH   5   7
ENDBRANCH   2   3
ENDBRANCH   1   2
BRANCH   1  25
ATOM     25  C   UNL A   1      35.541  21.305  25.680  1.00  0.00     0.023 C 
BRANCH  25  26
ATOM     26  C   UNL A   1      36.938  21.666  25.186  1.00  0.00     0.116 C 
BRANCH  26  27
ATOM     27  N   UNL A   1      37.941  20.666  25.518  1.00  0.00    -0.352 N 
ATOM     28  C   UNL A   1      39.195  20.828  26.060  1.00  0.00     0.251 C 
ATOM     29  H   UNL A   1      37.684  19.736  25.326  1.00  0.00     0.163 HD
ATOM     30  O   UNL A   1      39.948  19.858  26.141  1.00  0.00    -0.269 OA
BRANCH  28  31
ATOM     31  C   UNL A   1      39.658  22.163  26.509  1.00  0.00     0.039 A 
ATOM     32  C   UNL A   1      40.785  22.245  27.332  1.00  0.00     0.014 A 
ATOM     33  C   UNL A   1      38.993  23.330  26.127  1.00  0.00     0.014 A 
ATOM     34  C   UNL A   1      41.288  23.496  27.704  1.00  0.00     0.010 A 
ATOM     35  C   UNL A   1      39.540  24.577  26.434  1.00  0.00     0.010 A 
ATOM     36  C   UNL A   1      40.697  24.676  27.221  1.00  0.00    -0.014 A 
BRANCH  36  37
ATOM     37  C   UNL A   1      41.282  26.013  27.522  1.00  0.00     0.031 A 
ATOM     38  C   UNL A   1      42.674  26.356  27.061  1.00  0.00     0.074 A 
ATOM     39  C   UNL A   1      40.583  26.897  28.262  1.00  0.00     0.049 A 
ATOM     40  N   UNL A   1      43.383  27.431  27.294  1.00  0.00    -0.248 NA
ATOM     41  C   UNL A   1      43.369  25.341  26.255  1.00  0.00     0.031 C 
ATOM     42  C   UNL A   1      39.239  26.674  28.799  1.00  0.00     0.029 A 
ATOM     43  N   UNL A   1      40.907  28.158  28.702  1.00  0.00    -0.354 N 
ATOM     44  C   UNL A   1      44.609  27.222  26.671  1.00  0.00     0.074 A 
ATOM     45  C   UNL A   1      44.567  25.887  26.109  1.00  0.00     0.031 C 
ATOM     46  C   UNL A   1      38.845  27.767  29.472  1.00  0.00     0.029 A 
ATOM     47  C   UNL A   1      39.925  28.749  29.464  1.00  0.00     0.049 A 
ATOM     48  H   UNL A   1      41.762  28.599  28.491  1.00  0.00     0.167 HD
ATOM     49  C   UNL A   1      45.661  28.071  26.556  1.00  0.00     0.034 A 
ATOM     50  C   UNL A   1      39.899  29.939  30.101  1.00  0.00     0.034 A 
ATOM     51  C   UNL A   1      45.687  29.400  27.119  1.00  0.00     0.049 A 
ATOM     52  C   UNL A   1      41.098  30.848  29.997  1.00  0.00     0.074 A 
ATOM     53  C   UNL A   1      46.685  30.356  27.024  1.00  0.00     0.029 A 
ATOM     54  N   UNL A   1      44.677  29.960  27.892  1.00  0.00    -0.354 N 
ATOM     55  N   UNL A   1      42.232  30.651  29.365  1.00  0.00    -0.248 NA
ATOM     56  C   UNL A   1      41.009  32.144  30.683  1.00  0.00     0.031 C 
ATOM     57  C   UNL A   1      46.312  31.458  27.802  1.00  0.00     0.029 A 
ATOM     58  C   UNL A   1      45.044  31.231  28.309  1.00  0.00     0.049 A 
ATOM     59  H   UNL A   1      43.825  29.518  28.112  1.00  0.00     0.167 HD
ATOM     60  C   UNL A   1      42.977  31.814  29.551  1.00  0.00     0.074 A 
ATOM     61  C   UNL A   1      42.156  32.710  30.339  1.00  0.00     0.031 C 
ATOM     62  C   UNL A   1      44.223  32.115  29.106  1.00  0.00     0.034 A 
BRANCH  49  63
ATOM     63  C   UNL A   1      46.880  27.571  25.814  1.00  0.00     0.023 A 
ATOM     64  C   UNL A   1      47.144  27.954  24.486  1.00  0.00     0.031 A 
ATOM     65  C   UNL A   1      47.780  26.685  26.431  1.00  0.00     0.131 A 
ATOM     66  C   UNL A   1      48.226  27.389  23.795  1.00  0.00     0.055 A 
ATOM     67  C   UNL A   1      48.908  26.197  25.767  1.00  0.00     0.041 A 
ATOM     68  F   UNL A   1      47.573  26.265  27.689  1.00  0.00    -0.206 F 
ATOM     69  C   UNL A   1      49.127  26.534  24.434  1.00  0.00     0.022 A 
BRANCH  66  70
ATOM     70  S   UNL A   1      48.348  27.664  22.006  1.00  0.00     0.124 S 
ATOM     71  O   UNL A   1      48.584  26.308  21.516  1.00  0.00    -0.237 OA
ATOM     72  O   UNL A   1      47.049  28.243  21.687  1.00  0.00    -0.237 OA
ATOM     73  O   UNL A   1      49.487  28.572  21.877  1.00  0.00    -0.744 OA
ENDBRANCH  66  70
ENDBRANCH  49  63
BRANCH  50  74
ATOM     74  C   UNL A   1      38.711  30.337  30.910  1.00  0.00     0.023 A 
ATOM     75  C   UNL A   1      37.632  31.023  30.330  1.00  0.00     0.031 A 
ATOM     76  C   UNL A   1      38.657  30.077  32.293  1.00  0.00     0.131 A 
ATOM     77  C   UNL A   1      36.572  31.471  31.135  1.00  0.00     0.055 A 
ATOM     78  C   UNL A   1      37.572  30.471  33.078  1.00  0.00     0.041 A 
ATOM     79  F   UNL A   1      39.660  29.424  32.901  1.00  0.00    -0.206 F 
ATOM     80  C   UNL A   1      36.527  31.185  32.500  1.00  0.00     0.022 A 
BRANCH  77  81
ATOM     81  S   UNL A   1      35.295  32.519  30.384  1.00  0.00     0.124 S 
ATOM     82  O   UNL A   1      34.877  31.707  29.246  1.00  0.00    -0.237 OA
ATOM     83  O   UNL A   1      34.331  32.647  31.471  1.00  0.00    -0.237 OA
ATOM     84  O   UNL A   1      36.018  33.743  30.045  1.00  0.00    -0.744 OA
ENDBRANCH  77  81
ENDBRANCH  50  74
BRANCH  62  85
ATOM     85  C   UNL A   1      44.755  33.494  29.422  1.00  0.00     0.023 A 
ATOM     86  C   UNL A   1      44.592  34.575  28.537  1.00  0.00     0.031 A 
ATOM     87  C   UNL A   1      45.445  33.726  30.626  1.00  0.00     0.131 A 
ATOM     88  C   UNL A   1      45.162  35.820  28.842  1.00  0.00     0.055 A 
ATOM     89  C   UNL A   1      45.951  34.983  30.955  1.00  0.00     0.041 A 
ATOM     90  F   UNL A   1      45.636  32.730  31.507  1.00  0.00    -0.206 F 
ATOM     91  C   UNL A   1      45.823  36.037  30.054  1.00  0.00     0.022 A 
BRANCH  88  92
ATOM     92  S   UNL A   1      45.116  37.131  27.589  1.00  0.00     0.124 S 
ATOM     93  O   UNL A   1      45.858  36.524  26.489  1.00  0.00    -0.237 OA
ATOM     94  O   UNL A   1      43.684  37.305  27.371  1.00  0.00    -0.237 OA
ATOM     95  O   UNL A   1      45.785  38.255  28.242  1.00  0.00    -0.744 OA
ENDBRANCH  88  92
ENDBRANCH  62  85
ENDBRANCH  36  37
ENDBRANCH  28  31
ENDBRANCH  26  27
ENDBRANCH  25  26
ENDBRANCH   1  25
TORSDOF 19
ENDMDL
MODEL 2
REMARK VINA RESULT:     -11.9      5.271     10.423
REMARK SMILES O=C(CN(CC(F)(F)F)c1nc(-c2ccccc2)cs1)NCCCCNC(=O)c1ccc(-c2c3nc(c(-c4cc(S(=O)(=O)[O-])ccc4F)c4ccc([nH]4)c(-c4cc(S(=O)(=O)[O-])ccc4F)c4nc(c(-c5cc(S(=O)(=O)[O-])ccc5F)c5ccc2[nH]5)C=C4)C=C3)cc1
REMARK SMILES IDX 23 1 22 2 21 3 1 4 2 5 3 7 4 8 5 9 6 10 7 11 8 12 9 13 10 14
REMARK SMILES IDX 11 15 20 16 12 17 19 18 13 19 14 20 18 21 15 22 17 23 16 24
REMARK SMILES IDX 24 25 25 26 26 27 27 28 28 30 29 31 30 32 91 33 31 34 90 35
REMARK SMILES IDX 32 36 33 37 34 38 84 39 35 40 89 41 83 42 85 43 36 44 88 45
REMARK SMILES IDX 82 46 81 47 37 49 69 50 49 51 68 52 50 53 53 54 67 55 86 56
REMARK SMILES IDX 51 57 52 58 66 60 87 61 54 62 38 63 39 64 47 65 40 66 46 67
REMARK SMILES IDX 48 68 45 69 41 70 42 71 43 72 44 73 70 74 71 75 79 76 72 77
REMARK SMILES IDX 78 78 80 79 77 80 73 81 74 82 75 83 76 84 55 85 56 86 64 87
REMARK SMILES IDX 57 88 63 89 65 90 62 91 58 92 59 93 60 94 61 95
REMARK H PARENT 21 6 26 29 85 48 53 59
REMARK Flexibility Score: inf
ROOT
ATOM      1  C   UNL A   1      31.123  31.041  26.085  1.00  0.00     0.023 C 
ENDROOT
BRANCH   1   2
ATOM      2  C   UNL A   1      32.315  30.132  26.386  1.00  0.00     0.116 C 
BRANCH   2   3
ATOM      3  N   UNL A   1      32.150  28.785  25.882  1.00  0.00    -0.355 N 
ATOM      4  O   UNL A   1      31.210  27.925  27.795  1.00  0.00    -0.273 OA
ATOM      5  C   UNL A   1      31.529  27.793  26.613  1.00  0.00     0.239 C 
ATOM      6  H   UNL A   1      32.492  28.569  24.984  1.00  0.00     0.163 HD
BRANCH   5   7
ATOM      7  C   UNL A   1      31.378  26.447  25.884  1.00  0.00     0.219 C 
BRANCH   7   8
ATOM      8  N   UNL A   1      31.189  26.556  24.425  1.00  0.00    -0.330 N 
BRANCH   8   9
ATOM      9  C   UNL A   1      32.041  25.742  23.530  1.00  0.00     0.234 C 
BRANCH   9  10
ATOM     10  C   UNL A   1      33.367  26.345  23.035  1.00  0.00     0.406 C 
ATOM     11  F   UNL A   1      34.143  26.779  24.052  1.00  0.00    -0.169 F 
ATOM     12  F   UNL A   1      34.087  25.406  22.373  1.00  0.00    -0.169 F 
ATOM     13  F   UNL A   1      33.176  27.373  22.179  1.00  0.00    -0.169 F 
ENDBRANCH   9  10
ENDBRANCH   8   9
BRANCH   8  14
ATOM     14  C   UNL A   1      30.086  27.223  23.979  1.00  0.00     0.186 A 
ATOM     15  N   UNL A   1      30.132  28.467  23.556  1.00  0.00    -0.220 NA
ATOM     16  S   UNL A   1      28.495  26.547  23.971  1.00  0.00    -0.105 S 
ATOM     17  C   UNL A   1      28.875  28.913  23.185  1.00  0.00     0.083 A 
ATOM     18  C   UNL A   1      27.856  28.004  23.363  1.00  0.00     0.097 A 
BRANCH  17  19
ATOM     19  C   UNL A   1      28.661  30.219  22.589  1.00  0.00     0.001 A 
ATOM     20  C   UNL A   1      28.748  31.388  23.358  1.00  0.00     0.010 A 
ATOM     21  C   UNL A   1      28.312  30.312  21.237  1.00  0.00     0.010 A 
ATOM     22  C   UNL A   1      28.464  32.629  22.786  1.00  0.00     0.001 A 
ATOM     23  C   UNL A   1      28.018  31.553  20.670  1.00  0.00     0.001 A 
ATOM     24  C   UNL A   1      28.089  32.710  21.445  1.00  0.00     0.000 A 
ENDBRANCH  17  19
ENDBRANCH   8  14
ENDBRANCH   7   8
ENDBRANCH   5   7
ENDBRANCH   2   3
ENDBRANCH   1   2
BRANCH   1  25
ATOM     25  C   UNL A   1      31.277  32.495  26.538  1.00  0.00     0.023 C 
BRANCH  25  26
ATOM     26  C   UNL A   1      32.669  32.900  27.013  1.00  0.00     0.116 C 
BRANCH  26  27
ATOM     27  N   UNL A   1      32.687  34.166  27.728  1.00  0.00    -0.352 N 
ATOM     28  C   UNL A   1      33.498  34.579  28.759  1.00  0.00     0.251 C 
ATOM     29  H   UNL A   1      32.020  34.825  27.429  1.00  0.00     0.163 HD
ATOM     30  O   UNL A   1      33.263  35.649  29.321  1.00  0.00    -0.269 OA
BRANCH  28  31
ATOM     31  C   UNL A   1      34.623  33.732  29.222  1.00  0.00     0.039 A 
ATOM     32  C   UNL A   1      35.932  34.143  28.956  1.00  0.00     0.014 A 
ATOM     33  C   UNL A   1      34.399  32.539  29.913  1.00  0.00     0.014 A 
ATOM     34  C   UNL A   1      37.011  33.403  29.450  1.00  0.00     0.010 A 
ATOM     35  C   UNL A   1      35.473  31.844  30.471  1.00  0.00     0.010 A 
ATOM     36  C   UNL A   1      36.792  32.270  30.252  1.00  0.00    -0.014 A 
BRANCH  36  37
ATOM     37  C   UNL A   1      37.927  31.531  30.873  1.00  0.00     0.031 A 
ATOM     38  C   UNL A   1      38.367  31.851  32.276  1.00  0.00     0.074 A 
ATOM     39  C   UNL A   1      38.602  30.613  30.150  1.00  0.00     0.049 A 
ATOM     40  N   UNL A   1      39.379  31.376  32.956  1.00  0.00    -0.248 NA
ATOM     41  C   UNL A   1      37.577  32.859  32.999  1.00  0.00     0.031 C 
ATOM     42  C   UNL A   1      38.299  30.236  28.768  1.00  0.00     0.029 A 
ATOM     43  N   UNL A   1      39.688  29.835  30.472  1.00  0.00    -0.354 N 
ATOM     44  C   UNL A   1      39.355  32.031  34.183  1.00  0.00     0.074 A 
ATOM     45  C   UNL A   1      38.266  32.985  34.124  1.00  0.00     0.031 C 
ATOM     46  C   UNL A   1      39.159  29.285  28.371  1.00  0.00     0.029 A 
ATOM     47  C   UNL A   1      40.110  29.021  29.446  1.00  0.00     0.049 A 
ATOM     48  H   UNL A   1      40.124  29.859  31.354  1.00  0.00     0.167 HD
ATOM     49  C   UNL A   1      40.149  31.838  35.267  1.00  0.00     0.034 A 
ATOM     50  C   UNL A   1      41.155  28.170  29.369  1.00  0.00     0.034 A 
ATOM     51  C   UNL A   1      41.229  30.881  35.313  1.00  0.00     0.049 A 
ATOM     52  C   UNL A   1      42.052  28.005  30.570  1.00  0.00     0.074 A 
ATOM     53  C   UNL A   1      42.065  30.576  36.374  1.00  0.00     0.029 A 
ATOM     54  N   UNL A   1      41.632  30.081  34.250  1.00  0.00    -0.354 N 
ATOM     55  N   UNL A   1      41.986  28.601  31.739  1.00  0.00    -0.248 NA
ATOM     56  C   UNL A   1      43.157  27.045  30.446  1.00  0.00     0.031 C 
ATOM     57  C   UNL A   1      43.019  29.654  35.930  1.00  0.00     0.029 A 
ATOM     58  C   UNL A   1      42.725  29.311  34.621  1.00  0.00     0.049 A 
ATOM     59  H   UNL A   1      41.203  30.062  33.364  1.00  0.00     0.167 HD
ATOM     60  C   UNL A   1      43.022  28.061  32.499  1.00  0.00     0.074 A 
ATOM     61  C   UNL A   1      43.684  27.082  31.661  1.00  0.00     0.031 C 
ATOM     62  C   UNL A   1      43.388  28.345  33.774  1.00  0.00     0.034 A 
BRANCH  49  63
ATOM     63  C   UNL A   1      39.891  32.703  36.481  1.00  0.00     0.023 A 
ATOM     64  C   UNL A   1      39.040  32.282  37.519  1.00  0.00     0.031 A 
ATOM     65  C   UNL A   1      40.485  33.972  36.594  1.00  0.00     0.131 A 
ATOM     66  C   UNL A   1      38.743  33.153  38.578  1.00  0.00     0.055 A 
ATOM     67  C   UNL A   1      40.256  34.798  37.697  1.00  0.00     0.041 A 
ATOM     68  F   UNL A   1      41.290  34.440  35.627  1.00  0.00    -0.206 F 
ATOM     69  C   UNL A   1      39.366  34.397  38.689  1.00  0.00     0.022 A 
BRANCH  66  70
ATOM     70  S   UNL A   1      37.411  32.698  39.722  1.00  0.00     0.124 S 
ATOM     71  O   UNL A   1      36.247  32.711  38.838  1.00  0.00    -0.237 OA
ATOM     72  O   UNL A   1      37.837  31.387  40.198  1.00  0.00    -0.237 OA
ATOM     73  O   UNL A   1      37.437  33.765  40.720  1.00  0.00    -0.744 OA
ENDBRANCH  66  70
ENDBRANCH  49  63
BRANCH  50  74
ATOM     74  C   UNL A   1      41.428  27.421  28.108  1.00  0.00     0.023 A 
ATOM     75  C   UNL A   1      41.157  26.047  28.004  1.00  0.00     0.031 A 
ATOM     76  C   UNL A   1      42.011  28.061  26.998  1.00  0.00     0.131 A 
ATOM     77  C   UNL A   1      41.514  25.349  26.840  1.00  0.00     0.055 A 
ATOM     78  C   UNL A   1      42.308  27.374  25.820  1.00  0.00     0.041 A 
ATOM     79  F   UNL A   1      42.292  29.373  27.040  1.00  0.00    -0.206 F 
ATOM     80  C   UNL A   1      42.072  26.005  25.742  1.00  0.00     0.022 A 
BRANCH  77  81
ATOM     81  S   UNL A   1      41.325  23.544  26.819  1.00  0.00     0.124 S 
ATOM     82  O   UNL A   1      39.890  23.399  26.599  1.00  0.00    -0.237 OA
ATOM     83  O   UNL A   1      42.187  23.162  25.706  1.00  0.00    -0.237 OA
ATOM     84  O   UNL A   1      41.798  23.138  28.140  1.00  0.00    -0.744 OA
ENDBRANCH  77  81
ENDBRANCH  50  74
BRANCH  62  85
ATOM     85  C   UNL A   1      44.532  27.548  34.359  1.00  0.00     0.023 A 
ATOM     86  C   UNL A   1      44.319  26.352  35.067  1.00  0.00     0.031 A 
ATOM     87  C   UNL A   1      45.856  28.000  34.210  1.00  0.00     0.131 A 
ATOM     88  C   UNL A   1      45.405  25.682  35.650  1.00  0.00     0.055 A 
ATOM     89  C   UNL A   1      46.938  27.293  34.733  1.00  0.00     0.041 A 
ATOM     90  F   UNL A   1      46.119  29.137  33.547  1.00  0.00    -0.206 F 
ATOM     91  C   UNL A   1      46.715  26.133  35.471  1.00  0.00     0.022 A 
BRANCH  88  92
ATOM     92  S   UNL A   1      45.076  24.263  36.731  1.00  0.00     0.124 S 
ATOM     93  O   UNL A   1      46.424  23.858  37.117  1.00  0.00    -0.237 OA
ATOM     94  O   UNL A   1      44.263  24.856  37.787  1.00  0.00    -0.237 OA
ATOM     95  O   UNL A   1      44.372  23.323  35.860  1.00  0.00    -0.744 OA
ENDBRANCH  88  92
ENDBRANCH  62  85
ENDBRANCH  36  37
ENDBRANCH  28  31
ENDBRANCH  26  27
ENDBRANCH  25  26
ENDBRANCH   1  25
TORSDOF 19
ENDMDL
MODEL 3
REMARK VINA RESULT:     -11.8      5.317      8.301
REMARK SMILES O=C(CN(CC(F)(F)F)c1nc(-c2ccccc2)cs1)NCCCCNC(=O)c1ccc(-c2c3nc(c(-c4cc(S(=O)(=O)[O-])ccc4F)c4ccc([nH]4)c(-c4cc(S(=O)(=O)[O-])ccc4F)c4nc(c(-c5cc(S(=O)(=O)[O-])ccc5F)c5ccc2[nH]5)C=C4)C=C3)cc1
REMARK SMILES IDX 23 1 22 2 21 3 1 4 2 5 3 7 4 8 5 9 6 10 7 11 8 12 9 13 10 14
REMARK SMILES IDX 11 15 20 16 12 17 19 18 13 19 14 20 18 21 15 22 17 23 16 24
REMARK SMILES IDX 24 25 25 26 26 27 27 28 28 30 29 31 30 32 91 33 31 34 90 35
REMARK SMILES IDX 32 36 33 37 34 38 84 39 35 40 89 41 83 42 85 43 36 44 88 45
REMARK SMILES IDX 82 46 81 47 37 49 69 50 49 51 68 52 50 53 53 54 67 55 86 56
REMARK SMILES IDX 51 57 52 58 66 60 87 61 54 62 38 63 39 64 47 65 40 66 46 67
REMARK SMILES IDX 48 68 45 69 41 70 42 71 43 72 44 73 70 74 71 75 79 76 72 77
REMARK SMILES IDX 78 78 80 79 77 80 73 81 74 82 75 83 76 84 55 85 56 86 64 87
REMARK SMILES IDX 57 88 63 89 65 90 62 91 58 92 59 93 60 94 61 95
REMARK H PARENT 21 6 26 29 85 48 53 59
REMARK Flexibility Score: inf
ROOT
ATOM      1  C   UNL A   1      31.085  30.925  25.833  1.00  0.00     0.023 C 
ENDROOT
BRANCH   1   2
ATOM      2  C   UNL A   1      32.136  29.923  26.311  1.00  0.00     0.116 C 
BRANCH   2   3
ATOM      3  N   UNL A   1      31.993  28.612  25.712  1.00  0.00    -0.355 N 
ATOM      4  O   UNL A   1      31.064  27.605  27.557  1.00  0.00    -0.273 OA
ATOM      5  C   UNL A   1      31.386  27.561  26.370  1.00  0.00     0.239 C 
ATOM      6  H   UNL A   1      32.339  28.465  24.803  1.00  0.00     0.163 HD
BRANCH   5   7
ATOM      7  C   UNL A   1      31.258  26.268  25.548  1.00  0.00     0.219 C 
BRANCH   7   8
ATOM      8  N   UNL A   1      30.987  26.478  24.112  1.00  0.00    -0.330 N 
BRANCH   8   9
ATOM      9  C   UNL A   1      31.769  25.711  23.117  1.00  0.00     0.234 C 
BRANCH   9  10
ATOM     10  C   UNL A   1      33.181  26.205  22.758  1.00  0.00     0.406 C 
ATOM     11  F   UNL A   1      33.649  25.639  21.625  1.00  0.00    -0.169 F 
ATOM     12  F   UNL A   1      33.164  27.544  22.542  1.00  0.00    -0.169 F 
ATOM     13  F   UNL A   1      34.073  25.975  23.746  1.00  0.00    -0.169 F 
ENDBRANCH   9  10
ENDBRANCH   8   9
BRANCH   8  14
ATOM     14  C   UNL A   1      29.875  27.191  23.776  1.00  0.00     0.186 A 
ATOM     15  N   UNL A   1      29.927  28.444  23.381  1.00  0.00    -0.220 NA
ATOM     16  S   UNL A   1      28.266  26.567  23.886  1.00  0.00    -0.105 S 
ATOM     17  C   UNL A   1      28.660  28.940  23.127  1.00  0.00     0.083 A 
ATOM     18  C   UNL A   1      27.629  28.059  23.369  1.00  0.00     0.097 A 
BRANCH  17  19
ATOM     19  C   UNL A   1      28.442  30.267  22.583  1.00  0.00     0.001 A 
ATOM     20  C   UNL A   1      28.155  30.454  21.224  1.00  0.00     0.010 A 
ATOM     21  C   UNL A   1      28.572  31.384  23.416  1.00  0.00     0.010 A 
ATOM     22  C   UNL A   1      28.025  31.742  20.702  1.00  0.00     0.001 A 
ATOM     23  C   UNL A   1      28.453  32.672  22.891  1.00  0.00     0.001 A 
ATOM     24  C   UNL A   1      28.184  32.851  21.534  1.00  0.00     0.000 A 
ENDBRANCH  17  19
ENDBRANCH   8  14
ENDBRANCH   7   8
ENDBRANCH   5   7
ENDBRANCH   2   3
ENDBRANCH   1   2
BRANCH   1  25
ATOM     25  C   UNL A   1      31.200  32.330  26.429  1.00  0.00     0.023 C 
BRANCH  25  26
ATOM     26  C   UNL A   1      32.530  32.661  27.097  1.00  0.00     0.116 C 
BRANCH  26  27
ATOM     27  N   UNL A   1      32.587  34.015  27.625  1.00  0.00    -0.352 N 
ATOM     28  C   UNL A   1      33.449  34.562  28.547  1.00  0.00     0.251 C 
ATOM     29  H   UNL A   1      31.907  34.632  27.270  1.00  0.00     0.163 HD
ATOM     30  O   UNL A   1      33.245  35.702  28.963  1.00  0.00    -0.269 OA
BRANCH  28  31
ATOM     31  C   UNL A   1      34.594  33.778  29.069  1.00  0.00     0.039 A 
ATOM     32  C   UNL A   1      35.890  34.140  28.688  1.00  0.00     0.014 A 
ATOM     33  C   UNL A   1      34.403  32.692  29.926  1.00  0.00     0.014 A 
ATOM     34  C   UNL A   1      36.990  33.467  29.228  1.00  0.00     0.010 A 
ATOM     35  C   UNL A   1      35.501  32.072  30.523  1.00  0.00     0.010 A 
ATOM     36  C   UNL A   1      36.809  32.455  30.186  1.00  0.00    -0.014 A 
BRANCH  36  37
ATOM     37  C   UNL A   1      37.971  31.800  30.849  1.00  0.00     0.031 A 
ATOM     38  C   UNL A   1      38.747  30.724  30.136  1.00  0.00     0.074 A 
ATOM     39  C   UNL A   1      38.292  32.130  32.117  1.00  0.00     0.049 A 
ATOM     40  N   UNL A   1      39.733  29.984  30.576  1.00  0.00    -0.248 NA
ATOM     41  C   UNL A   1      38.339  30.425  28.755  1.00  0.00     0.031 C 
ATOM     42  C   UNL A   1      37.598  33.131  32.930  1.00  0.00     0.029 A 
ATOM     43  N   UNL A   1      39.275  31.655  32.950  1.00  0.00    -0.354 N 
ATOM     44  C   UNL A   1      40.059  29.126  29.531  1.00  0.00     0.074 A 
ATOM     45  C   UNL A   1      39.120  29.395  28.462  1.00  0.00     0.031 C 
ATOM     46  C   UNL A   1      38.191  33.212  34.132  1.00  0.00     0.029 A 
ATOM     47  C   UNL A   1      39.272  32.235  34.198  1.00  0.00     0.049 A 
ATOM     48  H   UNL A   1      39.923  30.964  32.679  1.00  0.00     0.167 HD
ATOM     49  C   UNL A   1      41.064  28.217  29.459  1.00  0.00     0.034 A 
ATOM     50  C   UNL A   1      40.039  31.995  35.283  1.00  0.00     0.034 A 
ATOM     51  C   UNL A   1      41.996  27.961  30.531  1.00  0.00     0.049 A 
ATOM     52  C   UNL A   1      41.121  30.949  35.195  1.00  0.00     0.074 A 
ATOM     53  C   UNL A   1      43.076  27.094  30.546  1.00  0.00     0.029 A 
ATOM     54  N   UNL A   1      41.955  28.561  31.784  1.00  0.00    -0.354 N 
ATOM     55  N   UNL A   1      41.445  30.177  34.182  1.00  0.00    -0.248 NA
ATOM     56  C   UNL A   1      41.948  30.746  36.393  1.00  0.00     0.031 C 
ATOM     57  C   UNL A   1      43.637  27.112  31.828  1.00  0.00     0.029 A 
ATOM     58  C   UNL A   1      42.967  28.057  32.588  1.00  0.00     0.049 A 
ATOM     59  H   UNL A   1      41.304  29.245  32.061  1.00  0.00     0.167 HD
ATOM     60  C   UNL A   1      42.535  29.424  34.613  1.00  0.00     0.074 A 
ATOM     61  C   UNL A   1      42.821  29.845  35.969  1.00  0.00     0.031 C 
ATOM     62  C   UNL A   1      43.238  28.474  33.945  1.00  0.00     0.034 A 
BRANCH  49  63
ATOM     63  C   UNL A   1      41.186  27.414  28.183  1.00  0.00     0.023 A 
ATOM     64  C   UNL A   1      40.805  26.061  28.122  1.00  0.00     0.031 A 
ATOM     65  C   UNL A   1      41.710  28.000  27.017  1.00  0.00     0.131 A 
ATOM     66  C   UNL A   1      41.030  25.321  26.952  1.00  0.00     0.055 A 
ATOM     67  C   UNL A   1      41.846  27.280  25.827  1.00  0.00     0.041 A 
ATOM     68  F   UNL A   1      42.111  29.281  27.015  1.00  0.00    -0.206 F 
ATOM     69  C   UNL A   1      41.522  25.928  25.795  1.00  0.00     0.022 A 
BRANCH  66  70
ATOM     70  S   UNL A   1      40.818  23.520  27.015  1.00  0.00     0.124 S 
ATOM     71  O   UNL A   1      41.318  23.212  28.353  1.00  0.00    -0.237 OA
ATOM     72  O   UNL A   1      39.381  23.365  26.817  1.00  0.00    -0.237 OA
ATOM     73  O   UNL A   1      41.655  23.038  25.918  1.00  0.00    -0.744 OA
ENDBRANCH  66  70
ENDBRANCH  49  63
BRANCH  50  74
ATOM     74  C   UNL A   1      39.805  32.742  36.553  1.00  0.00     0.023 A 
ATOM     75  C   UNL A   1      38.885  32.281  37.509  1.00  0.00     0.031 A 
ATOM     76  C   UNL A   1      40.466  33.958  36.810  1.00  0.00     0.131 A 
ATOM     77  C   UNL A   1      38.614  33.053  38.649  1.00  0.00     0.055 A 
ATOM     78  C   UNL A   1      40.237  34.692  37.975  1.00  0.00     0.041 A 
ATOM     79  F   UNL A   1      41.356  34.446  35.932  1.00  0.00    -0.206 F 
ATOM     80  C   UNL A   1      39.295  34.247  38.897  1.00  0.00     0.022 A 
BRANCH  77  81
ATOM     81  S   UNL A   1      37.282  32.521  39.761  1.00  0.00     0.124 S 
ATOM     82  O   UNL A   1      37.227  33.629  40.709  1.00  0.00    -0.237 OA
ATOM     83  O   UNL A   1      36.153  32.401  38.846  1.00  0.00    -0.237 OA
ATOM     84  O   UNL A   1      37.779  31.258  40.305  1.00  0.00    -0.744 OA
ENDBRANCH  77  81
ENDBRANCH  50  74
BRANCH  62  85
ATOM     85  C   UNL A   1      44.421  27.861  34.660  1.00  0.00     0.023 A 
ATOM     86  C   UNL A   1      44.317  26.648  35.364  1.00  0.00     0.031 A 
ATOM     87  C   UNL A   1      45.670  28.508  34.641  1.00  0.00     0.131 A 
ATOM     88  C   UNL A   1      45.425  26.152  36.068  1.00  0.00     0.055 A 
ATOM     89  C   UNL A   1      46.785  27.975  35.287  1.00  0.00     0.041 A 
ATOM     90  F   UNL A   1      45.828  29.671  33.989  1.00  0.00    -0.206 F 
ATOM     91  C   UNL A   1      46.663  26.797  36.018  1.00  0.00     0.022 A 
BRANCH  88  92
ATOM     92  S   UNL A   1      45.200  24.702  37.135  1.00  0.00     0.124 S 
ATOM     93  O   UNL A   1      44.045  24.053  36.524  1.00  0.00    -0.237 OA
ATOM     94  O   UNL A   1      46.474  24.006  36.989  1.00  0.00    -0.237 OA
ATOM     95  O   UNL A   1      44.959  25.281  38.457  1.00  0.00    -0.744 OA
ENDBRANCH  88  92
ENDBRANCH  62  85
ENDBRANCH  36  37
ENDBRANCH  28  31
ENDBRANCH  26  27
ENDBRANCH  25  26
ENDBRANCH   1  25
TORSDOF 19
ENDMDL
