MODEL 1
REMARK VINA RESULT:     -12.6      0.000      0.000
REMARK SMILES O=C(NCCCCNC(=O)[C@H]1[C@@H](c2ccccc2)[C@@H](C(=O)N2CCCCC2)[C@@H]1c1ccccc1)c1ccc(-c2c3nc(c(-c4cc(S(=O)(=O)[O-])ccc4F)c4ccc([nH]4)c(-c4cc(S(=O)(=O)[O-])ccc4F)c4nc(c(-c5cc(S(=O)(=O)[O-])ccc5F)c5ccc2[nH]5)C=C4)C=C3)cc1
REMARK SMILES IDX 4 1 3 2 1 3 2 4 35 6 36 7 97 8 37 9 96 10 38 11 39 12 40 13
REMARK SMILES IDX 90 14 41 15 95 16 89 17 91 18 42 19 94 20 88 21 87 22 43 24
REMARK SMILES IDX 75 25 55 26 74 27 56 28 59 29 73 30 92 31 57 32 58 33 72 35
REMARK SMILES IDX 93 36 60 37 44 38 45 39 53 40 46 41 52 42 54 43 51 44 47 45
REMARK SMILES IDX 48 46 49 47 50 48 76 49 77 50 85 51 78 52 84 53 86 54 83 55
REMARK SMILES IDX 79 56 80 57 81 58 82 59 61 60 62 61 70 62 63 63 69 64 71 65
REMARK SMILES IDX 68 66 64 67 65 68 66 69 67 70 5 71 6 72 7 73 8 74 9 75 10 77
REMARK SMILES IDX 11 78 12 79 28 80 19 81 13 82 14 83 18 84 15 85 17 86 16 87
REMARK SMILES IDX 29 88 30 89 34 90 31 91 33 92 32 93 20 94 21 95 22 96 23 97
REMARK SMILES IDX 27 98 24 99 26 100 25 101
REMARK H PARENT 3 5 91 23 59 34 8 76
REMARK Flexibility Score: inf
ROOT
ATOM      1  C   UNL A   1      32.676  32.227  26.694  1.00  0.00     0.116 C 
ENDROOT
BRANCH   1   2
ATOM      2  N   UNL A   1      32.472  33.486  27.404  1.00  0.00    -0.352 N 
ATOM      3  O   UNL A   1      32.918  35.051  28.980  1.00  0.00    -0.269 OA
ATOM      4  C   UNL A   1      33.255  34.025  28.398  1.00  0.00     0.251 C 
ATOM      5  H   UNL A   1      31.682  34.011  27.140  1.00  0.00     0.163 HD
BRANCH   4   6
ATOM      6  C   UNL A   1      34.488  33.309  28.771  1.00  0.00     0.039 A 
ATOM      7  C   UNL A   1      34.398  32.072  29.413  1.00  0.00     0.014 A 
ATOM      8  C   UNL A   1      35.724  33.932  28.587  1.00  0.00     0.014 A 
ATOM      9  C   UNL A   1      35.521  31.544  30.028  1.00  0.00     0.010 A 
ATOM     10  C   UNL A   1      36.872  33.342  29.121  1.00  0.00     0.010 A 
ATOM     11  C   UNL A   1      36.771  32.170  29.887  1.00  0.00    -0.014 A 
BRANCH  11  12
ATOM     12  C   UNL A   1      37.952  31.559  30.545  1.00  0.00     0.031 A 
ATOM     13  C   UNL A   1      38.290  31.870  31.978  1.00  0.00     0.074 A 
ATOM     14  C   UNL A   1      38.681  30.666  29.848  1.00  0.00     0.049 A 
ATOM     15  N   UNL A   1      39.264  31.401  32.715  1.00  0.00    -0.248 NA
ATOM     16  C   UNL A   1      37.432  32.843  32.668  1.00  0.00     0.031 C 
ATOM     17  C   UNL A   1      38.436  30.293  28.451  1.00  0.00     0.029 A 
ATOM     18  N   UNL A   1      39.744  29.887  30.218  1.00  0.00    -0.354 N 
ATOM     19  C   UNL A   1      39.161  32.044  33.943  1.00  0.00     0.074 A 
ATOM     20  C   UNL A   1      38.039  32.955  33.842  1.00  0.00     0.031 C 
ATOM     21  C   UNL A   1      39.277  29.309  28.105  1.00  0.00     0.029 A 
ATOM     22  C   UNL A   1      40.169  29.035  29.225  1.00  0.00     0.049 A 
ATOM     23  H   UNL A   1      40.164  29.932  31.106  1.00  0.00     0.167 HD
ATOM     24  C   UNL A   1      39.931  31.886  35.050  1.00  0.00     0.034 A 
ATOM     25  C   UNL A   1      41.172  28.139  29.213  1.00  0.00     0.034 A 
ATOM     26  C   UNL A   1      41.032  30.955  35.132  1.00  0.00     0.049 A 
ATOM     27  C   UNL A   1      42.004  27.979  30.454  1.00  0.00     0.074 A 
ATOM     28  C   UNL A   1      41.865  30.694  36.207  1.00  0.00     0.029 A 
ATOM     29  N   UNL A   1      41.455  30.130  34.097  1.00  0.00    -0.354 N 
ATOM     30  N   UNL A   1      41.897  28.601  31.605  1.00  0.00    -0.248 NA
ATOM     31  C   UNL A   1      43.091  26.995  30.393  1.00  0.00     0.031 C 
ATOM     32  C   UNL A   1      42.823  29.754  35.805  1.00  0.00     0.029 A 
ATOM     33  C   UNL A   1      42.549  29.377  34.501  1.00  0.00     0.049 A 
ATOM     34  H   UNL A   1      41.040  30.085  33.206  1.00  0.00     0.167 HD
ATOM     35  C   UNL A   1      42.897  28.072  32.413  1.00  0.00     0.074 A 
ATOM     36  C   UNL A   1      43.577  27.065  31.623  1.00  0.00     0.031 C 
ATOM     37  C   UNL A   1      43.226  28.392  33.690  1.00  0.00     0.034 A 
BRANCH  24  38
ATOM     38  C   UNL A   1      39.641  32.780  36.234  1.00  0.00     0.023 A 
ATOM     39  C   UNL A   1      38.858  32.351  37.321  1.00  0.00     0.031 A 
ATOM     40  C   UNL A   1      40.134  34.098  36.260  1.00  0.00     0.131 A 
ATOM     41  C   UNL A   1      38.534  33.252  38.349  1.00  0.00     0.055 A 
ATOM     42  C   UNL A   1      39.872  34.964  37.323  1.00  0.00     0.041 A 
ATOM     43  F   UNL A   1      40.870  34.572  35.241  1.00  0.00    -0.206 F 
ATOM     44  C   UNL A   1      39.055  34.548  38.370  1.00  0.00     0.022 A 
BRANCH  41  45
ATOM     45  S   UNL A   1      37.306  32.749  39.587  1.00  0.00     0.124 S 
ATOM     46  O   UNL A   1      37.820  31.446  40.004  1.00  0.00    -0.237 OA
ATOM     47  O   UNL A   1      37.397  33.818  40.575  1.00  0.00    -0.237 OA
ATOM     48  O   UNL A   1      36.056  32.701  38.832  1.00  0.00    -0.744 OA
ENDBRANCH  41  45
ENDBRANCH  24  38
BRANCH  25  49
ATOM     49  C   UNL A   1      41.452  27.349  27.984  1.00  0.00     0.023 A 
ATOM     50  C   UNL A   1      41.131  25.985  27.911  1.00  0.00     0.031 A 
ATOM     51  C   UNL A   1      42.053  27.949  26.862  1.00  0.00     0.131 A 
ATOM     52  C   UNL A   1      41.439  25.258  26.751  1.00  0.00     0.055 A 
ATOM     53  C   UNL A   1      42.313  27.233  25.694  1.00  0.00     0.041 A 
ATOM     54  F   UNL A   1      42.371  29.253  26.880  1.00  0.00    -0.206 F 
ATOM     55  C   UNL A   1      42.016  25.875  25.638  1.00  0.00     0.022 A 
BRANCH  52  56
ATOM     56  S   UNL A   1      41.133  23.471  26.741  1.00  0.00     0.124 S 
ATOM     57  O   UNL A   1      39.705  23.415  26.450  1.00  0.00    -0.237 OA
ATOM     58  O   UNL A   1      42.022  23.019  25.675  1.00  0.00    -0.237 OA
ATOM     59  O   UNL A   1      41.514  23.053  28.087  1.00  0.00    -0.744 OA
ENDBRANCH  52  56
ENDBRANCH  25  49
BRANCH  37  60
ATOM     60  C   UNL A   1      44.356  27.607  34.306  1.00  0.00     0.023 A 
ATOM     61  C   UNL A   1      44.141  26.347  34.893  1.00  0.00     0.031 A 
ATOM     62  C   UNL A   1      45.652  28.148  34.348  1.00  0.00     0.131 A 
ATOM     63  C   UNL A   1      45.193  25.700  35.556  1.00  0.00     0.055 A 
ATOM     64  C   UNL A   1      46.708  27.473  34.960  1.00  0.00     0.041 A 
ATOM     65  F   UNL A   1      45.909  29.349  33.804  1.00  0.00    -0.206 F 
ATOM     66  C   UNL A   1      46.478  26.249  35.583  1.00  0.00     0.022 A 
BRANCH  63  67
ATOM     67  S   UNL A   1      44.834  24.181  36.480  1.00  0.00     0.124 S 
ATOM     68  O   UNL A   1      43.687  23.646  35.754  1.00  0.00    -0.237 OA
ATOM     69  O   UNL A   1      46.080  23.433  36.344  1.00  0.00    -0.237 OA
ATOM     70  O   UNL A   1      44.543  24.661  37.830  1.00  0.00    -0.744 OA
ENDBRANCH  63  67
ENDBRANCH  37  60
ENDBRANCH  11  12
ENDBRANCH   4   6
ENDBRANCH   1   2
BRANCH   1  71
ATOM     71  C   UNL A   1      31.411  31.398  26.556  1.00  0.00     0.023 C 
BRANCH  71  72
ATOM     72  C   UNL A   1      31.425  30.435  25.376  1.00  0.00     0.023 C 
BRANCH  72  73
ATOM     73  C   UNL A   1      32.251  29.169  25.590  1.00  0.00     0.116 C 
BRANCH  73  74
ATOM     74  N   UNL A   1      33.378  29.042  24.691  1.00  0.00    -0.356 N 
ATOM     75  C   UNL A   1      33.490  28.501  23.431  1.00  0.00     0.224 C 
ATOM     76  H   UNL A   1      34.219  29.410  25.047  1.00  0.00     0.163 HD
ATOM     77  O   UNL A   1      34.540  28.778  22.830  1.00  0.00    -0.275 OA
BRANCH  75  78
ATOM     78  C   UNL A   1      32.409  27.626  22.768  1.00  0.00     0.095 C 
ATOM     79  C   UNL A   1      32.710  26.094  22.663  1.00  0.00     0.045 C 
ATOM     80  C   UNL A   1      31.034  27.257  23.405  1.00  0.00     0.045 C 
ATOM     81  C   UNL A   1      31.170  25.844  22.795  1.00  0.00     0.095 C 
BRANCH  79  82
ATOM     82  C   UNL A   1      33.769  25.419  23.673  1.00  0.00    -0.043 A 
ATOM     83  C   UNL A   1      34.668  24.401  23.303  1.00  0.00     0.004 A 
ATOM     84  C   UNL A   1      33.801  25.777  25.036  1.00  0.00     0.004 A 
ATOM     85  C   UNL A   1      35.538  23.782  24.206  1.00  0.00     0.000 A 
ATOM     86  C   UNL A   1      34.657  25.157  25.956  1.00  0.00     0.000 A 
ATOM     87  C   UNL A   1      35.529  24.158  25.539  1.00  0.00     0.000 A 
ENDBRANCH  79  82
BRANCH  80  88
ATOM     88  C   UNL A   1      29.756  28.160  22.998  1.00  0.00    -0.043 A 
ATOM     89  C   UNL A   1      28.454  27.835  23.421  1.00  0.00     0.004 A 
ATOM     90  C   UNL A   1      29.879  29.367  22.267  1.00  0.00     0.004 A 
ATOM     91  C   UNL A   1      27.360  28.673  23.173  1.00  0.00     0.000 A 
ATOM     92  C   UNL A   1      28.795  30.214  22.023  1.00  0.00     0.000 A 
ATOM     93  C   UNL A   1      27.533  29.869  22.484  1.00  0.00     0.000 A 
ENDBRANCH  80  88
BRANCH  81  94
ATOM     94  C   UNL A   1      30.729  24.495  23.386  1.00  0.00     0.226 C 
ATOM     95  O   UNL A   1      30.522  23.547  22.605  1.00  0.00    -0.275 OA
ATOM     96  N   UNL A   1      30.658  24.244  24.758  1.00  0.00    -0.342 N 
ATOM     97  C   UNL A   1      31.198  22.966  25.224  1.00  0.00     0.119 C 
ATOM     98  C   UNL A   1      30.211  25.162  25.799  1.00  0.00     0.119 C 
ATOM     99  C   UNL A   1      30.256  22.259  26.188  1.00  0.00     0.022 C 
ATOM    100  C   UNL A   1      29.291  24.479  26.815  1.00  0.00     0.022 C 
ATOM    101  C   UNL A   1      29.889  23.179  27.346  1.00  0.00     0.004 C 
ENDBRANCH  81  94
ENDBRANCH  75  78
ENDBRANCH  73  74
ENDBRANCH  72  73
ENDBRANCH  71  72
ENDBRANCH   1  71
TORSDOF 17
ENDMDL
MODEL 2
REMARK VINA RESULT:     -12.3      1.981      2.385
REMARK SMILES O=C(NCCCCNC(=O)[C@H]1[C@@H](c2ccccc2)[C@@H](C(=O)N2CCCCC2)[C@@H]1c1ccccc1)c1ccc(-c2c3nc(c(-c4cc(S(=O)(=O)[O-])ccc4F)c4ccc([nH]4)c(-c4cc(S(=O)(=O)[O-])ccc4F)c4nc(c(-c5cc(S(=O)(=O)[O-])ccc5F)c5ccc2[nH]5)C=C4)C=C3)cc1
REMARK SMILES IDX 4 1 3 2 1 3 2 4 35 6 36 7 97 8 37 9 96 10 38 11 39 12 40 13
REMARK SMILES IDX 90 14 41 15 95 16 89 17 91 18 42 19 94 20 88 21 87 22 43 24
REMARK SMILES IDX 75 25 55 26 74 27 56 28 59 29 73 30 92 31 57 32 58 33 72 35
REMARK SMILES IDX 93 36 60 37 44 38 45 39 53 40 46 41 52 42 54 43 51 44 47 45
REMARK SMILES IDX 48 46 49 47 50 48 76 49 77 50 85 51 78 52 84 53 86 54 83 55
REMARK SMILES IDX 79 56 80 57 81 58 82 59 61 60 62 61 70 62 63 63 69 64 71 65
REMARK SMILES IDX 68 66 64 67 65 68 66 69 67 70 5 71 6 72 7 73 8 74 9 75 10 77
REMARK SMILES IDX 11 78 12 79 28 80 19 81 13 82 14 83 18 84 15 85 17 86 16 87
REMARK SMILES IDX 29 88 30 89 34 90 31 91 33 92 32 93 20 94 21 95 22 96 23 97
REMARK SMILES IDX 27 98 24 99 26 100 25 101
REMARK H PARENT 3 5 91 23 59 34 8 76
REMARK Flexibility Score: inf
ROOT
ATOM      1  C   UNL A   1      33.219  32.434  27.506  1.00  0.00     0.116 C 
ENDROOT
BRANCH   1   2
ATOM      2  N   UNL A   1      32.762  33.796  27.767  1.00  0.00    -0.352 N 
ATOM      3  O   UNL A   1      32.701  35.760  28.892  1.00  0.00    -0.269 OA
ATOM      4  C   UNL A   1      33.240  34.673  28.712  1.00  0.00     0.251 C 
ATOM      5  H   UNL A   1      32.027  34.124  27.201  1.00  0.00     0.163 HD
BRANCH   4   6
ATOM      6  C   UNL A   1      34.390  34.250  29.530  1.00  0.00     0.039 A 
ATOM      7  C   UNL A   1      35.685  34.547  29.101  1.00  0.00     0.014 A 
ATOM      8  C   UNL A   1      34.174  33.455  30.657  1.00  0.00     0.014 A 
ATOM      9  C   UNL A   1      36.760  33.904  29.692  1.00  0.00     0.010 A 
ATOM     10  C   UNL A   1      35.270  32.889  31.314  1.00  0.00     0.010 A 
ATOM     11  C   UNL A   1      36.566  33.070  30.807  1.00  0.00    -0.014 A 
BRANCH  11  12
ATOM     12  C   UNL A   1      37.748  32.417  31.422  1.00  0.00     0.031 A 
ATOM     13  C   UNL A   1      38.222  32.807  32.795  1.00  0.00     0.074 A 
ATOM     14  C   UNL A   1      38.350  31.420  30.746  1.00  0.00     0.049 A 
ATOM     15  N   UNL A   1      39.215  32.317  33.493  1.00  0.00    -0.248 NA
ATOM     16  C   UNL A   1      37.498  33.894  33.467  1.00  0.00     0.031 C 
ATOM     17  C   UNL A   1      37.967  30.964  29.406  1.00  0.00     0.029 A 
ATOM     18  N   UNL A   1      39.378  30.587  31.097  1.00  0.00    -0.354 N 
ATOM     19  C   UNL A   1      39.259  33.057  34.670  1.00  0.00     0.074 A 
ATOM     20  C   UNL A   1      38.204  34.045  34.579  1.00  0.00     0.031 C 
ATOM     21  C   UNL A   1      38.702  29.892  29.079  1.00  0.00     0.029 A 
ATOM     22  C   UNL A   1      39.658  29.632  30.148  1.00  0.00     0.049 A 
ATOM     23  H   UNL A   1      39.871  30.665  31.946  1.00  0.00     0.167 HD
ATOM     24  C   UNL A   1      40.103  32.921  35.725  1.00  0.00     0.034 A 
ATOM     25  C   UNL A   1      40.588  28.660  30.134  1.00  0.00     0.034 A 
ATOM     26  C   UNL A   1      41.135  31.913  35.800  1.00  0.00     0.049 A 
ATOM     27  C   UNL A   1      41.503  28.528  31.318  1.00  0.00     0.074 A 
ATOM     28  C   UNL A   1      42.030  31.668  36.827  1.00  0.00     0.029 A 
ATOM     29  N   UNL A   1      41.411  30.982  34.806  1.00  0.00    -0.354 N 
ATOM     30  N   UNL A   1      41.536  29.240  32.420  1.00  0.00    -0.248 NA
ATOM     31  C   UNL A   1      42.506  27.458  31.256  1.00  0.00     0.031 C 
ATOM     32  C   UNL A   1      42.880  30.626  36.432  1.00  0.00     0.029 A 
ATOM     33  C   UNL A   1      42.474  30.176  35.186  1.00  0.00     0.049 A 
ATOM     34  H   UNL A   1      40.923  30.904  33.955  1.00  0.00     0.167 HD
ATOM     35  C   UNL A   1      42.556  28.695  33.191  1.00  0.00     0.074 A 
ATOM     36  C   UNL A   1      43.093  27.580  32.436  1.00  0.00     0.031 C 
ATOM     37  C   UNL A   1      43.009  29.082  34.410  1.00  0.00     0.034 A 
BRANCH  24  38
ATOM     38  C   UNL A   1      39.976  33.921  36.851  1.00  0.00     0.023 A 
ATOM     39  C   UNL A   1      40.907  34.958  37.039  1.00  0.00     0.031 A 
ATOM     40  C   UNL A   1      38.917  33.817  37.771  1.00  0.00     0.131 A 
ATOM     41  C   UNL A   1      40.802  35.801  38.158  1.00  0.00     0.055 A 
ATOM     42  C   UNL A   1      38.773  34.706  38.837  1.00  0.00     0.041 A 
ATOM     43  F   UNL A   1      38.008  32.835  37.657  1.00  0.00    -0.206 F 
ATOM     44  C   UNL A   1      39.728  35.697  39.045  1.00  0.00     0.022 A 
BRANCH  41  45
ATOM     45  S   UNL A   1      42.165  36.945  38.514  1.00  0.00     0.124 S 
ATOM     46  O   UNL A   1      42.985  36.153  39.430  1.00  0.00    -0.237 OA
ATOM     47  O   UNL A   1      42.732  37.183  37.193  1.00  0.00    -0.237 OA
ATOM     48  O   UNL A   1      41.499  38.093  39.126  1.00  0.00    -0.744 OA
ENDBRANCH  41  45
ENDBRANCH  24  38
BRANCH  25  49
ATOM     49  C   UNL A   1      40.709  27.760  28.955  1.00  0.00     0.023 A 
ATOM     50  C   UNL A   1      41.628  28.029  27.930  1.00  0.00     0.031 A 
ATOM     51  C   UNL A   1      39.899  26.616  28.836  1.00  0.00     0.131 A 
ATOM     52  C   UNL A   1      41.695  27.181  26.814  1.00  0.00     0.055 A 
ATOM     53  C   UNL A   1      40.003  25.749  27.748  1.00  0.00     0.041 A 
ATOM     54  F   UNL A   1      39.010  26.311  29.795  1.00  0.00    -0.206 F 
ATOM     55  C   UNL A   1      40.898  26.036  26.723  1.00  0.00     0.022 A 
BRANCH  52  56
ATOM     56  S   UNL A   1      42.797  27.631  25.447  1.00  0.00     0.124 S 
ATOM     57  O   UNL A   1      42.759  26.426  24.624  1.00  0.00    -0.237 OA
ATOM     58  O   UNL A   1      42.130  28.805  24.895  1.00  0.00    -0.237 OA
ATOM     59  O   UNL A   1      44.072  27.894  26.110  1.00  0.00    -0.744 OA
ENDBRANCH  52  56
ENDBRANCH  25  49
BRANCH  37  60
ATOM     60  C   UNL A   1      44.124  28.257  35.001  1.00  0.00     0.023 A 
ATOM     61  C   UNL A   1      43.865  27.062  35.694  1.00  0.00     0.031 A 
ATOM     62  C   UNL A   1      45.455  28.699  34.910  1.00  0.00     0.131 A 
ATOM     63  C   UNL A   1      44.916  26.383  36.328  1.00  0.00     0.055 A 
ATOM     64  C   UNL A   1      46.504  27.989  35.495  1.00  0.00     0.041 A 
ATOM     65  F   UNL A   1      45.755  29.836  34.262  1.00  0.00    -0.206 F 
ATOM     66  C   UNL A   1      46.234  26.832  36.222  1.00  0.00     0.022 A 
BRANCH  63  67
ATOM     67  S   UNL A   1      44.521  24.964  37.386  1.00  0.00     0.124 S 
ATOM     68  O   UNL A   1      45.644  24.068  37.128  1.00  0.00    -0.237 OA
ATOM     69  O   UNL A   1      44.481  25.569  38.714  1.00  0.00    -0.237 OA
ATOM     70  O   UNL A   1      43.231  24.503  36.876  1.00  0.00    -0.744 OA
ENDBRANCH  63  67
ENDBRANCH  37  60
ENDBRANCH  11  12
ENDBRANCH   4   6
ENDBRANCH   1   2
BRANCH   1  71
ATOM     71  C   UNL A   1      32.163  31.555  26.858  1.00  0.00     0.023 C 
BRANCH  71  72
ATOM     72  C   UNL A   1      32.571  30.094  26.718  1.00  0.00     0.023 C 
BRANCH  72  73
ATOM     73  C   UNL A   1      32.244  29.463  25.367  1.00  0.00     0.116 C 
BRANCH  73  74
ATOM     74  N   UNL A   1      33.409  29.133  24.575  1.00  0.00    -0.356 N 
ATOM     75  C   UNL A   1      33.549  28.446  23.391  1.00  0.00     0.224 C 
ATOM     76  H   UNL A   1      34.258  29.459  24.953  1.00  0.00     0.163 HD
ATOM     77  O   UNL A   1      34.659  28.557  22.845  1.00  0.00    -0.275 OA
BRANCH  75  78
ATOM     78  C   UNL A   1      32.432  27.607  22.742  1.00  0.00     0.095 C 
ATOM     79  C   UNL A   1      32.676  26.065  22.645  1.00  0.00     0.045 C 
ATOM     80  C   UNL A   1      31.050  27.292  23.393  1.00  0.00     0.045 C 
ATOM     81  C   UNL A   1      31.129  25.872  22.791  1.00  0.00     0.095 C 
BRANCH  79  82
ATOM     82  C   UNL A   1      33.719  25.358  23.650  1.00  0.00    -0.043 A 
ATOM     83  C   UNL A   1      33.906  25.749  24.989  1.00  0.00     0.004 A 
ATOM     84  C   UNL A   1      34.570  24.326  23.205  1.00  0.00     0.004 A 
ATOM     85  C   UNL A   1      34.859  25.167  25.831  1.00  0.00     0.000 A 
ATOM     86  C   UNL A   1      35.539  23.742  24.031  1.00  0.00     0.000 A 
ATOM     87  C   UNL A   1      35.682  24.162  25.348  1.00  0.00     0.000 A 
ENDBRANCH  79  82
BRANCH  80  88
ATOM     88  C   UNL A   1      29.801  28.238  22.991  1.00  0.00    -0.043 A 
ATOM     89  C   UNL A   1      28.476  27.893  23.313  1.00  0.00     0.004 A 
ATOM     90  C   UNL A   1      29.972  29.499  22.369  1.00  0.00     0.004 A 
ATOM     91  C   UNL A   1      27.402  28.761  23.074  1.00  0.00     0.000 A 
ATOM     92  C   UNL A   1      28.909  30.374  22.135  1.00  0.00     0.000 A 
ATOM     93  C   UNL A   1      27.621  30.006  22.496  1.00  0.00     0.000 A 
ENDBRANCH  80  88
BRANCH  81  94
ATOM     94  C   UNL A   1      30.645  24.543  23.394  1.00  0.00     0.226 C 
ATOM     95  O   UNL A   1      30.380  23.604  22.620  1.00  0.00    -0.275 OA
ATOM     96  N   UNL A   1      30.595  24.296  24.768  1.00  0.00    -0.342 N 
ATOM     97  C   UNL A   1      31.090  22.996  25.224  1.00  0.00     0.119 C 
ATOM     98  C   UNL A   1      30.211  25.233  25.817  1.00  0.00     0.119 C 
ATOM     99  C   UNL A   1      30.141  22.331  26.210  1.00  0.00     0.022 C 
ATOM    100  C   UNL A   1      29.286  24.591  26.855  1.00  0.00     0.022 C 
ATOM    101  C   UNL A   1      29.840  23.267  27.374  1.00  0.00     0.004 C 
ENDBRANCH  81  94
ENDBRANCH  75  78
ENDBRANCH  73  74
ENDBRANCH  72  73
ENDBRANCH  71  72
ENDBRANCH   1  71
TORSDOF 17
ENDMDL
MODEL 3
REMARK VINA RESULT:     -12.1      5.841     10.930
REMARK SMILES O=C(NCCCCNC(=O)[C@H]1[C@@H](c2ccccc2)[C@@H](C(=O)N2CCCCC2)[C@@H]1c1ccccc1)c1ccc(-c2c3nc(c(-c4cc(S(=O)(=O)[O-])ccc4F)c4ccc([nH]4)c(-c4cc(S(=O)(=O)[O-])ccc4F)c4nc(c(-c5cc(S(=O)(=O)[O-])ccc5F)c5ccc2[nH]5)C=C4)C=C3)cc1
REMARK SMILES IDX 4 1 3 2 1 3 2 4 35 6 36 7 97 8 37 9 96 10 38 11 39 12 40 13
REMARK SMILES IDX 90 14 41 15 95 16 89 17 91 18 42 19 94 20 88 21 87 22 43 24
REMARK SMILES IDX 75 25 55 26 74 27 56 28 59 29 73 30 92 31 57 32 58 33 72 35
REMARK SMILES IDX 93 36 60 37 44 38 45 39 53 40 46 41 52 42 54 43 51 44 47 45
REMARK SMILES IDX 48 46 49 47 50 48 76 49 77 50 85 51 78 52 84 53 86 54 83 55
REMARK SMILES IDX 79 56 80 57 81 58 82 59 61 60 62 61 70 62 63 63 69 64 71 65
REMARK SMILES IDX 68 66 64 67 65 68 66 69 67 70 5 71 6 72 7 73 8 74 9 75 10 77
REMARK SMILES IDX 11 78 12 79 28 80 19 81 13 82 14 83 18 84 15 85 17 86 16 87
REMARK SMILES IDX 29 88 30 89 34 90 31 91 33 92 32 93 20 94 21 95 22 96 23 97
REMARK SMILES IDX 27 98 24 99 26 100 25 101
REMARK H PARENT 3 5 91 23 59 34 8 76
REMARK Flexibility Score: inf
ROOT
ATOM      1  C   UNL A   1      39.391  20.870  26.143  1.00  0.00     0.116 C 
ENDROOT
BRANCH   1   2
ATOM      2  N   UNL A   1      40.261  19.703  26.030  1.00  0.00    -0.352 N 
ATOM      3  O   UNL A   1      42.253  18.632  25.908  1.00  0.00    -0.269 OA
ATOM      4  C   UNL A   1      41.634  19.670  26.116  1.00  0.00     0.251 C 
ATOM      5  H   UNL A   1      39.814  18.841  25.874  1.00  0.00     0.163 HD
BRANCH   4   6
ATOM      6  C   UNL A   1      42.338  20.927  26.425  1.00  0.00     0.039 A 
ATOM      7  C   UNL A   1      42.587  21.266  27.757  1.00  0.00     0.014 A 
ATOM      8  C   UNL A   1      42.638  21.816  25.391  1.00  0.00     0.014 A 
ATOM      9  C   UNL A   1      42.969  22.561  28.066  1.00  0.00     0.010 A 
ATOM     10  C   UNL A   1      43.121  23.089  25.704  1.00  0.00     0.010 A 
ATOM     11  C   UNL A   1      43.243  23.487  27.045  1.00  0.00    -0.014 A 
BRANCH  11  12
ATOM     12  C   UNL A   1      43.669  24.857  27.421  1.00  0.00     0.031 A 
ATOM     13  C   UNL A   1      45.095  25.302  27.243  1.00  0.00     0.074 A 
ATOM     14  C   UNL A   1      42.734  25.717  27.868  1.00  0.00     0.049 A 
ATOM     15  N   UNL A   1      45.630  26.471  27.490  1.00  0.00    -0.248 NA
ATOM     16  C   UNL A   1      46.047  24.304  26.736  1.00  0.00     0.031 C 
ATOM     17  C   UNL A   1      41.320  25.384  28.076  1.00  0.00     0.029 A 
ATOM     18  N   UNL A   1      42.812  27.044  28.191  1.00  0.00    -0.354 N 
ATOM     19  C   UNL A   1      46.984  26.343  27.202  1.00  0.00     0.074 A 
ATOM     20  C   UNL A   1      47.192  24.972  26.783  1.00  0.00     0.031 C 
ATOM     21  C   UNL A   1      40.654  26.493  28.424  1.00  0.00     0.029 A 
ATOM     22  C   UNL A   1      41.601  27.596  28.539  1.00  0.00     0.049 A 
ATOM     23  H   UNL A   1      43.653  27.555  28.178  1.00  0.00     0.167 HD
ATOM     24  C   UNL A   1      47.960  27.283  27.281  1.00  0.00     0.034 A 
ATOM     25  C   UNL A   1      41.287  28.848  28.919  1.00  0.00     0.034 A 
ATOM     26  C   UNL A   1      47.723  28.651  27.683  1.00  0.00     0.049 A 
ATOM     27  C   UNL A   1      42.385  29.870  28.990  1.00  0.00     0.074 A 
ATOM     28  C   UNL A   1      48.630  29.693  27.776  1.00  0.00     0.029 A 
ATOM     29  N   UNL A   1      46.489  29.167  28.059  1.00  0.00    -0.354 N 
ATOM     30  N   UNL A   1      43.663  29.730  28.721  1.00  0.00    -0.248 NA
ATOM     31  C   UNL A   1      41.998  31.220  29.414  1.00  0.00     0.031 C 
ATOM     32  C   UNL A   1      47.955  30.822  28.259  1.00  0.00     0.029 A 
ATOM     33  C   UNL A   1      46.614  30.505  28.405  1.00  0.00     0.049 A 
ATOM     34  H   UNL A   1      45.647  28.658  28.077  1.00  0.00     0.167 HD
ATOM     35  C   UNL A   1      44.232  30.981  28.932  1.00  0.00     0.074 A 
ATOM     36  C   UNL A   1      43.152  31.865  29.324  1.00  0.00     0.031 C 
ATOM     37  C   UNL A   1      45.528  31.364  28.814  1.00  0.00     0.034 A 
BRANCH  24  38
ATOM     38  C   UNL A   1      49.375  26.845  26.981  1.00  0.00     0.023 A 
ATOM     39  C   UNL A   1      50.032  27.204  25.791  1.00  0.00     0.031 A 
ATOM     40  C   UNL A   1      50.069  26.028  27.892  1.00  0.00     0.131 A 
ATOM     41  C   UNL A   1      51.310  26.689  25.513  1.00  0.00     0.055 A 
ATOM     42  C   UNL A   1      51.368  25.583  27.645  1.00  0.00     0.041 A 
ATOM     43  F   UNL A   1      49.486  25.634  29.037  1.00  0.00    -0.206 F 
ATOM     44  C   UNL A   1      51.992  25.900  26.442  1.00  0.00     0.022 A 
BRANCH  41  45
ATOM     45  S   UNL A   1      52.009  26.950  23.859  1.00  0.00     0.124 S 
ATOM     46  O   UNL A   1      52.907  25.804  23.732  1.00  0.00    -0.237 OA
ATOM     47  O   UNL A   1      50.825  26.931  23.008  1.00  0.00    -0.237 OA
ATOM     48  O   UNL A   1      52.679  28.244  23.969  1.00  0.00    -0.744 OA
ENDBRANCH  41  45
ENDBRANCH  24  38
BRANCH  25  49
ATOM     49  C   UNL A   1      39.885  29.189  29.277  1.00  0.00     0.023 A 
ATOM     50  C   UNL A   1      39.478  29.266  30.618  1.00  0.00     0.031 A 
ATOM     51  C   UNL A   1      38.926  29.441  28.279  1.00  0.00     0.131 A 
ATOM     52  C   UNL A   1      38.140  29.556  30.925  1.00  0.00     0.055 A 
ATOM     53  C   UNL A   1      37.608  29.777  28.590  1.00  0.00     0.041 A 
ATOM     54  F   UNL A   1      39.268  29.389  26.981  1.00  0.00    -0.206 F 
ATOM     55  C   UNL A   1      37.206  29.825  29.920  1.00  0.00     0.022 A 
BRANCH  52  56
ATOM     56  S   UNL A   1      37.619  29.515  32.660  1.00  0.00     0.124 S 
ATOM     57  O   UNL A   1      36.342  30.220  32.606  1.00  0.00    -0.237 OA
ATOM     58  O   UNL A   1      37.548  28.081  32.920  1.00  0.00    -0.237 OA
ATOM     59  O   UNL A   1      38.693  30.220  33.355  1.00  0.00    -0.744 OA
ENDBRANCH  52  56
ENDBRANCH  25  49
BRANCH  37  60
ATOM     60  C   UNL A   1      45.823  32.817  29.087  1.00  0.00     0.023 A 
ATOM     61  C   UNL A   1      45.781  33.780  28.064  1.00  0.00     0.031 A 
ATOM     62  C   UNL A   1      46.197  33.232  30.377  1.00  0.00     0.131 A 
ATOM     63  C   UNL A   1      46.173  35.099  28.333  1.00  0.00     0.055 A 
ATOM     64  C   UNL A   1      46.532  34.558  30.651  1.00  0.00     0.041 A 
ATOM     65  F   UNL A   1      46.256  32.350  31.388  1.00  0.00    -0.206 F 
ATOM     66  C   UNL A   1      46.536  35.497  29.622  1.00  0.00     0.022 A 
BRANCH  63  67
ATOM     67  S   UNL A   1      46.308  36.265  26.950  1.00  0.00     0.124 S 
ATOM     68  O   UNL A   1      47.576  36.930  27.234  1.00  0.00    -0.237 OA
ATOM     69  O   UNL A   1      46.302  35.375  25.793  1.00  0.00    -0.237 OA
ATOM     70  O   UNL A   1      45.122  37.106  27.092  1.00  0.00    -0.744 OA
ENDBRANCH  63  67
ENDBRANCH  37  60
ENDBRANCH  11  12
ENDBRANCH   4   6
ENDBRANCH   1   2
BRANCH   1  71
ATOM     71  C   UNL A   1      38.240  20.865  25.152  1.00  0.00     0.023 C 
BRANCH  71  72
ATOM     72  C   UNL A   1      37.435  22.157  25.128  1.00  0.00     0.023 C 
BRANCH  72  73
ATOM     73  C   UNL A   1      35.928  21.978  25.293  1.00  0.00     0.116 C 
BRANCH  73  74
ATOM     74  N   UNL A   1      35.417  22.431  26.569  1.00  0.00    -0.356 N 
ATOM     75  C   UNL A   1      34.148  22.439  27.100  1.00  0.00     0.224 C 
ATOM     76  H   UNL A   1      36.105  22.804  27.167  1.00  0.00     0.163 HD
ATOM     77  O   UNL A   1      34.088  22.662  28.320  1.00  0.00    -0.275 OA
BRANCH  75  78
ATOM     78  C   UNL A   1      32.869  22.172  26.283  1.00  0.00     0.095 C 
ATOM     79  C   UNL A   1      31.925  23.395  26.035  1.00  0.00     0.045 C 
ATOM     80  C   UNL A   1      32.823  21.895  24.749  1.00  0.00     0.045 C 
ATOM     81  C   UNL A   1      31.530  22.737  24.671  1.00  0.00     0.095 C 
BRANCH  79  82
ATOM     82  C   UNL A   1      32.521  24.891  26.115  1.00  0.00    -0.043 A 
ATOM     83  C   UNL A   1      31.839  25.977  26.695  1.00  0.00     0.004 A 
ATOM     84  C   UNL A   1      33.763  25.209  25.529  1.00  0.00     0.004 A 
ATOM     85  C   UNL A   1      32.342  27.282  26.701  1.00  0.00     0.000 A 
ATOM     86  C   UNL A   1      34.274  26.514  25.515  1.00  0.00     0.000 A 
ATOM     87  C   UNL A   1      33.563  27.552  26.103  1.00  0.00     0.000 A 
ENDBRANCH  79  82
BRANCH  80  88
ATOM     88  C   UNL A   1      32.776  20.352  24.269  1.00  0.00    -0.043 A 
ATOM     89  C   UNL A   1      32.296  19.985  22.998  1.00  0.00     0.004 A 
ATOM     90  C   UNL A   1      33.288  19.294  25.059  1.00  0.00     0.004 A 
ATOM     91  C   UNL A   1      32.362  18.666  22.530  1.00  0.00     0.000 A 
ATOM     92  C   UNL A   1      33.366  17.978  24.598  1.00  0.00     0.000 A 
ATOM     93  C   UNL A   1      32.908  17.666  23.326  1.00  0.00     0.000 A 
ENDBRANCH  80  88
BRANCH  81  94
ATOM     94  C   UNL A   1      31.060  23.679  23.550  1.00  0.00     0.226 C 
ATOM     95  O   UNL A   1      29.869  24.042  23.543  1.00  0.00    -0.275 OA
ATOM     96  N   UNL A   1      31.925  24.240  22.606  1.00  0.00    -0.342 N 
ATOM     97  C   UNL A   1      31.741  25.661  22.305  1.00  0.00     0.119 C 
ATOM     98  C   UNL A   1      33.068  23.598  21.969  1.00  0.00     0.119 C 
ATOM     99  C   UNL A   1      31.740  25.938  20.810  1.00  0.00     0.022 C 
ATOM    100  C   UNL A   1      33.128  23.886  20.466  1.00  0.00     0.022 C 
ATOM    101  C   UNL A   1      33.000  25.377  20.163  1.00  0.00     0.004 C 
ENDBRANCH  81  94
ENDBRANCH  75  78
ENDBRANCH  73  74
ENDBRANCH  72  73
ENDBRANCH  71  72
ENDBRANCH   1  71
TORSDOF 17
ENDMDL
