MODEL 1
REMARK VINA RESULT:     -12.0      0.000      0.000
REMARK SMILES Cc1ccc(N2CC[C@H]([NH+]3CCOCC3)[C@H](CCC(=O)NCCCCNC(=O)c3ccc(-c4c5nc(c(-c6cc(S(=O)(=O)[O-])ccc6F)c6ccc([nH]6)c(-c6cc(S(=O)(=O)[O-])ccc6F)c6nc(c(-c7cc(S(=O)(=O)[O-])ccc7F)c7ccc4[nH]7)C=C6)C=C5)cc3)C2)nc1
REMARK SMILES IDX 23 1 22 2 21 3 19 4 20 5 18 7 17 8 16 9 6 10 7 11 92 12 8 13
REMARK SMILES IDX 9 14 5 15 1 16 2 17 3 18 94 19 4 20 93 21 10 22 11 23 15 24
REMARK SMILES IDX 12 26 14 27 13 28 24 29 25 30 26 31 27 32 28 34 29 35 30 36
REMARK SMILES IDX 91 37 31 38 90 39 32 40 33 41 34 42 84 43 35 44 89 45 83 46
REMARK SMILES IDX 85 47 36 48 88 49 82 50 81 51 37 53 69 54 49 55 68 56 50 57
REMARK SMILES IDX 53 58 67 59 86 60 51 61 52 62 66 64 87 65 54 66 38 67 39 68
REMARK SMILES IDX 47 69 40 70 46 71 48 72 45 73 41 74 42 75 43 76 44 77 70 78
REMARK SMILES IDX 71 79 79 80 72 81 78 82 80 83 77 84 73 85 74 86 75 87 76 88
REMARK SMILES IDX 55 89 56 90 64 91 57 92 63 93 65 94 62 95 58 96 59 97 60 98
REMARK SMILES IDX 61 99
REMARK H PARENT 21 6 10 25 26 33 85 52 53 63
REMARK Flexibility Score: inf
ROOT
ATOM      1  C   UNL A   1      31.019  30.868  25.496  1.00  0.00     0.023 C 
ENDROOT
BRANCH   1   2
ATOM      2  C   UNL A   1      32.094  29.927  26.060  1.00  0.00     0.116 C 
BRANCH   2   3
ATOM      3  N   UNL A   1      31.461  28.760  26.647  1.00  0.00    -0.356 N 
ATOM      4  C   UNL A   1      31.810  27.444  26.557  1.00  0.00     0.220 C 
ATOM      5  O   UNL A   1      31.007  26.595  26.952  1.00  0.00    -0.275 OA
ATOM      6  H   UNL A   1      30.662  28.946  27.192  1.00  0.00     0.163 HD
BRANCH   4   7
ATOM      7  C   UNL A   1      33.178  27.039  26.032  1.00  0.00     0.100 C 
BRANCH   7   8
ATOM      8  C   UNL A   1      33.495  25.529  26.077  1.00  0.00     0.021 C 
BRANCH   8   9
ATOM      9  C   UNL A   1      34.210  24.988  24.819  1.00  0.00     0.067 C 
ATOM     10  N   UNL A   1      32.738  25.376  22.849  1.00  0.00    -0.356 N 
ATOM     11  C   UNL A   1      32.679  23.970  22.508  1.00  0.00     0.124 C 
ATOM     12  C   UNL A   1      33.905  25.856  23.569  1.00  0.00     0.127 C 
ATOM     13  C   UNL A   1      32.819  23.115  23.761  1.00  0.00     0.087 C 
ATOM     14  C   UNL A   1      34.135  23.460  24.461  1.00  0.00     0.190 C 
BRANCH  10  15
ATOM     15  C   UNL A   1      31.542  26.056  22.948  1.00  0.00     0.128 A 
ATOM     16  C   UNL A   1      27.974  28.336  23.421  1.00  0.00     0.046 C 
ATOM     17  C   UNL A   1      29.208  27.506  23.285  1.00  0.00    -0.033 A 
ATOM     18  C   UNL A   1      29.318  26.244  23.859  1.00  0.00     0.009 A 
ATOM     19  C   UNL A   1      30.293  27.965  22.551  1.00  0.00     0.117 A 
ATOM     20  C   UNL A   1      30.489  25.511  23.678  1.00  0.00     0.047 A 
ATOM     21  N   UNL A   1      31.448  27.283  22.393  1.00  0.00    -0.239 NA
ENDBRANCH  10  15
BRANCH  14  22
ATOM     22  N   UNL A   1      34.594  22.517  25.501  1.00  0.00    -0.328 N 
ATOM     23  C   UNL A   1      36.070  22.397  25.599  1.00  0.00     0.291 C 
ATOM     24  C   UNL A   1      33.992  21.176  25.558  1.00  0.00     0.291 C 
ATOM     25  H   UNL A   1      34.220  23.000  26.318  1.00  0.00     0.348 HD
ATOM     26  C   UNL A   1      36.713  21.242  24.805  1.00  0.00     0.221 C 
ATOM     27  C   UNL A   1      34.687  20.073  24.755  1.00  0.00     0.221 C 
ATOM     28  O   UNL A   1      36.076  19.991  25.075  1.00  0.00    -0.370 OA
ENDBRANCH  14  22
ENDBRANCH   8   9
ENDBRANCH   7   8
ENDBRANCH   4   7
ENDBRANCH   2   3
ENDBRANCH   1   2
BRANCH   1  29
ATOM     29  C   UNL A   1      30.989  32.235  26.153  1.00  0.00     0.023 C 
BRANCH  29  30
ATOM     30  C   UNL A   1      32.271  32.539  26.910  1.00  0.00     0.116 C 
BRANCH  30  31
ATOM     31  N   UNL A   1      32.243  33.830  27.595  1.00  0.00    -0.352 N 
ATOM     32  C   UNL A   1      33.181  34.355  28.463  1.00  0.00     0.251 C 
ATOM     33  H   UNL A   1      31.457  34.396  27.416  1.00  0.00     0.163 HD
ATOM     34  O   UNL A   1      32.989  35.409  29.037  1.00  0.00    -0.269 OA
BRANCH  32  35
ATOM     35  C   UNL A   1      34.399  33.553  28.705  1.00  0.00     0.039 A 
ATOM     36  C   UNL A   1      35.645  34.122  28.435  1.00  0.00     0.014 A 
ATOM     37  C   UNL A   1      34.294  32.333  29.376  1.00  0.00     0.014 A 
ATOM     38  C   UNL A   1      36.792  33.516  28.948  1.00  0.00     0.010 A 
ATOM     39  C   UNL A   1      35.424  31.792  29.970  1.00  0.00     0.010 A 
ATOM     40  C   UNL A   1      36.683  32.388  29.779  1.00  0.00    -0.014 A 
BRANCH  40  41
ATOM     41  C   UNL A   1      37.860  31.820  30.486  1.00  0.00     0.031 A 
ATOM     42  C   UNL A   1      38.689  30.763  29.812  1.00  0.00     0.074 A 
ATOM     43  C   UNL A   1      38.114  32.173  31.763  1.00  0.00     0.049 A 
ATOM     44  N   UNL A   1      39.659  30.034  30.298  1.00  0.00    -0.248 NA
ATOM     45  C   UNL A   1      38.348  30.455  28.414  1.00  0.00     0.031 C 
ATOM     46  C   UNL A   1      37.345  33.146  32.546  1.00  0.00     0.029 A 
ATOM     47  N   UNL A   1      39.080  31.740  32.638  1.00  0.00    -0.354 N 
ATOM     48  C   UNL A   1      40.025  29.164  29.278  1.00  0.00     0.074 A 
ATOM     49  C   UNL A   1      39.126  29.414  28.170  1.00  0.00     0.031 C 
ATOM     50  C   UNL A   1      37.884  33.252  33.771  1.00  0.00     0.029 A 
ATOM     51  C   UNL A   1      39.001  32.320  33.884  1.00  0.00     0.049 A 
ATOM     52  H   UNL A   1      39.766  31.076  32.397  1.00  0.00     0.167 HD
ATOM     53  C   UNL A   1      41.035  28.262  29.255  1.00  0.00     0.034 A 
ATOM     54  C   UNL A   1      39.733  32.111  34.997  1.00  0.00     0.034 A 
ATOM     55  C   UNL A   1      41.941  28.051  30.356  1.00  0.00     0.049 A 
ATOM     56  C   UNL A   1      40.842  31.091  34.955  1.00  0.00     0.074 A 
ATOM     57  C   UNL A   1      43.052  27.229  30.412  1.00  0.00     0.029 A 
ATOM     58  N   UNL A   1      41.834  28.662  31.598  1.00  0.00    -0.354 N 
ATOM     59  N   UNL A   1      41.216  30.321  33.959  1.00  0.00    -0.248 NA
ATOM     60  C   UNL A   1      41.625  30.910  36.183  1.00  0.00     0.031 C 
ATOM     61  C   UNL A   1      43.580  27.296  31.706  1.00  0.00     0.029 A 
ATOM     62  C   UNL A   1      42.838  28.209  32.440  1.00  0.00     0.049 A 
ATOM     63  H   UNL A   1      41.146  29.322  31.846  1.00  0.00     0.167 HD
ATOM     64  C   UNL A   1      42.293  29.579  34.437  1.00  0.00     0.074 A 
ATOM     65  C   UNL A   1      42.516  30.006  35.803  1.00  0.00     0.031 C 
ATOM     66  C   UNL A   1      43.033  28.634  33.804  1.00  0.00     0.034 A 
BRANCH  53  67
ATOM     67  C   UNL A   1      41.193  27.431  28.005  1.00  0.00     0.023 A 
ATOM     68  C   UNL A   1      40.803  26.081  27.965  1.00  0.00     0.031 A 
ATOM     69  C   UNL A   1      41.778  27.982  26.852  1.00  0.00     0.131 A 
ATOM     70  C   UNL A   1      41.081  25.305  26.830  1.00  0.00     0.055 A 
ATOM     71  C   UNL A   1      41.972  27.226  25.694  1.00  0.00     0.041 A 
ATOM     72  F   UNL A   1      42.187  29.260  26.837  1.00  0.00    -0.206 F 
ATOM     73  C   UNL A   1      41.639  25.875  25.684  1.00  0.00     0.022 A 
BRANCH  70  74
ATOM     74  S   UNL A   1      40.839  23.511  26.931  1.00  0.00     0.124 S 
ATOM     75  O   UNL A   1      41.140  23.252  28.338  1.00  0.00    -0.237 OA
ATOM     76  O   UNL A   1      39.443  23.357  26.538  1.00  0.00    -0.237 OA
ATOM     77  O   UNL A   1      41.818  22.979  25.986  1.00  0.00    -0.744 OA
ENDBRANCH  70  74
ENDBRANCH  53  67
BRANCH  54  78
ATOM     78  C   UNL A   1      39.435  32.859  36.253  1.00  0.00     0.023 A 
ATOM     79  C   UNL A   1      38.551  32.339  37.210  1.00  0.00     0.031 A 
ATOM     80  C   UNL A   1      40.000  34.123  36.494  1.00  0.00     0.131 A 
ATOM     81  C   UNL A   1      38.224  33.096  38.347  1.00  0.00     0.055 A 
ATOM     82  C   UNL A   1      39.709  34.853  37.649  1.00  0.00     0.041 A 
ATOM     83  F   UNL A   1      40.857  34.665  35.614  1.00  0.00    -0.206 F 
ATOM     84  C   UNL A   1      38.805  34.345  38.577  1.00  0.00     0.022 A 
BRANCH  81  85
ATOM     85  S   UNL A   1      36.964  32.457  39.485  1.00  0.00     0.124 S 
ATOM     86  O   UNL A   1      37.428  31.092  39.705  1.00  0.00    -0.237 OA
ATOM     87  O   UNL A   1      37.089  33.369  40.616  1.00  0.00    -0.237 OA
ATOM     88  O   UNL A   1      35.723  32.579  38.723  1.00  0.00    -0.744 OA
ENDBRANCH  81  85
ENDBRANCH  54  78
BRANCH  66  89
ATOM     89  C   UNL A   1      44.171  28.023  34.581  1.00  0.00     0.023 A 
ATOM     90  C   UNL A   1      43.995  26.859  35.348  1.00  0.00     0.031 A 
ATOM     91  C   UNL A   1      45.448  28.610  34.545  1.00  0.00     0.131 A 
ATOM     92  C   UNL A   1      45.072  26.339  36.081  1.00  0.00     0.055 A 
ATOM     93  C   UNL A   1      46.527  28.059  35.234  1.00  0.00     0.041 A 
ATOM     94  F   UNL A   1      45.667  29.723  33.827  1.00  0.00    -0.206 F 
ATOM     95  C   UNL A   1      46.341  26.922  36.015  1.00  0.00     0.022 A 
BRANCH  92  96
ATOM     96  S   UNL A   1      44.780  24.922  37.173  1.00  0.00     0.124 S 
ATOM     97  O   UNL A   1      43.345  25.022  37.422  1.00  0.00    -0.237 OA
ATOM     98  O   UNL A   1      45.206  23.796  36.348  1.00  0.00    -0.237 OA
ATOM     99  O   UNL A   1      45.631  25.198  38.329  1.00  0.00    -0.744 OA
ENDBRANCH  92  96
ENDBRANCH  66  89
ENDBRANCH  40  41
ENDBRANCH  32  35
ENDBRANCH  30  31
ENDBRANCH  29  30
ENDBRANCH   1  29
TORSDOF 18
ENDMDL
MODEL 2
REMARK VINA RESULT:     -11.9      1.967      2.233
REMARK SMILES Cc1ccc(N2CC[C@H]([NH+]3CCOCC3)[C@H](CCC(=O)NCCCCNC(=O)c3ccc(-c4c5nc(c(-c6cc(S(=O)(=O)[O-])ccc6F)c6ccc([nH]6)c(-c6cc(S(=O)(=O)[O-])ccc6F)c6nc(c(-c7cc(S(=O)(=O)[O-])ccc7F)c7ccc4[nH]7)C=C6)C=C5)cc3)C2)nc1
REMARK SMILES IDX 23 1 22 2 21 3 19 4 20 5 18 7 17 8 16 9 6 10 7 11 92 12 8 13
REMARK SMILES IDX 9 14 5 15 1 16 2 17 3 18 94 19 4 20 93 21 10 22 11 23 15 24
REMARK SMILES IDX 12 26 14 27 13 28 24 29 25 30 26 31 27 32 28 34 29 35 30 36
REMARK SMILES IDX 91 37 31 38 90 39 32 40 33 41 34 42 84 43 35 44 89 45 83 46
REMARK SMILES IDX 85 47 36 48 88 49 82 50 81 51 37 53 69 54 49 55 68 56 50 57
REMARK SMILES IDX 53 58 67 59 86 60 51 61 52 62 66 64 87 65 54 66 38 67 39 68
REMARK SMILES IDX 47 69 40 70 46 71 48 72 45 73 41 74 42 75 43 76 44 77 70 78
REMARK SMILES IDX 71 79 79 80 72 81 78 82 80 83 77 84 73 85 74 86 75 87 76 88
REMARK SMILES IDX 55 89 56 90 64 91 57 92 63 93 65 94 62 95 58 96 59 97 60 98
REMARK SMILES IDX 61 99
REMARK H PARENT 21 6 10 25 26 33 85 52 53 63
REMARK Flexibility Score: inf
ROOT
ATOM      1  C   UNL A   1      31.469  31.074  26.015  1.00  0.00     0.023 C 
ENDROOT
BRANCH   1   2
ATOM      2  C   UNL A   1      32.293  30.037  26.792  1.00  0.00     0.116 C 
BRANCH   2   3
ATOM      3  N   UNL A   1      31.463  28.885  27.099  1.00  0.00    -0.356 N 
ATOM      4  C   UNL A   1      31.642  27.573  26.773  1.00  0.00     0.220 C 
ATOM      5  O   UNL A   1      30.704  26.792  26.944  1.00  0.00    -0.275 OA
ATOM      6  H   UNL A   1      30.651  29.081  27.620  1.00  0.00     0.163 HD
BRANCH   4   7
ATOM      7  C   UNL A   1      32.985  27.077  26.263  1.00  0.00     0.100 C 
BRANCH   7   8
ATOM      8  C   UNL A   1      33.179  25.546  26.256  1.00  0.00     0.021 C 
BRANCH   8   9
ATOM      9  C   UNL A   1      33.996  25.009  25.060  1.00  0.00     0.067 C 
ATOM     10  N   UNL A   1      32.954  25.842  22.958  1.00  0.00    -0.356 N 
ATOM     11  C   UNL A   1      32.728  24.508  22.441  1.00  0.00     0.124 C 
ATOM     12  C   UNL A   1      34.048  26.034  23.896  1.00  0.00     0.127 C 
ATOM     13  C   UNL A   1      32.517  23.526  23.586  1.00  0.00     0.087 C 
ATOM     14  C   UNL A   1      33.737  23.561  24.509  1.00  0.00     0.190 C 
BRANCH  10  15
ATOM     15  C   UNL A   1      31.884  26.712  22.962  1.00  0.00     0.128 A 
ATOM     16  C   UNL A   1      28.690  29.520  23.198  1.00  0.00     0.046 C 
ATOM     17  C   UNL A   1      29.782  28.504  23.135  1.00  0.00    -0.033 A 
ATOM     18  C   UNL A   1      29.568  27.168  23.453  1.00  0.00     0.009 A 
ATOM     19  C   UNL A   1      31.060  28.862  22.728  1.00  0.00     0.117 A 
ATOM     20  C   UNL A   1      30.625  26.265  23.355  1.00  0.00     0.047 A 
ATOM     21  N   UNL A   1      32.104  28.009  22.658  1.00  0.00    -0.239 NA
ENDBRANCH  10  15
BRANCH  14  22
ATOM     22  N   UNL A   1      33.859  22.455  25.481  1.00  0.00    -0.328 N 
ATOM     23  C   UNL A   1      35.257  22.034  25.745  1.00  0.00     0.291 C 
ATOM     24  C   UNL A   1      33.015  21.263  25.308  1.00  0.00     0.291 C 
ATOM     25  H   UNL A   1      33.469  22.928  26.297  1.00  0.00     0.348 HD
ATOM     26  C   UNL A   1      35.780  20.850  24.908  1.00  0.00     0.221 C 
ATOM     27  C   UNL A   1      33.600  20.120  24.474  1.00  0.00     0.221 C 
ATOM     28  O   UNL A   1      34.889  19.733  24.951  1.00  0.00    -0.370 OA
ENDBRANCH  14  22
ENDBRANCH   8   9
ENDBRANCH   7   8
ENDBRANCH   4   7
ENDBRANCH   2   3
ENDBRANCH   1   2
BRANCH   1  29
ATOM     29  C   UNL A   1      31.337  32.411  26.721  1.00  0.00     0.023 C 
BRANCH  29  30
ATOM     30  C   UNL A   1      32.686  33.000  27.098  1.00  0.00     0.116 C 
BRANCH  30  31
ATOM     31  N   UNL A   1      32.578  34.218  27.898  1.00  0.00    -0.352 N 
ATOM     32  C   UNL A   1      33.397  34.635  28.930  1.00  0.00     0.251 C 
ATOM     33  H   UNL A   1      31.829  34.817  27.673  1.00  0.00     0.163 HD
ATOM     34  O   UNL A   1      33.139  35.633  29.576  1.00  0.00    -0.269 OA
BRANCH  32  35
ATOM     35  C   UNL A   1      34.563  33.786  29.251  1.00  0.00     0.039 A 
ATOM     36  C   UNL A   1      35.831  34.202  28.844  1.00  0.00     0.014 A 
ATOM     37  C   UNL A   1      34.403  32.700  30.115  1.00  0.00     0.014 A 
ATOM     38  C   UNL A   1      36.956  33.594  29.403  1.00  0.00     0.010 A 
ATOM     39  C   UNL A   1      35.519  32.171  30.744  1.00  0.00     0.010 A 
ATOM     40  C   UNL A   1      36.807  32.624  30.409  1.00  0.00    -0.014 A 
BRANCH  40  41
ATOM     41  C   UNL A   1      37.974  32.082  31.153  1.00  0.00     0.031 A 
ATOM     42  C   UNL A   1      38.799  30.987  30.537  1.00  0.00     0.074 A 
ATOM     43  C   UNL A   1      38.221  32.495  32.413  1.00  0.00     0.049 A 
ATOM     44  N   UNL A   1      39.759  30.275  31.066  1.00  0.00    -0.248 NA
ATOM     45  C   UNL A   1      38.465  30.614  29.153  1.00  0.00     0.031 C 
ATOM     46  C   UNL A   1      37.455  33.511  33.141  1.00  0.00     0.029 A 
ATOM     47  N   UNL A   1      39.177  32.098  33.315  1.00  0.00    -0.354 N 
ATOM     48  C   UNL A   1      40.125  29.354  30.092  1.00  0.00     0.074 A 
ATOM     49  C   UNL A   1      39.237  29.556  28.967  1.00  0.00     0.031 C 
ATOM     50  C   UNL A   1      37.986  33.673  34.363  1.00  0.00     0.029 A 
ATOM     51  C   UNL A   1      39.094  32.739  34.530  1.00  0.00     0.049 A 
ATOM     52  H   UNL A   1      39.859  31.418  33.112  1.00  0.00     0.167 HD
ATOM     53  C   UNL A   1      41.128  28.443  30.121  1.00  0.00     0.034 A 
ATOM     54  C   UNL A   1      39.816  32.578  35.658  1.00  0.00     0.034 A 
ATOM     55  C   UNL A   1      42.024  28.278  31.238  1.00  0.00     0.049 A 
ATOM     56  C   UNL A   1      40.917  31.549  35.675  1.00  0.00     0.074 A 
ATOM     57  C   UNL A   1      43.127  27.452  31.343  1.00  0.00     0.029 A 
ATOM     58  N   UNL A   1      41.913  28.951  32.448  1.00  0.00    -0.354 N 
ATOM     59  N   UNL A   1      41.292  30.728  34.720  1.00  0.00    -0.248 NA
ATOM     60  C   UNL A   1      41.690  31.422  36.916  1.00  0.00     0.031 C 
ATOM     61  C   UNL A   1      43.647  27.577  32.636  1.00  0.00     0.029 A 
ATOM     62  C   UNL A   1      42.907  28.531  33.318  1.00  0.00     0.049 A 
ATOM     63  H   UNL A   1      41.229  29.627  32.658  1.00  0.00     0.167 HD
ATOM     64  C   UNL A   1      42.359  30.002  35.242  1.00  0.00     0.074 A 
ATOM     65  C   UNL A   1      42.576  30.493  36.588  1.00  0.00     0.031 C 
ATOM     66  C   UNL A   1      43.096  29.021  34.662  1.00  0.00     0.034 A 
BRANCH  53  67
ATOM     67  C   UNL A   1      41.288  27.551  28.915  1.00  0.00     0.023 A 
ATOM     68  C   UNL A   1      42.278  27.792  27.947  1.00  0.00     0.031 A 
ATOM     69  C   UNL A   1      40.413  26.470  28.707  1.00  0.00     0.131 A 
ATOM     70  C   UNL A   1      42.316  27.020  26.776  1.00  0.00     0.055 A 
ATOM     71  C   UNL A   1      40.512  25.651  27.580  1.00  0.00     0.041 A 
ATOM     72  F   UNL A   1      39.436  26.203  29.587  1.00  0.00    -0.206 F 
ATOM     73  C   UNL A   1      41.456  25.935  26.598  1.00  0.00     0.022 A 
BRANCH  70  74
ATOM     74  S   UNL A   1      43.405  27.552  25.427  1.00  0.00     0.124 S 
ATOM     75  O   UNL A   1      42.448  28.129  24.486  1.00  0.00    -0.237 OA
ATOM     76  O   UNL A   1      44.295  28.496  26.093  1.00  0.00    -0.237 OA
ATOM     77  O   UNL A   1      44.032  26.309  24.982  1.00  0.00    -0.744 OA
ENDBRANCH  70  74
ENDBRANCH  53  67
BRANCH  54  78
ATOM     78  C   UNL A   1      39.516  33.390  36.873  1.00  0.00     0.023 A 
ATOM     79  C   UNL A   1      40.225  34.570  37.147  1.00  0.00     0.031 A 
ATOM     80  C   UNL A   1      38.543  32.975  37.800  1.00  0.00     0.131 A 
ATOM     81  C   UNL A   1      39.981  35.274  38.337  1.00  0.00     0.055 A 
ATOM     82  C   UNL A   1      38.271  33.703  38.959  1.00  0.00     0.041 A 
ATOM     83  F   UNL A   1      37.833  31.856  37.584  1.00  0.00    -0.206 F 
ATOM     84  C   UNL A   1      39.001  34.854  39.239  1.00  0.00     0.022 A 
BRANCH  81  85
ATOM     85  S   UNL A   1      41.020  36.709  38.726  1.00  0.00     0.124 S 
ATOM     86  O   UNL A   1      40.022  37.750  38.943  1.00  0.00    -0.237 OA
ATOM     87  O   UNL A   1      41.737  36.250  39.911  1.00  0.00    -0.237 OA
ATOM     88  O   UNL A   1      41.841  36.870  37.528  1.00  0.00    -0.744 OA
ENDBRANCH  81  85
ENDBRANCH  54  78
BRANCH  66  89
ATOM     89  C   UNL A   1      44.223  28.440  35.477  1.00  0.00     0.023 A 
ATOM     90  C   UNL A   1      44.006  27.392  36.387  1.00  0.00     0.031 A 
ATOM     91  C   UNL A   1      45.530  28.936  35.331  1.00  0.00     0.131 A 
ATOM     92  C   UNL A   1      45.076  26.899  37.149  1.00  0.00     0.055 A 
ATOM     93  C   UNL A   1      46.599  28.407  36.052  1.00  0.00     0.041 A 
ATOM     94  F   UNL A   1      45.788  29.937  34.474  1.00  0.00    -0.206 F 
ATOM     95  C   UNL A   1      46.374  27.389  36.975  1.00  0.00     0.022 A 
BRANCH  92  96
ATOM     96  S   UNL A   1      44.740  25.648  38.417  1.00  0.00     0.124 S 
ATOM     97  O   UNL A   1      43.859  24.726  37.708  1.00  0.00    -0.237 OA
ATOM     98  O   UNL A   1      46.076  25.145  38.723  1.00  0.00    -0.237 OA
ATOM     99  O   UNL A   1      44.107  26.410  39.492  1.00  0.00    -0.744 OA
ENDBRANCH  92  96
ENDBRANCH  66  89
ENDBRANCH  40  41
ENDBRANCH  32  35
ENDBRANCH  30  31
ENDBRANCH  29  30
ENDBRANCH   1  29
TORSDOF 18
ENDMDL
MODEL 3
REMARK VINA RESULT:     -11.8      1.880      2.483
REMARK SMILES Cc1ccc(N2CC[C@H]([NH+]3CCOCC3)[C@H](CCC(=O)NCCCCNC(=O)c3ccc(-c4c5nc(c(-c6cc(S(=O)(=O)[O-])ccc6F)c6ccc([nH]6)c(-c6cc(S(=O)(=O)[O-])ccc6F)c6nc(c(-c7cc(S(=O)(=O)[O-])ccc7F)c7ccc4[nH]7)C=C6)C=C5)cc3)C2)nc1
REMARK SMILES IDX 23 1 22 2 21 3 19 4 20 5 18 7 17 8 16 9 6 10 7 11 92 12 8 13
REMARK SMILES IDX 9 14 5 15 1 16 2 17 3 18 94 19 4 20 93 21 10 22 11 23 15 24
REMARK SMILES IDX 12 26 14 27 13 28 24 29 25 30 26 31 27 32 28 34 29 35 30 36
REMARK SMILES IDX 91 37 31 38 90 39 32 40 33 41 34 42 84 43 35 44 89 45 83 46
REMARK SMILES IDX 85 47 36 48 88 49 82 50 81 51 37 53 69 54 49 55 68 56 50 57
REMARK SMILES IDX 53 58 67 59 86 60 51 61 52 62 66 64 87 65 54 66 38 67 39 68
REMARK SMILES IDX 47 69 40 70 46 71 48 72 45 73 41 74 42 75 43 76 44 77 70 78
REMARK SMILES IDX 71 79 79 80 72 81 78 82 80 83 77 84 73 85 74 86 75 87 76 88
REMARK SMILES IDX 55 89 56 90 64 91 57 92 63 93 65 94 62 95 58 96 59 97 60 98
REMARK SMILES IDX 61 99
REMARK H PARENT 21 6 10 25 26 33 85 52 53 63
REMARK Flexibility Score: inf
ROOT
ATOM      1  C   UNL A   1      33.307  29.202  27.276  1.00  0.00     0.023 C 
ENDROOT
BRANCH   1   2
ATOM      2  C   UNL A   1      34.378  28.691  26.301  1.00  0.00     0.116 C 
BRANCH   2   3
ATOM      3  N   UNL A   1      34.009  29.045  24.942  1.00  0.00    -0.356 N 
ATOM      4  C   UNL A   1      33.935  28.260  23.829  1.00  0.00     0.220 C 
ATOM      5  O   UNL A   1      33.815  28.807  22.731  1.00  0.00    -0.275 OA
ATOM      6  H   UNL A   1      33.778  29.992  24.804  1.00  0.00     0.163 HD
BRANCH   4   7
ATOM      7  C   UNL A   1      33.945  26.744  23.948  1.00  0.00     0.100 C 
BRANCH   7   8
ATOM      8  C   UNL A   1      33.199  25.977  22.835  1.00  0.00     0.021 C 
BRANCH   8   9
ATOM      9  C   UNL A   1      32.230  24.890  23.346  1.00  0.00     0.067 C 
ATOM     10  N   UNL A   1      30.088  25.985  23.988  1.00  0.00    -0.356 N 
ATOM     11  C   UNL A   1      30.156  25.510  25.355  1.00  0.00     0.124 C 
ATOM     12  C   UNL A   1      30.760  25.206  22.961  1.00  0.00     0.127 C 
ATOM     13  C   UNL A   1      31.607  25.351  25.788  1.00  0.00     0.087 C 
ATOM     14  C   UNL A   1      32.314  24.388  24.833  1.00  0.00     0.190 C 
BRANCH  10  15
ATOM     15  C   UNL A   1      29.863  27.331  23.794  1.00  0.00     0.128 A 
ATOM     16  C   UNL A   1      29.126  31.514  23.467  1.00  0.00     0.046 C 
ATOM     17  C   UNL A   1      29.342  30.040  23.566  1.00  0.00    -0.033 A 
ATOM     18  C   UNL A   1      28.419  29.123  23.075  1.00  0.00     0.009 A 
ATOM     19  C   UNL A   1      30.498  29.530  24.140  1.00  0.00     0.117 A 
ATOM     20  C   UNL A   1      28.689  27.760  23.180  1.00  0.00     0.047 A 
ATOM     21  N   UNL A   1      30.762  28.214  24.281  1.00  0.00    -0.239 NA
ENDBRANCH  10  15
BRANCH  14  22
ATOM     22  N   UNL A   1      33.621  23.861  25.276  1.00  0.00    -0.328 N 
ATOM     23  C   UNL A   1      34.132  22.738  24.452  1.00  0.00     0.291 C 
ATOM     24  C   UNL A   1      33.812  23.546  26.700  1.00  0.00     0.291 C 
ATOM     25  H   UNL A   1      34.182  24.700  25.123  1.00  0.00     0.348 HD
ATOM     26  C   UNL A   1      33.815  21.319  24.963  1.00  0.00     0.221 C 
ATOM     27  C   UNL A   1      33.489  22.116  27.139  1.00  0.00     0.221 C 
ATOM     28  O   UNL A   1      34.177  21.155  26.337  1.00  0.00    -0.370 OA
ENDBRANCH  14  22
ENDBRANCH   8   9
ENDBRANCH   7   8
ENDBRANCH   4   7
ENDBRANCH   2   3
ENDBRANCH   1   2
BRANCH   1  29
ATOM     29  C   UNL A   1      32.789  30.590  26.951  1.00  0.00     0.023 C 
BRANCH  29  30
ATOM     30  C   UNL A   1      33.612  31.683  27.613  1.00  0.00     0.116 C 
BRANCH  30  31
ATOM     31  N   UNL A   1      32.954  32.987  27.600  1.00  0.00    -0.352 N 
ATOM     32  C   UNL A   1      33.228  34.087  28.390  1.00  0.00     0.251 C 
ATOM     33  H   UNL A   1      32.224  33.096  26.948  1.00  0.00     0.163 HD
ATOM     34  O   UNL A   1      32.538  35.088  28.339  1.00  0.00    -0.269 OA
BRANCH  32  35
ATOM     35  C   UNL A   1      34.356  33.973  29.338  1.00  0.00     0.039 A 
ATOM     36  C   UNL A   1      34.148  33.332  30.559  1.00  0.00     0.014 A 
ATOM     37  C   UNL A   1      35.640  34.328  28.920  1.00  0.00     0.014 A 
ATOM     38  C   UNL A   1      35.252  32.937  31.315  1.00  0.00     0.010 A 
ATOM     39  C   UNL A   1      36.734  33.843  29.621  1.00  0.00     0.010 A 
ATOM     40  C   UNL A   1      36.552  33.126  30.817  1.00  0.00    -0.014 A 
BRANCH  40  41
ATOM     41  C   UNL A   1      37.743  32.564  31.504  1.00  0.00     0.031 A 
ATOM     42  C   UNL A   1      38.488  31.419  30.876  1.00  0.00     0.074 A 
ATOM     43  C   UNL A   1      38.085  33.007  32.732  1.00  0.00     0.049 A 
ATOM     44  N   UNL A   1      39.453  30.688  31.367  1.00  0.00    -0.248 NA
ATOM     45  C   UNL A   1      38.054  31.016  29.528  1.00  0.00     0.031 C 
ATOM     46  C   UNL A   1      37.404  34.074  33.471  1.00  0.00     0.029 A 
ATOM     47  N   UNL A   1      39.081  32.601  33.586  1.00  0.00    -0.354 N 
ATOM     48  C   UNL A   1      39.723  29.723  30.404  1.00  0.00     0.074 A 
ATOM     49  C   UNL A   1      38.773  29.924  29.330  1.00  0.00     0.031 C 
ATOM     50  C   UNL A   1      38.016  34.253  34.652  1.00  0.00     0.029 A 
ATOM     51  C   UNL A   1      39.099  33.283  34.781  1.00  0.00     0.049 A 
ATOM     52  H   UNL A   1      39.724  31.890  33.364  1.00  0.00     0.167 HD
ATOM     53  C   UNL A   1      40.693  28.777  30.401  1.00  0.00     0.034 A 
ATOM     54  C   UNL A   1      39.884  33.131  35.867  1.00  0.00     0.034 A 
ATOM     55  C   UNL A   1      41.651  28.613  31.465  1.00  0.00     0.049 A 
ATOM     56  C   UNL A   1      40.946  32.061  35.849  1.00  0.00     0.074 A 
ATOM     57  C   UNL A   1      42.728  27.749  31.529  1.00  0.00     0.029 A 
ATOM     58  N   UNL A   1      41.642  29.327  32.657  1.00  0.00    -0.354 N 
ATOM     59  N   UNL A   1      41.230  31.197  34.902  1.00  0.00    -0.248 NA
ATOM     60  C   UNL A   1      41.791  31.944  37.044  1.00  0.00     0.031 C 
ATOM     61  C   UNL A   1      43.333  27.895  32.782  1.00  0.00     0.029 A 
ATOM     62  C   UNL A   1      42.673  28.897  33.477  1.00  0.00     0.049 A 
ATOM     63  H   UNL A   1      40.997  30.035  32.885  1.00  0.00     0.167 HD
ATOM     64  C   UNL A   1      42.301  30.447  35.380  1.00  0.00     0.074 A 
ATOM     65  C   UNL A   1      42.621  30.972  36.693  1.00  0.00     0.031 C 
ATOM     66  C   UNL A   1      42.964  29.422  34.789  1.00  0.00     0.034 A 
BRANCH  53  67
ATOM     67  C   UNL A   1      40.743  27.842  29.218  1.00  0.00     0.023 A 
ATOM     68  C   UNL A   1      41.669  28.022  28.176  1.00  0.00     0.031 A 
ATOM     69  C   UNL A   1      39.828  26.781  29.109  1.00  0.00     0.131 A 
ATOM     70  C   UNL A   1      41.604  27.212  27.032  1.00  0.00     0.055 A 
ATOM     71  C   UNL A   1      39.825  25.923  28.007  1.00  0.00     0.041 A 
ATOM     72  F   UNL A   1      38.907  26.571  30.063  1.00  0.00    -0.206 F 
ATOM     73  C   UNL A   1      40.705  26.147  26.952  1.00  0.00     0.022 A 
BRANCH  70  74
ATOM     74  S   UNL A   1      42.610  27.668  25.594  1.00  0.00     0.124 S 
ATOM     75  O   UNL A   1      41.908  28.854  25.108  1.00  0.00    -0.237 OA
ATOM     76  O   UNL A   1      43.922  27.900  26.187  1.00  0.00    -0.237 OA
ATOM     77  O   UNL A   1      42.515  26.497  24.724  1.00  0.00    -0.744 OA
ENDBRANCH  70  74
ENDBRANCH  53  67
BRANCH  54  78
ATOM     78  C   UNL A   1      39.691  33.990  37.070  1.00  0.00     0.023 A 
ATOM     79  C   UNL A   1      39.037  33.499  38.211  1.00  0.00     0.031 A 
ATOM     80  C   UNL A   1      40.122  35.329  37.082  1.00  0.00     0.131 A 
ATOM     81  C   UNL A   1      38.796  34.350  39.301  1.00  0.00     0.055 A 
ATOM     82  C   UNL A   1      39.921  36.158  38.187  1.00  0.00     0.041 A 
ATOM     83  F   UNL A   1      40.757  35.848  36.019  1.00  0.00    -0.206 F 
ATOM     84  C   UNL A   1      39.243  35.673  39.301  1.00  0.00     0.022 A 
BRANCH  81  85
ATOM     85  S   UNL A   1      37.818  33.721  40.694  1.00  0.00     0.124 S 
ATOM     86  O   UNL A   1      37.400  34.957  41.346  1.00  0.00    -0.237 OA
ATOM     87  O   UNL A   1      36.771  32.969  40.012  1.00  0.00    -0.237 OA
ATOM     88  O   UNL A   1      38.775  32.912  41.444  1.00  0.00    -0.744 OA
ENDBRANCH  81  85
ENDBRANCH  54  78
BRANCH  66  89
ATOM     89  C   UNL A   1      44.118  28.823  35.551  1.00  0.00     0.023 A 
ATOM     90  C   UNL A   1      43.948  27.704  36.382  1.00  0.00     0.031 A 
ATOM     91  C   UNL A   1      45.405  29.378  35.435  1.00  0.00     0.131 A 
ATOM     92  C   UNL A   1      45.042  27.196  37.099  1.00  0.00     0.055 A 
ATOM     93  C   UNL A   1      46.499  28.837  36.108  1.00  0.00     0.041 A 
ATOM     94  F   UNL A   1      45.619  30.448  34.653  1.00  0.00    -0.206 F 
ATOM     95  C   UNL A   1      46.320  27.745  36.954  1.00  0.00     0.022 A 
BRANCH  92  96
ATOM     96  S   UNL A   1      44.764  25.843  38.273  1.00  0.00     0.124 S 
ATOM     97  O   UNL A   1      44.102  26.531  39.376  1.00  0.00    -0.237 OA
ATOM     98  O   UNL A   1      43.929  24.926  37.502  1.00  0.00    -0.237 OA
ATOM     99  O   UNL A   1      46.111  25.356  38.562  1.00  0.00    -0.744 OA
ENDBRANCH  92  96
ENDBRANCH  66  89
ENDBRANCH  40  41
ENDBRANCH  32  35
ENDBRANCH  30  31
ENDBRANCH  29  30
ENDBRANCH   1  29
TORSDOF 18
ENDMDL
