MODEL 1
REMARK VINA RESULT:     -14.2      0.000      0.000
REMARK SMILES O=C(NCCCCNC(=O)c1ccccc1C(=O)Nc1ccc(N2C(=O)[C@H]3[C@@H]4CC[C@@H](C4)[C@@H]3C2=O)cc1)c1ccc(-c2c3nc(c(-c4cc(S(=O)(=O)[O-])ccc4F)c4ccc([nH]4)c(-c4cc(S(=O)(=O)[O-])ccc4F)c4nc(c(-c5cc(S(=O)(=O)[O-])ccc5F)c5ccc2[nH]5)C=C4)C=C3)cc1
REMARK SMILES IDX 5 1 4 2 3 3 1 4 2 5 38 7 39 8 100 9 40 10 99 11 41 12 42 13
REMARK SMILES IDX 43 14 93 15 44 16 98 17 92 18 94 19 45 20 97 21 91 22 90 23
REMARK SMILES IDX 46 25 78 26 58 27 77 28 59 29 62 30 76 31 95 32 60 33 61 34
REMARK SMILES IDX 75 36 96 37 63 38 47 39 48 40 56 41 49 42 55 43 57 44 54 45
REMARK SMILES IDX 50 46 51 47 52 48 53 49 79 50 80 51 88 52 81 53 87 54 89 55
REMARK SMILES IDX 86 56 82 57 83 58 84 59 85 60 64 61 65 62 73 63 66 64 72 65
REMARK SMILES IDX 74 66 71 67 67 68 68 69 69 70 70 71 6 72 7 73 8 74 9 75
REMARK SMILES IDX 10 77 11 78 12 79 16 80 13 81 15 82 14 83 17 84 18 85 19 86
REMARK SMILES IDX 20 88 21 89 37 90 22 91 36 92 23 93 24 94 25 95 34 96 26 97
REMARK SMILES IDX 27 98 33 99 35 100 28 101 31 102 29 103 32 104 30 105
REMARK H PARENT 3 6 94 24 62 35 8 76 19 87
REMARK Flexibility Score: inf
ROOT
ATOM      1  C   UNL A   1      31.389  32.757  26.462  1.00  0.00     0.023 C 
ENDROOT
BRANCH   1   2
ATOM      2  C   UNL A   1      32.527  33.133  27.408  1.00  0.00     0.116 C 
BRANCH   2   3
ATOM      3  N   UNL A   1      32.462  34.511  27.859  1.00  0.00    -0.352 N 
ATOM      4  O   UNL A   1      32.849  36.300  29.166  1.00  0.00    -0.269 OA
ATOM      5  C   UNL A   1      33.169  35.158  28.844  1.00  0.00     0.251 C 
ATOM      6  H   UNL A   1      31.806  35.072  27.385  1.00  0.00     0.163 HD
BRANCH   5   7
ATOM      7  C   UNL A   1      34.296  34.488  29.535  1.00  0.00     0.039 A 
ATOM      8  C   UNL A   1      34.096  33.742  30.699  1.00  0.00     0.014 A 
ATOM      9  C   UNL A   1      35.575  34.571  28.976  1.00  0.00     0.014 A 
ATOM     10  C   UNL A   1      35.188  33.199  31.374  1.00  0.00     0.010 A 
ATOM     11  C   UNL A   1      36.658  33.952  29.610  1.00  0.00     0.010 A 
ATOM     12  C   UNL A   1      36.480  33.283  30.830  1.00  0.00    -0.014 A 
BRANCH  12  13
ATOM     13  C   UNL A   1      37.618  32.611  31.516  1.00  0.00     0.031 A 
ATOM     14  C   UNL A   1      38.349  31.464  30.870  1.00  0.00     0.074 A 
ATOM     15  C   UNL A   1      37.992  33.044  32.737  1.00  0.00     0.049 A 
ATOM     16  N   UNL A   1      39.344  30.752  31.335  1.00  0.00    -0.248 NA
ATOM     17  C   UNL A   1      37.897  31.058  29.531  1.00  0.00     0.031 C 
ATOM     18  C   UNL A   1      37.352  34.139  33.471  1.00  0.00     0.029 A 
ATOM     19  N   UNL A   1      38.996  32.629  33.575  1.00  0.00    -0.354 N 
ATOM     20  C   UNL A   1      39.630  29.804  30.358  1.00  0.00     0.074 A 
ATOM     21  C   UNL A   1      38.677  30.013  29.287  1.00  0.00     0.031 C 
ATOM     22  C   UNL A   1      37.998  34.330  34.630  1.00  0.00     0.029 A 
ATOM     23  C   UNL A   1      39.051  33.329  34.758  1.00  0.00     0.049 A 
ATOM     24  H   UNL A   1      39.618  31.900  33.350  1.00  0.00     0.167 HD
ATOM     25  C   UNL A   1      40.600  28.855  30.354  1.00  0.00     0.034 A 
ATOM     26  C   UNL A   1      39.837  33.168  35.840  1.00  0.00     0.034 A 
ATOM     27  C   UNL A   1      41.542  28.660  31.433  1.00  0.00     0.049 A 
ATOM     28  C   UNL A   1      40.877  32.079  35.828  1.00  0.00     0.074 A 
ATOM     29  C   UNL A   1      42.589  27.756  31.509  1.00  0.00     0.029 A 
ATOM     30  N   UNL A   1      41.547  29.367  32.630  1.00  0.00    -0.354 N 
ATOM     31  N   UNL A   1      41.151  31.211  34.882  1.00  0.00    -0.248 NA
ATOM     32  C   UNL A   1      41.716  31.955  37.025  1.00  0.00     0.031 C 
ATOM     33  C   UNL A   1      43.173  27.863  32.776  1.00  0.00     0.029 A 
ATOM     34  C   UNL A   1      42.551  28.893  33.462  1.00  0.00     0.049 A 
ATOM     35  H   UNL A   1      40.926  30.098  32.854  1.00  0.00     0.167 HD
ATOM     36  C   UNL A   1      42.213  30.451  35.364  1.00  0.00     0.074 A 
ATOM     37  C   UNL A   1      42.540  30.978  36.673  1.00  0.00     0.031 C 
ATOM     38  C   UNL A   1      42.859  29.413  34.775  1.00  0.00     0.034 A 
BRANCH  25  39
ATOM     39  C   UNL A   1      40.665  27.924  29.165  1.00  0.00     0.023 A 
ATOM     40  C   UNL A   1      41.580  28.120  28.115  1.00  0.00     0.031 A 
ATOM     41  C   UNL A   1      39.797  26.820  29.079  1.00  0.00     0.131 A 
ATOM     42  C   UNL A   1      41.563  27.266  27.001  1.00  0.00     0.055 A 
ATOM     43  C   UNL A   1      39.837  25.930  28.005  1.00  0.00     0.041 A 
ATOM     44  F   UNL A   1      38.888  26.590  30.040  1.00  0.00    -0.206 F 
ATOM     45  C   UNL A   1      40.714  26.158  26.950  1.00  0.00     0.022 A 
BRANCH  42  46
ATOM     46  S   UNL A   1      42.575  27.701  25.558  1.00  0.00     0.124 S 
ATOM     47  O   UNL A   1      43.897  27.861  26.161  1.00  0.00    -0.237 OA
ATOM     48  O   UNL A   1      42.406  26.541  24.691  1.00  0.00    -0.237 OA
ATOM     49  O   UNL A   1      41.966  28.938  25.072  1.00  0.00    -0.744 OA
ENDBRANCH  42  46
ENDBRANCH  25  39
BRANCH  26  50
ATOM     50  C   UNL A   1      39.644  34.032  37.039  1.00  0.00     0.023 A 
ATOM     51  C   UNL A   1      39.028  33.540  38.200  1.00  0.00     0.031 A 
ATOM     52  C   UNL A   1      40.052  35.379  37.030  1.00  0.00     0.131 A 
ATOM     53  C   UNL A   1      38.801  34.398  39.287  1.00  0.00     0.055 A 
ATOM     54  C   UNL A   1      39.878  36.211  38.135  1.00  0.00     0.041 A 
ATOM     55  F   UNL A   1      40.649  35.899  35.945  1.00  0.00    -0.206 F 
ATOM     56  C   UNL A   1      39.236  35.724  39.269  1.00  0.00     0.022 A 
BRANCH  53  57
ATOM     57  S   UNL A   1      37.852  33.774  40.701  1.00  0.00     0.124 S 
ATOM     58  O   UNL A   1      37.505  35.010  41.394  1.00  0.00    -0.237 OA
ATOM     59  O   UNL A   1      36.753  33.077  40.043  1.00  0.00    -0.237 OA
ATOM     60  O   UNL A   1      38.805  32.914  41.398  1.00  0.00    -0.744 OA
ENDBRANCH  53  57
ENDBRANCH  26  50
BRANCH  38  61
ATOM     61  C   UNL A   1      44.017  28.809  35.535  1.00  0.00     0.023 A 
ATOM     62  C   UNL A   1      43.849  27.698  36.381  1.00  0.00     0.031 A 
ATOM     63  C   UNL A   1      45.302  29.370  35.427  1.00  0.00     0.131 A 
ATOM     64  C   UNL A   1      44.934  27.223  37.134  1.00  0.00     0.055 A 
ATOM     65  C   UNL A   1      46.391  28.851  36.127  1.00  0.00     0.041 A 
ATOM     66  F   UNL A   1      45.519  30.433  34.638  1.00  0.00    -0.206 F 
ATOM     67  C   UNL A   1      46.208  27.781  36.998  1.00  0.00     0.022 A 
BRANCH  64  68
ATOM     68  S   UNL A   1      44.637  25.930  38.371  1.00  0.00     0.124 S 
ATOM     69  O   UNL A   1      44.307  26.714  39.556  1.00  0.00    -0.237 OA
ATOM     70  O   UNL A   1      43.538  25.176  37.777  1.00  0.00    -0.237 OA
ATOM     71  O   UNL A   1      45.912  25.216  38.435  1.00  0.00    -0.744 OA
ENDBRANCH  64  68
ENDBRANCH  38  61
ENDBRANCH  12  13
ENDBRANCH   5   7
ENDBRANCH   2   3
ENDBRANCH   1   2
BRANCH   1  72
ATOM     72  C   UNL A   1      31.315  31.270  26.102  1.00  0.00     0.023 C 
BRANCH  72  73
ATOM     73  C   UNL A   1      32.390  30.399  26.752  1.00  0.00     0.116 C 
BRANCH  73  74
ATOM     74  N   UNL A   1      33.361  29.908  25.797  1.00  0.00    -0.352 N 
ATOM     75  C   UNL A   1      33.194  29.000  24.787  1.00  0.00     0.252 C 
ATOM     76  H   UNL A   1      34.269  30.278  25.887  1.00  0.00     0.163 HD
ATOM     77  O   UNL A   1      34.175  28.552  24.193  1.00  0.00    -0.269 OA
BRANCH  75  78
ATOM     78  C   UNL A   1      31.875  28.425  24.469  1.00  0.00     0.052 A 
ATOM     79  C   UNL A   1      31.388  28.874  23.217  1.00  0.00     0.014 A 
ATOM     80  C   UNL A   1      31.115  27.525  25.230  1.00  0.00     0.052 A 
ATOM     81  C   UNL A   1      30.211  28.373  22.670  1.00  0.00     0.001 A 
ATOM     82  C   UNL A   1      29.936  27.012  24.635  1.00  0.00     0.014 A 
ATOM     83  C   UNL A   1      29.495  27.419  23.371  1.00  0.00     0.001 A 
BRANCH  80  84
ATOM     84  C   UNL A   1      31.428  26.904  26.554  1.00  0.00     0.256 C 
ATOM     85  O   UNL A   1      31.410  27.655  27.537  1.00  0.00    -0.269 OA
ATOM     86  N   UNL A   1      31.646  25.574  26.817  1.00  0.00    -0.322 N 
ATOM     87  H   UNL A   1      31.723  25.366  27.776  1.00  0.00     0.170 HD
BRANCH  86  88
ATOM     88  C   UNL A   1      31.777  24.462  25.988  1.00  0.00     0.041 A 
ATOM     89  C   UNL A   1      32.877  24.462  25.126  1.00  0.00     0.028 A 
ATOM     90  C   UNL A   1      30.931  23.362  26.040  1.00  0.00     0.028 A 
ATOM     91  C   UNL A   1      33.299  23.270  24.548  1.00  0.00     0.029 A 
ATOM     92  C   UNL A   1      31.281  22.201  25.345  1.00  0.00     0.029 A 
ATOM     93  C   UNL A   1      32.523  22.121  24.696  1.00  0.00     0.052 A 
BRANCH  93  94
ATOM     94  N   UNL A   1      33.057  20.862  24.370  1.00  0.00    -0.250 N 
ATOM     95  C   UNL A   1      32.537  20.030  23.373  1.00  0.00     0.237 C 
ATOM     96  C   UNL A   1      33.964  20.186  25.215  1.00  0.00     0.237 C 
ATOM     97  O   UNL A   1      31.819  20.287  22.425  1.00  0.00    -0.274 OA
ATOM     98  C   UNL A   1      32.884  18.671  23.871  1.00  0.00     0.095 C 
ATOM     99  C   UNL A   1      34.262  18.933  24.454  1.00  0.00     0.095 C 
ATOM    100  O   UNL A   1      34.455  20.524  26.279  1.00  0.00    -0.274 OA
ATOM    101  C   UNL A   1      33.050  17.291  23.237  1.00  0.00     0.002 C 
ATOM    102  C   UNL A   1      34.703  17.509  24.772  1.00  0.00     0.002 C 
ATOM    103  C   UNL A   1      32.597  16.319  24.348  1.00  0.00     0.005 C 
ATOM    104  C   UNL A   1      34.565  16.988  23.318  1.00  0.00     0.009 C 
ATOM    105  C   UNL A   1      33.630  16.626  25.472  1.00  0.00     0.005 C 
ENDBRANCH  93  94
ENDBRANCH  86  88
ENDBRANCH  80  84
ENDBRANCH  75  78
ENDBRANCH  73  74
ENDBRANCH  72  73
ENDBRANCH   1  72
TORSDOF 17
ENDMDL
MODEL 2
REMARK VINA RESULT:     -14.0      3.824      9.794
REMARK SMILES O=C(NCCCCNC(=O)c1ccccc1C(=O)Nc1ccc(N2C(=O)[C@H]3[C@@H]4CC[C@@H](C4)[C@@H]3C2=O)cc1)c1ccc(-c2c3nc(c(-c4cc(S(=O)(=O)[O-])ccc4F)c4ccc([nH]4)c(-c4cc(S(=O)(=O)[O-])ccc4F)c4nc(c(-c5cc(S(=O)(=O)[O-])ccc5F)c5ccc2[nH]5)C=C4)C=C3)cc1
REMARK SMILES IDX 5 1 4 2 3 3 1 4 2 5 38 7 39 8 100 9 40 10 99 11 41 12 42 13
REMARK SMILES IDX 43 14 93 15 44 16 98 17 92 18 94 19 45 20 97 21 91 22 90 23
REMARK SMILES IDX 46 25 78 26 58 27 77 28 59 29 62 30 76 31 95 32 60 33 61 34
REMARK SMILES IDX 75 36 96 37 63 38 47 39 48 40 56 41 49 42 55 43 57 44 54 45
REMARK SMILES IDX 50 46 51 47 52 48 53 49 79 50 80 51 88 52 81 53 87 54 89 55
REMARK SMILES IDX 86 56 82 57 83 58 84 59 85 60 64 61 65 62 73 63 66 64 72 65
REMARK SMILES IDX 74 66 71 67 67 68 68 69 69 70 70 71 6 72 7 73 8 74 9 75
REMARK SMILES IDX 10 77 11 78 12 79 16 80 13 81 15 82 14 83 17 84 18 85 19 86
REMARK SMILES IDX 20 88 21 89 37 90 22 91 36 92 23 93 24 94 25 95 34 96 26 97
REMARK SMILES IDX 27 98 33 99 35 100 28 101 31 102 29 103 32 104 30 105
REMARK H PARENT 3 6 94 24 62 35 8 76 19 87
REMARK Flexibility Score: inf
ROOT
ATOM      1  C   UNL A   1      32.768  27.627  26.353  1.00  0.00     0.023 C 
ENDROOT
BRANCH   1   2
ATOM      2  C   UNL A   1      33.336  28.334  27.581  1.00  0.00     0.116 C 
BRANCH   2   3
ATOM      3  N   UNL A   1      33.374  29.778  27.441  1.00  0.00    -0.352 N 
ATOM      4  O   UNL A   1      34.124  31.882  27.705  1.00  0.00    -0.269 OA
ATOM      5  C   UNL A   1      34.359  30.677  27.772  1.00  0.00     0.251 C 
ATOM      6  H   UNL A   1      32.565  30.178  27.047  1.00  0.00     0.163 HD
BRANCH   5   7
ATOM      7  C   UNL A   1      35.690  30.213  28.228  1.00  0.00     0.039 A 
ATOM      8  C   UNL A   1      36.813  30.294  27.401  1.00  0.00     0.014 A 
ATOM      9  C   UNL A   1      35.825  29.729  29.533  1.00  0.00     0.014 A 
ATOM     10  C   UNL A   1      38.031  29.768  27.827  1.00  0.00     0.010 A 
ATOM     11  C   UNL A   1      37.068  29.279  29.989  1.00  0.00     0.010 A 
ATOM     12  C   UNL A   1      38.179  29.269  29.131  1.00  0.00    -0.014 A 
BRANCH  12  13
ATOM     13  C   UNL A   1      39.513  28.802  29.600  1.00  0.00     0.031 A 
ATOM     14  C   UNL A   1      40.252  29.528  30.693  1.00  0.00     0.074 A 
ATOM     15  C   UNL A   1      40.060  27.710  29.029  1.00  0.00     0.049 A 
ATOM     16  N   UNL A   1      41.429  29.272  31.204  1.00  0.00    -0.248 NA
ATOM     17  C   UNL A   1      39.586  30.700  31.281  1.00  0.00     0.031 C 
ATOM     18  C   UNL A   1      39.446  26.929  27.951  1.00  0.00     0.029 A 
ATOM     19  N   UNL A   1      41.246  27.063  29.270  1.00  0.00    -0.354 N 
ATOM     20  C   UNL A   1      41.655  30.256  32.162  1.00  0.00     0.074 A 
ATOM     21  C   UNL A   1      40.504  31.134  32.134  1.00  0.00     0.031 C 
ATOM     22  C   UNL A   1      40.241  25.893  27.649  1.00  0.00     0.029 A 
ATOM     23  C   UNL A   1      41.452  25.972  28.457  1.00  0.00     0.049 A 
ATOM     24  H   UNL A   1      41.886  27.350  29.960  1.00  0.00     0.167 HD
ATOM     25  C   UNL A   1      42.721  30.406  32.989  1.00  0.00     0.034 A 
ATOM     26  C   UNL A   1      42.509  25.143  28.349  1.00  0.00     0.034 A 
ATOM     27  C   UNL A   1      43.863  29.520  33.002  1.00  0.00     0.049 A 
ATOM     28  C   UNL A   1      43.697  25.357  29.247  1.00  0.00     0.074 A 
ATOM     29  C   UNL A   1      44.974  29.559  33.829  1.00  0.00     0.029 A 
ATOM     30  N   UNL A   1      44.053  28.445  32.142  1.00  0.00    -0.354 N 
ATOM     31  N   UNL A   1      43.880  26.276  30.168  1.00  0.00    -0.248 NA
ATOM     32  C   UNL A   1      44.815  24.419  29.099  1.00  0.00     0.031 C 
ATOM     33  C   UNL A   1      45.865  28.562  33.419  1.00  0.00     0.029 A 
ATOM     34  C   UNL A   1      45.276  27.840  32.394  1.00  0.00     0.049 A 
ATOM     35  H   UNL A   1      43.411  28.155  31.454  1.00  0.00     0.167 HD
ATOM     36  C   UNL A   1      45.128  26.011  30.723  1.00  0.00     0.074 A 
ATOM     37  C   UNL A   1      45.641  24.835  30.050  1.00  0.00     0.031 C 
ATOM     38  C   UNL A   1      45.788  26.678  31.704  1.00  0.00     0.034 A 
BRANCH  25  39
ATOM     39  C   UNL A   1      42.724  31.597  33.920  1.00  0.00     0.023 A 
ATOM     40  C   UNL A   1      42.378  31.482  35.279  1.00  0.00     0.031 A 
ATOM     41  C   UNL A   1      43.079  32.871  33.441  1.00  0.00     0.131 A 
ATOM     42  C   UNL A   1      42.333  32.625  36.091  1.00  0.00     0.055 A 
ATOM     43  C   UNL A   1      43.107  33.992  34.273  1.00  0.00     0.041 A 
ATOM     44  F   UNL A   1      43.400  33.050  32.150  1.00  0.00    -0.206 F 
ATOM     45  C   UNL A   1      42.720  33.876  35.604  1.00  0.00     0.022 A 
BRANCH  42  46
ATOM     46  S   UNL A   1      41.637  32.478  37.761  1.00  0.00     0.124 S 
ATOM     47  O   UNL A   1      41.990  33.770  38.344  1.00  0.00    -0.237 OA
ATOM     48  O   UNL A   1      40.220  32.263  37.495  1.00  0.00    -0.237 OA
ATOM     49  O   UNL A   1      42.346  31.332  38.329  1.00  0.00    -0.744 OA
ENDBRANCH  42  46
ENDBRANCH  25  39
BRANCH  26  50
ATOM     50  C   UNL A   1      42.508  24.061  27.323  1.00  0.00     0.023 A 
ATOM     51  C   UNL A   1      41.895  22.824  27.571  1.00  0.00     0.031 A 
ATOM     52  C   UNL A   1      43.147  24.244  26.082  1.00  0.00     0.131 A 
ATOM     53  C   UNL A   1      41.968  21.803  26.610  1.00  0.00     0.055 A 
ATOM     54  C   UNL A   1      43.167  23.247  25.108  1.00  0.00     0.041 A 
ATOM     55  F   UNL A   1      43.747  25.410  25.794  1.00  0.00    -0.206 F 
ATOM     56  C   UNL A   1      42.585  22.012  25.375  1.00  0.00     0.022 A 
BRANCH  53  57
ATOM     57  S   UNL A   1      41.314  20.166  27.033  1.00  0.00     0.124 S 
ATOM     58  O   UNL A   1      42.510  19.335  26.938  1.00  0.00    -0.237 OA
ATOM     59  O   UNL A   1      40.790  20.386  28.375  1.00  0.00    -0.237 OA
ATOM     60  O   UNL A   1      40.305  19.926  26.003  1.00  0.00    -0.744 OA
ENDBRANCH  53  57
ENDBRANCH  26  50
BRANCH  38  61
ATOM     61  C   UNL A   1      47.125  26.118  32.131  1.00  0.00     0.023 A 
ATOM     62  C   UNL A   1      48.308  26.405  31.427  1.00  0.00     0.031 A 
ATOM     63  C   UNL A   1      47.210  25.265  33.246  1.00  0.00     0.131 A 
ATOM     64  C   UNL A   1      49.514  25.795  31.808  1.00  0.00     0.055 A 
ATOM     65  C   UNL A   1      48.423  24.715  33.660  1.00  0.00     0.041 A 
ATOM     66  F   UNL A   1      46.112  24.953  33.952  1.00  0.00    -0.206 F 
ATOM     67  C   UNL A   1      49.581  24.966  32.931  1.00  0.00     0.022 A 
BRANCH  64  68
ATOM     68  S   UNL A   1      50.974  26.018  30.755  1.00  0.00     0.124 S 
ATOM     69  O   UNL A   1      52.028  25.417  31.567  1.00  0.00    -0.237 OA
ATOM     70  O   UNL A   1      50.603  25.286  29.548  1.00  0.00    -0.237 OA
ATOM     71  O   UNL A   1      51.064  27.468  30.596  1.00  0.00    -0.744 OA
ENDBRANCH  64  68
ENDBRANCH  38  61
ENDBRANCH  12  13
ENDBRANCH   5   7
ENDBRANCH   2   3
ENDBRANCH   1   2
BRANCH   1  72
ATOM     72  C   UNL A   1      33.818  27.071  25.385  1.00  0.00     0.023 C 
BRANCH  72  73
ATOM     73  C   UNL A   1      34.005  25.555  25.443  1.00  0.00     0.116 C 
BRANCH  73  74
ATOM     74  N   UNL A   1      34.613  25.024  24.241  1.00  0.00    -0.352 N 
ATOM     75  C   UNL A   1      34.787  23.719  23.868  1.00  0.00     0.252 C 
ATOM     76  H   UNL A   1      34.950  25.694  23.604  1.00  0.00     0.163 HD
ATOM     77  O   UNL A   1      35.500  23.444  22.902  1.00  0.00    -0.269 OA
BRANCH  75  78
ATOM     78  C   UNL A   1      34.257  22.603  24.673  1.00  0.00     0.052 A 
ATOM     79  C   UNL A   1      34.972  22.435  25.883  1.00  0.00     0.014 A 
ATOM     80  C   UNL A   1      33.175  21.760  24.379  1.00  0.00     0.052 A 
ATOM     81  C   UNL A   1      34.573  21.510  26.843  1.00  0.00     0.001 A 
ATOM     82  C   UNL A   1      32.776  20.848  25.387  1.00  0.00     0.014 A 
ATOM     83  C   UNL A   1      33.455  20.731  26.605  1.00  0.00     0.001 A 
BRANCH  80  84
ATOM     84  C   UNL A   1      32.270  21.759  23.189  1.00  0.00     0.256 C 
ATOM     85  O   UNL A   1      32.186  20.699  22.555  1.00  0.00    -0.269 OA
ATOM     86  N   UNL A   1      31.449  22.777  22.768  1.00  0.00    -0.322 N 
ATOM     87  H   UNL A   1      30.853  22.526  22.027  1.00  0.00     0.170 HD
BRANCH  86  88
ATOM     88  C   UNL A   1      31.298  24.096  23.191  1.00  0.00     0.041 A 
ATOM     89  C   UNL A   1      31.752  25.082  22.311  1.00  0.00     0.028 A 
ATOM     90  C   UNL A   1      30.665  24.455  24.375  1.00  0.00     0.028 A 
ATOM     91  C   UNL A   1      31.317  26.394  22.462  1.00  0.00     0.029 A 
ATOM     92  C   UNL A   1      30.348  25.798  24.597  1.00  0.00     0.029 A 
ATOM     93  C   UNL A   1      30.572  26.746  23.586  1.00  0.00     0.052 A 
BRANCH  93  94
ATOM     94  N   UNL A   1      29.891  27.975  23.624  1.00  0.00    -0.250 N 
ATOM     95  C   UNL A   1      28.522  28.114  23.372  1.00  0.00     0.237 C 
ATOM     96  C   UNL A   1      30.568  29.214  23.609  1.00  0.00     0.237 C 
ATOM     97  O   UNL A   1      27.625  27.293  23.405  1.00  0.00    -0.274 OA
ATOM     98  C   UNL A   1      28.432  29.493  22.818  1.00  0.00     0.095 C 
ATOM     99  C   UNL A   1      29.453  30.208  23.686  1.00  0.00     0.095 C 
ATOM    100  O   UNL A   1      31.763  29.461  23.597  1.00  0.00    -0.274 OA
ATOM    101  C   UNL A   1      27.327  30.538  22.677  1.00  0.00     0.002 C 
ATOM    102  C   UNL A   1      29.211  31.653  23.265  1.00  0.00     0.002 C 
ATOM    103  C   UNL A   1      27.688  31.283  21.373  1.00  0.00     0.005 C 
ATOM    104  C   UNL A   1      27.712  31.669  23.661  1.00  0.00     0.009 C 
ATOM    105  C   UNL A   1      29.081  31.880  21.730  1.00  0.00     0.005 C 
ENDBRANCH  93  94
ENDBRANCH  86  88
ENDBRANCH  80  84
ENDBRANCH  75  78
ENDBRANCH  73  74
ENDBRANCH  72  73
ENDBRANCH   1  72
TORSDOF 17
ENDMDL
MODEL 3
REMARK VINA RESULT:     -13.9      5.329      7.890
REMARK SMILES O=C(NCCCCNC(=O)c1ccccc1C(=O)Nc1ccc(N2C(=O)[C@H]3[C@@H]4CC[C@@H](C4)[C@@H]3C2=O)cc1)c1ccc(-c2c3nc(c(-c4cc(S(=O)(=O)[O-])ccc4F)c4ccc([nH]4)c(-c4cc(S(=O)(=O)[O-])ccc4F)c4nc(c(-c5cc(S(=O)(=O)[O-])ccc5F)c5ccc2[nH]5)C=C4)C=C3)cc1
REMARK SMILES IDX 5 1 4 2 3 3 1 4 2 5 38 7 39 8 100 9 40 10 99 11 41 12 42 13
REMARK SMILES IDX 43 14 93 15 44 16 98 17 92 18 94 19 45 20 97 21 91 22 90 23
REMARK SMILES IDX 46 25 78 26 58 27 77 28 59 29 62 30 76 31 95 32 60 33 61 34
REMARK SMILES IDX 75 36 96 37 63 38 47 39 48 40 56 41 49 42 55 43 57 44 54 45
REMARK SMILES IDX 50 46 51 47 52 48 53 49 79 50 80 51 88 52 81 53 87 54 89 55
REMARK SMILES IDX 86 56 82 57 83 58 84 59 85 60 64 61 65 62 73 63 66 64 72 65
REMARK SMILES IDX 74 66 71 67 67 68 68 69 69 70 70 71 6 72 7 73 8 74 9 75
REMARK SMILES IDX 10 77 11 78 12 79 16 80 13 81 15 82 14 83 17 84 18 85 19 86
REMARK SMILES IDX 20 88 21 89 37 90 22 91 36 92 23 93 24 94 25 95 34 96 26 97
REMARK SMILES IDX 27 98 33 99 35 100 28 101 31 102 29 103 32 104 30 105
REMARK H PARENT 3 6 94 24 62 35 8 76 19 87
REMARK Flexibility Score: inf
ROOT
ATOM      1  C   UNL A   1      36.330  23.891  26.127  1.00  0.00     0.023 C 
ENDROOT
BRANCH   1   2
ATOM      2  C   UNL A   1      37.148  23.236  25.017  1.00  0.00     0.116 C 
BRANCH   2   3
ATOM      3  N   UNL A   1      38.070  22.227  25.506  1.00  0.00    -0.352 N 
ATOM      4  O   UNL A   1      39.956  21.372  26.382  1.00  0.00    -0.269 OA
ATOM      5  C   UNL A   1      39.253  22.362  26.192  1.00  0.00     0.251 C 
ATOM      6  H   UNL A   1      37.805  21.298  25.317  1.00  0.00     0.163 HD
BRANCH   5   7
ATOM      7  C   UNL A   1      39.700  23.686  26.683  1.00  0.00     0.039 A 
ATOM      8  C   UNL A   1      39.950  24.742  25.803  1.00  0.00     0.014 A 
ATOM      9  C   UNL A   1      39.825  23.888  28.061  1.00  0.00     0.014 A 
ATOM     10  C   UNL A   1      40.455  25.948  26.289  1.00  0.00     0.010 A 
ATOM     11  C   UNL A   1      40.250  25.127  28.552  1.00  0.00     0.010 A 
ATOM     12  C   UNL A   1      40.595  26.161  27.670  1.00  0.00    -0.014 A 
BRANCH  12  13
ATOM     13  C   UNL A   1      41.042  27.490  28.173  1.00  0.00     0.031 A 
ATOM     14  C   UNL A   1      42.503  27.852  28.224  1.00  0.00     0.074 A 
ATOM     15  C   UNL A   1      40.115  28.375  28.589  1.00  0.00     0.049 A 
ATOM     16  N   UNL A   1      43.065  28.953  28.654  1.00  0.00    -0.248 NA
ATOM     17  C   UNL A   1      43.455  26.843  27.738  1.00  0.00     0.031 C 
ATOM     18  C   UNL A   1      38.669  28.134  28.600  1.00  0.00     0.029 A 
ATOM     19  N   UNL A   1      40.239  29.652  29.076  1.00  0.00    -0.354 N 
ATOM     20  C   UNL A   1      44.437  28.767  28.506  1.00  0.00     0.074 A 
ATOM     21  C   UNL A   1      44.619  27.431  27.978  1.00  0.00     0.031 C 
ATOM     22  C   UNL A   1      38.041  29.235  29.037  1.00  0.00     0.029 A 
ATOM     23  C   UNL A   1      39.037  30.235  29.405  1.00  0.00     0.049 A 
ATOM     24  H   UNL A   1      41.105  30.107  29.180  1.00  0.00     0.167 HD
ATOM     25  C   UNL A   1      45.445  29.634  28.781  1.00  0.00     0.034 A 
ATOM     26  C   UNL A   1      38.763  31.429  29.969  1.00  0.00     0.034 A 
ATOM     27  C   UNL A   1      45.243  30.964  29.310  1.00  0.00     0.049 A 
ATOM     28  C   UNL A   1      39.901  32.353  30.304  1.00  0.00     0.074 A 
ATOM     29  C   UNL A   1      46.193  31.935  29.583  1.00  0.00     0.029 A 
ATOM     30  N   UNL A   1      44.014  31.509  29.661  1.00  0.00    -0.354 N 
ATOM     31  N   UNL A   1      41.190  32.172  30.129  1.00  0.00    -0.248 NA
ATOM     32  C   UNL A   1      39.548  33.646  30.902  1.00  0.00     0.031 C 
ATOM     33  C   UNL A   1      45.549  33.030  30.169  1.00  0.00     0.029 A 
ATOM     34  C   UNL A   1      44.186  32.784  30.182  1.00  0.00     0.049 A 
ATOM     35  H   UNL A   1      43.147  31.055  29.555  1.00  0.00     0.167 HD
ATOM     36  C   UNL A   1      41.800  33.340  30.579  1.00  0.00     0.074 A 
ATOM     37  C   UNL A   1      40.737  34.224  31.010  1.00  0.00     0.031 C 
ATOM     38  C   UNL A   1      43.120  33.652  30.627  1.00  0.00     0.034 A 
BRANCH  25  39
ATOM     39  C   UNL A   1      46.861  29.156  28.556  1.00  0.00     0.023 A 
ATOM     40  C   UNL A   1      47.384  28.958  27.266  1.00  0.00     0.031 A 
ATOM     41  C   UNL A   1      47.704  28.893  29.652  1.00  0.00     0.131 A 
ATOM     42  C   UNL A   1      48.684  28.453  27.106  1.00  0.00     0.055 A 
ATOM     43  C   UNL A   1      49.021  28.464  29.485  1.00  0.00     0.041 A 
ATOM     44  F   UNL A   1      47.256  29.044  30.909  1.00  0.00    -0.206 F 
ATOM     45  C   UNL A   1      49.515  28.228  28.206  1.00  0.00     0.022 A 
BRANCH  42  46
ATOM     46  S   UNL A   1      49.229  27.969  25.444  1.00  0.00     0.124 S 
ATOM     47  O   UNL A   1      50.389  28.837  25.247  1.00  0.00    -0.237 OA
ATOM     48  O   UNL A   1      49.515  26.549  25.605  1.00  0.00    -0.237 OA
ATOM     49  O   UNL A   1      48.077  28.283  24.600  1.00  0.00    -0.744 OA
ENDBRANCH  42  46
ENDBRANCH  25  39
BRANCH  26  50
ATOM     50  C   UNL A   1      37.354  31.797  30.288  1.00  0.00     0.023 A 
ATOM     51  C   UNL A   1      36.478  32.257  29.293  1.00  0.00     0.031 A 
ATOM     52  C   UNL A   1      36.870  31.720  31.607  1.00  0.00     0.131 A 
ATOM     53  C   UNL A   1      35.178  32.659  29.638  1.00  0.00     0.055 A 
ATOM     54  C   UNL A   1      35.560  32.065  31.935  1.00  0.00     0.041 A 
ATOM     55  F   UNL A   1      37.667  31.285  32.597  1.00  0.00    -0.206 F 
ATOM     56  C   UNL A   1      34.709  32.550  30.948  1.00  0.00     0.022 A 
BRANCH  53  57
ATOM     57  S   UNL A   1      34.133  33.406  28.358  1.00  0.00     0.124 S 
ATOM     58  O   UNL A   1      33.234  34.234  29.155  1.00  0.00    -0.237 OA
ATOM     59  O   UNL A   1      35.112  34.118  27.546  1.00  0.00    -0.237 OA
ATOM     60  O   UNL A   1      33.510  32.252  27.712  1.00  0.00    -0.744 OA
ENDBRANCH  53  57
ENDBRANCH  26  50
BRANCH  38  61
ATOM     61  C   UNL A   1      43.478  35.031  31.130  1.00  0.00     0.023 A 
ATOM     62  C   UNL A   1      43.558  36.138  30.266  1.00  0.00     0.031 A 
ATOM     63  C   UNL A   1      43.766  35.233  32.492  1.00  0.00     0.131 A 
ATOM     64  C   UNL A   1      43.978  37.382  30.761  1.00  0.00     0.055 A 
ATOM     65  C   UNL A   1      44.118  36.488  32.990  1.00  0.00     0.041 A 
ATOM     66  F   UNL A   1      43.709  34.212  33.361  1.00  0.00    -0.206 F 
ATOM     67  C   UNL A   1      44.241  37.568  32.121  1.00  0.00     0.022 A 
BRANCH  64  68
ATOM     68  S   UNL A   1      44.275  38.732  29.587  1.00  0.00     0.124 S 
ATOM     69  O   UNL A   1      45.588  39.215  30.005  1.00  0.00    -0.237 OA
ATOM     70  O   UNL A   1      44.228  38.044  28.301  1.00  0.00    -0.237 OA
ATOM     71  O   UNL A   1      43.168  39.654  29.836  1.00  0.00    -0.744 OA
ENDBRANCH  64  68
ENDBRANCH  38  61
ENDBRANCH  12  13
ENDBRANCH   5   7
ENDBRANCH   2   3
ENDBRANCH   1   2
BRANCH   1  72
ATOM     72  C   UNL A   1      34.814  23.878  25.905  1.00  0.00     0.023 C 
BRANCH  72  73
ATOM     73  C   UNL A   1      34.210  25.230  25.529  1.00  0.00     0.116 C 
BRANCH  73  74
ATOM     74  N   UNL A   1      33.120  25.615  26.403  1.00  0.00    -0.352 N 
ATOM     75  C   UNL A   1      32.166  26.578  26.218  1.00  0.00     0.252 C 
ATOM     76  H   UNL A   1      33.056  25.113  27.247  1.00  0.00     0.163 HD
ATOM     77  O   UNL A   1      31.431  26.904  27.150  1.00  0.00    -0.269 OA
BRANCH  75  78
ATOM     78  C   UNL A   1      32.074  27.351  24.966  1.00  0.00     0.052 A 
ATOM     79  C   UNL A   1      33.129  28.287  24.842  1.00  0.00     0.014 A 
ATOM     80  C   UNL A   1      31.114  27.242  23.948  1.00  0.00     0.052 A 
ATOM     81  C   UNL A   1      33.298  29.046  23.688  1.00  0.00     0.001 A 
ATOM     82  C   UNL A   1      31.329  28.008  22.776  1.00  0.00     0.014 A 
ATOM     83  C   UNL A   1      32.409  28.887  22.640  1.00  0.00     0.001 A 
BRANCH  80  84
ATOM     84  C   UNL A   1      29.938  26.325  23.850  1.00  0.00     0.256 C 
ATOM     85  O   UNL A   1      28.827  26.858  23.730  1.00  0.00    -0.269 OA
ATOM     86  N   UNL A   1      29.956  24.953  23.788  1.00  0.00    -0.322 N 
ATOM     87  H   UNL A   1      29.075  24.552  23.611  1.00  0.00     0.170 HD
BRANCH  86  88
ATOM     88  C   UNL A   1      30.983  24.022  23.925  1.00  0.00     0.041 A 
ATOM     89  C   UNL A   1      30.935  23.215  25.065  1.00  0.00     0.028 A 
ATOM     90  C   UNL A   1      31.969  23.820  22.968  1.00  0.00     0.028 A 
ATOM     91  C   UNL A   1      31.672  22.036  25.106  1.00  0.00     0.029 A 
ATOM     92  C   UNL A   1      32.808  22.708  23.079  1.00  0.00     0.029 A 
ATOM     93  C   UNL A   1      32.580  21.757  24.086  1.00  0.00     0.052 A 
BRANCH  93  94
ATOM     94  N   UNL A   1      33.119  20.465  23.956  1.00  0.00    -0.250 N 
ATOM     95  C   UNL A   1      32.559  19.464  23.156  1.00  0.00     0.237 C 
ATOM     96  C   UNL A   1      34.086  19.958  24.852  1.00  0.00     0.237 C 
ATOM     97  O   UNL A   1      31.783  19.541  22.222  1.00  0.00    -0.274 OA
ATOM     98  C   UNL A   1      32.962  18.218  23.865  1.00  0.00     0.095 C 
ATOM     99  C   UNL A   1      34.365  18.594  24.308  1.00  0.00     0.095 C 
ATOM    100  O   UNL A   1      34.631  20.486  25.808  1.00  0.00    -0.274 OA
ATOM    101  C   UNL A   1      33.119  16.749  23.476  1.00  0.00     0.002 C 
ATOM    102  C   UNL A   1      34.853  17.253  24.846  1.00  0.00     0.002 C 
ATOM    103  C   UNL A   1      32.750  15.986  24.767  1.00  0.00     0.005 C 
ATOM    104  C   UNL A   1      34.642  16.480  23.518  1.00  0.00     0.009 C 
ATOM    105  C   UNL A   1      33.840  16.498  25.755  1.00  0.00     0.005 C 
ENDBRANCH  93  94
ENDBRANCH  86  88
ENDBRANCH  80  84
ENDBRANCH  75  78
ENDBRANCH  73  74
ENDBRANCH  72  73
ENDBRANCH   1  72
TORSDOF 17
ENDMDL
