MODEL 1
REMARK VINA RESULT:     -12.1      0.000      0.000
REMARK SMILES Cc1ccc2oc(CCCC(=O)NCCCCNC(=O)c3ccc(-c4c5nc(c(-c6cc(S(=O)(=O)[O-])ccc6F)c6ccc([nH]6)c(-c6cc(S(=O)(=O)[O-])ccc6F)c6nc(c(-c7cc(S(=O)(=O)[O-])ccc7F)c7ccc4[nH]7)C=C6)C=C5)cc3)cc(=O)c2c1
REMARK SMILES IDX 15 1 14 2 13 3 11 4 12 5 10 7 9 8 8 9 7 10 1 11 2 12 3 13
REMARK SMILES IDX 88 14 4 15 87 16 5 17 85 18 6 19 84 20 86 21 16 22 17 23
REMARK SMILES IDX 18 24 19 25 20 27 21 28 22 29 83 30 23 31 82 32 24 33 25 34
REMARK SMILES IDX 26 35 76 36 27 37 81 38 75 39 77 40 28 41 80 42 74 43 73 44
REMARK SMILES IDX 29 46 61 47 41 48 60 49 42 50 45 51 59 52 78 53 43 54 44 55
REMARK SMILES IDX 58 57 79 58 46 59 30 60 31 61 39 62 32 63 38 64 40 65 37 66
REMARK SMILES IDX 33 67 34 68 35 69 36 70 62 71 63 72 71 73 64 74 70 75 72 76
REMARK SMILES IDX 69 77 65 78 66 79 67 80 68 81 47 82 48 83 56 84 49 85 55 86
REMARK SMILES IDX 57 87 54 88 50 89 51 90 52 91 53 92
REMARK H PARENT 13 6 18 26 77 45 45 56
REMARK Flexibility Score: inf
ROOT
ATOM      1  C   UNL A   1      31.926  27.464  26.915  1.00  0.00     0.023 C 
ENDROOT
BRANCH   1   2
ATOM      2  C   UNL A   1      32.181  26.074  26.332  1.00  0.00     0.116 C 
BRANCH   2   3
ATOM      3  N   UNL A   1      31.358  25.088  27.003  1.00  0.00    -0.356 N 
ATOM      4  C   UNL A   1      31.375  23.731  26.898  1.00  0.00     0.220 C 
ATOM      5  O   UNL A   1      30.481  23.083  27.445  1.00  0.00    -0.275 OA
ATOM      6  H   UNL A   1      30.690  25.453  27.628  1.00  0.00     0.163 HD
BRANCH   4   7
ATOM      7  C   UNL A   1      32.500  23.031  26.163  1.00  0.00     0.100 C 
BRANCH   7   8
ATOM      8  C   UNL A   1      32.068  21.947  25.170  1.00  0.00     0.018 C 
BRANCH   8   9
ATOM      9  C   UNL A   1      31.828  22.335  23.699  1.00  0.00     0.076 C 
BRANCH   9  10
ATOM     10  C   UNL A   1      31.817  23.801  23.323  1.00  0.00     0.108 A 
ATOM     11  C   UNL A   1      29.773  29.851  22.141  1.00  0.00     0.044 C 
ATOM     12  C   UNL A   1      30.028  28.429  22.547  1.00  0.00    -0.050 A 
ATOM     13  C   UNL A   1      29.096  27.731  23.326  1.00  0.00     0.007 A 
ATOM     14  C   UNL A   1      31.218  27.791  22.163  1.00  0.00     0.019 A 
ATOM     15  C   UNL A   1      29.353  26.421  23.732  1.00  0.00     0.048 A 
ATOM     16  C   UNL A   1      31.466  26.475  22.568  1.00  0.00     0.065 A 
ATOM     17  C   UNL A   1      30.541  25.800  23.356  1.00  0.00     0.138 A 
ATOM     18  C   UNL A   1      32.691  25.765  22.171  1.00  0.00     0.192 A 
ATOM     19  O   UNL A   1      30.742  24.524  23.806  1.00  0.00    -0.461 OA
ATOM     20  C   UNL A   1      32.778  24.341  22.557  1.00  0.00     0.095 A 
ATOM     21  O   UNL A   1      33.591  26.304  21.541  1.00  0.00    -0.289 OA
ENDBRANCH   9  10
ENDBRANCH   8   9
ENDBRANCH   7   8
ENDBRANCH   4   7
ENDBRANCH   2   3
ENDBRANCH   1   2
BRANCH   1  22
ATOM     22  C   UNL A   1      31.795  28.566  25.869  1.00  0.00     0.023 C 
BRANCH  22  23
ATOM     23  C   UNL A   1      32.916  29.595  25.898  1.00  0.00     0.116 C 
BRANCH  23  24
ATOM     24  N   UNL A   1      32.492  30.901  26.389  1.00  0.00    -0.352 N 
ATOM     25  C   UNL A   1      33.168  31.745  27.242  1.00  0.00     0.251 C 
ATOM     26  H   UNL A   1      31.616  31.216  26.073  1.00  0.00     0.163 HD
ATOM     27  O   UNL A   1      32.641  32.776  27.645  1.00  0.00    -0.269 OA
BRANCH  25  28
ATOM     28  C   UNL A   1      34.517  31.353  27.697  1.00  0.00     0.039 A 
ATOM     29  C   UNL A   1      35.501  32.335  27.821  1.00  0.00     0.014 A 
ATOM     30  C   UNL A   1      34.764  30.039  28.103  1.00  0.00     0.014 A 
ATOM     31  C   UNL A   1      36.709  32.019  28.445  1.00  0.00     0.010 A 
ATOM     32  C   UNL A   1      35.934  29.748  28.793  1.00  0.00     0.010 A 
ATOM     33  C   UNL A   1      36.912  30.738  28.984  1.00  0.00    -0.014 A 
BRANCH  33  34
ATOM     34  C   UNL A   1      38.131  30.403  29.763  1.00  0.00     0.031 A 
ATOM     35  C   UNL A   1      39.118  29.415  29.210  1.00  0.00     0.074 A 
ATOM     36  C   UNL A   1      38.293  30.906  31.003  1.00  0.00     0.049 A 
ATOM     37  N   UNL A   1      40.159  28.871  29.784  1.00  0.00    -0.248 NA
ATOM     38  C   UNL A   1      38.875  28.946  27.836  1.00  0.00     0.031 C 
ATOM     39  C   UNL A   1      37.377  31.838  31.667  1.00  0.00     0.029 A 
ATOM     40  N   UNL A   1      39.275  30.689  31.937  1.00  0.00    -0.354 N 
ATOM     41  C   UNL A   1      40.682  27.980  28.854  1.00  0.00     0.074 A 
ATOM     42  C   UNL A   1      39.805  28.014  27.702  1.00  0.00     0.031 C 
ATOM     43  C   UNL A   1      37.851  32.124  32.891  1.00  0.00     0.029 A 
ATOM     44  C   UNL A   1      39.073  31.362  33.121  1.00  0.00     0.049 A 
ATOM     45  H   UNL A   1      40.052  30.107  31.775  1.00  0.00     0.167 HD
ATOM     46  C   UNL A   1      41.801  27.219  28.944  1.00  0.00     0.034 A 
ATOM     47  C   UNL A   1      39.781  31.347  34.267  1.00  0.00     0.034 A 
ATOM     48  C   UNL A   1      42.675  27.219  30.089  1.00  0.00     0.049 A 
ATOM     49  C   UNL A   1      41.012  30.482  34.351  1.00  0.00     0.074 A 
ATOM     50  C   UNL A   1      43.875  26.549  30.258  1.00  0.00     0.029 A 
ATOM     51  N   UNL A   1      42.443  27.919  31.266  1.00  0.00    -0.354 N 
ATOM     52  N   UNL A   1      41.521  29.681  33.444  1.00  0.00    -0.248 NA
ATOM     53  C   UNL A   1      41.765  30.521  35.612  1.00  0.00     0.031 C 
ATOM     54  C   UNL A   1      44.337  26.797  31.557  1.00  0.00     0.029 A 
ATOM     55  C   UNL A   1      43.460  27.673  32.176  1.00  0.00     0.049 A 
ATOM     56  H   UNL A   1      41.670  28.506  31.430  1.00  0.00     0.167 HD
ATOM     57  C   UNL A   1      42.664  29.136  34.019  1.00  0.00     0.074 A 
ATOM     58  C   UNL A   1      42.779  29.712  35.343  1.00  0.00     0.031 C 
ATOM     59  C   UNL A   1      43.545  28.242  33.500  1.00  0.00     0.034 A 
BRANCH  46  60
ATOM     60  C   UNL A   1      42.117  26.315  27.778  1.00  0.00     0.023 A 
ATOM     61  C   UNL A   1      41.654  24.989  27.726  1.00  0.00     0.031 A 
ATOM     62  C   UNL A   1      42.927  26.770  26.723  1.00  0.00     0.131 A 
ATOM     63  C   UNL A   1      42.072  24.140  26.692  1.00  0.00     0.055 A 
ATOM     64  C   UNL A   1      43.272  25.943  25.651  1.00  0.00     0.041 A 
ATOM     65  F   UNL A   1      43.416  28.020  26.727  1.00  0.00    -0.206 F 
ATOM     66  C   UNL A   1      42.859  24.615  25.641  1.00  0.00     0.022 A 
BRANCH  63  67
ATOM     67  S   UNL A   1      41.698  22.370  26.822  1.00  0.00     0.124 S 
ATOM     68  O   UNL A   1      42.513  21.982  27.973  1.00  0.00    -0.237 OA
ATOM     69  O   UNL A   1      40.256  22.367  27.030  1.00  0.00    -0.237 OA
ATOM     70  O   UNL A   1      42.146  21.830  25.541  1.00  0.00    -0.744 OA
ENDBRANCH  63  67
ENDBRANCH  46  60
BRANCH  47  71
ATOM     71  C   UNL A   1      39.339  32.155  35.440  1.00  0.00     0.023 A 
ATOM     72  C   UNL A   1      38.634  31.561  36.499  1.00  0.00     0.031 A 
ATOM     73  C   UNL A   1      39.579  33.539  35.500  1.00  0.00     0.131 A 
ATOM     74  C   UNL A   1      38.156  32.356  37.553  1.00  0.00     0.055 A 
ATOM     75  C   UNL A   1      39.142  34.317  36.573  1.00  0.00     0.041 A 
ATOM     76  F   UNL A   1      40.255  34.154  34.516  1.00  0.00    -0.206 F 
ATOM     77  C   UNL A   1      38.414  33.727  37.602  1.00  0.00     0.022 A 
BRANCH  74  78
ATOM     78  S   UNL A   1      37.123  31.579  38.826  1.00  0.00     0.124 S 
ATOM     79  O   UNL A   1      35.938  32.429  38.806  1.00  0.00    -0.237 OA
ATOM     80  O   UNL A   1      36.954  30.230  38.295  1.00  0.00    -0.237 OA
ATOM     81  O   UNL A   1      37.941  31.674  40.032  1.00  0.00    -0.744 OA
ENDBRANCH  74  78
ENDBRANCH  47  71
BRANCH  59  82
ATOM     82  C   UNL A   1      44.719  27.863  34.364  1.00  0.00     0.023 A 
ATOM     83  C   UNL A   1      44.664  26.762  35.236  1.00  0.00     0.031 A 
ATOM     84  C   UNL A   1      45.905  28.617  34.317  1.00  0.00     0.131 A 
ATOM     85  C   UNL A   1      45.762  26.473  36.061  1.00  0.00     0.055 A 
ATOM     86  C   UNL A   1      47.011  28.293  35.103  1.00  0.00     0.041 A 
ATOM     87  F   UNL A   1      46.006  29.679  33.502  1.00  0.00    -0.206 F 
ATOM     88  C   UNL A   1      46.939  27.222  35.989  1.00  0.00     0.022 A 
BRANCH  85  89
ATOM     89  S   UNL A   1      45.605  25.143  37.284  1.00  0.00     0.124 S 
ATOM     90  O   UNL A   1      44.156  24.983  37.373  1.00  0.00    -0.237 OA
ATOM     91  O   UNL A   1      46.329  24.046  36.649  1.00  0.00    -0.237 OA
ATOM     92  O   UNL A   1      46.242  25.696  38.477  1.00  0.00    -0.744 OA
ENDBRANCH  85  89
ENDBRANCH  59  82
ENDBRANCH  33  34
ENDBRANCH  25  28
ENDBRANCH  23  24
ENDBRANCH  22  23
ENDBRANCH   1  22
TORSDOF 17
ENDMDL
MODEL 2
REMARK VINA RESULT:     -11.5      1.559      7.722
REMARK SMILES Cc1ccc2oc(CCCC(=O)NCCCCNC(=O)c3ccc(-c4c5nc(c(-c6cc(S(=O)(=O)[O-])ccc6F)c6ccc([nH]6)c(-c6cc(S(=O)(=O)[O-])ccc6F)c6nc(c(-c7cc(S(=O)(=O)[O-])ccc7F)c7ccc4[nH]7)C=C6)C=C5)cc3)cc(=O)c2c1
REMARK SMILES IDX 15 1 14 2 13 3 11 4 12 5 10 7 9 8 8 9 7 10 1 11 2 12 3 13
REMARK SMILES IDX 88 14 4 15 87 16 5 17 85 18 6 19 84 20 86 21 16 22 17 23
REMARK SMILES IDX 18 24 19 25 20 27 21 28 22 29 83 30 23 31 82 32 24 33 25 34
REMARK SMILES IDX 26 35 76 36 27 37 81 38 75 39 77 40 28 41 80 42 74 43 73 44
REMARK SMILES IDX 29 46 61 47 41 48 60 49 42 50 45 51 59 52 78 53 43 54 44 55
REMARK SMILES IDX 58 57 79 58 46 59 30 60 31 61 39 62 32 63 38 64 40 65 37 66
REMARK SMILES IDX 33 67 34 68 35 69 36 70 62 71 63 72 71 73 64 74 70 75 72 76
REMARK SMILES IDX 69 77 65 78 66 79 67 80 68 81 47 82 48 83 56 84 49 85 55 86
REMARK SMILES IDX 57 87 54 88 50 89 51 90 52 91 53 92
REMARK H PARENT 13 6 18 26 77 45 45 56
REMARK Flexibility Score: inf
ROOT
ATOM      1  C   UNL A   1      31.635  28.146  27.189  1.00  0.00     0.023 C 
ENDROOT
BRANCH   1   2
ATOM      2  C   UNL A   1      32.040  26.893  26.412  1.00  0.00     0.116 C 
BRANCH   2   3
ATOM      3  N   UNL A   1      31.776  25.705  27.200  1.00  0.00    -0.356 N 
ATOM      4  C   UNL A   1      31.732  24.402  26.812  1.00  0.00     0.220 C 
ATOM      5  O   UNL A   1      31.337  23.557  27.617  1.00  0.00    -0.275 OA
ATOM      6  H   UNL A   1      31.605  25.865  28.157  1.00  0.00     0.163 HD
BRANCH   4   7
ATOM      7  C   UNL A   1      32.209  23.994  25.433  1.00  0.00     0.100 C 
BRANCH   7   8
ATOM      8  C   UNL A   1      31.112  23.552  24.458  1.00  0.00     0.018 C 
BRANCH   8   9
ATOM      9  C   UNL A   1      30.948  24.306  23.126  1.00  0.00     0.076 C 
BRANCH   9  10
ATOM     10  C   UNL A   1      30.708  25.801  23.159  1.00  0.00     0.108 A 
ATOM     11  C   UNL A   1      27.741  31.577  23.052  1.00  0.00     0.044 C 
ATOM     12  C   UNL A   1      28.194  30.148  23.129  1.00  0.00    -0.050 A 
ATOM     13  C   UNL A   1      27.278  29.121  23.394  1.00  0.00     0.007 A 
ATOM     14  C   UNL A   1      29.551  29.831  22.955  1.00  0.00     0.019 A 
ATOM     15  C   UNL A   1      27.710  27.799  23.501  1.00  0.00     0.048 A 
ATOM     16  C   UNL A   1      29.975  28.502  23.057  1.00  0.00     0.065 A 
ATOM     17  C   UNL A   1      29.059  27.496  23.339  1.00  0.00     0.138 A 
ATOM     18  C   UNL A   1      31.384  28.126  22.863  1.00  0.00     0.192 A 
ATOM     19  O   UNL A   1      29.419  26.183  23.479  1.00  0.00    -0.461 OA
ATOM     20  C   UNL A   1      31.683  26.679  22.873  1.00  0.00     0.095 A 
ATOM     21  O   UNL A   1      32.268  28.952  22.685  1.00  0.00    -0.289 OA
ENDBRANCH   9  10
ENDBRANCH   8   9
ENDBRANCH   7   8
ENDBRANCH   4   7
ENDBRANCH   2   3
ENDBRANCH   1   2
BRANCH   1  22
ATOM     22  C   UNL A   1      31.438  29.383  26.320  1.00  0.00     0.023 C 
BRANCH  22  23
ATOM     23  C   UNL A   1      32.685  30.240  26.153  1.00  0.00     0.116 C 
BRANCH  23  24
ATOM     24  N   UNL A   1      32.514  31.610  26.620  1.00  0.00    -0.352 N 
ATOM     25  C   UNL A   1      33.342  32.331  27.452  1.00  0.00     0.251 C 
ATOM     26  H   UNL A   1      31.708  32.076  26.303  1.00  0.00     0.163 HD
ATOM     27  O   UNL A   1      33.018  33.449  27.837  1.00  0.00    -0.269 OA
BRANCH  25  28
ATOM     28  C   UNL A   1      34.600  31.705  27.907  1.00  0.00     0.039 A 
ATOM     29  C   UNL A   1      35.736  32.502  28.059  1.00  0.00     0.014 A 
ATOM     30  C   UNL A   1      34.616  30.360  28.284  1.00  0.00     0.014 A 
ATOM     31  C   UNL A   1      36.865  31.972  28.684  1.00  0.00     0.010 A 
ATOM     32  C   UNL A   1      35.712  29.859  28.975  1.00  0.00     0.010 A 
ATOM     33  C   UNL A   1      36.842  30.663  29.195  1.00  0.00    -0.014 A 
BRANCH  33  34
ATOM     34  C   UNL A   1      37.978  30.109  29.974  1.00  0.00     0.031 A 
ATOM     35  C   UNL A   1      38.208  30.571  31.385  1.00  0.00     0.074 A 
ATOM     36  C   UNL A   1      38.855  29.275  29.379  1.00  0.00     0.049 A 
ATOM     37  N   UNL A   1      39.216  30.333  32.182  1.00  0.00    -0.248 NA
ATOM     38  C   UNL A   1      37.180  31.454  31.958  1.00  0.00     0.031 C 
ATOM     39  C   UNL A   1      38.764  28.792  27.999  1.00  0.00     0.029 A 
ATOM     40  N   UNL A   1      40.008  28.700  29.853  1.00  0.00    -0.354 N 
ATOM     41  C   UNL A   1      38.957  31.054  33.343  1.00  0.00     0.074 A 
ATOM     42  C   UNL A   1      37.727  31.785  33.118  1.00  0.00     0.031 C 
ATOM     43  C   UNL A   1      39.805  27.983  27.746  1.00  0.00     0.029 A 
ATOM     44  C   UNL A   1      40.665  27.927  28.923  1.00  0.00     0.049 A 
ATOM     45  H   UNL A   1      40.335  28.829  30.773  1.00  0.00     0.167 HD
ATOM     46  C   UNL A   1      39.669  31.088  34.497  1.00  0.00     0.034 A 
ATOM     47  C   UNL A   1      41.837  27.267  29.005  1.00  0.00     0.034 A 
ATOM     48  C   UNL A   1      40.877  30.332  34.711  1.00  0.00     0.049 A 
ATOM     49  C   UNL A   1      42.619  27.331  30.291  1.00  0.00     0.074 A 
ATOM     50  C   UNL A   1      41.637  30.229  35.864  1.00  0.00     0.029 A 
ATOM     51  N   UNL A   1      41.508  29.553  33.749  1.00  0.00    -0.354 N 
ATOM     52  N   UNL A   1      42.337  27.979  31.397  1.00  0.00    -0.248 NA
ATOM     53  C   UNL A   1      43.877  26.573  30.340  1.00  0.00     0.031 C 
ATOM     54  C   UNL A   1      42.757  29.437  35.582  1.00  0.00     0.029 A 
ATOM     55  C   UNL A   1      42.663  28.992  34.272  1.00  0.00     0.049 A 
ATOM     56  H   UNL A   1      41.182  29.418  32.830  1.00  0.00     0.167 HD
ATOM     57  C   UNL A   1      43.373  27.690  32.280  1.00  0.00     0.074 A 
ATOM     58  C   UNL A   1      44.276  26.797  31.583  1.00  0.00     0.031 C 
ATOM     59  C   UNL A   1      43.561  28.120  33.553  1.00  0.00     0.034 A 
BRANCH  46  60
ATOM     60  C   UNL A   1      39.161  31.988  35.596  1.00  0.00     0.023 A 
ATOM     61  C   UNL A   1      39.585  33.324  35.710  1.00  0.00     0.031 A 
ATOM     62  C   UNL A   1      38.274  31.494  36.568  1.00  0.00     0.131 A 
ATOM     63  C   UNL A   1      39.192  34.091  36.815  1.00  0.00     0.055 A 
ATOM     64  C   UNL A   1      37.819  32.291  37.621  1.00  0.00     0.041 A 
ATOM     65  F   UNL A   1      37.850  30.221  36.523  1.00  0.00    -0.206 F 
ATOM     66  C   UNL A   1      38.292  33.592  37.759  1.00  0.00     0.022 A 
BRANCH  63  67
ATOM     67  S   UNL A   1      39.993  35.697  37.080  1.00  0.00     0.124 S 
ATOM     68  O   UNL A   1      39.335  36.156  38.302  1.00  0.00    -0.237 OA
ATOM     69  O   UNL A   1      41.398  35.330  37.210  1.00  0.00    -0.237 OA
ATOM     70  O   UNL A   1      39.653  36.453  35.877  1.00  0.00    -0.744 OA
ENDBRANCH  63  67
ENDBRANCH  46  60
BRANCH  47  71
ATOM     71  C   UNL A   1      42.360  26.507  27.834  1.00  0.00     0.023 A 
ATOM     72  C   UNL A   1      42.227  25.111  27.763  1.00  0.00     0.031 A 
ATOM     73  C   UNL A   1      43.037  27.160  26.789  1.00  0.00     0.131 A 
ATOM     74  C   UNL A   1      42.800  24.407  26.692  1.00  0.00     0.055 A 
ATOM     75  C   UNL A   1      43.565  26.460  25.703  1.00  0.00     0.041 A 
ATOM     76  F   UNL A   1      43.186  28.494  26.806  1.00  0.00    -0.206 F 
ATOM     77  C   UNL A   1      43.459  25.073  25.656  1.00  0.00     0.022 A 
BRANCH  74  78
ATOM     78  S   UNL A   1      42.737  22.595  26.711  1.00  0.00     0.124 S 
ATOM     79  O   UNL A   1      42.142  22.331  28.016  1.00  0.00    -0.237 OA
ATOM     80  O   UNL A   1      41.894  22.311  25.553  1.00  0.00    -0.237 OA
ATOM     81  O   UNL A   1      44.137  22.203  26.571  1.00  0.00    -0.744 OA
ENDBRANCH  74  78
ENDBRANCH  47  71
BRANCH  59  82
ATOM     82  C   UNL A   1      44.778  27.601  34.275  1.00  0.00     0.023 A 
ATOM     83  C   UNL A   1      44.731  26.421  35.037  1.00  0.00     0.031 A 
ATOM     84  C   UNL A   1      45.996  28.299  34.202  1.00  0.00     0.131 A 
ATOM     85  C   UNL A   1      45.873  25.999  35.736  1.00  0.00     0.055 A 
ATOM     86  C   UNL A   1      47.141  27.846  34.857  1.00  0.00     0.041 A 
ATOM     87  F   UNL A   1      46.091  29.433  33.489  1.00  0.00    -0.206 F 
ATOM     88  C   UNL A   1      47.080  26.695  35.638  1.00  0.00     0.022 A 
BRANCH  85  89
ATOM     89  S   UNL A   1      45.740  24.560  36.833  1.00  0.00     0.124 S 
ATOM     90  O   UNL A   1      44.376  24.690  37.338  1.00  0.00    -0.237 OA
ATOM     91  O   UNL A   1      45.978  23.447  35.920  1.00  0.00    -0.237 OA
ATOM     92  O   UNL A   1      46.792  24.785  37.822  1.00  0.00    -0.744 OA
ENDBRANCH  85  89
ENDBRANCH  59  82
ENDBRANCH  33  34
ENDBRANCH  25  28
ENDBRANCH  23  24
ENDBRANCH  22  23
ENDBRANCH   1  22
TORSDOF 17
ENDMDL
MODEL 3
REMARK VINA RESULT:     -11.4      2.301      3.649
REMARK SMILES Cc1ccc2oc(CCCC(=O)NCCCCNC(=O)c3ccc(-c4c5nc(c(-c6cc(S(=O)(=O)[O-])ccc6F)c6ccc([nH]6)c(-c6cc(S(=O)(=O)[O-])ccc6F)c6nc(c(-c7cc(S(=O)(=O)[O-])ccc7F)c7ccc4[nH]7)C=C6)C=C5)cc3)cc(=O)c2c1
REMARK SMILES IDX 15 1 14 2 13 3 11 4 12 5 10 7 9 8 8 9 7 10 1 11 2 12 3 13
REMARK SMILES IDX 88 14 4 15 87 16 5 17 85 18 6 19 84 20 86 21 16 22 17 23
REMARK SMILES IDX 18 24 19 25 20 27 21 28 22 29 83 30 23 31 82 32 24 33 25 34
REMARK SMILES IDX 26 35 76 36 27 37 81 38 75 39 77 40 28 41 80 42 74 43 73 44
REMARK SMILES IDX 29 46 61 47 41 48 60 49 42 50 45 51 59 52 78 53 43 54 44 55
REMARK SMILES IDX 58 57 79 58 46 59 30 60 31 61 39 62 32 63 38 64 40 65 37 66
REMARK SMILES IDX 33 67 34 68 35 69 36 70 62 71 63 72 71 73 64 74 70 75 72 76
REMARK SMILES IDX 69 77 65 78 66 79 67 80 68 81 47 82 48 83 56 84 49 85 55 86
REMARK SMILES IDX 57 87 54 88 50 89 51 90 52 91 53 92
REMARK H PARENT 13 6 18 26 77 45 45 56
REMARK Flexibility Score: inf
ROOT
ATOM      1  C   UNL A   1      32.114  29.497  27.286  1.00  0.00     0.023 C 
ENDROOT
BRANCH   1   2
ATOM      2  C   UNL A   1      32.206  28.266  26.383  1.00  0.00     0.116 C 
BRANCH   2   3
ATOM      3  N   UNL A   1      32.722  28.636  25.080  1.00  0.00    -0.356 N 
ATOM      4  C   UNL A   1      32.068  28.753  23.892  1.00  0.00     0.220 C 
ATOM      5  O   UNL A   1      32.727  28.931  22.867  1.00  0.00    -0.275 OA
ATOM      6  H   UNL A   1      33.687  28.832  25.050  1.00  0.00     0.163 HD
BRANCH   4   7
ATOM      7  C   UNL A   1      30.554  28.714  23.842  1.00  0.00     0.100 C 
BRANCH   7   8
ATOM      8  C   UNL A   1      29.945  27.471  23.183  1.00  0.00     0.018 C 
BRANCH   8   9
ATOM      9  C   UNL A   1      29.772  26.191  24.021  1.00  0.00     0.076 C 
BRANCH   9  10
ATOM     10  C   UNL A   1      30.855  25.135  23.974  1.00  0.00     0.108 A 
ATOM     11  C   UNL A   1      36.663  22.239  24.230  1.00  0.00     0.044 C 
ATOM     12  C   UNL A   1      35.433  23.095  24.304  1.00  0.00    -0.050 A 
ATOM     13  C   UNL A   1      35.465  24.337  24.954  1.00  0.00     0.007 A 
ATOM     14  C   UNL A   1      34.229  22.647  23.738  1.00  0.00     0.019 A 
ATOM     15  C   UNL A   1      34.310  25.114  25.052  1.00  0.00     0.048 A 
ATOM     16  C   UNL A   1      33.077  23.435  23.835  1.00  0.00     0.065 A 
ATOM     17  C   UNL A   1      33.118  24.655  24.498  1.00  0.00     0.138 A 
ATOM     18  C   UNL A   1      31.801  23.010  23.239  1.00  0.00     0.192 A 
ATOM     19  O   UNL A   1      32.018  25.455  24.650  1.00  0.00    -0.461 OA
ATOM     20  C   UNL A   1      30.692  23.984  23.302  1.00  0.00     0.095 A 
ATOM     21  O   UNL A   1      31.654  21.921  22.703  1.00  0.00    -0.289 OA
ENDBRANCH   9  10
ENDBRANCH   8   9
ENDBRANCH   7   8
ENDBRANCH   4   7
ENDBRANCH   2   3
ENDBRANCH   1   2
BRANCH   1  22
ATOM     22  C   UNL A   1      32.579  30.790  26.627  1.00  0.00     0.023 C 
BRANCH  22  23
ATOM     23  C   UNL A   1      33.396  31.699  27.534  1.00  0.00     0.116 C 
BRANCH  23  24
ATOM     24  N   UNL A   1      32.877  33.059  27.612  1.00  0.00    -0.352 N 
ATOM     25  C   UNL A   1      33.286  34.075  28.447  1.00  0.00     0.251 C 
ATOM     26  H   UNL A   1      32.143  33.277  26.994  1.00  0.00     0.163 HD
ATOM     27  O   UNL A   1      32.688  35.145  28.466  1.00  0.00    -0.269 OA
BRANCH  25  28
ATOM     28  C   UNL A   1      34.427  33.827  29.351  1.00  0.00     0.039 A 
ATOM     29  C   UNL A   1      34.222  33.073  30.508  1.00  0.00     0.014 A 
ATOM     30  C   UNL A   1      35.710  34.247  28.990  1.00  0.00     0.014 A 
ATOM     31  C   UNL A   1      35.323  32.655  31.257  1.00  0.00     0.010 A 
ATOM     32  C   UNL A   1      36.807  33.764  29.693  1.00  0.00     0.010 A 
ATOM     33  C   UNL A   1      36.626  32.952  30.825  1.00  0.00    -0.014 A 
BRANCH  33  34
ATOM     34  C   UNL A   1      37.822  32.419  31.526  1.00  0.00     0.031 A 
ATOM     35  C   UNL A   1      38.623  31.316  30.895  1.00  0.00     0.074 A 
ATOM     36  C   UNL A   1      38.120  32.855  32.766  1.00  0.00     0.049 A 
ATOM     37  N   UNL A   1      39.602  30.610  31.397  1.00  0.00    -0.248 NA
ATOM     38  C   UNL A   1      38.242  30.931  29.527  1.00  0.00     0.031 C 
ATOM     39  C   UNL A   1      37.388  33.889  33.502  1.00  0.00     0.029 A 
ATOM     40  N   UNL A   1      39.108  32.469  33.638  1.00  0.00    -0.354 N 
ATOM     41  C   UNL A   1      39.939  29.682  30.418  1.00  0.00     0.074 A 
ATOM     42  C   UNL A   1      39.017  29.879  29.318  1.00  0.00     0.031 C 
ATOM     43  C   UNL A   1      37.962  34.065  34.703  1.00  0.00     0.029 A 
ATOM     44  C   UNL A   1      39.069  33.127  34.846  1.00  0.00     0.049 A 
ATOM     45  H   UNL A   1      39.782  31.785  33.419  1.00  0.00     0.167 HD
ATOM     46  C   UNL A   1      40.937  28.764  30.427  1.00  0.00     0.034 A 
ATOM     47  C   UNL A   1      39.827  32.974  35.950  1.00  0.00     0.034 A 
ATOM     48  C   UNL A   1      41.861  28.602  31.521  1.00  0.00     0.049 A 
ATOM     49  C   UNL A   1      40.920  31.938  35.945  1.00  0.00     0.074 A 
ATOM     50  C   UNL A   1      42.957  27.759  31.606  1.00  0.00     0.029 A 
ATOM     51  N   UNL A   1      41.796  29.291  32.725  1.00  0.00    -0.354 N 
ATOM     52  N   UNL A   1      41.258  31.100  34.991  1.00  0.00    -0.248 NA
ATOM     53  C   UNL A   1      41.736  31.828  37.161  1.00  0.00     0.031 C 
ATOM     54  C   UNL A   1      43.518  27.897  32.882  1.00  0.00     0.029 A 
ATOM     55  C   UNL A   1      42.812  28.872  33.571  1.00  0.00     0.049 A 
ATOM     56  H   UNL A   1      41.127  29.979  32.946  1.00  0.00     0.167 HD
ATOM     57  C   UNL A   1      42.337  30.377  35.488  1.00  0.00     0.074 A 
ATOM     58  C   UNL A   1      42.605  30.889  36.817  1.00  0.00     0.031 C 
ATOM     59  C   UNL A   1      43.049  29.381  34.900  1.00  0.00     0.034 A 
BRANCH  46  60
ATOM     60  C   UNL A   1      41.056  27.861  29.225  1.00  0.00     0.023 A 
ATOM     61  C   UNL A   1      42.064  28.044  28.262  1.00  0.00     0.031 A 
ATOM     62  C   UNL A   1      40.125  26.830  29.013  1.00  0.00     0.131 A 
ATOM     63  C   UNL A   1      42.068  27.268  27.095  1.00  0.00     0.055 A 
ATOM     64  C   UNL A   1      40.184  26.004  27.888  1.00  0.00     0.041 A 
ATOM     65  F   UNL A   1      39.128  26.619  29.887  1.00  0.00    -0.206 F 
ATOM     66  C   UNL A   1      41.149  26.233  26.912  1.00  0.00     0.022 A 
BRANCH  63  67
ATOM     67  S   UNL A   1      43.195  27.733  25.751  1.00  0.00     0.124 S 
ATOM     68  O   UNL A   1      44.141  26.619  25.764  1.00  0.00    -0.237 OA
ATOM     69  O   UNL A   1      42.303  27.801  24.601  1.00  0.00    -0.237 OA
ATOM     70  O   UNL A   1      43.745  29.012  26.193  1.00  0.00    -0.744 OA
ENDBRANCH  63  67
ENDBRANCH  46  60
BRANCH  47  71
ATOM     71  C   UNL A   1      39.570  33.801  37.164  1.00  0.00     0.023 A 
ATOM     72  C   UNL A   1      38.888  33.266  38.269  1.00  0.00     0.031 A 
ATOM     73  C   UNL A   1      39.967  35.148  37.222  1.00  0.00     0.131 A 
ATOM     74  C   UNL A   1      38.584  34.086  39.367  1.00  0.00     0.055 A 
ATOM     75  C   UNL A   1      39.703  35.947  38.336  1.00  0.00     0.041 A 
ATOM     76  F   UNL A   1      40.628  35.705  36.195  1.00  0.00    -0.206 F 
ATOM     77  C   UNL A   1      38.997  35.419  39.413  1.00  0.00     0.022 A 
BRANCH  74  78
ATOM     78  S   UNL A   1      37.573  33.401  40.708  1.00  0.00     0.124 S 
ATOM     79  O   UNL A   1      37.130  34.610  41.393  1.00  0.00    -0.237 OA
ATOM     80  O   UNL A   1      36.549  32.669  39.970  1.00  0.00    -0.237 OA
ATOM     81  O   UNL A   1      38.515  32.569  41.454  1.00  0.00    -0.744 OA
ENDBRANCH  74  78
ENDBRANCH  47  71
BRANCH  59  82
ATOM     82  C   UNL A   1      44.199  28.809  35.687  1.00  0.00     0.023 A 
ATOM     83  C   UNL A   1      44.028  27.705  36.540  1.00  0.00     0.031 A 
ATOM     84  C   UNL A   1      45.479  29.380  35.587  1.00  0.00     0.131 A 
ATOM     85  C   UNL A   1      45.113  27.234  37.295  1.00  0.00     0.055 A 
ATOM     86  C   UNL A   1      46.566  28.875  36.301  1.00  0.00     0.041 A 
ATOM     87  F   UNL A   1      45.694  30.438  34.788  1.00  0.00    -0.206 F 
ATOM     88  C   UNL A   1      46.383  27.802  37.169  1.00  0.00     0.022 A 
BRANCH  85  89
ATOM     89  S   UNL A   1      44.826  25.908  38.499  1.00  0.00     0.124 S 
ATOM     90  O   UNL A   1      44.155  26.623  39.581  1.00  0.00    -0.237 OA
ATOM     91  O   UNL A   1      43.999  24.973  37.744  1.00  0.00    -0.237 OA
ATOM     92  O   UNL A   1      46.171  25.431  38.812  1.00  0.00    -0.744 OA
ENDBRANCH  85  89
ENDBRANCH  59  82
ENDBRANCH  33  34
ENDBRANCH  25  28
ENDBRANCH  23  24
ENDBRANCH  22  23
ENDBRANCH   1  22
TORSDOF 17
ENDMDL
