MODEL 1
REMARK VINA RESULT:     -12.0      0.000      0.000
REMARK SMILES COC(=O)C[C@@H](NC(=O)c1ccccc1C(=O)NCCCCNC(=O)c1ccc(-c2c3nc(c(-c4cc(S(=O)(=O)[O-])ccc4F)c4ccc([nH]4)c(-c4cc(S(=O)(=O)[O-])ccc4F)c4nc(c(-c5cc(S(=O)(=O)[O-])ccc5F)c5ccc2[nH]5)C=C4)C=C3)cc1)c1cccc(C)c1C
REMARK SMILES IDX 19 1 18 2 16 3 17 4 15 6 10 7 11 8 12 9 14 10 13 11 8 12
REMARK SMILES IDX 7 13 9 15 6 16 5 17 3 18 4 19 2 20 1 21 89 22 90 23 95 24
REMARK SMILES IDX 91 25 93 26 96 27 92 28 94 29 20 30 21 31 22 32 23 33 24 34
REMARK SMILES IDX 25 36 26 37 27 38 88 39 28 40 87 41 29 42 30 43 31 44 81 45
REMARK SMILES IDX 32 46 86 47 80 48 82 49 33 50 85 51 79 52 78 53 34 55 66 56
REMARK SMILES IDX 46 57 65 58 47 59 50 60 64 61 83 62 48 63 49 64 63 66 84 67
REMARK SMILES IDX 51 68 35 69 36 70 44 71 37 72 43 73 45 74 42 75 38 76 39 77
REMARK SMILES IDX 40 78 41 79 67 80 68 81 76 82 69 83 75 84 77 85 74 86 70 87
REMARK SMILES IDX 71 88 72 89 73 90 52 91 53 92 61 93 54 94 60 95 62 96 59 97
REMARK SMILES IDX 55 98 56 99 57 100 58 101
REMARK H PARENT 18 5 7 14 23 35 82 54 50 65
REMARK Flexibility Score: inf
ROOT
ATOM      1  C   UNL A   1      32.786  30.126  26.587  1.00  0.00     0.116 C 
ENDROOT
BRANCH   1   2
ATOM      2  N   UNL A   1      33.490  29.737  25.389  1.00  0.00    -0.352 N 
ATOM      3  C   UNL A   1      33.141  28.852  24.405  1.00  0.00     0.252 C 
ATOM      4  O   UNL A   1      34.039  28.530  23.621  1.00  0.00    -0.269 OA
ATOM      5  H   UNL A   1      34.360  30.179  25.259  1.00  0.00     0.163 HD
BRANCH   3   6
ATOM      6  C   UNL A   1      31.799  28.211  24.251  1.00  0.00     0.052 A 
ATOM      7  C   UNL A   1      31.195  27.217  25.033  1.00  0.00     0.052 A 
ATOM      8  C   UNL A   1      29.926  26.709  24.658  1.00  0.00     0.014 A 
ATOM      9  C   UNL A   1      29.213  27.233  23.584  1.00  0.00     0.001 A 
ATOM     10  C   UNL A   1      31.038  28.743  23.178  1.00  0.00     0.014 A 
ATOM     11  C   UNL A   1      29.761  28.275  22.855  1.00  0.00     0.001 A 
BRANCH   7  12
ATOM     12  C   UNL A   1      31.717  26.546  26.236  1.00  0.00     0.252 C 
ATOM     13  N   UNL A   1      32.437  25.383  26.227  1.00  0.00    -0.345 N 
ATOM     14  H   UNL A   1      32.947  25.241  27.057  1.00  0.00     0.164 HD
ATOM     15  O   UNL A   1      31.593  27.135  27.313  1.00  0.00    -0.269 OA
BRANCH  13  16
ATOM     16  C   UNL A   1      32.617  24.296  25.248  1.00  0.00     0.124 C 
BRANCH  16  17
ATOM     17  C   UNL A   1      31.680  23.131  25.580  1.00  0.00     0.152 C 
BRANCH  17  18
ATOM     18  C   UNL A   1      31.315  23.134  27.036  1.00  0.00     0.307 C 
ATOM     19  O   UNL A   1      32.079  22.789  27.930  1.00  0.00    -0.252 OA
BRANCH  18  20
ATOM     20  O   UNL A   1      30.038  23.571  27.207  1.00  0.00    -0.469 OA
ATOM     21  C   UNL A   1      29.047  22.545  27.339  1.00  0.00     0.282 C 
ENDBRANCH  18  20
ENDBRANCH  17  18
ENDBRANCH  16  17
BRANCH  16  22
ATOM     22  C   UNL A   1      34.048  23.786  25.176  1.00  0.00    -0.022 A 
ATOM     23  C   UNL A   1      34.858  23.888  26.323  1.00  0.00     0.006 A 
ATOM     24  C   UNL A   1      34.605  23.284  23.973  1.00  0.00    -0.043 A 
ATOM     25  C   UNL A   1      36.226  23.662  26.250  1.00  0.00     0.001 A 
ATOM     26  C   UNL A   1      36.009  23.153  23.883  1.00  0.00    -0.048 A 
ATOM     27  C   UNL A   1      33.742  22.905  22.791  1.00  0.00     0.045 C 
ATOM     28  C   UNL A   1      36.801  23.342  25.027  1.00  0.00     0.004 A 
ATOM     29  C   UNL A   1      36.728  22.914  22.579  1.00  0.00     0.044 C 
ENDBRANCH  16  22
ENDBRANCH  13  16
ENDBRANCH   7  12
ENDBRANCH   3   6
ENDBRANCH   1   2
BRANCH   1  30
ATOM     30  C   UNL A   1      31.453  30.807  26.324  1.00  0.00     0.023 C 
BRANCH  30  31
ATOM     31  C   UNL A   1      31.376  32.279  26.719  1.00  0.00     0.023 C 
BRANCH  31  32
ATOM     32  C   UNL A   1      32.710  33.008  26.868  1.00  0.00     0.116 C 
BRANCH  32  33
ATOM     33  N   UNL A   1      32.661  34.147  27.777  1.00  0.00    -0.352 N 
ATOM     34  C   UNL A   1      33.461  34.447  28.857  1.00  0.00     0.251 C 
ATOM     35  H   UNL A   1      31.949  34.800  27.591  1.00  0.00     0.163 HD
ATOM     36  O   UNL A   1      33.198  35.412  29.567  1.00  0.00    -0.269 OA
BRANCH  34  37
ATOM     37  C   UNL A   1      34.624  33.590  29.170  1.00  0.00     0.039 A 
ATOM     38  C   UNL A   1      35.911  34.059  28.898  1.00  0.00     0.014 A 
ATOM     39  C   UNL A   1      34.445  32.346  29.776  1.00  0.00     0.014 A 
ATOM     40  C   UNL A   1      37.017  33.323  29.332  1.00  0.00     0.010 A 
ATOM     41  C   UNL A   1      35.540  31.652  30.274  1.00  0.00     0.010 A 
ATOM     42  C   UNL A   1      36.836  32.143  30.071  1.00  0.00    -0.014 A 
BRANCH  42  43
ATOM     43  C   UNL A   1      37.976  31.423  30.688  1.00  0.00     0.031 A 
ATOM     44  C   UNL A   1      38.458  31.813  32.058  1.00  0.00     0.074 A 
ATOM     45  C   UNL A   1      38.630  30.491  29.967  1.00  0.00     0.049 A 
ATOM     46  N   UNL A   1      39.486  31.361  32.729  1.00  0.00    -0.248 NA
ATOM     47  C   UNL A   1      37.705  32.870  32.750  1.00  0.00     0.031 C 
ATOM     48  C   UNL A   1      38.284  30.085  28.601  1.00  0.00     0.029 A 
ATOM     49  N   UNL A   1      39.727  29.724  30.269  1.00  0.00    -0.354 N 
ATOM     50  C   UNL A   1      39.496  32.071  33.925  1.00  0.00     0.074 A 
ATOM     51  C   UNL A   1      38.422  33.037  33.851  1.00  0.00     0.031 C 
ATOM     52  C   UNL A   1      39.136  29.128  28.196  1.00  0.00     0.029 A 
ATOM     53  C   UNL A   1      40.115  28.884  29.249  1.00  0.00     0.049 A 
ATOM     54  H   UNL A   1      40.194  29.771  31.135  1.00  0.00     0.167 HD
ATOM     55  C   UNL A   1      40.309  31.908  34.997  1.00  0.00     0.034 A 
ATOM     56  C   UNL A   1      41.149  28.024  29.173  1.00  0.00     0.034 A 
ATOM     57  C   UNL A   1      41.380  30.943  35.045  1.00  0.00     0.049 A 
ATOM     58  C   UNL A   1      42.063  27.890  30.368  1.00  0.00     0.074 A 
ATOM     59  C   UNL A   1      42.244  30.666  36.090  1.00  0.00     0.029 A 
ATOM     60  N   UNL A   1      41.736  30.097  34.002  1.00  0.00    -0.354 N 
ATOM     61  N   UNL A   1      42.016  28.523  31.519  1.00  0.00    -0.248 NA
ATOM     62  C   UNL A   1      43.156  26.916  30.263  1.00  0.00     0.031 C 
ATOM     63  C   UNL A   1      43.162  29.706  35.656  1.00  0.00     0.029 A 
ATOM     64  C   UNL A   1      42.820  29.319  34.371  1.00  0.00     0.049 A 
ATOM     65  H   UNL A   1      41.283  30.058  33.128  1.00  0.00     0.167 HD
ATOM     66  C   UNL A   1      43.046  27.987  32.288  1.00  0.00     0.074 A 
ATOM     67  C   UNL A   1      43.681  26.970  31.477  1.00  0.00     0.031 C 
ATOM     68  C   UNL A   1      43.434  28.303  33.549  1.00  0.00     0.034 A 
BRANCH  55  69
ATOM     69  C   UNL A   1      40.069  32.788  36.198  1.00  0.00     0.023 A 
ATOM     70  C   UNL A   1      39.203  32.391  37.232  1.00  0.00     0.031 A 
ATOM     71  C   UNL A   1      40.721  34.027  36.324  1.00  0.00     0.131 A 
ATOM     72  C   UNL A   1      38.968  33.247  38.318  1.00  0.00     0.055 A 
ATOM     73  C   UNL A   1      40.543  34.840  37.446  1.00  0.00     0.041 A 
ATOM     74  F   UNL A   1      41.543  34.469  35.361  1.00  0.00    -0.206 F 
ATOM     75  C   UNL A   1      39.654  34.456  38.446  1.00  0.00     0.022 A 
BRANCH  72  76
ATOM     76  S   UNL A   1      37.668  32.806  39.503  1.00  0.00     0.124 S 
ATOM     77  O   UNL A   1      36.517  32.621  38.622  1.00  0.00    -0.237 OA
ATOM     78  O   UNL A   1      38.199  31.597  40.121  1.00  0.00    -0.237 OA
ATOM     79  O   UNL A   1      37.592  33.974  40.379  1.00  0.00    -0.744 OA
ENDBRANCH  72  76
ENDBRANCH  55  69
BRANCH  56  80
ATOM     80  C   UNL A   1      41.394  27.220  27.938  1.00  0.00     0.023 A 
ATOM     81  C   UNL A   1      41.114  25.845  27.910  1.00  0.00     0.031 A 
ATOM     82  C   UNL A   1      41.987  27.792  26.799  1.00  0.00     0.131 A 
ATOM     83  C   UNL A   1      41.503  25.072  26.805  1.00  0.00     0.055 A 
ATOM     84  C   UNL A   1      42.305  27.032  25.671  1.00  0.00     0.041 A 
ATOM     85  F   UNL A   1      42.274  29.104  26.766  1.00  0.00    -0.206 F 
ATOM     86  C   UNL A   1      42.084  25.658  25.679  1.00  0.00     0.022 A 
BRANCH  83  87
ATOM     87  S   UNL A   1      41.377  23.266  26.927  1.00  0.00     0.124 S 
ATOM     88  O   UNL A   1      42.381  22.968  27.941  1.00  0.00    -0.237 OA
ATOM     89  O   UNL A   1      39.985  23.088  27.328  1.00  0.00    -0.237 OA
ATOM     90  O   UNL A   1      41.698  22.812  25.576  1.00  0.00    -0.744 OA
ENDBRANCH  83  87
ENDBRANCH  56  80
BRANCH  68  91
ATOM     91  C   UNL A   1      44.558  27.492  34.146  1.00  0.00     0.023 A 
ATOM     92  C   UNL A   1      44.316  26.328  34.896  1.00  0.00     0.031 A 
ATOM     93  C   UNL A   1      45.892  27.898  33.967  1.00  0.00     0.131 A 
ATOM     94  C   UNL A   1      45.387  25.649  35.495  1.00  0.00     0.055 A 
ATOM     95  C   UNL A   1      46.959  27.179  34.505  1.00  0.00     0.041 A 
ATOM     96  F   UNL A   1      46.181  29.003  33.261  1.00  0.00    -0.206 F 
ATOM     97  C   UNL A   1      46.708  26.054  35.286  1.00  0.00     0.022 A 
BRANCH  94  98
ATOM     98  S   UNL A   1      45.025  24.285  36.633  1.00  0.00     0.124 S 
ATOM     99  O   UNL A   1      44.437  23.293  35.739  1.00  0.00    -0.237 OA
ATOM    100  O   UNL A   1      46.344  23.961  37.164  1.00  0.00    -0.237 OA
ATOM    101  O   UNL A   1      44.099  24.879  37.596  1.00  0.00    -0.744 OA
ENDBRANCH  94  98
ENDBRANCH  68  91
ENDBRANCH  42  43
ENDBRANCH  34  37
ENDBRANCH  32  33
ENDBRANCH  31  32
ENDBRANCH  30  31
ENDBRANCH   1  30
TORSDOF 20
ENDMDL
MODEL 2
REMARK VINA RESULT:     -11.9      5.735     10.922
REMARK SMILES COC(=O)C[C@@H](NC(=O)c1ccccc1C(=O)NCCCCNC(=O)c1ccc(-c2c3nc(c(-c4cc(S(=O)(=O)[O-])ccc4F)c4ccc([nH]4)c(-c4cc(S(=O)(=O)[O-])ccc4F)c4nc(c(-c5cc(S(=O)(=O)[O-])ccc5F)c5ccc2[nH]5)C=C4)C=C3)cc1)c1cccc(C)c1C
REMARK SMILES IDX 19 1 18 2 16 3 17 4 15 6 10 7 11 8 12 9 14 10 13 11 8 12
REMARK SMILES IDX 7 13 9 15 6 16 5 17 3 18 4 19 2 20 1 21 89 22 90 23 95 24
REMARK SMILES IDX 91 25 93 26 96 27 92 28 94 29 20 30 21 31 22 32 23 33 24 34
REMARK SMILES IDX 25 36 26 37 27 38 88 39 28 40 87 41 29 42 30 43 31 44 81 45
REMARK SMILES IDX 32 46 86 47 80 48 82 49 33 50 85 51 79 52 78 53 34 55 66 56
REMARK SMILES IDX 46 57 65 58 47 59 50 60 64 61 83 62 48 63 49 64 63 66 84 67
REMARK SMILES IDX 51 68 35 69 36 70 44 71 37 72 43 73 45 74 42 75 38 76 39 77
REMARK SMILES IDX 40 78 41 79 67 80 68 81 76 82 69 83 75 84 77 85 74 86 70 87
REMARK SMILES IDX 71 88 72 89 73 90 52 91 53 92 61 93 54 94 60 95 62 96 59 97
REMARK SMILES IDX 55 98 56 99 57 100 58 101
REMARK H PARENT 18 5 7 14 23 35 82 54 50 65
REMARK Flexibility Score: inf
ROOT
ATOM      1  C   UNL A   1      36.109  21.371  25.751  1.00  0.00     0.116 C 
ENDROOT
BRANCH   1   2
ATOM      2  N   UNL A   1      35.936  22.738  26.180  1.00  0.00    -0.352 N 
ATOM      3  C   UNL A   1      34.995  23.666  25.824  1.00  0.00     0.252 C 
ATOM      4  O   UNL A   1      35.229  24.832  26.159  1.00  0.00    -0.269 OA
ATOM      5  H   UNL A   1      36.602  23.053  26.834  1.00  0.00     0.163 HD
BRANCH   3   6
ATOM      6  C   UNL A   1      33.765  23.390  25.020  1.00  0.00     0.052 A 
ATOM      7  C   UNL A   1      32.419  23.506  25.389  1.00  0.00     0.052 A 
ATOM      8  C   UNL A   1      31.408  23.124  24.472  1.00  0.00     0.014 A 
ATOM      9  C   UNL A   1      31.708  22.722  23.174  1.00  0.00     0.001 A 
ATOM     10  C   UNL A   1      34.040  23.001  23.683  1.00  0.00     0.014 A 
ATOM     11  C   UNL A   1      33.031  22.684  22.769  1.00  0.00     0.001 A 
BRANCH   7  12
ATOM     12  C   UNL A   1      31.850  23.954  26.672  1.00  0.00     0.252 C 
ATOM     13  N   UNL A   1      31.573  25.256  26.989  1.00  0.00    -0.345 N 
ATOM     14  H   UNL A   1      30.941  25.344  27.737  1.00  0.00     0.164 HD
ATOM     15  O   UNL A   1      31.493  23.083  27.469  1.00  0.00    -0.269 OA
BRANCH  13  16
ATOM     16  C   UNL A   1      32.015  26.557  26.454  1.00  0.00     0.124 C 
BRANCH  16  17
ATOM     17  C   UNL A   1      31.467  27.694  27.322  1.00  0.00     0.152 C 
BRANCH  17  18
ATOM     18  C   UNL A   1      32.398  28.871  27.318  1.00  0.00     0.307 C 
ATOM     19  O   UNL A   1      33.605  28.785  27.515  1.00  0.00    -0.252 OA
BRANCH  18  20
ATOM     20  O   UNL A   1      31.715  30.019  27.062  1.00  0.00    -0.469 OA
ATOM     21  C   UNL A   1      31.668  30.415  25.686  1.00  0.00     0.282 C 
ENDBRANCH  18  20
ENDBRANCH  17  18
ENDBRANCH  16  17
BRANCH  16  22
ATOM     22  C   UNL A   1      31.600  26.783  25.009  1.00  0.00    -0.022 A 
ATOM     23  C   UNL A   1      30.228  26.878  24.709  1.00  0.00     0.006 A 
ATOM     24  C   UNL A   1      32.547  26.824  23.955  1.00  0.00    -0.043 A 
ATOM     25  C   UNL A   1      29.783  26.845  23.394  1.00  0.00     0.001 A 
ATOM     26  C   UNL A   1      32.085  26.691  22.626  1.00  0.00    -0.048 A 
ATOM     27  C   UNL A   1      34.027  26.989  24.217  1.00  0.00     0.045 C 
ATOM     28  C   UNL A   1      30.704  26.706  22.365  1.00  0.00     0.004 A 
ATOM     29  C   UNL A   1      33.004  26.429  21.460  1.00  0.00     0.044 C 
ENDBRANCH  16  22
ENDBRANCH  13  16
ENDBRANCH   7  12
ENDBRANCH   3   6
ENDBRANCH   1   2
BRANCH   1  30
ATOM     30  C   UNL A   1      37.225  21.180  24.737  1.00  0.00     0.023 C 
BRANCH  30  31
ATOM     31  C   UNL A   1      38.183  20.027  25.024  1.00  0.00     0.023 C 
BRANCH  31  32
ATOM     32  C   UNL A   1      39.451  20.381  25.799  1.00  0.00     0.116 C 
BRANCH  32  33
ATOM     33  N   UNL A   1      40.389  19.274  25.933  1.00  0.00    -0.352 N 
ATOM     34  C   UNL A   1      41.747  19.291  26.158  1.00  0.00     0.251 C 
ATOM     35  H   UNL A   1      39.992  18.377  25.851  1.00  0.00     0.163 HD
ATOM     36  O   UNL A   1      42.387  18.244  26.142  1.00  0.00    -0.269 OA
BRANCH  34  37
ATOM     37  C   UNL A   1      42.436  20.577  26.399  1.00  0.00     0.039 A 
ATOM     38  C   UNL A   1      42.889  21.324  25.310  1.00  0.00     0.014 A 
ATOM     39  C   UNL A   1      42.589  21.065  27.698  1.00  0.00     0.014 A 
ATOM     40  C   UNL A   1      43.400  22.608  25.522  1.00  0.00     0.010 A 
ATOM     41  C   UNL A   1      43.025  22.368  27.902  1.00  0.00     0.010 A 
ATOM     42  C   UNL A   1      43.419  23.157  26.815  1.00  0.00    -0.014 A 
BRANCH  42  43
ATOM     43  C   UNL A   1      43.799  24.570  27.058  1.00  0.00     0.031 A 
ATOM     44  C   UNL A   1      45.231  25.000  26.904  1.00  0.00     0.074 A 
ATOM     45  C   UNL A   1      42.866  25.430  27.513  1.00  0.00     0.049 A 
ATOM     46  N   UNL A   1      45.773  26.165  27.150  1.00  0.00    -0.248 NA
ATOM     47  C   UNL A   1      46.185  23.979  26.443  1.00  0.00     0.031 C 
ATOM     48  C   UNL A   1      41.460  25.097  27.761  1.00  0.00     0.029 A 
ATOM     49  N   UNL A   1      42.956  26.754  27.861  1.00  0.00    -0.354 N 
ATOM     50  C   UNL A   1      47.126  26.019  26.864  1.00  0.00     0.074 A 
ATOM     51  C   UNL A   1      47.334  24.634  26.504  1.00  0.00     0.031 C 
ATOM     52  C   UNL A   1      40.817  26.193  28.196  1.00  0.00     0.029 A 
ATOM     53  C   UNL A   1      41.768  27.293  28.303  1.00  0.00     0.049 A 
ATOM     54  H   UNL A   1      43.792  27.271  27.800  1.00  0.00     0.167 HD
ATOM     55  C   UNL A   1      48.098  26.964  26.872  1.00  0.00     0.034 A 
ATOM     56  C   UNL A   1      41.485  28.531  28.752  1.00  0.00     0.034 A 
ATOM     57  C   UNL A   1      47.868  28.340  27.241  1.00  0.00     0.049 A 
ATOM     58  C   UNL A   1      42.596  29.554  28.787  1.00  0.00     0.074 A 
ATOM     59  C   UNL A   1      48.769  29.390  27.253  1.00  0.00     0.029 A 
ATOM     60  N   UNL A   1      46.651  28.855  27.669  1.00  0.00    -0.354 N 
ATOM     61  N   UNL A   1      43.859  29.416  28.448  1.00  0.00    -0.248 NA
ATOM     62  C   UNL A   1      42.243  30.903  29.247  1.00  0.00     0.031 C 
ATOM     63  C   UNL A   1      48.115  30.521  27.751  1.00  0.00     0.029 A 
ATOM     64  C   UNL A   1      46.785  30.201  27.969  1.00  0.00     0.049 A 
ATOM     65  H   UNL A   1      45.817  28.340  27.748  1.00  0.00     0.167 HD
ATOM     66  C   UNL A   1      44.434  30.673  28.611  1.00  0.00     0.074 A 
ATOM     67  C   UNL A   1      43.378  31.557  29.059  1.00  0.00     0.031 C 
ATOM     68  C   UNL A   1      45.717  31.067  28.408  1.00  0.00     0.034 A 
BRANCH  55  69
ATOM     69  C   UNL A   1      49.488  26.543  26.467  1.00  0.00     0.023 A 
ATOM     70  C   UNL A   1      50.078  27.016  25.282  1.00  0.00     0.031 A 
ATOM     71  C   UNL A   1      50.241  25.674  27.276  1.00  0.00     0.131 A 
ATOM     72  C   UNL A   1      51.357  26.576  24.910  1.00  0.00     0.055 A 
ATOM     73  C   UNL A   1      51.544  25.301  26.940  1.00  0.00     0.041 A 
ATOM     74  F   UNL A   1      49.723  25.172  28.408  1.00  0.00    -0.206 F 
ATOM     75  C   UNL A   1      52.105  25.744  25.746  1.00  0.00     0.022 A 
BRANCH  72  76
ATOM     76  S   UNL A   1      51.981  27.018  23.266  1.00  0.00     0.124 S 
ATOM     77  O   UNL A   1      50.788  26.847  22.442  1.00  0.00    -0.237 OA
ATOM     78  O   UNL A   1      52.434  28.391  23.458  1.00  0.00    -0.237 OA
ATOM     79  O   UNL A   1      53.041  26.040  23.027  1.00  0.00    -0.744 OA
ENDBRANCH  72  76
ENDBRANCH  55  69
BRANCH  56  80
ATOM     80  C   UNL A   1      40.110  28.890  29.210  1.00  0.00     0.023 A 
ATOM     81  C   UNL A   1      39.780  28.870  30.574  1.00  0.00     0.031 A 
ATOM     82  C   UNL A   1      39.085  29.176  28.292  1.00  0.00     0.131 A 
ATOM     83  C   UNL A   1      38.446  29.044  30.976  1.00  0.00     0.055 A 
ATOM     84  C   UNL A   1      37.772  29.424  28.702  1.00  0.00     0.041 A 
ATOM     85  F   UNL A   1      39.342  29.214  26.974  1.00  0.00    -0.206 F 
ATOM     86  C   UNL A   1      37.442  29.336  30.051  1.00  0.00     0.022 A 
BRANCH  83  87
ATOM     87  S   UNL A   1      38.020  28.734  32.712  1.00  0.00     0.124 S 
ATOM     88  O   UNL A   1      36.719  29.384  32.818  1.00  0.00    -0.237 OA
ATOM     89  O   UNL A   1      38.016  27.276  32.765  1.00  0.00    -0.237 OA
ATOM     90  O   UNL A   1      39.105  29.380  33.448  1.00  0.00    -0.744 OA
ENDBRANCH  83  87
ENDBRANCH  56  80
BRANCH  68  91
ATOM     91  C   UNL A   1      46.027  32.530  28.610  1.00  0.00     0.023 A 
ATOM     92  C   UNL A   1      45.847  33.475  27.586  1.00  0.00     0.031 A 
ATOM     93  C   UNL A   1      46.522  32.980  29.847  1.00  0.00     0.131 A 
ATOM     94  C   UNL A   1      46.220  34.810  27.796  1.00  0.00     0.055 A 
ATOM     95  C   UNL A   1      46.824  34.323  30.073  1.00  0.00     0.041 A 
ATOM     96  F   UNL A   1      46.717  32.120  30.860  1.00  0.00    -0.206 F 
ATOM     97  C   UNL A   1      46.687  35.245  29.039  1.00  0.00     0.022 A 
BRANCH  94  98
ATOM     98  S   UNL A   1      46.180  35.955  26.390  1.00  0.00     0.124 S 
ATOM     99  O   UNL A   1      46.120  35.039  25.256  1.00  0.00    -0.237 OA
ATOM    100  O   UNL A   1      44.970  36.728  26.650  1.00  0.00    -0.237 OA
ATOM    101  O   UNL A   1      47.430  36.701  26.520  1.00  0.00    -0.744 OA
ENDBRANCH  94  98
ENDBRANCH  68  91
ENDBRANCH  42  43
ENDBRANCH  34  37
ENDBRANCH  32  33
ENDBRANCH  31  32
ENDBRANCH  30  31
ENDBRANCH   1  30
TORSDOF 20
ENDMDL
MODEL 3
REMARK VINA RESULT:     -11.9      5.677      9.213
REMARK SMILES COC(=O)C[C@@H](NC(=O)c1ccccc1C(=O)NCCCCNC(=O)c1ccc(-c2c3nc(c(-c4cc(S(=O)(=O)[O-])ccc4F)c4ccc([nH]4)c(-c4cc(S(=O)(=O)[O-])ccc4F)c4nc(c(-c5cc(S(=O)(=O)[O-])ccc5F)c5ccc2[nH]5)C=C4)C=C3)cc1)c1cccc(C)c1C
REMARK SMILES IDX 19 1 18 2 16 3 17 4 15 6 10 7 11 8 12 9 14 10 13 11 8 12
REMARK SMILES IDX 7 13 9 15 6 16 5 17 3 18 4 19 2 20 1 21 89 22 90 23 95 24
REMARK SMILES IDX 91 25 93 26 96 27 92 28 94 29 20 30 21 31 22 32 23 33 24 34
REMARK SMILES IDX 25 36 26 37 27 38 88 39 28 40 87 41 29 42 30 43 31 44 81 45
REMARK SMILES IDX 32 46 86 47 80 48 82 49 33 50 85 51 79 52 78 53 34 55 66 56
REMARK SMILES IDX 46 57 65 58 47 59 50 60 64 61 83 62 48 63 49 64 63 66 84 67
REMARK SMILES IDX 51 68 35 69 36 70 44 71 37 72 43 73 45 74 42 75 38 76 39 77
REMARK SMILES IDX 40 78 41 79 67 80 68 81 76 82 69 83 75 84 77 85 74 86 70 87
REMARK SMILES IDX 71 88 72 89 73 90 52 91 53 92 61 93 54 94 60 95 62 96 59 97
REMARK SMILES IDX 55 98 56 99 57 100 58 101
REMARK H PARENT 18 5 7 14 23 35 82 54 50 65
REMARK Flexibility Score: inf
ROOT
ATOM      1  C   UNL A   1      35.344  20.678  25.376  1.00  0.00     0.116 C 
ENDROOT
BRANCH   1   2
ATOM      2  N   UNL A   1      35.430  22.000  25.947  1.00  0.00    -0.352 N 
ATOM      3  C   UNL A   1      34.665  23.113  25.723  1.00  0.00     0.252 C 
ATOM      4  O   UNL A   1      35.112  24.176  26.165  1.00  0.00    -0.269 OA
ATOM      5  H   UNL A   1      36.155  22.120  26.603  1.00  0.00     0.163 HD
BRANCH   3   6
ATOM      6  C   UNL A   1      33.390  23.146  24.944  1.00  0.00     0.052 A 
ATOM      7  C   UNL A   1      32.113  23.558  25.348  1.00  0.00     0.052 A 
ATOM      8  C   UNL A   1      31.024  23.441  24.449  1.00  0.00     0.014 A 
ATOM      9  C   UNL A   1      31.200  23.015  23.135  1.00  0.00     0.001 A 
ATOM     10  C   UNL A   1      33.543  22.740  23.593  1.00  0.00     0.014 A 
ATOM     11  C   UNL A   1      32.471  22.687  22.697  1.00  0.00     0.001 A 
BRANCH   7  12
ATOM     12  C   UNL A   1      31.686  24.090  26.654  1.00  0.00     0.252 C 
ATOM     13  N   UNL A   1      31.596  25.421  26.960  1.00  0.00    -0.345 N 
ATOM     14  H   UNL A   1      31.027  25.597  27.744  1.00  0.00     0.164 HD
ATOM     15  O   UNL A   1      31.273  23.281  27.489  1.00  0.00    -0.269 OA
BRANCH  13  16
ATOM     16  C   UNL A   1      32.163  26.649  26.373  1.00  0.00     0.124 C 
BRANCH  16  17
ATOM     17  C   UNL A   1      31.811  27.857  27.246  1.00  0.00     0.152 C 
BRANCH  17  18
ATOM     18  C   UNL A   1      32.927  28.861  27.250  1.00  0.00     0.307 C 
ATOM     19  O   UNL A   1      34.114  28.558  27.253  1.00  0.00    -0.252 OA
BRANCH  18  20
ATOM     20  O   UNL A   1      32.429  30.127  27.245  1.00  0.00    -0.469 OA
ATOM     21  C   UNL A   1      31.746  30.516  26.047  1.00  0.00     0.282 C 
ENDBRANCH  18  20
ENDBRANCH  17  18
ENDBRANCH  16  17
BRANCH  16  22
ATOM     22  C   UNL A   1      31.696  26.903  24.949  1.00  0.00    -0.022 A 
ATOM     23  C   UNL A   1      30.351  27.260  24.735  1.00  0.00     0.006 A 
ATOM     24  C   UNL A   1      32.553  26.717  23.836  1.00  0.00    -0.043 A 
ATOM     25  C   UNL A   1      29.814  27.272  23.455  1.00  0.00     0.001 A 
ATOM     26  C   UNL A   1      31.977  26.634  22.547  1.00  0.00    -0.048 A 
ATOM     27  C   UNL A   1      34.051  26.592  23.993  1.00  0.00     0.045 C 
ATOM     28  C   UNL A   1      30.612  26.915  22.376  1.00  0.00     0.004 A 
ATOM     29  C   UNL A   1      32.739  26.152  21.338  1.00  0.00     0.044 C 
ENDBRANCH  16  22
ENDBRANCH  13  16
ENDBRANCH   7  12
ENDBRANCH   3   6
ENDBRANCH   1   2
BRANCH   1  30
ATOM     30  C   UNL A   1      36.690  20.082  24.998  1.00  0.00     0.023 C 
BRANCH  30  31
ATOM     31  C   UNL A   1      37.821  21.086  24.793  1.00  0.00     0.023 C 
BRANCH  31  32
ATOM     32  C   UNL A   1      38.882  21.141  25.890  1.00  0.00     0.116 C 
BRANCH  32  33
ATOM     33  N   UNL A   1      39.737  19.962  25.944  1.00  0.00    -0.352 N 
ATOM     34  C   UNL A   1      41.098  19.867  26.131  1.00  0.00     0.251 C 
ATOM     35  H   UNL A   1      39.271  19.103  25.829  1.00  0.00     0.163 HD
ATOM     36  O   UNL A   1      41.656  18.778  26.046  1.00  0.00    -0.269 OA
BRANCH  34  37
ATOM     37  C   UNL A   1      41.886  21.085  26.416  1.00  0.00     0.039 A 
ATOM     38  C   UNL A   1      42.309  21.889  25.355  1.00  0.00     0.014 A 
ATOM     39  C   UNL A   1      42.166  21.456  27.732  1.00  0.00     0.014 A 
ATOM     40  C   UNL A   1      42.919  23.117  25.624  1.00  0.00     0.010 A 
ATOM     41  C   UNL A   1      42.702  22.708  28.000  1.00  0.00     0.010 A 
ATOM     42  C   UNL A   1      43.069  23.558  26.949  1.00  0.00    -0.014 A 
BRANCH  42  43
ATOM     43  C   UNL A   1      43.559  24.920  27.270  1.00  0.00     0.031 A 
ATOM     44  C   UNL A   1      42.594  25.976  27.732  1.00  0.00     0.074 A 
ATOM     45  C   UNL A   1      44.854  25.220  27.046  1.00  0.00     0.049 A 
ATOM     46  N   UNL A   1      42.815  27.241  27.981  1.00  0.00    -0.248 NA
ATOM     47  C   UNL A   1      41.193  25.564  27.907  1.00  0.00     0.031 C 
ATOM     48  C   UNL A   1      45.861  24.284  26.535  1.00  0.00     0.029 A 
ATOM     49  N   UNL A   1      45.547  26.393  27.206  1.00  0.00    -0.354 N 
ATOM     50  C   UNL A   1      41.584  27.772  28.351  1.00  0.00     0.074 A 
ATOM     51  C   UNL A   1      40.609  26.712  28.217  1.00  0.00     0.031 C 
ATOM     52  C   UNL A   1      47.044  24.914  26.447  1.00  0.00     0.029 A 
ATOM     53  C   UNL A   1      46.874  26.306  26.850  1.00  0.00     0.049 A 
ATOM     54  H   UNL A   1      45.134  27.221  27.542  1.00  0.00     0.167 HD
ATOM     55  C   UNL A   1      41.301  29.022  28.793  1.00  0.00     0.034 A 
ATOM     56  C   UNL A   1      47.840  27.246  26.840  1.00  0.00     0.034 A 
ATOM     57  C   UNL A   1      42.289  30.066  28.913  1.00  0.00     0.049 A 
ATOM     58  C   UNL A   1      47.488  28.641  27.301  1.00  0.00     0.074 A 
ATOM     59  C   UNL A   1      42.124  31.359  29.381  1.00  0.00     0.029 A 
ATOM     60  N   UNL A   1      43.626  29.940  28.559  1.00  0.00    -0.354 N 
ATOM     61  N   UNL A   1      46.330  29.109  27.713  1.00  0.00    -0.248 NA
ATOM     62  C   UNL A   1      48.573  29.630  27.314  1.00  0.00     0.031 C 
ATOM     63  C   UNL A   1      43.341  32.032  29.246  1.00  0.00     0.029 A 
ATOM     64  C   UNL A   1      44.289  31.137  28.775  1.00  0.00     0.049 A 
ATOM     65  H   UNL A   1      44.041  29.121  28.206  1.00  0.00     0.167 HD
ATOM     66  C   UNL A   1      46.564  30.432  28.076  1.00  0.00     0.074 A 
ATOM     67  C   UNL A   1      47.973  30.680  27.852  1.00  0.00     0.031 C 
ATOM     68  C   UNL A   1      45.698  31.361  28.552  1.00  0.00     0.034 A 
BRANCH  55  69
ATOM     69  C   UNL A   1      39.875  29.323  29.180  1.00  0.00     0.023 A 
ATOM     70  C   UNL A   1      39.487  29.411  30.529  1.00  0.00     0.031 A 
ATOM     71  C   UNL A   1      38.894  29.539  28.198  1.00  0.00     0.131 A 
ATOM     72  C   UNL A   1      38.146  29.653  30.859  1.00  0.00     0.055 A 
ATOM     73  C   UNL A   1      37.576  29.857  28.532  1.00  0.00     0.041 A 
ATOM     74  F   UNL A   1      39.198  29.447  26.894  1.00  0.00    -0.206 F 
ATOM     75  C   UNL A   1      37.193  29.905  29.870  1.00  0.00     0.022 A 
BRANCH  72  76
ATOM     76  S   UNL A   1      37.645  29.521  32.597  1.00  0.00     0.124 S 
ATOM     77  O   UNL A   1      38.654  30.344  33.258  1.00  0.00    -0.237 OA
ATOM     78  O   UNL A   1      36.291  30.064  32.577  1.00  0.00    -0.237 OA
ATOM     79  O   UNL A   1      37.739  28.089  32.873  1.00  0.00    -0.744 OA
ENDBRANCH  72  76
ENDBRANCH  55  69
BRANCH  56  80
ATOM     80  C   UNL A   1      49.225  26.925  26.384  1.00  0.00     0.023 A 
ATOM     81  C   UNL A   1      49.697  27.387  25.146  1.00  0.00     0.031 A 
ATOM     82  C   UNL A   1      50.066  26.086  27.135  1.00  0.00     0.131 A 
ATOM     83  C   UNL A   1      50.935  26.941  24.656  1.00  0.00     0.055 A 
ATOM     84  C   UNL A   1      51.330  25.704  26.677  1.00  0.00     0.041 A 
ATOM     85  F   UNL A   1      49.670  25.616  28.329  1.00  0.00    -0.206 F 
ATOM     86  C   UNL A   1      51.761  26.115  25.419  1.00  0.00     0.022 A 
BRANCH  83  87
ATOM     87  S   UNL A   1      51.378  27.337  22.942  1.00  0.00     0.124 S 
ATOM     88  O   UNL A   1      52.397  26.332  22.661  1.00  0.00    -0.237 OA
ATOM     89  O   UNL A   1      50.102  27.169  22.254  1.00  0.00    -0.237 OA
ATOM     90  O   UNL A   1      51.863  28.713  23.026  1.00  0.00    -0.744 OA
ENDBRANCH  83  87
ENDBRANCH  56  80
BRANCH  68  91
ATOM     91  C   UNL A   1      46.269  32.708  28.922  1.00  0.00     0.023 A 
ATOM     92  C   UNL A   1      46.276  33.785  28.018  1.00  0.00     0.031 A 
ATOM     93  C   UNL A   1      46.824  32.911  30.198  1.00  0.00     0.131 A 
ATOM     94  C   UNL A   1      46.885  34.995  28.379  1.00  0.00     0.055 A 
ATOM     95  C   UNL A   1      47.365  34.140  30.577  1.00  0.00     0.041 A 
ATOM     96  F   UNL A   1      46.846  31.918  31.100  1.00  0.00    -0.206 F 
ATOM     97  C   UNL A   1      47.411  35.186  29.660  1.00  0.00     0.022 A 
BRANCH  94  98
ATOM     98  S   UNL A   1      47.072  36.284  27.119  1.00  0.00     0.124 S 
ATOM     99  O   UNL A   1      47.909  35.619  26.127  1.00  0.00    -0.237 OA
ATOM    100  O   UNL A   1      45.690  36.536  26.722  1.00  0.00    -0.237 OA
ATOM    101  O   UNL A   1      47.717  37.379  27.841  1.00  0.00    -0.744 OA
ENDBRANCH  94  98
ENDBRANCH  68  91
ENDBRANCH  42  43
ENDBRANCH  34  37
ENDBRANCH  32  33
ENDBRANCH  31  32
ENDBRANCH  30  31
ENDBRANCH   1  30
TORSDOF 20
ENDMDL
