MODEL 1
REMARK VINA RESULT:     -12.7      0.000      0.000
REMARK SMILES O=C(NCCCCNC(=O)c1ccccc1/N=C/c1coc2ccccc2c1=O)c1ccc(-c2c3nc(c(-c4cc(S(=O)(=O)[O-])ccc4F)c4ccc([nH]4)c(-c4cc(S(=O)(=O)[O-])ccc4F)c4nc(c(-c5cc(S(=O)(=O)[O-])ccc5F)c5ccc2[nH]5)C=C4)C=C3)cc1
REMARK SMILES IDX 5 1 4 2 3 3 1 4 2 5 30 7 31 8 92 9 32 10 91 11 33 12 34 13
REMARK SMILES IDX 35 14 85 15 36 16 90 17 84 18 86 19 37 20 89 21 83 22 82 23
REMARK SMILES IDX 38 25 70 26 50 27 69 28 51 29 54 30 68 31 87 32 52 33 53 34
REMARK SMILES IDX 67 36 88 37 55 38 39 39 40 40 48 41 41 42 47 43 49 44 46 45
REMARK SMILES IDX 42 46 43 47 44 48 45 49 71 50 72 51 80 52 73 53 79 54 81 55
REMARK SMILES IDX 78 56 74 57 75 58 76 59 77 60 56 61 57 62 65 63 58 64 64 65
REMARK SMILES IDX 66 66 63 67 59 68 60 69 61 70 62 71 6 72 7 73 8 74 9 75
REMARK SMILES IDX 10 77 11 78 12 79 16 80 13 81 15 82 14 83 17 84 18 85 19 86
REMARK SMILES IDX 20 87 28 88 21 89 27 90 29 91 22 92 26 93 23 94 25 95 24 96
REMARK H PARENT 3 6 86 24 54 35 8 76
REMARK Flexibility Score: inf
ROOT
ATOM      1  C   UNL A   1      32.830  29.699  25.616  1.00  0.00     0.023 C 
ENDROOT
BRANCH   1   2
ATOM      2  C   UNL A   1      32.416  30.284  26.965  1.00  0.00     0.116 C 
BRANCH   2   3
ATOM      3  N   UNL A   1      32.446  31.737  26.994  1.00  0.00    -0.352 N 
ATOM      4  O   UNL A   1      33.152  33.785  27.642  1.00  0.00    -0.269 OA
ATOM      5  C   UNL A   1      33.371  32.577  27.568  1.00  0.00     0.251 C 
ATOM      6  H   UNL A   1      31.696  32.183  26.539  1.00  0.00     0.163 HD
BRANCH   5   7
ATOM      7  C   UNL A   1      34.642  32.032  28.106  1.00  0.00     0.039 A 
ATOM      8  C   UNL A   1      34.699  30.738  28.631  1.00  0.00     0.014 A 
ATOM      9  C   UNL A   1      35.801  32.814  28.052  1.00  0.00     0.014 A 
ATOM     10  C   UNL A   1      35.877  30.276  29.218  1.00  0.00     0.010 A 
ATOM     11  C   UNL A   1      36.997  32.328  28.593  1.00  0.00     0.010 A 
ATOM     12  C   UNL A   1      37.034  31.070  29.215  1.00  0.00    -0.014 A 
BRANCH  12  13
ATOM     13  C   UNL A   1      38.264  30.562  29.877  1.00  0.00     0.031 A 
ATOM     14  C   UNL A   1      38.579  30.938  31.299  1.00  0.00     0.074 A 
ATOM     15  C   UNL A   1      39.071  29.715  29.211  1.00  0.00     0.049 A 
ATOM     16  N   UNL A   1      39.562  30.531  32.064  1.00  0.00    -0.248 NA
ATOM     17  C   UNL A   1      37.678  31.903  31.946  1.00  0.00     0.031 C 
ATOM     18  C   UNL A   1      38.888  29.292  27.821  1.00  0.00     0.029 A 
ATOM     19  N   UNL A   1      40.193  29.041  29.620  1.00  0.00    -0.354 N 
ATOM     20  C   UNL A   1      39.407  31.197  33.274  1.00  0.00     0.074 A 
ATOM     21  C   UNL A   1      38.248  32.054  33.133  1.00  0.00     0.031 C 
ATOM     22  C   UNL A   1      39.841  28.401  27.505  1.00  0.00     0.029 A 
ATOM     23  C   UNL A   1      40.714  28.208  28.658  1.00  0.00     0.049 A 
ATOM     24  H   UNL A   1      40.589  29.144  30.515  1.00  0.00     0.167 HD
ATOM     25  C   UNL A   1      40.155  31.099  34.402  1.00  0.00     0.034 A 
ATOM     26  C   UNL A   1      41.770  27.374  28.703  1.00  0.00     0.034 A 
ATOM     27  C   UNL A   1      41.303  30.239  34.544  1.00  0.00     0.049 A 
ATOM     28  C   UNL A   1      42.562  27.256  29.975  1.00  0.00     0.074 A 
ATOM     29  C   UNL A   1      42.117  30.056  35.649  1.00  0.00     0.029 A 
ATOM     30  N   UNL A   1      41.801  29.412  33.546  1.00  0.00    -0.354 N 
ATOM     31  N   UNL A   1      42.397  27.892  31.110  1.00  0.00    -0.248 NA
ATOM     32  C   UNL A   1      43.679  26.303  29.970  1.00  0.00     0.031 C 
ATOM     33  C   UNL A   1      43.127  29.146  35.308  1.00  0.00     0.029 A 
ATOM     34  C   UNL A   1      42.918  28.730  34.005  1.00  0.00     0.049 A 
ATOM     35  H   UNL A   1      41.418  29.324  32.644  1.00  0.00     0.167 HD
ATOM     36  C   UNL A   1      43.393  27.417  31.955  1.00  0.00     0.074 A 
ATOM     37  C   UNL A   1      44.139  26.425  31.206  1.00  0.00     0.031 C 
ATOM     38  C   UNL A   1      43.669  27.770  33.235  1.00  0.00     0.034 A 
BRANCH  25  39
ATOM     39  C   UNL A   1      39.767  31.984  35.557  1.00  0.00     0.023 A 
ATOM     40  C   UNL A   1      38.907  31.533  36.573  1.00  0.00     0.031 A 
ATOM     41  C   UNL A   1      40.240  33.306  35.624  1.00  0.00     0.131 A 
ATOM     42  C   UNL A   1      38.503  32.416  37.586  1.00  0.00     0.055 A 
ATOM     43  C   UNL A   1      39.879  34.162  36.665  1.00  0.00     0.041 A 
ATOM     44  F   UNL A   1      41.047  33.792  34.668  1.00  0.00    -0.206 F 
ATOM     45  C   UNL A   1      38.997  33.721  37.649  1.00  0.00     0.022 A 
BRANCH  42  46
ATOM     46  S   UNL A   1      37.243  31.865  38.768  1.00  0.00     0.124 S 
ATOM     47  O   UNL A   1      37.939  32.032  40.042  1.00  0.00    -0.237 OA
ATOM     48  O   UNL A   1      36.143  32.789  38.516  1.00  0.00    -0.237 OA
ATOM     49  O   UNL A   1      36.993  30.478  38.380  1.00  0.00    -0.744 OA
ENDBRANCH  42  46
ENDBRANCH  25  39
BRANCH  26  50
ATOM     50  C   UNL A   1      42.151  26.593  27.498  1.00  0.00     0.023 A 
ATOM     51  C   UNL A   1      41.882  25.219  27.413  1.00  0.00     0.031 A 
ATOM     52  C   UNL A   1      42.805  27.216  26.423  1.00  0.00     0.131 A 
ATOM     53  C   UNL A   1      42.289  24.502  26.277  1.00  0.00     0.055 A 
ATOM     54  C   UNL A   1      43.186  26.505  25.286  1.00  0.00     0.041 A 
ATOM     55  F   UNL A   1      43.071  28.531  26.462  1.00  0.00    -0.206 F 
ATOM     56  C   UNL A   1      42.934  25.138  25.212  1.00  0.00     0.022 A 
BRANCH  53  57
ATOM     57  S   UNL A   1      42.000  22.712  26.228  1.00  0.00     0.124 S 
ATOM     58  O   UNL A   1      40.543  22.640  26.222  1.00  0.00    -0.237 OA
ATOM     59  O   UNL A   1      42.666  22.333  24.986  1.00  0.00    -0.237 OA
ATOM     60  O   UNL A   1      42.642  22.229  27.449  1.00  0.00    -0.744 OA
ENDBRANCH  53  57
ENDBRANCH  26  50
BRANCH  38  61
ATOM     61  C   UNL A   1      44.827  27.069  33.888  1.00  0.00     0.023 A 
ATOM     62  C   UNL A   1      44.645  25.867  34.595  1.00  0.00     0.031 A 
ATOM     63  C   UNL A   1      46.115  27.626  33.836  1.00  0.00     0.131 A 
ATOM     64  C   UNL A   1      45.730  25.280  35.260  1.00  0.00     0.055 A 
ATOM     65  C   UNL A   1      47.199  27.020  34.472  1.00  0.00     0.041 A 
ATOM     66  F   UNL A   1      46.335  28.775  33.177  1.00  0.00    -0.206 F 
ATOM     67  C   UNL A   1      47.008  25.846  35.197  1.00  0.00     0.022 A 
BRANCH  64  68
ATOM     68  S   UNL A   1      45.437  23.803  36.272  1.00  0.00     0.124 S 
ATOM     69  O   UNL A   1      46.660  23.037  36.059  1.00  0.00    -0.237 OA
ATOM     70  O   UNL A   1      45.263  24.369  37.606  1.00  0.00    -0.237 OA
ATOM     71  O   UNL A   1      44.231  23.220  35.685  1.00  0.00    -0.744 OA
ENDBRANCH  64  68
ENDBRANCH  38  61
ENDBRANCH  12  13
ENDBRANCH   5   7
ENDBRANCH   2   3
ENDBRANCH   1   2
BRANCH   1  72
ATOM     72  C   UNL A   1      33.995  28.706  25.625  1.00  0.00     0.023 C 
BRANCH  72  73
ATOM     73  C   UNL A   1      33.666  27.262  25.255  1.00  0.00     0.116 C 
BRANCH  73  74
ATOM     74  N   UNL A   1      33.908  26.936  23.861  1.00  0.00    -0.352 N 
ATOM     75  C   UNL A   1      33.024  26.942  22.816  1.00  0.00     0.253 C 
ATOM     76  H   UNL A   1      34.831  26.676  23.638  1.00  0.00     0.163 HD
ATOM     77  O   UNL A   1      33.419  26.776  21.664  1.00  0.00    -0.269 OA
BRANCH  75  78
ATOM     78  C   UNL A   1      31.581  27.095  23.044  1.00  0.00     0.065 A 
ATOM     79  C   UNL A   1      30.988  28.257  22.521  1.00  0.00     0.016 A 
ATOM     80  C   UNL A   1      30.817  26.180  23.774  1.00  0.00     0.076 A 
ATOM     81  C   UNL A   1      29.623  28.494  22.691  1.00  0.00     0.001 A 
ATOM     82  C   UNL A   1      29.447  26.444  23.938  1.00  0.00     0.029 A 
ATOM     83  C   UNL A   1      28.851  27.586  23.405  1.00  0.00     0.002 A 
BRANCH  80  84
ATOM     84  N   UNL A   1      31.219  24.923  24.216  1.00  0.00    -0.255 NA
ATOM     85  C   UNL A   1      30.958  24.418  25.377  1.00  0.00     0.127 C 
BRANCH  85  86
ATOM     86  C   UNL A   1      31.425  23.023  25.557  1.00  0.00     0.076 A 
ATOM     87  C   UNL A   1      31.647  22.442  24.362  1.00  0.00     0.209 A 
ATOM     88  C   UNL A   1      32.479  22.774  26.576  1.00  0.00     0.201 A 
ATOM     89  O   UNL A   1      32.825  21.778  24.036  1.00  0.00    -0.463 OA
ATOM     90  C   UNL A   1      33.830  22.741  26.000  1.00  0.00     0.065 A 
ATOM     91  O   UNL A   1      32.266  22.750  27.779  1.00  0.00    -0.288 OA
ATOM     92  C   UNL A   1      33.936  22.274  24.691  1.00  0.00     0.137 A 
ATOM     93  C   UNL A   1      34.907  23.341  26.649  1.00  0.00     0.016 A 
ATOM     94  C   UNL A   1      35.140  22.402  24.007  1.00  0.00     0.048 A 
ATOM     95  C   UNL A   1      36.103  23.503  25.951  1.00  0.00     0.001 A 
ATOM     96  C   UNL A   1      36.217  23.037  24.636  1.00  0.00     0.004 A 
ENDBRANCH  85  86
ENDBRANCH  80  84
ENDBRANCH  75  78
ENDBRANCH  73  74
ENDBRANCH  72  73
ENDBRANCH   1  72
TORSDOF 16
ENDMDL
MODEL 2
REMARK VINA RESULT:     -12.5      1.394      1.620
REMARK SMILES O=C(NCCCCNC(=O)c1ccccc1/N=C/c1coc2ccccc2c1=O)c1ccc(-c2c3nc(c(-c4cc(S(=O)(=O)[O-])ccc4F)c4ccc([nH]4)c(-c4cc(S(=O)(=O)[O-])ccc4F)c4nc(c(-c5cc(S(=O)(=O)[O-])ccc5F)c5ccc2[nH]5)C=C4)C=C3)cc1
REMARK SMILES IDX 5 1 4 2 3 3 1 4 2 5 30 7 31 8 92 9 32 10 91 11 33 12 34 13
REMARK SMILES IDX 35 14 85 15 36 16 90 17 84 18 86 19 37 20 89 21 83 22 82 23
REMARK SMILES IDX 38 25 70 26 50 27 69 28 51 29 54 30 68 31 87 32 52 33 53 34
REMARK SMILES IDX 67 36 88 37 55 38 39 39 40 40 48 41 41 42 47 43 49 44 46 45
REMARK SMILES IDX 42 46 43 47 44 48 45 49 71 50 72 51 80 52 73 53 79 54 81 55
REMARK SMILES IDX 78 56 74 57 75 58 76 59 77 60 56 61 57 62 65 63 58 64 64 65
REMARK SMILES IDX 66 66 63 67 59 68 60 69 61 70 62 71 6 72 7 73 8 74 9 75
REMARK SMILES IDX 10 77 11 78 12 79 16 80 13 81 15 82 14 83 17 84 18 85 19 86
REMARK SMILES IDX 20 87 28 88 21 89 27 90 29 91 22 92 26 93 23 94 25 95 24 96
REMARK H PARENT 3 6 86 24 54 35 8 76
REMARK Flexibility Score: inf
ROOT
ATOM      1  C   UNL A   1      32.344  28.827  25.662  1.00  0.00     0.023 C 
ENDROOT
BRANCH   1   2
ATOM      2  C   UNL A   1      32.271  29.567  26.996  1.00  0.00     0.116 C 
BRANCH   2   3
ATOM      3  N   UNL A   1      32.235  31.012  26.850  1.00  0.00    -0.352 N 
ATOM      4  O   UNL A   1      32.843  33.154  27.247  1.00  0.00    -0.269 OA
ATOM      5  C   UNL A   1      33.118  31.957  27.319  1.00  0.00     0.251 C 
ATOM      6  H   UNL A   1      31.469  31.366  26.344  1.00  0.00     0.163 HD
BRANCH   5   7
ATOM      7  C   UNL A   1      34.408  31.540  27.920  1.00  0.00     0.039 A 
ATOM      8  C   UNL A   1      34.660  30.196  28.211  1.00  0.00     0.014 A 
ATOM      9  C   UNL A   1      35.395  32.501  28.164  1.00  0.00     0.014 A 
ATOM     10  C   UNL A   1      35.839  29.832  28.861  1.00  0.00     0.010 A 
ATOM     11  C   UNL A   1      36.601  32.127  28.768  1.00  0.00     0.010 A 
ATOM     12  C   UNL A   1      36.816  30.796  29.157  1.00  0.00    -0.014 A 
BRANCH  12  13
ATOM     13  C   UNL A   1      38.047  30.382  29.879  1.00  0.00     0.031 A 
ATOM     14  C   UNL A   1      38.280  30.811  31.303  1.00  0.00     0.074 A 
ATOM     15  C   UNL A   1      38.931  29.572  29.269  1.00  0.00     0.049 A 
ATOM     16  N   UNL A   1      39.254  30.486  32.115  1.00  0.00    -0.248 NA
ATOM     17  C   UNL A   1      37.295  31.733  31.888  1.00  0.00     0.031 C 
ATOM     18  C   UNL A   1      38.831  29.104  27.883  1.00  0.00     0.029 A 
ATOM     19  N   UNL A   1      40.075  28.979  29.738  1.00  0.00    -0.354 N 
ATOM     20  C   UNL A   1      39.009  31.169  33.301  1.00  0.00     0.074 A 
ATOM     21  C   UNL A   1      37.806  31.948  33.091  1.00  0.00     0.031 C 
ATOM     22  C   UNL A   1      39.849  28.268  27.629  1.00  0.00     0.029 A 
ATOM     23  C   UNL A   1      40.685  28.158  28.820  1.00  0.00     0.049 A 
ATOM     24  H   UNL A   1      40.427  29.128  30.645  1.00  0.00     0.167 HD
ATOM     25  C   UNL A   1      39.716  31.145  34.459  1.00  0.00     0.034 A 
ATOM     26  C   UNL A   1      41.789  27.394  28.928  1.00  0.00     0.034 A 
ATOM     27  C   UNL A   1      40.908  30.363  34.668  1.00  0.00     0.049 A 
ATOM     28  C   UNL A   1      42.533  27.357  30.233  1.00  0.00     0.074 A 
ATOM     29  C   UNL A   1      41.687  30.259  35.809  1.00  0.00     0.029 A 
ATOM     30  N   UNL A   1      41.497  29.546  33.713  1.00  0.00    -0.354 N 
ATOM     31  N   UNL A   1      42.283  28.007  31.343  1.00  0.00    -0.248 NA
ATOM     32  C   UNL A   1      43.707  26.476  30.296  1.00  0.00     0.031 C 
ATOM     33  C   UNL A   1      42.764  29.406  35.532  1.00  0.00     0.029 A 
ATOM     34  C   UNL A   1      42.634  28.947  34.233  1.00  0.00     0.049 A 
ATOM     35  H   UNL A   1      41.157  29.412  32.799  1.00  0.00     0.167 HD
ATOM     36  C   UNL A   1      43.272  27.616  32.239  1.00  0.00     0.074 A 
ATOM     37  C   UNL A   1      44.108  26.656  31.546  1.00  0.00     0.031 C 
ATOM     38  C   UNL A   1      43.473  28.017  33.519  1.00  0.00     0.034 A 
BRANCH  25  39
ATOM     39  C   UNL A   1      39.227  32.032  35.574  1.00  0.00     0.023 A 
ATOM     40  C   UNL A   1      39.675  33.357  35.711  1.00  0.00     0.031 A 
ATOM     41  C   UNL A   1      38.325  31.533  36.530  1.00  0.00     0.131 A 
ATOM     42  C   UNL A   1      39.261  34.121  36.813  1.00  0.00     0.055 A 
ATOM     43  C   UNL A   1      37.873  32.317  37.592  1.00  0.00     0.041 A 
ATOM     44  F   UNL A   1      37.882  30.267  36.455  1.00  0.00    -0.206 F 
ATOM     45  C   UNL A   1      38.349  33.617  37.743  1.00  0.00     0.022 A 
BRANCH  42  46
ATOM     46  S   UNL A   1      40.007  35.755  37.067  1.00  0.00     0.124 S 
ATOM     47  O   UNL A   1      41.419  35.413  37.227  1.00  0.00    -0.237 OA
ATOM     48  O   UNL A   1      39.655  36.461  35.841  1.00  0.00    -0.237 OA
ATOM     49  O   UNL A   1      39.352  36.245  38.279  1.00  0.00    -0.744 OA
ENDBRANCH  42  46
ENDBRANCH  25  39
BRANCH  26  50
ATOM     50  C   UNL A   1      42.265  26.609  27.761  1.00  0.00     0.023 A 
ATOM     51  C   UNL A   1      41.928  25.256  27.612  1.00  0.00     0.031 A 
ATOM     52  C   UNL A   1      43.080  27.207  26.786  1.00  0.00     0.131 A 
ATOM     53  C   UNL A   1      42.426  24.533  26.517  1.00  0.00     0.055 A 
ATOM     54  C   UNL A   1      43.554  26.491  25.687  1.00  0.00     0.041 A 
ATOM     55  F   UNL A   1      43.417  28.503  26.886  1.00  0.00    -0.206 F 
ATOM     56  C   UNL A   1      43.232  25.144  25.552  1.00  0.00     0.022 A 
BRANCH  53  57
ATOM     57  S   UNL A   1      42.039  22.765  26.394  1.00  0.00     0.124 S 
ATOM     58  O   UNL A   1      40.580  22.770  26.426  1.00  0.00    -0.237 OA
ATOM     59  O   UNL A   1      42.650  22.411  25.116  1.00  0.00    -0.237 OA
ATOM     60  O   UNL A   1      42.687  22.191  27.571  1.00  0.00    -0.744 OA
ENDBRANCH  53  57
ENDBRANCH  26  50
BRANCH  38  61
ATOM     61  C   UNL A   1      44.645  27.406  34.235  1.00  0.00     0.023 A 
ATOM     62  C   UNL A   1      44.497  26.246  35.015  1.00  0.00     0.031 A 
ATOM     63  C   UNL A   1      45.912  28.010  34.167  1.00  0.00     0.131 A 
ATOM     64  C   UNL A   1      45.591  25.747  35.735  1.00  0.00     0.055 A 
ATOM     65  C   UNL A   1      47.006  27.489  34.859  1.00  0.00     0.041 A 
ATOM     66  F   UNL A   1      46.100  29.122  33.439  1.00  0.00    -0.206 F 
ATOM     67  C   UNL A   1      46.846  26.358  35.656  1.00  0.00     0.022 A 
BRANCH  64  68
ATOM     68  S   UNL A   1      45.336  24.328  36.836  1.00  0.00     0.124 S 
ATOM     69  O   UNL A   1      44.310  24.826  37.746  1.00  0.00    -0.237 OA
ATOM     70  O   UNL A   1      44.914  23.285  35.908  1.00  0.00    -0.237 OA
ATOM     71  O   UNL A   1      46.651  24.123  37.441  1.00  0.00    -0.744 OA
ENDBRANCH  64  68
ENDBRANCH  38  61
ENDBRANCH  12  13
ENDBRANCH   5   7
ENDBRANCH   2   3
ENDBRANCH   1   2
BRANCH   1  72
ATOM     72  C   UNL A   1      33.703  28.239  25.275  1.00  0.00     0.023 C 
BRANCH  72  73
ATOM     73  C   UNL A   1      33.859  26.727  25.418  1.00  0.00     0.116 C 
BRANCH  73  74
ATOM     74  N   UNL A   1      34.023  26.024  24.158  1.00  0.00    -0.352 N 
ATOM     75  C   UNL A   1      33.121  25.877  23.138  1.00  0.00     0.253 C 
ATOM     76  H   UNL A   1      34.899  25.597  24.018  1.00  0.00     0.163 HD
ATOM     77  O   UNL A   1      33.462  25.370  22.072  1.00  0.00    -0.269 OA
BRANCH  75  78
ATOM     78  C   UNL A   1      31.716  26.271  23.306  1.00  0.00     0.065 A 
ATOM     79  C   UNL A   1      31.265  27.328  22.496  1.00  0.00     0.016 A 
ATOM     80  C   UNL A   1      30.858  25.681  24.238  1.00  0.00     0.076 A 
ATOM     81  C   UNL A   1      29.947  27.777  22.586  1.00  0.00     0.001 A 
ATOM     82  C   UNL A   1      29.538  26.156  24.316  1.00  0.00     0.029 A 
ATOM     83  C   UNL A   1      29.082  27.192  23.502  1.00  0.00     0.002 A 
BRANCH  80  84
ATOM     84  N   UNL A   1      31.106  24.538  24.992  1.00  0.00    -0.255 NA
ATOM     85  C   UNL A   1      31.023  23.323  24.560  1.00  0.00     0.127 C 
BRANCH  85  86
ATOM     86  C   UNL A   1      31.432  22.293  25.545  1.00  0.00     0.076 A 
ATOM     87  C   UNL A   1      31.779  21.153  24.919  1.00  0.00     0.209 A 
ATOM     88  C   UNL A   1      32.353  22.709  26.637  1.00  0.00     0.201 A 
ATOM     89  O   UNL A   1      32.971  20.476  25.156  1.00  0.00    -0.463 OA
ATOM     90  C   UNL A   1      33.761  22.422  26.334  1.00  0.00     0.065 A 
ATOM     91  O   UNL A   1      31.998  23.356  27.611  1.00  0.00    -0.288 OA
ATOM     92  C   UNL A   1      34.009  21.305  25.536  1.00  0.00     0.137 A 
ATOM     93  C   UNL A   1      34.768  23.333  26.646  1.00  0.00     0.016 A 
ATOM     94  C   UNL A   1      35.288  21.083  25.038  1.00  0.00     0.048 A 
ATOM     95  C   UNL A   1      36.041  23.130  26.116  1.00  0.00     0.001 A 
ATOM     96  C   UNL A   1      36.299  22.011  25.315  1.00  0.00     0.004 A 
ENDBRANCH  85  86
ENDBRANCH  80  84
ENDBRANCH  75  78
ENDBRANCH  73  74
ENDBRANCH  72  73
ENDBRANCH   1  72
TORSDOF 16
ENDMDL
MODEL 3
REMARK VINA RESULT:     -12.5      4.700     10.021
REMARK SMILES O=C(NCCCCNC(=O)c1ccccc1/N=C/c1coc2ccccc2c1=O)c1ccc(-c2c3nc(c(-c4cc(S(=O)(=O)[O-])ccc4F)c4ccc([nH]4)c(-c4cc(S(=O)(=O)[O-])ccc4F)c4nc(c(-c5cc(S(=O)(=O)[O-])ccc5F)c5ccc2[nH]5)C=C4)C=C3)cc1
REMARK SMILES IDX 5 1 4 2 3 3 1 4 2 5 30 7 31 8 92 9 32 10 91 11 33 12 34 13
REMARK SMILES IDX 35 14 85 15 36 16 90 17 84 18 86 19 37 20 89 21 83 22 82 23
REMARK SMILES IDX 38 25 70 26 50 27 69 28 51 29 54 30 68 31 87 32 52 33 53 34
REMARK SMILES IDX 67 36 88 37 55 38 39 39 40 40 48 41 41 42 47 43 49 44 46 45
REMARK SMILES IDX 42 46 43 47 44 48 45 49 71 50 72 51 80 52 73 53 79 54 81 55
REMARK SMILES IDX 78 56 74 57 75 58 76 59 77 60 56 61 57 62 65 63 58 64 64 65
REMARK SMILES IDX 66 66 63 67 59 68 60 69 61 70 62 71 6 72 7 73 8 74 9 75
REMARK SMILES IDX 10 77 11 78 12 79 16 80 13 81 15 82 14 83 17 84 18 85 19 86
REMARK SMILES IDX 20 87 28 88 21 89 27 90 29 91 22 92 26 93 23 94 25 95 24 96
REMARK H PARENT 3 6 86 24 54 35 8 76
REMARK Flexibility Score: inf
ROOT
ATOM      1  C   UNL A   1      35.942  22.469  25.108  1.00  0.00     0.023 C 
ENDROOT
BRANCH   1   2
ATOM      2  C   UNL A   1      37.431  22.508  24.770  1.00  0.00     0.116 C 
BRANCH   2   3
ATOM      3  N   UNL A   1      38.184  21.418  25.367  1.00  0.00    -0.352 N 
ATOM      4  O   UNL A   1      39.908  20.437  26.454  1.00  0.00    -0.269 OA
ATOM      5  C   UNL A   1      39.298  21.467  26.173  1.00  0.00     0.251 C 
ATOM      6  H   UNL A   1      37.850  20.514  25.165  1.00  0.00     0.163 HD
BRANCH   5   7
ATOM      7  C   UNL A   1      39.774  22.766  26.708  1.00  0.00     0.039 A 
ATOM      8  C   UNL A   1      39.240  23.971  26.242  1.00  0.00     0.014 A 
ATOM      9  C   UNL A   1      40.743  22.779  27.717  1.00  0.00     0.014 A 
ATOM     10  C   UNL A   1      39.764  25.184  26.687  1.00  0.00     0.010 A 
ATOM     11  C   UNL A   1      41.231  23.998  28.203  1.00  0.00     0.010 A 
ATOM     12  C   UNL A   1      40.773  25.210  27.663  1.00  0.00    -0.014 A 
BRANCH  12  13
ATOM     13  C   UNL A   1      41.333  26.518  28.093  1.00  0.00     0.031 A 
ATOM     14  C   UNL A   1      42.741  26.905  27.727  1.00  0.00     0.074 A 
ATOM     15  C   UNL A   1      40.553  27.382  28.768  1.00  0.00     0.049 A 
ATOM     16  N   UNL A   1      43.371  28.031  27.947  1.00  0.00    -0.248 NA
ATOM     17  C   UNL A   1      43.547  25.893  27.030  1.00  0.00     0.031 C 
ATOM     18  C   UNL A   1      39.179  27.115  29.203  1.00  0.00     0.029 A 
ATOM     19  N   UNL A   1      40.792  28.665  29.188  1.00  0.00    -0.354 N 
ATOM     20  C   UNL A   1      44.651  27.861  27.429  1.00  0.00     0.074 A 
ATOM     21  C   UNL A   1      44.712  26.512  26.906  1.00  0.00     0.031 C 
ATOM     22  C   UNL A   1      38.686  28.215  29.793  1.00  0.00     0.029 A 
ATOM     23  C   UNL A   1      39.711  29.253  29.800  1.00  0.00     0.049 A 
ATOM     24  H   UNL A   1      41.656  29.121  29.063  1.00  0.00     0.167 HD
ATOM     25  C   UNL A   1      45.676  28.749  27.387  1.00  0.00     0.034 A 
ATOM     26  C   UNL A   1      39.560  30.493  30.303  1.00  0.00     0.034 A 
ATOM     27  C   UNL A   1      45.611  30.094  27.900  1.00  0.00     0.049 A 
ATOM     28  C   UNL A   1      40.699  31.469  30.211  1.00  0.00     0.074 A 
ATOM     29  C   UNL A   1      46.589  31.074  27.890  1.00  0.00     0.029 A 
ATOM     30  N   UNL A   1      44.499  30.652  28.516  1.00  0.00    -0.354 N 
ATOM     31  N   UNL A   1      41.899  31.291  29.714  1.00  0.00    -0.248 NA
ATOM     32  C   UNL A   1      40.457  32.815  30.745  1.00  0.00     0.031 C 
ATOM     33  C   UNL A   1      46.081  32.212  28.531  1.00  0.00     0.029 A 
ATOM     34  C   UNL A   1      44.772  31.956  28.903  1.00  0.00     0.049 A 
ATOM     35  H   UNL A   1      43.642  30.190  28.659  1.00  0.00     0.167 HD
ATOM     36  C   UNL A   1      42.558  32.503  29.879  1.00  0.00     0.074 A 
ATOM     37  C   UNL A   1      41.615  33.411  30.500  1.00  0.00     0.031 C 
ATOM     38  C   UNL A   1      43.831  32.836  29.549  1.00  0.00     0.034 A 
BRANCH  25  39
ATOM     39  C   UNL A   1      46.973  28.263  26.794  1.00  0.00     0.023 A 
ATOM     40  C   UNL A   1      47.168  28.195  25.404  1.00  0.00     0.031 A 
ATOM     41  C   UNL A   1      48.016  27.834  27.633  1.00  0.00     0.131 A 
ATOM     42  C   UNL A   1      48.359  27.657  24.893  1.00  0.00     0.055 A 
ATOM     43  C   UNL A   1      49.221  27.353  27.119  1.00  0.00     0.041 A 
ATOM     44  F   UNL A   1      47.874  27.860  28.968  1.00  0.00    -0.206 F 
ATOM     45  C   UNL A   1      49.393  27.253  25.740  1.00  0.00     0.022 A 
BRANCH  42  46
ATOM     46  S   UNL A   1      48.500  27.402  23.103  1.00  0.00     0.124 S 
ATOM     47  O   UNL A   1      48.336  25.954  22.997  1.00  0.00    -0.237 OA
ATOM     48  O   UNL A   1      47.404  28.209  22.579  1.00  0.00    -0.237 OA
ATOM     49  O   UNL A   1      49.841  27.895  22.792  1.00  0.00    -0.744 OA
ENDBRANCH  42  46
ENDBRANCH  25  39
BRANCH  26  50
ATOM     50  C   UNL A   1      38.281  30.880  30.952  1.00  0.00     0.023 A 
ATOM     51  C   UNL A   1      37.305  31.605  30.252  1.00  0.00     0.031 A 
ATOM     52  C   UNL A   1      38.030  30.537  32.290  1.00  0.00     0.131 A 
ATOM     53  C   UNL A   1      36.124  31.988  30.906  1.00  0.00     0.055 A 
ATOM     54  C   UNL A   1      36.844  30.899  32.929  1.00  0.00     0.041 A 
ATOM     55  F   UNL A   1      38.934  29.834  32.991  1.00  0.00    -0.206 F 
ATOM     56  C   UNL A   1      35.886  31.635  32.238  1.00  0.00     0.022 A 
BRANCH  53  57
ATOM     57  S   UNL A   1      34.916  32.994  30.001  1.00  0.00     0.124 S 
ATOM     58  O   UNL A   1      34.291  32.007  29.128  1.00  0.00    -0.237 OA
ATOM     59  O   UNL A   1      34.083  33.511  31.083  1.00  0.00    -0.237 OA
ATOM     60  O   UNL A   1      35.742  33.991  29.323  1.00  0.00    -0.744 OA
ENDBRANCH  53  57
ENDBRANCH  26  50
BRANCH  38  61
ATOM     61  C   UNL A   1      44.256  34.244  29.859  1.00  0.00     0.023 A 
ATOM     62  C   UNL A   1      43.964  35.303  28.983  1.00  0.00     0.031 A 
ATOM     63  C   UNL A   1      44.993  34.522  31.023  1.00  0.00     0.131 A 
ATOM     64  C   UNL A   1      44.443  36.590  29.260  1.00  0.00     0.055 A 
ATOM     65  C   UNL A   1      45.439  35.813  31.312  1.00  0.00     0.041 A 
ATOM     66  F   UNL A   1      45.301  33.542  31.887  1.00  0.00    -0.206 F 
ATOM     67  C   UNL A   1      45.173  36.852  30.424  1.00  0.00     0.022 A 
BRANCH  64  68
ATOM     68  S   UNL A   1      44.162  37.907  28.044  1.00  0.00     0.124 S 
ATOM     69  O   UNL A   1      43.819  37.150  26.846  1.00  0.00    -0.237 OA
ATOM     70  O   UNL A   1      43.075  38.666  28.653  1.00  0.00    -0.237 OA
ATOM     71  O   UNL A   1      45.448  38.602  27.989  1.00  0.00    -0.744 OA
ENDBRANCH  64  68
ENDBRANCH  38  61
ENDBRANCH  12  13
ENDBRANCH   5   7
ENDBRANCH   2   3
ENDBRANCH   1   2
BRANCH   1  72
ATOM     72  C   UNL A   1      35.459  23.431  26.197  1.00  0.00     0.023 C 
BRANCH  72  73
ATOM     73  C   UNL A   1      34.735  24.689  25.726  1.00  0.00     0.116 C 
BRANCH  73  74
ATOM     74  N   UNL A   1      33.403  24.852  26.283  1.00  0.00    -0.352 N 
ATOM     75  C   UNL A   1      32.290  24.083  26.077  1.00  0.00     0.253 C 
ATOM     76  H   UNL A   1      33.287  25.618  26.892  1.00  0.00     0.163 HD
ATOM     77  O   UNL A   1      31.270  24.273  26.735  1.00  0.00    -0.269 OA
BRANCH  75  78
ATOM     78  C   UNL A   1      32.265  23.050  25.033  1.00  0.00     0.065 A 
ATOM     79  C   UNL A   1      32.165  21.720  25.476  1.00  0.00     0.016 A 
ATOM     80  C   UNL A   1      32.377  23.334  23.669  1.00  0.00     0.076 A 
ATOM     81  C   UNL A   1      32.138  20.668  24.559  1.00  0.00     0.001 A 
ATOM     82  C   UNL A   1      32.356  22.257  22.766  1.00  0.00     0.029 A 
ATOM     83  C   UNL A   1      32.238  20.937  23.200  1.00  0.00     0.002 A 
BRANCH  80  84
ATOM     84  N   UNL A   1      32.327  24.589  23.071  1.00  0.00    -0.255 NA
ATOM     85  C   UNL A   1      31.249  25.254  22.812  1.00  0.00     0.127 C 
BRANCH  85  86
ATOM     86  C   UNL A   1      31.484  26.609  22.258  1.00  0.00     0.076 A 
ATOM     87  C   UNL A   1      30.443  27.418  22.534  1.00  0.00     0.209 A 
ATOM     88  C   UNL A   1      32.823  27.221  22.474  1.00  0.00     0.201 A 
ATOM     89  O   UNL A   1      30.578  28.677  23.110  1.00  0.00    -0.463 OA
ATOM     90  C   UNL A   1      32.858  28.114  23.640  1.00  0.00     0.065 A 
ATOM     91  O   UNL A   1      33.822  26.902  21.847  1.00  0.00    -0.288 OA
ATOM     92  C   UNL A   1      31.675  28.786  23.944  1.00  0.00     0.137 A 
ATOM     93  C   UNL A   1      33.945  28.121  24.512  1.00  0.00     0.016 A 
ATOM     94  C   UNL A   1      31.565  29.487  25.139  1.00  0.00     0.048 A 
ATOM     95  C   UNL A   1      33.822  28.792  25.728  1.00  0.00     0.001 A 
ATOM     96  C   UNL A   1      32.637  29.470  26.040  1.00  0.00     0.004 A 
ENDBRANCH  85  86
ENDBRANCH  80  84
ENDBRANCH  75  78
ENDBRANCH  73  74
ENDBRANCH  72  73
ENDBRANCH   1  72
TORSDOF 16
ENDMDL
