MODEL 1
REMARK VINA RESULT:     -12.9      0.000      0.000
REMARK SMILES C[C@@H](C(=O)NCCCCNC(=O)c1ccc(-c2c3nc(c(-c4cc(S(=O)(=O)[O-])ccc4F)c4ccc([nH]4)c(-c4cc(S(=O)(=O)[O-])ccc4F)c4nc(c(-c5cc(S(=O)(=O)[O-])ccc5F)c5ccc2[nH]5)C=C4)C=C3)cc1)c1ccc2c(c1)[nH]c1ccc(Cl)cc12
REMARK SMILES IDX 8 1 7 2 6 3 5 4 3 5 4 6 2 8 1 9 76 10 77 11 81 12 78 13
REMARK SMILES IDX 80 14 79 15 82 16 89 17 83 18 88 20 84 21 86 22 85 23 87 24
REMARK SMILES IDX 9 25 10 26 11 27 12 29 13 30 14 31 75 32 15 33 74 34 16 35
REMARK SMILES IDX 17 36 18 37 68 38 19 39 73 40 67 41 69 42 20 43 72 44 66 45
REMARK SMILES IDX 65 46 21 48 53 49 33 50 52 51 34 52 37 53 51 54 70 55 35 56
REMARK SMILES IDX 36 57 50 59 71 60 38 61 22 62 23 63 31 64 24 65 30 66 32 67
REMARK SMILES IDX 29 68 25 69 26 70 27 71 28 72 54 73 55 74 63 75 56 76 62 77
REMARK SMILES IDX 64 78 61 79 57 80 58 81 59 82 60 83 39 84 40 85 48 86 41 87
REMARK SMILES IDX 47 88 49 89 46 90 42 91 43 92 44 93 45 94
REMARK H PARENT 5 7 82 19 10 28 69 47 37 58
REMARK Flexibility Score: inf
ROOT
ATOM      1  C   UNL A   1      31.562  32.159  26.675  1.00  0.00     0.023 C 
ENDROOT
BRANCH   1   2
ATOM      2  C   UNL A   1      31.677  30.643  26.783  1.00  0.00     0.023 C 
BRANCH   2   3
ATOM      3  C   UNL A   1      32.558  29.972  25.719  1.00  0.00     0.116 C 
BRANCH   3   4
ATOM      4  N   UNL A   1      31.818  29.663  24.505  1.00  0.00    -0.356 N 
ATOM      5  C   UNL A   1      32.161  28.895  23.420  1.00  0.00     0.227 C 
ATOM      6  O   UNL A   1      31.367  28.892  22.479  1.00  0.00    -0.274 OA
ATOM      7  H   UNL A   1      30.924  30.073  24.454  1.00  0.00     0.163 HD
BRANCH   5   8
ATOM      8  C   UNL A   1      33.483  28.099  23.433  1.00  0.00     0.105 C 
ATOM      9  C   UNL A   1      34.194  28.323  22.087  1.00  0.00     0.023 C 
BRANCH   8  10
ATOM     10  C   UNL A   1      33.405  26.588  23.733  1.00  0.00    -0.034 A 
ATOM     11  C   UNL A   1      33.808  26.010  24.946  1.00  0.00     0.005 A 
ATOM     12  C   UNL A   1      32.955  25.721  22.716  1.00  0.00     0.031 A 
ATOM     13  C   UNL A   1      33.681  24.627  25.193  1.00  0.00     0.011 A 
ATOM     14  C   UNL A   1      32.825  24.356  22.975  1.00  0.00     0.047 A 
ATOM     15  C   UNL A   1      33.164  23.779  24.191  1.00  0.00     0.007 A 
ATOM     16  N   UNL A   1      32.366  23.360  22.153  1.00  0.00    -0.355 N 
ATOM     17  C   UNL A   1      32.885  22.377  24.080  1.00  0.00     0.009 A 
ATOM     18  C   UNL A   1      32.408  22.145  22.789  1.00  0.00     0.047 A 
ATOM     19  H   UNL A   1      32.050  23.497  21.231  1.00  0.00     0.167 HD
ATOM     20  C   UNL A   1      33.000  21.276  24.955  1.00  0.00     0.031 A 
ATOM     21  C   UNL A   1      32.059  20.879  22.309  1.00  0.00     0.028 A 
ATOM     22  C   UNL A   1      32.651  20.002  24.489  1.00  0.00     0.041 A 
ATOM     23  C   UNL A   1      32.195  19.804  23.188  1.00  0.00     0.022 A 
ATOM     24  Cl  UNL A   1      32.792  18.646  25.544  1.00  0.00    -0.084 Cl
ENDBRANCH   8  10
ENDBRANCH   5   8
ENDBRANCH   3   4
ENDBRANCH   2   3
ENDBRANCH   1   2
BRANCH   1  25
ATOM     25  C   UNL A   1      32.812  32.920  27.082  1.00  0.00     0.116 C 
BRANCH  25  26
ATOM     26  N   UNL A   1      32.523  34.135  27.830  1.00  0.00    -0.352 N 
ATOM     27  C   UNL A   1      33.203  34.649  28.914  1.00  0.00     0.251 C 
ATOM     28  H   UNL A   1      31.746  34.656  27.522  1.00  0.00     0.163 HD
ATOM     29  O   UNL A   1      32.772  35.622  29.513  1.00  0.00    -0.269 OA
BRANCH  27  30
ATOM     30  C   UNL A   1      34.435  33.963  29.356  1.00  0.00     0.039 A 
ATOM     31  C   UNL A   1      35.676  34.459  28.946  1.00  0.00     0.014 A 
ATOM     32  C   UNL A   1      34.354  32.897  30.254  1.00  0.00     0.014 A 
ATOM     33  C   UNL A   1      36.843  33.939  29.512  1.00  0.00     0.010 A 
ATOM     34  C   UNL A   1      35.509  32.440  30.873  1.00  0.00     0.010 A 
ATOM     35  C   UNL A   1      36.763  32.960  30.515  1.00  0.00    -0.014 A 
BRANCH  35  36
ATOM     36  C   UNL A   1      37.967  32.442  31.214  1.00  0.00     0.031 A 
ATOM     37  C   UNL A   1      38.727  31.294  30.612  1.00  0.00     0.074 A 
ATOM     38  C   UNL A   1      38.290  32.904  32.437  1.00  0.00     0.049 A 
ATOM     39  N   UNL A   1      39.659  30.545  31.139  1.00  0.00    -0.248 NA
ATOM     40  C   UNL A   1      38.338  30.908  29.248  1.00  0.00     0.031 C 
ATOM     41  C   UNL A   1      37.598  33.982  33.145  1.00  0.00     0.029 A 
ATOM     42  N   UNL A   1      39.261  32.498  33.318  1.00  0.00    -0.354 N 
ATOM     43  C   UNL A   1      39.944  29.573  30.185  1.00  0.00     0.074 A 
ATOM     44  C   UNL A   1      39.039  29.798  29.078  1.00  0.00     0.031 C 
ATOM     45  C   UNL A   1      38.162  34.146  34.353  1.00  0.00     0.029 A 
ATOM     46  C   UNL A   1      39.220  33.155  34.524  1.00  0.00     0.049 A 
ATOM     47  H   UNL A   1      39.923  31.800  33.106  1.00  0.00     0.167 HD
ATOM     48  C   UNL A   1      40.884  28.596  30.226  1.00  0.00     0.034 A 
ATOM     49  C   UNL A   1      39.930  32.962  35.653  1.00  0.00     0.034 A 
ATOM     50  C   UNL A   1      41.788  28.407  31.334  1.00  0.00     0.049 A 
ATOM     51  C   UNL A   1      40.977  31.879  35.681  1.00  0.00     0.074 A 
ATOM     52  C   UNL A   1      42.829  27.503  31.455  1.00  0.00     0.029 A 
ATOM     53  N   UNL A   1      41.753  29.131  32.521  1.00  0.00    -0.354 N 
ATOM     54  N   UNL A   1      41.274  30.997  34.756  1.00  0.00    -0.248 NA
ATOM     55  C   UNL A   1      41.789  31.772  36.900  1.00  0.00     0.031 C 
ATOM     56  C   UNL A   1      43.382  27.639  32.733  1.00  0.00     0.029 A 
ATOM     57  C   UNL A   1      42.734  28.676  33.387  1.00  0.00     0.049 A 
ATOM     58  H   UNL A   1      41.122  29.861  32.717  1.00  0.00     0.167 HD
ATOM     59  C   UNL A   1      42.325  30.246  35.271  1.00  0.00     0.074 A 
ATOM     60  C   UNL A   1      42.613  30.782  36.587  1.00  0.00     0.031 C 
ATOM     61  C   UNL A   1      43.002  29.216  34.701  1.00  0.00     0.034 A 
BRANCH  48  62
ATOM     62  C   UNL A   1      40.940  27.648  29.051  1.00  0.00     0.023 A 
ATOM     63  C   UNL A   1      41.907  27.783  28.038  1.00  0.00     0.031 A 
ATOM     64  C   UNL A   1      39.967  26.644  28.897  1.00  0.00     0.131 A 
ATOM     65  C   UNL A   1      41.813  27.011  26.870  1.00  0.00     0.055 A 
ATOM     66  C   UNL A   1      39.939  25.810  27.776  1.00  0.00     0.041 A 
ATOM     67  F   UNL A   1      39.005  26.476  29.818  1.00  0.00    -0.206 F 
ATOM     68  C   UNL A   1      40.850  26.008  26.743  1.00  0.00     0.022 A 
BRANCH  65  69
ATOM     69  S   UNL A   1      42.835  27.478  25.447  1.00  0.00     0.124 S 
ATOM     70  O   UNL A   1      42.030  28.535  24.838  1.00  0.00    -0.237 OA
ATOM     71  O   UNL A   1      44.079  27.904  26.077  1.00  0.00    -0.237 OA
ATOM     72  O   UNL A   1      42.920  26.245  24.666  1.00  0.00    -0.744 OA
ENDBRANCH  65  69
ENDBRANCH  48  62
BRANCH  49  73
ATOM     73  C   UNL A   1      39.655  33.799  36.854  1.00  0.00     0.023 A 
ATOM     74  C   UNL A   1      38.970  33.275  37.960  1.00  0.00     0.031 A 
ATOM     75  C   UNL A   1      40.089  35.135  36.913  1.00  0.00     0.131 A 
ATOM     76  C   UNL A   1      38.714  34.094  39.073  1.00  0.00     0.055 A 
ATOM     77  C   UNL A   1      39.868  35.932  38.036  1.00  0.00     0.041 A 
ATOM     78  F   UNL A   1      40.763  35.675  35.884  1.00  0.00    -0.206 F 
ATOM     79  C   UNL A   1      39.170  35.414  39.123  1.00  0.00     0.022 A 
BRANCH  76  80
ATOM     80  S   UNL A   1      37.749  33.415  40.449  1.00  0.00     0.124 S 
ATOM     81  O   UNL A   1      38.653  32.396  40.972  1.00  0.00    -0.237 OA
ATOM     82  O   UNL A   1      37.553  34.590  41.292  1.00  0.00    -0.237 OA
ATOM     83  O   UNL A   1      36.542  32.907  39.802  1.00  0.00    -0.744 OA
ENDBRANCH  76  80
ENDBRANCH  49  73
BRANCH  61  84
ATOM     84  C   UNL A   1      44.156  28.636  35.478  1.00  0.00     0.023 A 
ATOM     85  C   UNL A   1      43.979  27.607  36.419  1.00  0.00     0.031 A 
ATOM     86  C   UNL A   1      45.460  29.115  35.255  1.00  0.00     0.131 A 
ATOM     87  C   UNL A   1      45.085  27.114  37.130  1.00  0.00     0.055 A 
ATOM     88  C   UNL A   1      46.562  28.586  35.928  1.00  0.00     0.041 A 
ATOM     89  F   UNL A   1      45.683  30.097  34.368  1.00  0.00    -0.206 F 
ATOM     90  C   UNL A   1      46.377  27.586  36.877  1.00  0.00     0.022 A 
BRANCH  87  91
ATOM     91  S   UNL A   1      44.810  25.885  38.434  1.00  0.00     0.124 S 
ATOM     92  O   UNL A   1      44.122  24.821  37.708  1.00  0.00    -0.237 OA
ATOM     93  O   UNL A   1      46.168  25.583  38.872  1.00  0.00    -0.237 OA
ATOM     94  O   UNL A   1      43.989  26.598  39.411  1.00  0.00    -0.744 OA
ENDBRANCH  87  91
ENDBRANCH  61  84
ENDBRANCH  35  36
ENDBRANCH  27  30
ENDBRANCH  25  26
ENDBRANCH   1  25
TORSDOF 15
ENDMDL
MODEL 2
REMARK VINA RESULT:     -12.7      2.492      3.103
REMARK SMILES C[C@@H](C(=O)NCCCCNC(=O)c1ccc(-c2c3nc(c(-c4cc(S(=O)(=O)[O-])ccc4F)c4ccc([nH]4)c(-c4cc(S(=O)(=O)[O-])ccc4F)c4nc(c(-c5cc(S(=O)(=O)[O-])ccc5F)c5ccc2[nH]5)C=C4)C=C3)cc1)c1ccc2c(c1)[nH]c1ccc(Cl)cc12
REMARK SMILES IDX 8 1 7 2 6 3 5 4 3 5 4 6 2 8 1 9 76 10 77 11 81 12 78 13
REMARK SMILES IDX 80 14 79 15 82 16 89 17 83 18 88 20 84 21 86 22 85 23 87 24
REMARK SMILES IDX 9 25 10 26 11 27 12 29 13 30 14 31 75 32 15 33 74 34 16 35
REMARK SMILES IDX 17 36 18 37 68 38 19 39 73 40 67 41 69 42 20 43 72 44 66 45
REMARK SMILES IDX 65 46 21 48 53 49 33 50 52 51 34 52 37 53 51 54 70 55 35 56
REMARK SMILES IDX 36 57 50 59 71 60 38 61 22 62 23 63 31 64 24 65 30 66 32 67
REMARK SMILES IDX 29 68 25 69 26 70 27 71 28 72 54 73 55 74 63 75 56 76 62 77
REMARK SMILES IDX 64 78 61 79 57 80 58 81 59 82 60 83 39 84 40 85 48 86 41 87
REMARK SMILES IDX 47 88 49 89 46 90 42 91 43 92 44 93 45 94
REMARK H PARENT 5 7 82 19 10 28 69 47 37 58
REMARK Flexibility Score: inf
ROOT
ATOM      1  C   UNL A   1      31.409  29.872  26.718  1.00  0.00     0.023 C 
ENDROOT
BRANCH   1   2
ATOM      2  C   UNL A   1      31.878  28.504  27.199  1.00  0.00     0.023 C 
BRANCH   2   3
ATOM      3  C   UNL A   1      31.763  27.369  26.170  1.00  0.00     0.116 C 
BRANCH   3   4
ATOM      4  N   UNL A   1      30.983  26.248  26.672  1.00  0.00    -0.356 N 
ATOM      5  C   UNL A   1      30.797  24.989  26.157  1.00  0.00     0.227 C 
ATOM      6  O   UNL A   1      29.992  24.269  26.751  1.00  0.00    -0.274 OA
ATOM      7  H   UNL A   1      30.512  26.421  27.518  1.00  0.00     0.163 HD
BRANCH   5   8
ATOM      8  C   UNL A   1      31.579  24.551  24.901  1.00  0.00     0.105 C 
ATOM      9  C   UNL A   1      30.648  24.683  23.683  1.00  0.00     0.023 C 
BRANCH   8  10
ATOM     10  C   UNL A   1      32.224  23.150  24.912  1.00  0.00    -0.034 A 
ATOM     11  C   UNL A   1      33.177  22.735  25.853  1.00  0.00     0.005 A 
ATOM     12  C   UNL A   1      31.882  22.243  23.887  1.00  0.00     0.031 A 
ATOM     13  C   UNL A   1      33.711  21.429  25.850  1.00  0.00     0.011 A 
ATOM     14  C   UNL A   1      32.410  20.951  23.899  1.00  0.00     0.047 A 
ATOM     15  C   UNL A   1      33.308  20.508  24.860  1.00  0.00     0.007 A 
ATOM     16  N   UNL A   1      32.174  19.912  23.037  1.00  0.00    -0.355 N 
ATOM     17  C   UNL A   1      33.610  19.141  24.550  1.00  0.00     0.009 A 
ATOM     18  C   UNL A   1      32.902  18.806  23.395  1.00  0.00     0.047 A 
ATOM     19  H   UNL A   1      31.565  19.954  22.265  1.00  0.00     0.167 HD
ATOM     20  C   UNL A   1      34.427  18.153  25.139  1.00  0.00     0.031 A 
ATOM     21  C   UNL A   1      32.975  17.554  22.779  1.00  0.00     0.028 A 
ATOM     22  C   UNL A   1      34.508  16.893  24.534  1.00  0.00     0.041 A 
ATOM     23  C   UNL A   1      33.801  16.598  23.371  1.00  0.00     0.022 A 
ATOM     24  Cl  UNL A   1      35.507  15.677  25.239  1.00  0.00    -0.084 Cl
ENDBRANCH   8  10
ENDBRANCH   5   8
ENDBRANCH   3   4
ENDBRANCH   2   3
ENDBRANCH   1   2
BRANCH   1  25
ATOM     25  C   UNL A   1      32.529  30.838  26.368  1.00  0.00     0.116 C 
BRANCH  25  26
ATOM     26  N   UNL A   1      32.264  32.201  26.805  1.00  0.00    -0.352 N 
ATOM     27  C   UNL A   1      33.044  33.003  27.611  1.00  0.00     0.251 C 
ATOM     28  H   UNL A   1      31.424  32.601  26.483  1.00  0.00     0.163 HD
ATOM     29  O   UNL A   1      32.635  34.090  27.989  1.00  0.00    -0.269 OA
BRANCH  27  30
ATOM     30  C   UNL A   1      34.362  32.491  28.041  1.00  0.00     0.039 A 
ATOM     31  C   UNL A   1      35.475  33.333  27.975  1.00  0.00     0.014 A 
ATOM     32  C   UNL A   1      34.465  31.215  28.601  1.00  0.00     0.014 A 
ATOM     33  C   UNL A   1      36.678  32.927  28.557  1.00  0.00     0.010 A 
ATOM     34  C   UNL A   1      35.635  30.849  29.248  1.00  0.00     0.010 A 
ATOM     35  C   UNL A   1      36.752  31.702  29.240  1.00  0.00    -0.014 A 
BRANCH  35  36
ATOM     36  C   UNL A   1      37.979  31.265  29.954  1.00  0.00     0.031 A 
ATOM     37  C   UNL A   1      38.854  30.215  29.333  1.00  0.00     0.074 A 
ATOM     38  C   UNL A   1      38.225  31.704  31.203  1.00  0.00     0.049 A 
ATOM     39  N   UNL A   1      39.836  29.531  29.859  1.00  0.00    -0.248 NA
ATOM     40  C   UNL A   1      38.538  29.851  27.944  1.00  0.00     0.031 C 
ATOM     41  C   UNL A   1      37.420  32.687  31.931  1.00  0.00     0.029 A 
ATOM     42  N   UNL A   1      39.205  31.351  32.097  1.00  0.00    -0.354 N 
ATOM     43  C   UNL A   1      40.232  28.628  28.878  1.00  0.00     0.074 A 
ATOM     44  C   UNL A   1      39.340  28.816  27.753  1.00  0.00     0.031 C 
ATOM     45  C   UNL A   1      37.935  32.852  33.160  1.00  0.00     0.029 A 
ATOM     46  C   UNL A   1      39.073  31.953  33.326  1.00  0.00     0.049 A 
ATOM     47  H   UNL A   1      39.933  30.724  31.879  1.00  0.00     0.167 HD
ATOM     48  C   UNL A   1      41.255  27.738  28.910  1.00  0.00     0.034 A 
ATOM     49  C   UNL A   1      39.768  31.778  34.467  1.00  0.00     0.034 A 
ATOM     50  C   UNL A   1      42.143  27.584  30.037  1.00  0.00     0.049 A 
ATOM     51  C   UNL A   1      40.906  30.793  34.486  1.00  0.00     0.074 A 
ATOM     52  C   UNL A   1      43.258  26.773  30.155  1.00  0.00     0.029 A 
ATOM     53  N   UNL A   1      42.011  28.254  31.248  1.00  0.00    -0.354 N 
ATOM     54  N   UNL A   1      41.306  29.978  33.537  1.00  0.00    -0.248 NA
ATOM     55  C   UNL A   1      41.692  30.709  35.724  1.00  0.00     0.031 C 
ATOM     56  C   UNL A   1      43.761  26.905  31.454  1.00  0.00     0.029 A 
ATOM     57  C   UNL A   1      43.006  27.854  32.127  1.00  0.00     0.049 A 
ATOM     58  H   UNL A   1      41.312  28.917  31.453  1.00  0.00     0.167 HD
ATOM     59  C   UNL A   1      42.407  29.303  34.055  1.00  0.00     0.074 A 
ATOM     60  C   UNL A   1      42.609  29.809  35.399  1.00  0.00     0.031 C 
ATOM     61  C   UNL A   1      43.188  28.362  33.468  1.00  0.00     0.034 A 
BRANCH  48  62
ATOM     62  C   UNL A   1      41.428  26.846  27.702  1.00  0.00     0.023 A 
ATOM     63  C   UNL A   1      40.944  25.526  27.682  1.00  0.00     0.031 A 
ATOM     64  C   UNL A   1      42.154  27.294  26.584  1.00  0.00     0.131 A 
ATOM     65  C   UNL A   1      41.287  24.667  26.628  1.00  0.00     0.055 A 
ATOM     66  C   UNL A   1      42.408  26.463  25.489  1.00  0.00     0.041 A 
ATOM     67  F   UNL A   1      42.660  28.536  26.548  1.00  0.00    -0.206 F 
ATOM     68  C   UNL A   1      41.995  25.134  25.518  1.00  0.00     0.022 A 
BRANCH  65  69
ATOM     69  S   UNL A   1      40.971  22.893  26.825  1.00  0.00     0.124 S 
ATOM     70  O   UNL A   1      41.858  22.320  25.814  1.00  0.00    -0.237 OA
ATOM     71  O   UNL A   1      41.348  22.657  28.214  1.00  0.00    -0.237 OA
ATOM     72  O   UNL A   1      39.545  22.763  26.533  1.00  0.00    -0.744 OA
ENDBRANCH  65  69
ENDBRANCH  48  62
BRANCH  49  73
ATOM     73  C   UNL A   1      39.386  32.538  35.690  1.00  0.00     0.023 A 
ATOM     74  C   UNL A   1      39.810  33.861  35.884  1.00  0.00     0.031 A 
ATOM     75  C   UNL A   1      38.579  31.947  36.678  1.00  0.00     0.131 A 
ATOM     76  C   UNL A   1      39.444  34.545  37.055  1.00  0.00     0.055 A 
ATOM     77  C   UNL A   1      38.185  32.645  37.821  1.00  0.00     0.041 A 
ATOM     78  F   UNL A   1      38.136  30.688  36.529  1.00  0.00    -0.206 F 
ATOM     79  C   UNL A   1      38.625  33.950  38.018  1.00  0.00     0.022 A 
BRANCH  76  80
ATOM     80  S   UNL A   1      40.081  36.222  37.317  1.00  0.00     0.124 S 
ATOM     81  O   UNL A   1      39.916  36.813  35.993  1.00  0.00    -0.237 OA
ATOM     82  O   UNL A   1      39.191  36.726  38.359  1.00  0.00    -0.237 OA
ATOM     83  O   UNL A   1      41.463  36.001  37.736  1.00  0.00    -0.744 OA
ENDBRANCH  76  80
ENDBRANCH  49  73
BRANCH  61  84
ATOM     84  C   UNL A   1      44.369  27.856  34.257  1.00  0.00     0.023 A 
ATOM     85  C   UNL A   1      44.286  26.714  35.071  1.00  0.00     0.031 A 
ATOM     86  C   UNL A   1      45.604  28.525  34.173  1.00  0.00     0.131 A 
ATOM     87  C   UNL A   1      45.411  26.294  35.800  1.00  0.00     0.055 A 
ATOM     88  C   UNL A   1      46.731  28.074  34.860  1.00  0.00     0.041 A 
ATOM     89  F   UNL A   1      45.735  29.621  33.410  1.00  0.00    -0.206 F 
ATOM     90  C   UNL A   1      46.637  26.958  35.686  1.00  0.00     0.022 A 
BRANCH  87  91
ATOM     91  S   UNL A   1      45.241  24.901  36.947  1.00  0.00     0.124 S 
ATOM     92  O   UNL A   1      44.753  23.842  36.068  1.00  0.00    -0.237 OA
ATOM     93  O   UNL A   1      46.601  24.739  37.448  1.00  0.00    -0.237 OA
ATOM     94  O   UNL A   1      44.273  25.383  37.931  1.00  0.00    -0.744 OA
ENDBRANCH  87  91
ENDBRANCH  61  84
ENDBRANCH  35  36
ENDBRANCH  27  30
ENDBRANCH  25  26
ENDBRANCH   1  25
TORSDOF 15
ENDMDL
MODEL 3
REMARK VINA RESULT:     -12.6      6.373     10.688
REMARK SMILES C[C@@H](C(=O)NCCCCNC(=O)c1ccc(-c2c3nc(c(-c4cc(S(=O)(=O)[O-])ccc4F)c4ccc([nH]4)c(-c4cc(S(=O)(=O)[O-])ccc4F)c4nc(c(-c5cc(S(=O)(=O)[O-])ccc5F)c5ccc2[nH]5)C=C4)C=C3)cc1)c1ccc2c(c1)[nH]c1ccc(Cl)cc12
REMARK SMILES IDX 8 1 7 2 6 3 5 4 3 5 4 6 2 8 1 9 76 10 77 11 81 12 78 13
REMARK SMILES IDX 80 14 79 15 82 16 89 17 83 18 88 20 84 21 86 22 85 23 87 24
REMARK SMILES IDX 9 25 10 26 11 27 12 29 13 30 14 31 75 32 15 33 74 34 16 35
REMARK SMILES IDX 17 36 18 37 68 38 19 39 73 40 67 41 69 42 20 43 72 44 66 45
REMARK SMILES IDX 65 46 21 48 53 49 33 50 52 51 34 52 37 53 51 54 70 55 35 56
REMARK SMILES IDX 36 57 50 59 71 60 38 61 22 62 23 63 31 64 24 65 30 66 32 67
REMARK SMILES IDX 29 68 25 69 26 70 27 71 28 72 54 73 55 74 63 75 56 76 62 77
REMARK SMILES IDX 64 78 61 79 57 80 58 81 59 82 60 83 39 84 40 85 48 86 41 87
REMARK SMILES IDX 47 88 49 89 46 90 42 91 43 92 44 93 45 94
REMARK H PARENT 5 7 82 19 10 28 69 47 37 58
REMARK Flexibility Score: inf
ROOT
ATOM      1  C   UNL A   1      41.005  20.447  27.391  1.00  0.00     0.023 C 
ENDROOT
BRANCH   1   2
ATOM      2  C   UNL A   1      42.297  19.660  27.202  1.00  0.00     0.023 C 
BRANCH   2   3
ATOM      3  C   UNL A   1      42.812  19.576  25.757  1.00  0.00     0.116 C 
BRANCH   3   4
ATOM      4  N   UNL A   1      44.220  19.929  25.653  1.00  0.00    -0.356 N 
ATOM      5  C   UNL A   1      44.829  21.155  25.556  1.00  0.00     0.227 C 
ATOM      6  O   UNL A   1      46.048  21.149  25.377  1.00  0.00    -0.274 OA
ATOM      7  H   UNL A   1      44.837  19.162  25.651  1.00  0.00     0.163 HD
BRANCH   5   8
ATOM      8  C   UNL A   1      43.983  22.441  25.672  1.00  0.00     0.105 C 
ATOM      9  C   UNL A   1      44.369  23.378  24.514  1.00  0.00     0.023 C 
BRANCH   8  10
ATOM     10  C   UNL A   1      44.037  23.215  27.005  1.00  0.00    -0.034 A 
ATOM     11  C   UNL A   1      42.912  23.489  27.796  1.00  0.00     0.005 A 
ATOM     12  C   UNL A   1      45.278  23.729  27.437  1.00  0.00     0.031 A 
ATOM     13  C   UNL A   1      43.013  24.165  29.031  1.00  0.00     0.011 A 
ATOM     14  C   UNL A   1      45.367  24.389  28.664  1.00  0.00     0.047 A 
ATOM     15  C   UNL A   1      44.271  24.613  29.484  1.00  0.00     0.007 A 
ATOM     16  N   UNL A   1      46.469  24.915  29.284  1.00  0.00    -0.355 N 
ATOM     17  C   UNL A   1      44.754  25.301  30.647  1.00  0.00     0.009 A 
ATOM     18  C   UNL A   1      46.127  25.491  30.481  1.00  0.00     0.047 A 
ATOM     19  H   UNL A   1      47.384  24.884  28.920  1.00  0.00     0.167 HD
ATOM     20  C   UNL A   1      44.153  25.788  31.826  1.00  0.00     0.031 A 
ATOM     21  C   UNL A   1      46.933  26.157  31.408  1.00  0.00     0.028 A 
ATOM     22  C   UNL A   1      44.949  26.454  32.766  1.00  0.00     0.041 A 
ATOM     23  C   UNL A   1      46.313  26.643  32.560  1.00  0.00     0.022 A 
ATOM     24  Cl  UNL A   1      44.227  27.060  34.210  1.00  0.00    -0.084 Cl
ENDBRANCH   8  10
ENDBRANCH   5   8
ENDBRANCH   3   4
ENDBRANCH   2   3
ENDBRANCH   1   2
BRANCH   1  25
ATOM     25  C   UNL A   1      40.695  21.433  26.278  1.00  0.00     0.116 C 
BRANCH  25  26
ATOM     26  N   UNL A   1      39.267  21.632  26.074  1.00  0.00    -0.352 N 
ATOM     27  C   UNL A   1      38.528  22.775  26.296  1.00  0.00     0.251 C 
ATOM     28  H   UNL A   1      38.768  20.855  25.734  1.00  0.00     0.163 HD
ATOM     29  O   UNL A   1      37.311  22.758  26.189  1.00  0.00    -0.269 OA
BRANCH  27  30
ATOM     30  C   UNL A   1      39.241  24.000  26.711  1.00  0.00     0.039 A 
ATOM     31  C   UNL A   1      39.928  24.748  25.751  1.00  0.00     0.014 A 
ATOM     32  C   UNL A   1      39.139  24.453  28.028  1.00  0.00     0.014 A 
ATOM     33  C   UNL A   1      40.438  26.002  26.094  1.00  0.00     0.010 A 
ATOM     34  C   UNL A   1      39.575  25.732  28.344  1.00  0.00     0.010 A 
ATOM     35  C   UNL A   1      40.222  26.522  27.381  1.00  0.00    -0.014 A 
BRANCH  35  36
ATOM     36  C   UNL A   1      40.663  27.887  27.768  1.00  0.00     0.031 A 
ATOM     37  C   UNL A   1      42.128  28.215  27.757  1.00  0.00     0.074 A 
ATOM     38  C   UNL A   1      39.771  28.771  28.255  1.00  0.00     0.049 A 
ATOM     39  N   UNL A   1      42.754  29.248  28.255  1.00  0.00    -0.248 NA
ATOM     40  C   UNL A   1      43.010  27.209  27.146  1.00  0.00     0.031 C 
ATOM     41  C   UNL A   1      38.328  28.550  28.360  1.00  0.00     0.029 A 
ATOM     42  N   UNL A   1      39.955  30.023  28.788  1.00  0.00    -0.354 N 
ATOM     43  C   UNL A   1      44.108  29.001  28.053  1.00  0.00     0.074 A 
ATOM     44  C   UNL A   1      44.206  27.691  27.443  1.00  0.00     0.031 C 
ATOM     45  C   UNL A   1      37.760  29.626  28.929  1.00  0.00     0.029 A 
ATOM     46  C   UNL A   1      38.801  30.589  29.273  1.00  0.00     0.049 A 
ATOM     47  H   UNL A   1      40.832  30.471  28.820  1.00  0.00     0.167 HD
ATOM     48  C   UNL A   1      45.167  29.800  28.337  1.00  0.00     0.034 A 
ATOM     49  C   UNL A   1      38.605  31.739  29.948  1.00  0.00     0.034 A 
ATOM     50  C   UNL A   1      45.040  31.110  28.927  1.00  0.00     0.049 A 
ATOM     51  C   UNL A   1      39.788  32.621  30.249  1.00  0.00     0.074 A 
ATOM     52  C   UNL A   1      46.032  32.039  29.188  1.00  0.00     0.029 A 
ATOM     53  N   UNL A   1      43.845  31.675  29.356  1.00  0.00    -0.354 N 
ATOM     54  N   UNL A   1      41.060  32.402  30.010  1.00  0.00    -0.248 NA
ATOM     55  C   UNL A   1      39.510  33.906  30.901  1.00  0.00     0.031 C 
ATOM     56  C   UNL A   1      45.446  33.137  29.829  1.00  0.00     0.029 A 
ATOM     57  C   UNL A   1      44.078  32.927  29.905  1.00  0.00     0.049 A 
ATOM     58  H   UNL A   1      42.960  31.248  29.281  1.00  0.00     0.167 HD
ATOM     59  C   UNL A   1      41.732  33.534  30.459  1.00  0.00     0.074 A 
ATOM     60  C   UNL A   1      40.723  34.435  30.980  1.00  0.00     0.031 C 
ATOM     61  C   UNL A   1      43.061  33.810  30.429  1.00  0.00     0.034 A 
BRANCH  48  62
ATOM     62  C   UNL A   1      46.542  29.247  28.043  1.00  0.00     0.023 A 
ATOM     63  C   UNL A   1      46.969  28.988  26.728  1.00  0.00     0.031 A 
ATOM     64  C   UNL A   1      47.411  28.899  29.093  1.00  0.00     0.131 A 
ATOM     65  C   UNL A   1      48.170  28.299  26.502  1.00  0.00     0.055 A 
ATOM     66  C   UNL A   1      48.652  28.303  28.856  1.00  0.00     0.041 A 
ATOM     67  F   UNL A   1      47.055  29.101  30.371  1.00  0.00    -0.206 F 
ATOM     68  C   UNL A   1      49.027  27.977  27.556  1.00  0.00     0.022 A 
BRANCH  65  69
ATOM     69  S   UNL A   1      48.491  27.655  24.837  1.00  0.00     0.124 S 
ATOM     70  O   UNL A   1      48.457  26.212  25.067  1.00  0.00    -0.237 OA
ATOM     71  O   UNL A   1      47.383  28.206  24.066  1.00  0.00    -0.237 OA
ATOM     72  O   UNL A   1      49.810  28.193  24.510  1.00  0.00    -0.744 OA
ENDBRANCH  65  69
ENDBRANCH  48  62
BRANCH  49  73
ATOM     73  C   UNL A   1      37.236  32.106  30.405  1.00  0.00     0.023 A 
ATOM     74  C   UNL A   1      36.351  32.797  29.564  1.00  0.00     0.031 A 
ATOM     75  C   UNL A   1      36.792  31.756  31.693  1.00  0.00     0.131 A 
ATOM     76  C   UNL A   1      35.071  33.140  30.031  1.00  0.00     0.055 A 
ATOM     77  C   UNL A   1      35.505  32.064  32.137  1.00  0.00     0.041 A 
ATOM     78  F   UNL A   1      37.598  31.081  32.528  1.00  0.00    -0.206 F 
ATOM     79  C   UNL A   1      34.638  32.767  31.306  1.00  0.00     0.022 A 
BRANCH  76  80
ATOM     80  S   UNL A   1      33.983  34.109  28.952  1.00  0.00     0.124 S 
ATOM     81  O   UNL A   1      33.530  33.099  28.001  1.00  0.00    -0.237 OA
ATOM     82  O   UNL A   1      32.980  34.599  29.892  1.00  0.00    -0.237 OA
ATOM     83  O   UNL A   1      34.870  35.132  28.403  1.00  0.00    -0.744 OA
ENDBRANCH  76  80
ENDBRANCH  49  73
BRANCH  61  84
ATOM     84  C   UNL A   1      43.495  35.165  30.928  1.00  0.00     0.023 A 
ATOM     85  C   UNL A   1      43.537  36.289  30.087  1.00  0.00     0.031 A 
ATOM     86  C   UNL A   1      43.855  35.330  32.278  1.00  0.00     0.131 A 
ATOM     87  C   UNL A   1      43.965  37.526  30.597  1.00  0.00     0.055 A 
ATOM     88  C   UNL A   1      44.232  36.571  32.790  1.00  0.00     0.041 A 
ATOM     89  F   UNL A   1      43.832  34.287  33.122  1.00  0.00    -0.206 F 
ATOM     90  C   UNL A   1      44.297  37.676  31.946  1.00  0.00     0.022 A 
BRANCH  87  91
ATOM     91  S   UNL A   1      44.142  38.927  29.460  1.00  0.00     0.124 S 
ATOM     92  O   UNL A   1      45.590  39.099  29.412  1.00  0.00    -0.237 OA
ATOM     93  O   UNL A   1      43.518  38.423  28.241  1.00  0.00    -0.237 OA
ATOM     94  O   UNL A   1      43.413  40.005  30.128  1.00  0.00    -0.744 OA
ENDBRANCH  87  91
ENDBRANCH  61  84
ENDBRANCH  35  36
ENDBRANCH  27  30
ENDBRANCH  25  26
ENDBRANCH   1  25
TORSDOF 15
ENDMDL
