MODEL 1
REMARK VINA RESULT:     -12.6      0.000      0.000
REMARK SMILES Cc1ccc(C(=O)N2CCC3(CCC(=O)N(CC(=O)NCCCCNC(=O)c4ccc(-c5c6nc(c(-c7cc(S(=O)(=O)[O-])ccc7F)c7ccc([nH]7)c(-c7cc(S(=O)(=O)[O-])ccc7F)c7nc(c(-c8cc(S(=O)(=O)[O-])ccc8F)c8ccc5[nH]8)C=C7)C=C6)cc4)C3)CC2)cc1O
REMARK SMILES IDX 22 1 21 2 20 3 18 4 19 5 17 7 16 8 6 9 7 10 8 11 9 12 93 13
REMARK SMILES IDX 10 14 92 15 11 16 12 17 91 18 13 19 14 20 15 21 5 22 1 23
REMARK SMILES IDX 2 24 3 25 95 26 4 27 94 28 96 29 23 31 24 32 25 33 26 34
REMARK SMILES IDX 27 36 28 37 29 38 90 39 30 40 89 41 31 42 32 43 33 44 83 45
REMARK SMILES IDX 34 46 88 47 82 48 84 49 35 50 87 51 81 52 80 53 36 55 68 56
REMARK SMILES IDX 48 57 67 58 49 59 52 60 66 61 85 62 50 63 51 64 65 66 86 67
REMARK SMILES IDX 53 68 37 69 38 70 46 71 39 72 45 73 47 74 44 75 40 76 41 77
REMARK SMILES IDX 42 78 43 79 69 80 70 81 78 82 71 83 77 84 79 85 76 86 72 87
REMARK SMILES IDX 73 88 74 89 75 90 54 91 55 92 63 93 56 94 62 95 64 96 61 97
REMARK SMILES IDX 57 98 58 99 59 100 60 101
REMARK H PARENT 20 6 96 30 25 35 84 54 52 65
REMARK Flexibility Score: inf
ROOT
ATOM      1  C   UNL A   1      34.832  30.689  27.921  1.00  0.00     0.023 C 
ENDROOT
BRANCH   1   2
ATOM      2  C   UNL A   1      34.507  29.379  27.209  1.00  0.00     0.116 C 
BRANCH   2   3
ATOM      3  N   UNL A   1      33.250  28.822  27.648  1.00  0.00    -0.355 N 
ATOM      4  C   UNL A   1      32.037  28.824  27.025  1.00  0.00     0.239 C 
ATOM      5  O   UNL A   1      31.164  28.084  27.489  1.00  0.00    -0.273 OA
ATOM      6  H   UNL A   1      33.271  28.377  28.526  1.00  0.00     0.163 HD
BRANCH   4   7
ATOM      7  C   UNL A   1      31.831  29.548  25.687  1.00  0.00     0.219 C 
BRANCH   7   8
ATOM      8  N   UNL A   1      31.809  28.760  24.447  1.00  0.00    -0.333 N 
ATOM      9  C   UNL A   1      33.937  22.758  24.920  1.00  0.00     0.253 C 
ATOM     10  O   UNL A   1      33.215  21.966  25.526  1.00  0.00    -0.269 OA
ATOM     11  N   UNL A   1      33.405  23.825  24.198  1.00  0.00    -0.339 N 
ATOM     12  C   UNL A   1      32.079  24.301  24.559  1.00  0.00     0.120 C 
ATOM     13  C   UNL A   1      33.963  24.418  22.986  1.00  0.00     0.120 C 
ATOM     14  C   UNL A   1      32.152  25.802  24.813  1.00  0.00     0.030 C 
ATOM     15  C   UNL A   1      34.022  25.944  23.094  1.00  0.00     0.030 C 
ATOM     16  C   UNL A   1      32.702  26.594  23.598  1.00  0.00    -0.008 C 
ATOM     17  C   UNL A   1      31.687  26.701  22.444  1.00  0.00     0.019 C 
ATOM     18  C   UNL A   1      33.001  28.040  24.028  1.00  0.00     0.127 C 
ATOM     19  C   UNL A   1      30.431  27.473  22.827  1.00  0.00     0.101 C 
ATOM     20  C   UNL A   1      30.602  28.644  23.781  1.00  0.00     0.223 C 
ATOM     21  O   UNL A   1      29.642  29.371  24.028  1.00  0.00    -0.275 OA
BRANCH   9  22
ATOM     22  C   UNL A   1      35.411  22.615  25.095  1.00  0.00     0.043 A 
ATOM     23  C   UNL A   1      39.539  21.851  26.154  1.00  0.00     0.048 C 
ATOM     24  C   UNL A   1      38.117  22.103  25.745  1.00  0.00    -0.009 A 
ATOM     25  C   UNL A   1      37.522  23.330  26.064  1.00  0.00     0.008 A 
ATOM     26  C   UNL A   1      37.333  21.137  25.104  1.00  0.00     0.119 A 
ATOM     27  C   UNL A   1      36.179  23.574  25.763  1.00  0.00     0.014 A 
ATOM     28  C   UNL A   1      36.003  21.390  24.768  1.00  0.00     0.060 A 
BRANCH  26  29
ATOM     29  O   UNL A   1      37.804  19.889  24.807  1.00  0.00    -0.508 OA
ATOM     30  H   UNL A   1      37.215  19.160  24.784  1.00  0.00     0.293 HD
ENDBRANCH  26  29
ENDBRANCH   9  22
ENDBRANCH   7   8
ENDBRANCH   4   7
ENDBRANCH   2   3
ENDBRANCH   1   2
BRANCH   1  31
ATOM     31  C   UNL A   1      34.239  31.941  27.271  1.00  0.00     0.023 C 
BRANCH  31  32
ATOM     32  C   UNL A   1      32.877  32.382  27.800  1.00  0.00     0.116 C 
BRANCH  32  33
ATOM     33  N   UNL A   1      32.738  33.826  27.895  1.00  0.00    -0.352 N 
ATOM     34  C   UNL A   1      33.467  34.714  28.649  1.00  0.00     0.251 C 
ATOM     35  H   UNL A   1      32.024  34.221  27.346  1.00  0.00     0.163 HD
ATOM     36  O   UNL A   1      33.131  35.896  28.683  1.00  0.00    -0.269 OA
BRANCH  34  37
ATOM     37  C   UNL A   1      34.620  34.237  29.445  1.00  0.00     0.039 A 
ATOM     38  C   UNL A   1      34.376  33.450  30.574  1.00  0.00     0.014 A 
ATOM     39  C   UNL A   1      35.931  34.543  29.071  1.00  0.00     0.014 A 
ATOM     40  C   UNL A   1      35.450  32.906  31.283  1.00  0.00     0.010 A 
ATOM     41  C   UNL A   1      36.998  33.950  29.743  1.00  0.00     0.010 A 
ATOM     42  C   UNL A   1      36.768  33.120  30.851  1.00  0.00    -0.014 A 
BRANCH  42  43
ATOM     43  C   UNL A   1      37.915  32.467  31.533  1.00  0.00     0.031 A 
ATOM     44  C   UNL A   1      38.629  31.316  30.882  1.00  0.00     0.074 A 
ATOM     45  C   UNL A   1      38.255  32.857  32.777  1.00  0.00     0.049 A 
ATOM     46  N   UNL A   1      39.602  30.573  31.347  1.00  0.00    -0.248 NA
ATOM     47  C   UNL A   1      38.162  30.928  29.543  1.00  0.00     0.031 C 
ATOM     48  C   UNL A   1      37.593  33.917  33.540  1.00  0.00     0.029 A 
ATOM     49  N   UNL A   1      39.228  32.395  33.627  1.00  0.00    -0.354 N 
ATOM     50  C   UNL A   1      39.851  29.618  30.368  1.00  0.00     0.074 A 
ATOM     51  C   UNL A   1      38.888  29.845  29.310  1.00  0.00     0.031 C 
ATOM     52  C   UNL A   1      38.183  34.029  34.740  1.00  0.00     0.029 A 
ATOM     53  C   UNL A   1      39.243  33.031  34.846  1.00  0.00     0.049 A 
ATOM     54  H   UNL A   1      39.857  31.677  33.386  1.00  0.00     0.167 HD
ATOM     55  C   UNL A   1      40.805  28.653  30.347  1.00  0.00     0.034 A 
ATOM     56  C   UNL A   1      40.012  32.826  35.932  1.00  0.00     0.034 A 
ATOM     57  C   UNL A   1      41.766  28.452  31.405  1.00  0.00     0.049 A 
ATOM     58  C   UNL A   1      41.077  31.762  35.884  1.00  0.00     0.074 A 
ATOM     59  C   UNL A   1      42.832  27.569  31.448  1.00  0.00     0.029 A 
ATOM     60  N   UNL A   1      41.770  29.134  32.616  1.00  0.00    -0.354 N 
ATOM     61  N   UNL A   1      41.356  30.918  34.917  1.00  0.00    -0.248 NA
ATOM     62  C   UNL A   1      41.940  31.635  37.065  1.00  0.00     0.031 C 
ATOM     63  C   UNL A   1      43.439  27.672  32.705  1.00  0.00     0.029 A 
ATOM     64  C   UNL A   1      42.797  28.668  33.424  1.00  0.00     0.049 A 
ATOM     65  H   UNL A   1      41.137  29.846  32.864  1.00  0.00     0.167 HD
ATOM     66  C   UNL A   1      42.439  30.171  35.368  1.00  0.00     0.074 A 
ATOM     67  C   UNL A   1      42.772  30.677  36.685  1.00  0.00     0.031 C 
ATOM     68  C   UNL A   1      43.102  29.162  34.747  1.00  0.00     0.034 A 
BRANCH  55  69
ATOM     69  C   UNL A   1      40.829  27.731  29.150  1.00  0.00     0.023 A 
ATOM     70  C   UNL A   1      41.758  27.897  28.107  1.00  0.00     0.031 A 
ATOM     71  C   UNL A   1      39.881  26.700  29.026  1.00  0.00     0.131 A 
ATOM     72  C   UNL A   1      41.662  27.111  26.949  1.00  0.00     0.055 A 
ATOM     73  C   UNL A   1      39.844  25.865  27.907  1.00  0.00     0.041 A 
ATOM     74  F   UNL A   1      38.957  26.504  29.979  1.00  0.00    -0.206 F 
ATOM     75  C   UNL A   1      40.726  26.079  26.851  1.00  0.00     0.022 A 
BRANCH  72  76
ATOM     76  S   UNL A   1      42.668  27.565  25.509  1.00  0.00     0.124 S 
ATOM     77  O   UNL A   1      42.535  26.375  24.671  1.00  0.00    -0.237 OA
ATOM     78  O   UNL A   1      42.000  28.766  25.024  1.00  0.00    -0.237 OA
ATOM     79  O   UNL A   1      44.000  27.773  26.073  1.00  0.00    -0.744 OA
ENDBRANCH  72  76
ENDBRANCH  55  69
BRANCH  56  80
ATOM     80  C   UNL A   1      39.795  33.636  37.163  1.00  0.00     0.023 A 
ATOM     81  C   UNL A   1      39.003  33.156  38.216  1.00  0.00     0.031 A 
ATOM     82  C   UNL A   1      40.377  34.909  37.296  1.00  0.00     0.131 A 
ATOM     83  C   UNL A   1      38.786  33.958  39.347  1.00  0.00     0.055 A 
ATOM     84  C   UNL A   1      40.191  35.687  38.438  1.00  0.00     0.041 A 
ATOM     85  F   UNL A   1      41.154  35.404  36.320  1.00  0.00    -0.206 F 
ATOM     86  C   UNL A   1      39.383  35.216  39.470  1.00  0.00     0.022 A 
BRANCH  83  87
ATOM     87  S   UNL A   1      37.673  33.351  40.643  1.00  0.00     0.124 S 
ATOM     88  O   UNL A   1      38.511  32.368  41.321  1.00  0.00    -0.237 OA
ATOM     89  O   UNL A   1      37.384  34.571  41.389  1.00  0.00    -0.237 OA
ATOM     90  O   UNL A   1      36.545  32.801  39.894  1.00  0.00    -0.744 OA
ENDBRANCH  83  87
ENDBRANCH  56  80
BRANCH  68  91
ATOM     91  C   UNL A   1      44.272  28.562  35.485  1.00  0.00     0.023 A 
ATOM     92  C   UNL A   1      44.099  27.551  36.447  1.00  0.00     0.031 A 
ATOM     93  C   UNL A   1      45.577  29.022  35.236  1.00  0.00     0.131 A 
ATOM     94  C   UNL A   1      45.206  27.069  37.162  1.00  0.00     0.055 A 
ATOM     95  C   UNL A   1      46.681  28.501  35.912  1.00  0.00     0.041 A 
ATOM     96  F   UNL A   1      45.799  29.990  34.332  1.00  0.00    -0.206 F 
ATOM     97  C   UNL A   1      46.497  27.527  36.889  1.00  0.00     0.022 A 
BRANCH  94  98
ATOM     98  S   UNL A   1      44.925  25.894  38.515  1.00  0.00     0.124 S 
ATOM     99  O   UNL A   1      44.566  24.679  37.792  1.00  0.00    -0.237 OA
ATOM    100  O   UNL A   1      46.219  25.878  39.188  1.00  0.00    -0.237 OA
ATOM    101  O   UNL A   1      43.837  26.505  39.279  1.00  0.00    -0.744 OA
ENDBRANCH  94  98
ENDBRANCH  68  91
ENDBRANCH  42  43
ENDBRANCH  34  37
ENDBRANCH  32  33
ENDBRANCH  31  32
ENDBRANCH   1  31
TORSDOF 17
ENDMDL
MODEL 2
REMARK VINA RESULT:     -12.4      1.077      7.518
REMARK SMILES Cc1ccc(C(=O)N2CCC3(CCC(=O)N(CC(=O)NCCCCNC(=O)c4ccc(-c5c6nc(c(-c7cc(S(=O)(=O)[O-])ccc7F)c7ccc([nH]7)c(-c7cc(S(=O)(=O)[O-])ccc7F)c7nc(c(-c8cc(S(=O)(=O)[O-])ccc8F)c8ccc5[nH]8)C=C7)C=C6)cc4)C3)CC2)cc1O
REMARK SMILES IDX 22 1 21 2 20 3 18 4 19 5 17 7 16 8 6 9 7 10 8 11 9 12 93 13
REMARK SMILES IDX 10 14 92 15 11 16 12 17 91 18 13 19 14 20 15 21 5 22 1 23
REMARK SMILES IDX 2 24 3 25 95 26 4 27 94 28 96 29 23 31 24 32 25 33 26 34
REMARK SMILES IDX 27 36 28 37 29 38 90 39 30 40 89 41 31 42 32 43 33 44 83 45
REMARK SMILES IDX 34 46 88 47 82 48 84 49 35 50 87 51 81 52 80 53 36 55 68 56
REMARK SMILES IDX 48 57 67 58 49 59 52 60 66 61 85 62 50 63 51 64 65 66 86 67
REMARK SMILES IDX 53 68 37 69 38 70 46 71 39 72 45 73 47 74 44 75 40 76 41 77
REMARK SMILES IDX 42 78 43 79 69 80 70 81 78 82 71 83 77 84 79 85 76 86 72 87
REMARK SMILES IDX 73 88 74 89 75 90 54 91 55 92 63 93 56 94 62 95 64 96 61 97
REMARK SMILES IDX 57 98 58 99 59 100 60 101
REMARK H PARENT 20 6 96 30 25 35 84 54 52 65
REMARK Flexibility Score: inf
ROOT
ATOM      1  C   UNL A   1      34.733  31.481  28.062  1.00  0.00     0.023 C 
ENDROOT
BRANCH   1   2
ATOM      2  C   UNL A   1      34.553  30.207  27.242  1.00  0.00     0.116 C 
BRANCH   2   3
ATOM      3  N   UNL A   1      33.374  29.473  27.633  1.00  0.00    -0.355 N 
ATOM      4  C   UNL A   1      32.183  29.337  26.982  1.00  0.00     0.239 C 
ATOM      5  O   UNL A   1      31.407  28.472  27.401  1.00  0.00    -0.273 OA
ATOM      6  H   UNL A   1      33.437  29.004  28.496  1.00  0.00     0.163 HD
BRANCH   4   7
ATOM      7  C   UNL A   1      31.908  30.074  25.664  1.00  0.00     0.219 C 
BRANCH   7   8
ATOM      8  N   UNL A   1      31.840  29.301  24.416  1.00  0.00    -0.333 N 
ATOM      9  C   UNL A   1      33.606  23.179  24.830  1.00  0.00     0.253 C 
ATOM     10  O   UNL A   1      32.838  22.426  25.429  1.00  0.00    -0.269 OA
ATOM     11  N   UNL A   1      33.139  24.283  24.119  1.00  0.00    -0.339 N 
ATOM     12  C   UNL A   1      31.844  24.833  24.485  1.00  0.00     0.120 C 
ATOM     13  C   UNL A   1      33.732  24.853  22.913  1.00  0.00     0.120 C 
ATOM     14  C   UNL A   1      32.006  26.325  24.754  1.00  0.00     0.030 C 
ATOM     15  C   UNL A   1      33.881  26.372  23.036  1.00  0.00     0.030 C 
ATOM     16  C   UNL A   1      32.602  27.094  23.546  1.00  0.00    -0.008 C 
ATOM     17  C   UNL A   1      31.596  27.273  22.394  1.00  0.00     0.019 C 
ATOM     18  C   UNL A   1      32.986  28.516  23.990  1.00  0.00     0.127 C 
ATOM     19  C   UNL A   1      30.387  28.115  22.784  1.00  0.00     0.101 C 
ATOM     20  C   UNL A   1      30.628  29.264  23.749  1.00  0.00     0.223 C 
ATOM     21  O   UNL A   1      29.713  30.044  24.003  1.00  0.00    -0.275 OA
BRANCH   9  22
ATOM     22  C   UNL A   1      35.069  22.947  25.003  1.00  0.00     0.043 A 
ATOM     23  C   UNL A   1      39.149  21.993  26.093  1.00  0.00     0.048 C 
ATOM     24  C   UNL A   1      37.742  22.306  25.675  1.00  0.00    -0.009 A 
ATOM     25  C   UNL A   1      37.243  23.599  25.874  1.00  0.00     0.008 A 
ATOM     26  C   UNL A   1      36.880  21.341  25.142  1.00  0.00     0.119 A 
ATOM     27  C   UNL A   1      35.915  23.909  25.564  1.00  0.00     0.014 A 
ATOM     28  C   UNL A   1      35.566  21.655  24.796  1.00  0.00     0.060 A 
BRANCH  26  29
ATOM     29  O   UNL A   1      37.254  20.038  24.968  1.00  0.00    -0.508 OA
ATOM     30  H   UNL A   1      36.671  19.347  25.213  1.00  0.00     0.293 HD
ENDBRANCH  26  29
ENDBRANCH   9  22
ENDBRANCH   7   8
ENDBRANCH   4   7
ENDBRANCH   2   3
ENDBRANCH   1   2
BRANCH   1  31
ATOM     31  C   UNL A   1      33.556  32.456  28.005  1.00  0.00     0.023 C 
BRANCH  31  32
ATOM     32  C   UNL A   1      33.921  33.939  28.007  1.00  0.00     0.116 C 
BRANCH  32  33
ATOM     33  N   UNL A   1      33.196  34.707  29.006  1.00  0.00    -0.352 N 
ATOM     34  C   UNL A   1      33.433  34.806  30.357  1.00  0.00     0.251 C 
ATOM     35  H   UNL A   1      32.430  35.225  28.671  1.00  0.00     0.163 HD
ATOM     36  O   UNL A   1      32.642  35.424  31.065  1.00  0.00    -0.269 OA
BRANCH  34  37
ATOM     37  C   UNL A   1      34.610  34.136  30.952  1.00  0.00     0.039 A 
ATOM     38  C   UNL A   1      34.407  33.013  31.758  1.00  0.00     0.014 A 
ATOM     39  C   UNL A   1      35.906  34.596  30.702  1.00  0.00     0.014 A 
ATOM     40  C   UNL A   1      35.507  32.305  32.250  1.00  0.00     0.010 A 
ATOM     41  C   UNL A   1      37.001  33.855  31.142  1.00  0.00     0.010 A 
ATOM     42  C   UNL A   1      36.812  32.698  31.914  1.00  0.00    -0.014 A 
BRANCH  42  43
ATOM     43  C   UNL A   1      37.989  31.900  32.344  1.00  0.00     0.031 A 
ATOM     44  C   UNL A   1      38.701  32.227  33.626  1.00  0.00     0.074 A 
ATOM     45  C   UNL A   1      38.465  30.935  31.533  1.00  0.00     0.049 A 
ATOM     46  N   UNL A   1      39.784  31.694  34.132  1.00  0.00    -0.248 NA
ATOM     47  C   UNL A   1      38.139  33.324  34.426  1.00  0.00     0.031 C 
ATOM     48  C   UNL A   1      37.901  30.570  30.232  1.00  0.00     0.029 A 
ATOM     49  N   UNL A   1      39.544  30.099  31.672  1.00  0.00    -0.354 N 
ATOM     50  C   UNL A   1      40.045  32.402  35.301  1.00  0.00     0.074 A 
ATOM     51  C   UNL A   1      39.036  33.437  35.393  1.00  0.00     0.031 C 
ATOM     52  C   UNL A   1      38.633  29.580  29.697  1.00  0.00     0.029 A 
ATOM     53  C   UNL A   1      39.735  29.261  30.598  1.00  0.00     0.049 A 
ATOM     54  H   UNL A   1      40.126  30.098  32.466  1.00  0.00     0.167 HD
ATOM     55  C   UNL A   1      41.024  32.196  36.217  1.00  0.00     0.034 A 
ATOM     56  C   UNL A   1      40.696  28.348  30.359  1.00  0.00     0.034 A 
ATOM     57  C   UNL A   1      42.012  31.148  36.115  1.00  0.00     0.049 A 
ATOM     58  C   UNL A   1      41.764  28.121  31.396  1.00  0.00     0.074 A 
ATOM     59  C   UNL A   1      42.989  30.790  37.027  1.00  0.00     0.029 A 
ATOM     60  N   UNL A   1      42.158  30.298  35.025  1.00  0.00    -0.354 N 
ATOM     61  N   UNL A   1      41.951  28.744  32.537  1.00  0.00    -0.248 NA
ATOM     62  C   UNL A   1      42.738  27.059  31.120  1.00  0.00     0.031 C 
ATOM     63  C   UNL A   1      43.764  29.769  36.465  1.00  0.00     0.029 A 
ATOM     64  C   UNL A   1      43.230  29.440  35.228  1.00  0.00     0.049 A 
ATOM     65  H   UNL A   1      41.585  30.302  34.225  1.00  0.00     0.167 HD
ATOM     66  C   UNL A   1      43.056  28.136  33.122  1.00  0.00     0.074 A 
ATOM     67  C   UNL A   1      43.480  27.087  32.217  1.00  0.00     0.031 C 
ATOM     68  C   UNL A   1      43.661  28.416  34.305  1.00  0.00     0.034 A 
BRANCH  55  69
ATOM     69  C   UNL A   1      41.081  33.145  37.392  1.00  0.00     0.023 A 
ATOM     70  C   UNL A   1      40.443  32.852  38.611  1.00  0.00     0.031 A 
ATOM     71  C   UNL A   1      41.743  34.380  37.278  1.00  0.00     0.131 A 
ATOM     72  C   UNL A   1      40.401  33.815  39.630  1.00  0.00     0.055 A 
ATOM     73  C   UNL A   1      41.769  35.301  38.328  1.00  0.00     0.041 A 
ATOM     74  F   UNL A   1      42.354  34.725  36.134  1.00  0.00    -0.206 F 
ATOM     75  C   UNL A   1      41.080  35.029  39.507  1.00  0.00     0.022 A 
BRANCH  72  76
ATOM     76  S   UNL A   1      39.309  33.524  41.049  1.00  0.00     0.124 S 
ATOM     77  O   UNL A   1      40.178  33.886  42.168  1.00  0.00    -0.237 OA
ATOM     78  O   UNL A   1      38.199  34.430  40.783  1.00  0.00    -0.237 OA
ATOM     79  O   UNL A   1      38.993  32.101  40.954  1.00  0.00    -0.744 OA
ENDBRANCH  72  76
ENDBRANCH  55  69
BRANCH  56  80
ATOM     80  C   UNL A   1      40.699  27.588  29.078  1.00  0.00     0.023 A 
ATOM     81  C   UNL A   1      41.595  27.909  28.048  1.00  0.00     0.031 A 
ATOM     82  C   UNL A   1      39.796  26.532  28.867  1.00  0.00     0.131 A 
ATOM     83  C   UNL A   1      41.550  27.200  26.838  1.00  0.00     0.055 A 
ATOM     84  C   UNL A   1      39.780  25.804  27.677  1.00  0.00     0.041 A 
ATOM     85  F   UNL A   1      38.928  26.180  29.829  1.00  0.00    -0.206 F 
ATOM     86  C   UNL A   1      40.655  26.143  26.649  1.00  0.00     0.022 A 
BRANCH  83  87
ATOM     87  S   UNL A   1      42.650  27.708  25.490  1.00  0.00     0.124 S 
ATOM     88  O   UNL A   1      41.951  28.871  24.955  1.00  0.00    -0.237 OA
ATOM     89  O   UNL A   1      43.895  27.979  26.201  1.00  0.00    -0.237 OA
ATOM     90  O   UNL A   1      42.680  26.539  24.614  1.00  0.00    -0.744 OA
ENDBRANCH  83  87
ENDBRANCH  56  80
BRANCH  68  91
ATOM     91  C   UNL A   1      44.833  27.549  34.691  1.00  0.00     0.023 A 
ATOM     92  C   UNL A   1      44.658  26.326  35.363  1.00  0.00     0.031 A 
ATOM     93  C   UNL A   1      46.145  27.963  34.400  1.00  0.00     0.131 A 
ATOM     94  C   UNL A   1      45.778  25.584  35.767  1.00  0.00     0.055 A 
ATOM     95  C   UNL A   1      47.254  27.194  34.756  1.00  0.00     0.041 A 
ATOM     96  F   UNL A   1      46.369  29.124  33.764  1.00  0.00    -0.206 F 
ATOM     97  C   UNL A   1      47.074  26.003  35.454  1.00  0.00     0.022 A 
BRANCH  94  98
ATOM     98  S   UNL A   1      45.523  24.104  36.783  1.00  0.00     0.124 S 
ATOM     99  O   UNL A   1      46.887  23.615  36.955  1.00  0.00    -0.237 OA
ATOM    100  O   UNL A   1      44.886  24.649  37.976  1.00  0.00    -0.237 OA
ATOM    101  O   UNL A   1      44.663  23.261  35.952  1.00  0.00    -0.744 OA
ENDBRANCH  94  98
ENDBRANCH  68  91
ENDBRANCH  42  43
ENDBRANCH  34  37
ENDBRANCH  32  33
ENDBRANCH  31  32
ENDBRANCH   1  31
TORSDOF 17
ENDMDL
MODEL 3
REMARK VINA RESULT:     -12.3      1.839      2.387
REMARK SMILES Cc1ccc(C(=O)N2CCC3(CCC(=O)N(CC(=O)NCCCCNC(=O)c4ccc(-c5c6nc(c(-c7cc(S(=O)(=O)[O-])ccc7F)c7ccc([nH]7)c(-c7cc(S(=O)(=O)[O-])ccc7F)c7nc(c(-c8cc(S(=O)(=O)[O-])ccc8F)c8ccc5[nH]8)C=C7)C=C6)cc4)C3)CC2)cc1O
REMARK SMILES IDX 22 1 21 2 20 3 18 4 19 5 17 7 16 8 6 9 7 10 8 11 9 12 93 13
REMARK SMILES IDX 10 14 92 15 11 16 12 17 91 18 13 19 14 20 15 21 5 22 1 23
REMARK SMILES IDX 2 24 3 25 95 26 4 27 94 28 96 29 23 31 24 32 25 33 26 34
REMARK SMILES IDX 27 36 28 37 29 38 90 39 30 40 89 41 31 42 32 43 33 44 83 45
REMARK SMILES IDX 34 46 88 47 82 48 84 49 35 50 87 51 81 52 80 53 36 55 68 56
REMARK SMILES IDX 48 57 67 58 49 59 52 60 66 61 85 62 50 63 51 64 65 66 86 67
REMARK SMILES IDX 53 68 37 69 38 70 46 71 39 72 45 73 47 74 44 75 40 76 41 77
REMARK SMILES IDX 42 78 43 79 69 80 70 81 78 82 71 83 77 84 79 85 76 86 72 87
REMARK SMILES IDX 73 88 74 89 75 90 54 91 55 92 63 93 56 94 62 95 64 96 61 97
REMARK SMILES IDX 57 98 58 99 59 100 60 101
REMARK H PARENT 20 6 96 30 25 35 84 54 52 65
REMARK Flexibility Score: inf
ROOT
ATOM      1  C   UNL A   1      32.106  30.333  27.053  1.00  0.00     0.023 C 
ENDROOT
BRANCH   1   2
ATOM      2  C   UNL A   1      31.809  29.595  25.752  1.00  0.00     0.116 C 
BRANCH   2   3
ATOM      3  N   UNL A   1      33.016  29.184  25.075  1.00  0.00    -0.355 N 
ATOM      4  C   UNL A   1      33.219  28.914  23.754  1.00  0.00     0.239 C 
ATOM      5  O   UNL A   1      34.389  28.806  23.374  1.00  0.00    -0.273 OA
ATOM      6  H   UNL A   1      33.807  29.082  25.651  1.00  0.00     0.163 HD
BRANCH   4   7
ATOM      7  C   UNL A   1      32.060  28.953  22.746  1.00  0.00     0.219 C 
BRANCH   7   8
ATOM      8  N   UNL A   1      31.076  27.863  22.751  1.00  0.00    -0.333 N 
ATOM      9  C   UNL A   1      32.290  23.027  26.739  1.00  0.00     0.253 C 
ATOM     10  O   UNL A   1      32.153  23.258  27.941  1.00  0.00    -0.269 OA
ATOM     11  N   UNL A   1      31.510  23.667  25.778  1.00  0.00    -0.339 N 
ATOM     12  C   UNL A   1      30.905  24.942  26.129  1.00  0.00     0.120 C 
ATOM     13  C   UNL A   1      31.080  23.112  24.499  1.00  0.00     0.120 C 
ATOM     14  C   UNL A   1      31.286  25.970  25.069  1.00  0.00     0.030 C 
ATOM     15  C   UNL A   1      31.347  24.092  23.353  1.00  0.00     0.030 C 
ATOM     16  C   UNL A   1      30.867  25.544  23.638  1.00  0.00    -0.008 C 
ATOM     17  C   UNL A   1      29.349  25.658  23.399  1.00  0.00     0.019 C 
ATOM     18  C   UNL A   1      31.522  26.486  22.615  1.00  0.00     0.127 C 
ATOM     19  C   UNL A   1      28.836  27.089  23.503  1.00  0.00     0.101 C 
ATOM     20  C   UNL A   1      29.755  28.191  23.002  1.00  0.00     0.223 C 
ATOM     21  O   UNL A   1      29.344  29.349  22.954  1.00  0.00    -0.275 OA
BRANCH   9  22
ATOM     22  C   UNL A   1      33.416  22.134  26.337  1.00  0.00     0.043 A 
ATOM     23  C   UNL A   1      36.734  19.939  24.628  1.00  0.00     0.048 C 
ATOM     24  C   UNL A   1      35.604  20.700  25.260  1.00  0.00    -0.009 A 
ATOM     25  C   UNL A   1      34.293  20.238  25.095  1.00  0.00     0.008 A 
ATOM     26  C   UNL A   1      35.800  21.894  25.964  1.00  0.00     0.119 A 
ATOM     27  C   UNL A   1      33.211  20.959  25.607  1.00  0.00     0.014 A 
ATOM     28  C   UNL A   1      34.725  22.597  26.510  1.00  0.00     0.060 A 
BRANCH  26  29
ATOM     29  O   UNL A   1      37.034  22.458  26.126  1.00  0.00    -0.508 OA
ATOM     30  H   UNL A   1      37.144  23.382  26.015  1.00  0.00     0.293 HD
ENDBRANCH  26  29
ENDBRANCH   9  22
ENDBRANCH   7   8
ENDBRANCH   4   7
ENDBRANCH   2   3
ENDBRANCH   1   2
BRANCH   1  31
ATOM     31  C   UNL A   1      31.634  31.788  27.090  1.00  0.00     0.023 C 
BRANCH  31  32
ATOM     32  C   UNL A   1      32.699  32.840  26.788  1.00  0.00     0.116 C 
BRANCH  32  33
ATOM     33  N   UNL A   1      32.527  34.067  27.548  1.00  0.00    -0.352 N 
ATOM     34  C   UNL A   1      33.238  34.515  28.635  1.00  0.00     0.251 C 
ATOM     35  H   UNL A   1      31.800  34.657  27.244  1.00  0.00     0.163 HD
ATOM     36  O   UNL A   1      32.875  35.535  29.216  1.00  0.00    -0.269 OA
BRANCH  34  37
ATOM     37  C   UNL A   1      34.407  33.748  29.121  1.00  0.00     0.039 A 
ATOM     38  C   UNL A   1      35.689  34.230  28.843  1.00  0.00     0.014 A 
ATOM     39  C   UNL A   1      34.242  32.575  29.863  1.00  0.00     0.014 A 
ATOM     40  C   UNL A   1      36.804  33.577  29.375  1.00  0.00     0.010 A 
ATOM     41  C   UNL A   1      35.351  31.962  30.442  1.00  0.00     0.010 A 
ATOM     42  C   UNL A   1      36.642  32.460  30.210  1.00  0.00    -0.014 A 
BRANCH  42  43
ATOM     43  C   UNL A   1      37.809  31.817  30.866  1.00  0.00     0.031 A 
ATOM     44  C   UNL A   1      38.604  30.768  30.140  1.00  0.00     0.074 A 
ATOM     45  C   UNL A   1      38.098  32.117  32.147  1.00  0.00     0.049 A 
ATOM     46  N   UNL A   1      39.607  30.044  30.568  1.00  0.00    -0.248 NA
ATOM     47  C   UNL A   1      38.191  30.470  28.761  1.00  0.00     0.031 C 
ATOM     48  C   UNL A   1      37.358  33.069  32.978  1.00  0.00     0.029 A 
ATOM     49  N   UNL A   1      39.076  31.640  32.982  1.00  0.00    -0.354 N 
ATOM     50  C   UNL A   1      39.934  29.191  29.519  1.00  0.00     0.074 A 
ATOM     51  C   UNL A   1      38.984  29.454  28.458  1.00  0.00     0.031 C 
ATOM     52  C   UNL A   1      37.913  33.111  34.200  1.00  0.00     0.029 A 
ATOM     53  C   UNL A   1      39.026  32.169  34.250  1.00  0.00     0.049 A 
ATOM     54  H   UNL A   1      39.752  30.981  32.699  1.00  0.00     0.167 HD
ATOM     55  C   UNL A   1      40.943  28.287  29.443  1.00  0.00     0.034 A 
ATOM     56  C   UNL A   1      39.781  31.915  35.336  1.00  0.00     0.034 A 
ATOM     57  C   UNL A   1      41.890  28.050  30.507  1.00  0.00     0.049 A 
ATOM     58  C   UNL A   1      40.907  30.921  35.228  1.00  0.00     0.074 A 
ATOM     59  C   UNL A   1      43.004  27.228  30.505  1.00  0.00     0.029 A 
ATOM     60  N   UNL A   1      41.826  28.625  31.771  1.00  0.00    -0.354 N 
ATOM     61  N   UNL A   1      41.256  30.180  34.201  1.00  0.00    -0.248 NA
ATOM     62  C   UNL A   1      41.748  30.742  36.417  1.00  0.00     0.031 C 
ATOM     63  C   UNL A   1      43.575  27.257  31.783  1.00  0.00     0.029 A 
ATOM     64  C   UNL A   1      42.860  28.149  32.565  1.00  0.00     0.049 A 
ATOM     65  H   UNL A   1      41.147  29.276  32.060  1.00  0.00     0.167 HD
ATOM     66  C   UNL A   1      42.370  29.459  34.618  1.00  0.00     0.074 A 
ATOM     67  C   UNL A   1      42.643  29.868  35.981  1.00  0.00     0.031 C 
ATOM     68  C   UNL A   1      43.105  28.546  33.933  1.00  0.00     0.034 A 
BRANCH  55  69
ATOM     69  C   UNL A   1      41.048  27.473  28.174  1.00  0.00     0.023 A 
ATOM     70  C   UNL A   1      40.733  26.102  28.147  1.00  0.00     0.031 A 
ATOM     71  C   UNL A   1      41.513  28.064  26.986  1.00  0.00     0.131 A 
ATOM     72  C   UNL A   1      40.975  25.350  26.988  1.00  0.00     0.055 A 
ATOM     73  C   UNL A   1      41.671  27.326  25.810  1.00  0.00     0.041 A 
ATOM     74  F   UNL A   1      41.847  29.363  26.954  1.00  0.00    -0.206 F 
ATOM     75  C   UNL A   1      41.419  25.957  25.810  1.00  0.00     0.022 A 
BRANCH  72  76
ATOM     76  S   UNL A   1      40.856  23.543  27.089  1.00  0.00     0.124 S 
ATOM     77  O   UNL A   1      39.409  23.340  27.066  1.00  0.00    -0.237 OA
ATOM     78  O   UNL A   1      41.582  23.113  25.900  1.00  0.00    -0.237 OA
ATOM     79  O   UNL A   1      41.499  23.228  28.363  1.00  0.00    -0.744 OA
ENDBRANCH  72  76
ENDBRANCH  55  69
BRANCH  56  80
ATOM     80  C   UNL A   1      39.489  32.603  36.624  1.00  0.00     0.023 A 
ATOM     81  C   UNL A   1      38.527  32.101  37.513  1.00  0.00     0.031 A 
ATOM     82  C   UNL A   1      40.170  33.782  36.978  1.00  0.00     0.131 A 
ATOM     83  C   UNL A   1      38.248  32.792  38.701  1.00  0.00     0.055 A 
ATOM     84  C   UNL A   1      39.916  34.445  38.179  1.00  0.00     0.041 A 
ATOM     85  F   UNL A   1      41.108  34.293  36.165  1.00  0.00    -0.206 F 
ATOM     86  C   UNL A   1      38.943  33.956  39.045  1.00  0.00     0.022 A 
BRANCH  83  87
ATOM     87  S   UNL A   1      36.926  32.173  39.777  1.00  0.00     0.124 S 
ATOM     88  O   UNL A   1      35.750  32.333  38.929  1.00  0.00    -0.237 OA
ATOM     89  O   UNL A   1      37.355  30.802  40.025  1.00  0.00    -0.237 OA
ATOM     90  O   UNL A   1      36.986  33.061  40.936  1.00  0.00    -0.744 OA
ENDBRANCH  83  87
ENDBRANCH  56  80
BRANCH  68  91
ATOM     91  C   UNL A   1      44.292  27.951  34.650  1.00  0.00     0.023 A 
ATOM     92  C   UNL A   1      44.191  26.748  35.371  1.00  0.00     0.031 A 
ATOM     93  C   UNL A   1      45.534  28.608  34.627  1.00  0.00     0.131 A 
ATOM     94  C   UNL A   1      45.300  26.266  36.083  1.00  0.00     0.055 A 
ATOM     95  C   UNL A   1      46.649  28.095  35.292  1.00  0.00     0.041 A 
ATOM     96  F   UNL A   1      45.684  29.762  33.957  1.00  0.00    -0.206 F 
ATOM     97  C   UNL A   1      46.532  26.924  36.035  1.00  0.00     0.022 A 
BRANCH  94  98
ATOM     98  S   UNL A   1      45.089  24.810  37.143  1.00  0.00     0.124 S 
ATOM     99  O   UNL A   1      44.160  25.303  38.155  1.00  0.00    -0.237 OA
ATOM    100  O   UNL A   1      44.555  23.820  36.214  1.00  0.00    -0.237 OA
ATOM    101  O   UNL A   1      46.443  24.538  37.626  1.00  0.00    -0.744 OA
ENDBRANCH  94  98
ENDBRANCH  68  91
ENDBRANCH  42  43
ENDBRANCH  34  37
ENDBRANCH  32  33
ENDBRANCH  31  32
ENDBRANCH   1  31
TORSDOF 17
ENDMDL
