MODEL 1
REMARK VINA RESULT:     -11.9      0.000      0.000
REMARK SMILES CC[C@@](C)([NH3+])C(=O)Nc1cc(C(=O)NCCCCNC(=O)c2ccc(-c3c4nc(c(-c5cc(S(=O)(=O)[O-])ccc5F)c5ccc([nH]5)c(-c5cc(S(=O)(=O)[O-])ccc5F)c5nc(c(-c6cc(S(=O)(=O)[O-])ccc6F)c6ccc3[nH]6)C=C5)C=C4)cc2)cc(C(F)(F)F)c1
REMARK SMILES IDX 16 1 15 2 14 3 12 4 13 5 11 7 9 8 10 9 91 10 86 11 85 12
REMARK SMILES IDX 8 13 6 14 7 15 3 17 4 18 2 19 1 20 5 21 87 25 88 26 89 27
REMARK SMILES IDX 90 28 17 29 18 30 19 31 20 32 21 34 22 35 23 36 84 37 24 38
REMARK SMILES IDX 83 39 25 40 26 41 27 42 77 43 28 44 82 45 76 46 78 47 29 48
REMARK SMILES IDX 81 49 75 50 74 51 30 53 62 54 42 55 61 56 43 57 46 58 60 59
REMARK SMILES IDX 79 60 44 61 45 62 59 64 80 65 47 66 31 67 32 68 40 69 33 70
REMARK SMILES IDX 39 71 41 72 38 73 34 74 35 75 36 76 37 77 63 78 64 79 72 80
REMARK SMILES IDX 65 81 71 82 73 83 70 84 66 85 67 86 68 87 69 88 48 89 49 90
REMARK SMILES IDX 57 91 50 92 56 93 58 94 55 95 51 96 52 97 53 98 54 99
REMARK H PARENT 14 6 8 16 5 22 5 23 5 24 19 33 78 52 46 63
REMARK Flexibility Score: inf
ROOT
ATOM      1  C   UNL A   1      34.320  21.228  26.639  1.00  0.00     0.023 C 
ENDROOT
BRANCH   1   2
ATOM      2  C   UNL A   1      33.923  22.323  27.612  1.00  0.00     0.116 C 
BRANCH   2   3
ATOM      3  N   UNL A   1      32.491  22.521  27.800  1.00  0.00    -0.352 N 
ATOM      4  C   UNL A   1      31.564  23.206  27.034  1.00  0.00     0.251 C 
ATOM      5  O   UNL A   1      30.386  23.233  27.379  1.00  0.00    -0.269 OA
ATOM      6  H   UNL A   1      32.120  22.098  28.609  1.00  0.00     0.163 HD
BRANCH   4   7
ATOM      7  C   UNL A   1      31.984  23.978  25.835  1.00  0.00     0.042 A 
ATOM      8  C   UNL A   1      32.855  26.003  24.866  1.00  0.00     0.042 A 
ATOM      9  C   UNL A   1      32.296  25.340  25.957  1.00  0.00     0.040 A 
ATOM     10  C   UNL A   1      33.347  25.247  23.810  1.00  0.00     0.039 A 
ATOM     11  C   UNL A   1      32.928  23.935  23.618  1.00  0.00     0.058 A 
ATOM     12  C   UNL A   1      32.114  23.362  24.591  1.00  0.00     0.027 A 
BRANCH   8  13
ATOM     13  N   UNL A   1      32.946  27.398  24.850  1.00  0.00    -0.321 N 
ATOM     14  C   UNL A   1      32.372  28.309  23.985  1.00  0.00     0.285 C 
ATOM     15  O   UNL A   1      32.808  29.467  24.043  1.00  0.00    -0.267 OA
ATOM     16  H   UNL A   1      33.503  27.790  25.562  1.00  0.00     0.170 HD
BRANCH  14  17
ATOM     17  C   UNL A   1      31.118  27.955  23.067  1.00  0.00     0.171 C 
ATOM     18  C   UNL A   1      30.045  27.192  23.864  1.00  0.00     0.090 C 
BRANCH  17  19
ATOM     19  C   UNL A   1      30.501  29.252  22.464  1.00  0.00     0.075 C 
ATOM     20  C   UNL A   1      29.461  29.962  23.320  1.00  0.00     0.011 C 
ENDBRANCH  17  19
BRANCH  17  21
ATOM     21  N   UNL A   1      31.536  27.161  21.884  1.00  0.00    -0.345 N 
ATOM     22  H   UNL A   1      32.544  27.005  21.917  1.00  0.00     0.345 HD
ATOM     23  H   UNL A   1      31.298  27.669  21.032  1.00  0.00     0.345 HD
ATOM     24  H   UNL A   1      31.053  26.262  21.890  1.00  0.00     0.345 HD
ENDBRANCH  17  21
ENDBRANCH  14  17
ENDBRANCH   8  13
BRANCH  11  25
ATOM     25  C   UNL A   1      33.401  23.121  22.446  1.00  0.00     0.416 C 
ATOM     26  F   UNL A   1      32.799  21.902  22.398  1.00  0.00    -0.166 F 
ATOM     27  F   UNL A   1      33.130  23.721  21.255  1.00  0.00    -0.166 F 
ATOM     28  F   UNL A   1      34.740  22.886  22.451  1.00  0.00    -0.166 F 
ENDBRANCH  11  25
ENDBRANCH   4   7
ENDBRANCH   2   3
ENDBRANCH   1   2
BRANCH   1  29
ATOM     29  C   UNL A   1      35.184  21.653  25.467  1.00  0.00     0.023 C 
BRANCH  29  30
ATOM     30  C   UNL A   1      36.551  22.221  25.822  1.00  0.00     0.116 C 
BRANCH  30  31
ATOM     31  N   UNL A   1      37.627  21.240  25.800  1.00  0.00    -0.352 N 
ATOM     32  C   UNL A   1      38.955  21.392  26.126  1.00  0.00     0.251 C 
ATOM     33  H   UNL A   1      37.366  20.336  25.510  1.00  0.00     0.163 HD
ATOM     34  O   UNL A   1      39.732  20.453  25.970  1.00  0.00    -0.269 OA
BRANCH  32  35
ATOM     35  C   UNL A   1      39.449  22.699  26.615  1.00  0.00     0.039 A 
ATOM     36  C   UNL A   1      40.481  22.722  27.556  1.00  0.00     0.014 A 
ATOM     37  C   UNL A   1      38.934  23.895  26.111  1.00  0.00     0.014 A 
ATOM     38  C   UNL A   1      41.053  23.942  27.923  1.00  0.00     0.010 A 
ATOM     39  C   UNL A   1      39.569  25.098  26.403  1.00  0.00     0.010 A 
ATOM     40  C   UNL A   1      40.635  25.136  27.314  1.00  0.00    -0.014 A 
BRANCH  40  41
ATOM     41  C   UNL A   1      41.292  26.434  27.625  1.00  0.00     0.031 A 
ATOM     42  C   UNL A   1      42.692  26.703  27.140  1.00  0.00     0.074 A 
ATOM     43  C   UNL A   1      40.657  27.340  28.396  1.00  0.00     0.049 A 
ATOM     44  N   UNL A   1      43.462  27.737  27.361  1.00  0.00    -0.248 NA
ATOM     45  C   UNL A   1      43.319  25.650  26.326  1.00  0.00     0.031 C 
ATOM     46  C   UNL A   1      39.321  27.174  28.973  1.00  0.00     0.029 A 
ATOM     47  N   UNL A   1      41.052  28.581  28.833  1.00  0.00    -0.354 N 
ATOM     48  C   UNL A   1      44.668  27.452  26.730  1.00  0.00     0.074 A 
ATOM     49  C   UNL A   1      44.549  26.118  26.181  1.00  0.00     0.031 C 
ATOM     50  C   UNL A   1      38.995  28.282  29.658  1.00  0.00     0.029 A 
ATOM     51  C   UNL A   1      40.112  29.220  29.609  1.00  0.00     0.049 A 
ATOM     52  H   UNL A   1      41.925  28.977  28.610  1.00  0.00     0.167 HD
ATOM     53  C   UNL A   1      45.764  28.240  26.593  1.00  0.00     0.034 A 
ATOM     54  C   UNL A   1      40.149  30.424  30.216  1.00  0.00     0.034 A 
ATOM     55  C   UNL A   1      45.860  29.575  27.131  1.00  0.00     0.049 A 
ATOM     56  C   UNL A   1      41.377  31.283  30.053  1.00  0.00     0.074 A 
ATOM     57  C   UNL A   1      46.899  30.482  27.009  1.00  0.00     0.029 A 
ATOM     58  N   UNL A   1      44.882  30.196  27.897  1.00  0.00    -0.354 N 
ATOM     59  N   UNL A   1      42.490  31.020  29.406  1.00  0.00    -0.248 NA
ATOM     60  C   UNL A   1      41.347  32.605  30.689  1.00  0.00     0.031 C 
ATOM     61  C   UNL A   1      46.576  31.623  27.752  1.00  0.00     0.029 A 
ATOM     62  C   UNL A   1      45.304  31.462  28.275  1.00  0.00     0.049 A 
ATOM     63  H   UNL A   1      44.015  29.795  28.137  1.00  0.00     0.167 HD
ATOM     64  C   UNL A   1      43.277  32.161  29.530  1.00  0.00     0.074 A 
ATOM     65  C   UNL A   1      42.505  33.116  30.298  1.00  0.00     0.031 C 
ATOM     66  C   UNL A   1      44.525  32.402  29.050  1.00  0.00     0.034 A 
BRANCH  53  67
ATOM     67  C   UNL A   1      46.945  27.661  25.849  1.00  0.00     0.023 A 
ATOM     68  C   UNL A   1      47.228  28.020  24.518  1.00  0.00     0.031 A 
ATOM     69  C   UNL A   1      47.778  26.709  26.461  1.00  0.00     0.131 A 
ATOM     70  C   UNL A   1      48.255  27.370  23.819  1.00  0.00     0.055 A 
ATOM     71  C   UNL A   1      48.857  26.131  25.787  1.00  0.00     0.041 A 
ATOM     72  F   UNL A   1      47.550  26.309  27.723  1.00  0.00    -0.206 F 
ATOM     73  C   UNL A   1      49.090  26.447  24.452  1.00  0.00     0.022 A 
BRANCH  70  74
ATOM     74  S   UNL A   1      48.383  27.634  22.028  1.00  0.00     0.124 S 
ATOM     75  O   UNL A   1      48.588  26.270  21.545  1.00  0.00    -0.237 OA
ATOM     76  O   UNL A   1      47.096  28.240  21.705  1.00  0.00    -0.237 OA
ATOM     77  O   UNL A   1      49.541  28.515  21.894  1.00  0.00    -0.744 OA
ENDBRANCH  70  74
ENDBRANCH  53  67
BRANCH  54  78
ATOM     78  C   UNL A   1      38.992  30.897  31.030  1.00  0.00     0.023 A 
ATOM     79  C   UNL A   1      37.981  31.688  30.460  1.00  0.00     0.031 A 
ATOM     80  C   UNL A   1      38.904  30.605  32.403  1.00  0.00     0.131 A 
ATOM     81  C   UNL A   1      36.954  32.202  31.266  1.00  0.00     0.055 A 
ATOM     82  C   UNL A   1      37.850  31.074  33.191  1.00  0.00     0.041 A 
ATOM     83  F   UNL A   1      39.839  29.847  32.998  1.00  0.00    -0.206 F 
ATOM     84  C   UNL A   1      36.875  31.890  32.625  1.00  0.00     0.022 A 
BRANCH  81  85
ATOM     85  S   UNL A   1      35.767  33.358  30.529  1.00  0.00     0.124 S 
ATOM     86  O   UNL A   1      36.535  33.903  29.416  1.00  0.00    -0.237 OA
ATOM     87  O   UNL A   1      34.663  32.472  30.175  1.00  0.00    -0.237 OA
ATOM     88  O   UNL A   1      35.487  34.296  31.615  1.00  0.00    -0.744 OA
ENDBRANCH  81  85
ENDBRANCH  54  78
BRANCH  66  89
ATOM     89  C   UNL A   1      45.103  33.773  29.302  1.00  0.00     0.023 A 
ATOM     90  C   UNL A   1      44.908  34.837  28.404  1.00  0.00     0.031 A 
ATOM     91  C   UNL A   1      45.880  34.011  30.450  1.00  0.00     0.131 A 
ATOM     92  C   UNL A   1      45.535  36.070  28.635  1.00  0.00     0.055 A 
ATOM     93  C   UNL A   1      46.448  35.258  30.708  1.00  0.00     0.041 A 
ATOM     94  F   UNL A   1      46.101  33.031  31.341  1.00  0.00    -0.206 F 
ATOM     95  C   UNL A   1      46.290  36.293  29.790  1.00  0.00     0.022 A 
BRANCH  92  96
ATOM     96  S   UNL A   1      45.440  37.350  27.353  1.00  0.00     0.124 S 
ATOM     97  O   UNL A   1      44.027  37.310  26.989  1.00  0.00    -0.237 OA
ATOM     98  O   UNL A   1      45.880  38.542  28.071  1.00  0.00    -0.237 OA
ATOM     99  O   UNL A   1      46.361  36.872  26.323  1.00  0.00    -0.744 OA
ENDBRANCH  92  96
ENDBRANCH  66  89
ENDBRANCH  40  41
ENDBRANCH  32  35
ENDBRANCH  30  31
ENDBRANCH  29  30
ENDBRANCH   1  29
TORSDOF 19
ENDMDL
MODEL 2
REMARK VINA RESULT:     -11.8      0.673      7.440
REMARK SMILES CC[C@@](C)([NH3+])C(=O)Nc1cc(C(=O)NCCCCNC(=O)c2ccc(-c3c4nc(c(-c5cc(S(=O)(=O)[O-])ccc5F)c5ccc([nH]5)c(-c5cc(S(=O)(=O)[O-])ccc5F)c5nc(c(-c6cc(S(=O)(=O)[O-])ccc6F)c6ccc3[nH]6)C=C5)C=C4)cc2)cc(C(F)(F)F)c1
REMARK SMILES IDX 16 1 15 2 14 3 12 4 13 5 11 7 9 8 10 9 91 10 86 11 85 12
REMARK SMILES IDX 8 13 6 14 7 15 3 17 4 18 2 19 1 20 5 21 87 25 88 26 89 27
REMARK SMILES IDX 90 28 17 29 18 30 19 31 20 32 21 34 22 35 23 36 84 37 24 38
REMARK SMILES IDX 83 39 25 40 26 41 27 42 77 43 28 44 82 45 76 46 78 47 29 48
REMARK SMILES IDX 81 49 75 50 74 51 30 53 62 54 42 55 61 56 43 57 46 58 60 59
REMARK SMILES IDX 79 60 44 61 45 62 59 64 80 65 47 66 31 67 32 68 40 69 33 70
REMARK SMILES IDX 39 71 41 72 38 73 34 74 35 75 36 76 37 77 63 78 64 79 72 80
REMARK SMILES IDX 65 81 71 82 73 83 70 84 66 85 67 86 68 87 69 88 48 89 49 90
REMARK SMILES IDX 57 91 50 92 56 93 58 94 55 95 51 96 52 97 53 98 54 99
REMARK H PARENT 14 6 8 16 5 22 5 23 5 24 19 33 78 52 46 63
REMARK Flexibility Score: inf
ROOT
ATOM      1  C   UNL A   1      34.374  21.103  26.539  1.00  0.00     0.023 C 
ENDROOT
BRANCH   1   2
ATOM      2  C   UNL A   1      34.012  22.201  27.523  1.00  0.00     0.116 C 
BRANCH   2   3
ATOM      3  N   UNL A   1      32.588  22.403  27.759  1.00  0.00    -0.352 N 
ATOM      4  C   UNL A   1      31.651  23.141  27.060  1.00  0.00     0.251 C 
ATOM      5  O   UNL A   1      30.482  23.160  27.436  1.00  0.00    -0.269 OA
ATOM      6  H   UNL A   1      32.233  21.935  28.551  1.00  0.00     0.163 HD
BRANCH   4   7
ATOM      7  C   UNL A   1      32.050  23.980  25.898  1.00  0.00     0.042 A 
ATOM      8  C   UNL A   1      32.963  26.033  25.033  1.00  0.00     0.042 A 
ATOM      9  C   UNL A   1      32.425  25.316  26.100  1.00  0.00     0.040 A 
ATOM     10  C   UNL A   1      33.375  25.336  23.905  1.00  0.00     0.039 A 
ATOM     11  C   UNL A   1      32.893  24.058  23.642  1.00  0.00     0.058 A 
ATOM     12  C   UNL A   1      32.099  23.449  24.610  1.00  0.00     0.027 A 
BRANCH   8  13
ATOM     13  N   UNL A   1      33.112  27.421  25.109  1.00  0.00    -0.321 N 
ATOM     14  C   UNL A   1      32.485  28.417  24.386  1.00  0.00     0.285 C 
ATOM     15  O   UNL A   1      32.974  29.550  24.478  1.00  0.00    -0.267 OA
ATOM     16  H   UNL A   1      33.763  27.736  25.778  1.00  0.00     0.170 HD
BRANCH  14  17
ATOM     17  C   UNL A   1      31.120  28.179  23.596  1.00  0.00     0.171 C 
ATOM     18  C   UNL A   1      30.220  27.173  24.334  1.00  0.00     0.090 C 
BRANCH  17  19
ATOM     19  C   UNL A   1      30.359  29.526  23.408  1.00  0.00     0.075 C 
ATOM     20  C   UNL A   1      29.843  29.814  22.005  1.00  0.00     0.011 C 
ENDBRANCH  17  19
BRANCH  17  21
ATOM     21  N   UNL A   1      31.385  27.709  22.213  1.00  0.00    -0.345 N 
ATOM     22  H   UNL A   1      32.124  27.006  22.228  1.00  0.00     0.345 HD
ATOM     23  H   UNL A   1      31.678  28.497  21.636  1.00  0.00     0.345 HD
ATOM     24  H   UNL A   1      30.535  27.300  21.824  1.00  0.00     0.345 HD
ENDBRANCH  17  21
ENDBRANCH  14  17
ENDBRANCH   8  13
BRANCH  11  25
ATOM     25  C   UNL A   1      33.278  23.312  22.396  1.00  0.00     0.416 C 
ATOM     26  F   UNL A   1      33.038  24.041  21.272  1.00  0.00    -0.166 F 
ATOM     27  F   UNL A   1      34.602  23.000  22.366  1.00  0.00    -0.166 F 
ATOM     28  F   UNL A   1      32.614  22.137  22.237  1.00  0.00    -0.166 F 
ENDBRANCH  11  25
ENDBRANCH   4   7
ENDBRANCH   2   3
ENDBRANCH   1   2
BRANCH   1  29
ATOM     29  C   UNL A   1      35.058  21.548  25.260  1.00  0.00     0.023 C 
BRANCH  29  30
ATOM     30  C   UNL A   1      36.495  22.028  25.408  1.00  0.00     0.116 C 
BRANCH  30  31
ATOM     31  N   UNL A   1      37.477  20.954  25.474  1.00  0.00    -0.352 N 
ATOM     32  C   UNL A   1      38.783  20.990  25.908  1.00  0.00     0.251 C 
ATOM     33  H   UNL A   1      37.161  20.076  25.163  1.00  0.00     0.163 HD
ATOM     34  O   UNL A   1      39.483  19.984  25.815  1.00  0.00    -0.269 OA
BRANCH  32  35
ATOM     35  C   UNL A   1      39.350  22.251  26.436  1.00  0.00     0.039 A 
ATOM     36  C   UNL A   1      40.436  22.188  27.311  1.00  0.00     0.014 A 
ATOM     37  C   UNL A   1      38.847  23.489  26.032  1.00  0.00     0.014 A 
ATOM     38  C   UNL A   1      41.072  23.367  27.708  1.00  0.00     0.010 A 
ATOM     39  C   UNL A   1      39.539  24.653  26.349  1.00  0.00     0.010 A 
ATOM     40  C   UNL A   1      40.659  24.606  27.193  1.00  0.00    -0.014 A 
BRANCH  40  41
ATOM     41  C   UNL A   1      41.378  25.863  27.534  1.00  0.00     0.031 A 
ATOM     42  C   UNL A   1      40.691  26.920  28.359  1.00  0.00     0.074 A 
ATOM     43  C   UNL A   1      42.616  26.082  27.048  1.00  0.00     0.049 A 
ATOM     44  N   UNL A   1      41.116  28.108  28.704  1.00  0.00    -0.248 NA
ATOM     45  C   UNL A   1      39.332  26.610  28.825  1.00  0.00     0.031 C 
ATOM     46  C   UNL A   1      43.366  25.159  26.193  1.00  0.00     0.029 A 
ATOM     47  N   UNL A   1      43.464  27.151  27.201  1.00  0.00    -0.354 N 
ATOM     48  C   UNL A   1      40.072  28.692  29.413  1.00  0.00     0.074 A 
ATOM     49  C   UNL A   1      38.970  27.754  29.383  1.00  0.00     0.031 C 
ATOM     50  C   UNL A   1      44.571  25.687  25.924  1.00  0.00     0.029 A 
ATOM     51  C   UNL A   1      44.667  27.003  26.548  1.00  0.00     0.049 A 
ATOM     52  H   UNL A   1      43.234  27.949  27.728  1.00  0.00     0.167 HD
ATOM     53  C   UNL A   1      40.043  29.886  30.056  1.00  0.00     0.034 A 
ATOM     54  C   UNL A   1      45.724  27.834  26.460  1.00  0.00     0.034 A 
ATOM     55  C   UNL A   1      41.157  30.802  30.091  1.00  0.00     0.049 A 
ATOM     56  C   UNL A   1      45.671  29.157  27.180  1.00  0.00     0.074 A 
ATOM     57  C   UNL A   1      41.258  32.013  30.754  1.00  0.00     0.029 A 
ATOM     58  N   UNL A   1      42.366  30.610  29.434  1.00  0.00    -0.354 N 
ATOM     59  N   UNL A   1      44.694  29.672  27.893  1.00  0.00    -0.248 NA
ATOM     60  C   UNL A   1      46.867  30.004  27.096  1.00  0.00     0.031 C 
ATOM     61  C   UNL A   1      42.500  32.581  30.446  1.00  0.00     0.029 A 
ATOM     62  C   UNL A   1      43.206  31.691  29.654  1.00  0.00     0.049 A 
ATOM     63  H   UNL A   1      42.592  29.821  28.889  1.00  0.00     0.167 HD
ATOM     64  C   UNL A   1      45.175  30.888  28.370  1.00  0.00     0.074 A 
ATOM     65  C   UNL A   1      46.531  31.020  27.877  1.00  0.00     0.031 C 
ATOM     66  C   UNL A   1      44.555  31.812  29.149  1.00  0.00     0.034 A 
BRANCH  53  67
ATOM     67  C   UNL A   1      38.757  30.267  30.751  1.00  0.00     0.023 A 
ATOM     68  C   UNL A   1      37.714  30.920  30.069  1.00  0.00     0.031 A 
ATOM     69  C   UNL A   1      38.581  30.010  32.122  1.00  0.00     0.131 A 
ATOM     70  C   UNL A   1      36.588  31.371  30.773  1.00  0.00     0.055 A 
ATOM     71  C   UNL A   1      37.417  30.381  32.799  1.00  0.00     0.041 A 
ATOM     72  F   UNL A   1      39.547  29.407  32.835  1.00  0.00    -0.206 F 
ATOM     73  C   UNL A   1      36.419  31.082  32.128  1.00  0.00     0.022 A 
BRANCH  70  74
ATOM     74  S   UNL A   1      35.423  32.474  29.926  1.00  0.00     0.124 S 
ATOM     75  O   UNL A   1      36.262  33.642  29.665  1.00  0.00    -0.237 OA
ATOM     76  O   UNL A   1      35.037  31.690  28.758  1.00  0.00    -0.237 OA
ATOM     77  O   UNL A   1      34.368  32.682  30.915  1.00  0.00    -0.744 OA
ENDBRANCH  70  74
ENDBRANCH  53  67
BRANCH  54  78
ATOM     78  C   UNL A   1      46.927  27.448  25.666  1.00  0.00     0.023 A 
ATOM     79  C   UNL A   1      47.072  27.853  24.329  1.00  0.00     0.031 A 
ATOM     80  C   UNL A   1      47.929  26.630  26.218  1.00  0.00     0.131 A 
ATOM     81  C   UNL A   1      48.163  27.400  23.573  1.00  0.00     0.055 A 
ATOM     82  C   UNL A   1      49.042  26.225  25.477  1.00  0.00     0.041 A 
ATOM     83  F   UNL A   1      47.844  26.220  27.494  1.00  0.00    -0.206 F 
ATOM     84  C   UNL A   1      49.156  26.599  24.142  1.00  0.00     0.022 A 
BRANCH  81  85
ATOM     85  S   UNL A   1      48.224  27.802  21.806  1.00  0.00     0.124 S 
ATOM     86  O   UNL A   1      49.381  28.687  21.742  1.00  0.00    -0.237 OA
ATOM     87  O   UNL A   1      48.390  26.484  21.201  1.00  0.00    -0.237 OA
ATOM     88  O   UNL A   1      46.933  28.441  21.558  1.00  0.00    -0.744 OA
ENDBRANCH  81  85
ENDBRANCH  54  78
BRANCH  66  89
ATOM     89  C   UNL A   1      45.364  33.020  29.554  1.00  0.00     0.023 A 
ATOM     90  C   UNL A   1      45.381  34.195  28.782  1.00  0.00     0.031 A 
ATOM     91  C   UNL A   1      46.150  32.984  30.720  1.00  0.00     0.131 A 
ATOM     92  C   UNL A   1      46.215  35.261  29.150  1.00  0.00     0.055 A 
ATOM     93  C   UNL A   1      46.927  34.072  31.117  1.00  0.00     0.041 A 
ATOM     94  F   UNL A   1      46.173  31.888  31.495  1.00  0.00    -0.206 F 
ATOM     95  C   UNL A   1      46.976  35.214  30.322  1.00  0.00     0.022 A 
BRANCH  92  96
ATOM     96  S   UNL A   1      46.376  36.672  28.021  1.00  0.00     0.124 S 
ATOM     97  O   UNL A   1      47.679  36.424  27.411  1.00  0.00    -0.237 OA
ATOM     98  O   UNL A   1      45.220  36.503  27.146  1.00  0.00    -0.237 OA
ATOM     99  O   UNL A   1      46.317  37.831  28.910  1.00  0.00    -0.744 OA
ENDBRANCH  92  96
ENDBRANCH  66  89
ENDBRANCH  40  41
ENDBRANCH  32  35
ENDBRANCH  30  31
ENDBRANCH  29  30
ENDBRANCH   1  29
TORSDOF 19
ENDMDL
MODEL 3
REMARK VINA RESULT:     -11.8      4.843      9.775
REMARK SMILES CC[C@@](C)([NH3+])C(=O)Nc1cc(C(=O)NCCCCNC(=O)c2ccc(-c3c4nc(c(-c5cc(S(=O)(=O)[O-])ccc5F)c5ccc([nH]5)c(-c5cc(S(=O)(=O)[O-])ccc5F)c5nc(c(-c6cc(S(=O)(=O)[O-])ccc6F)c6ccc3[nH]6)C=C5)C=C4)cc2)cc(C(F)(F)F)c1
REMARK SMILES IDX 16 1 15 2 14 3 12 4 13 5 11 7 9 8 10 9 91 10 86 11 85 12
REMARK SMILES IDX 8 13 6 14 7 15 3 17 4 18 2 19 1 20 5 21 87 25 88 26 89 27
REMARK SMILES IDX 90 28 17 29 18 30 19 31 20 32 21 34 22 35 23 36 84 37 24 38
REMARK SMILES IDX 83 39 25 40 26 41 27 42 77 43 28 44 82 45 76 46 78 47 29 48
REMARK SMILES IDX 81 49 75 50 74 51 30 53 62 54 42 55 61 56 43 57 46 58 60 59
REMARK SMILES IDX 79 60 44 61 45 62 59 64 80 65 47 66 31 67 32 68 40 69 33 70
REMARK SMILES IDX 39 71 41 72 38 73 34 74 35 75 36 76 37 77 63 78 64 79 72 80
REMARK SMILES IDX 65 81 71 82 73 83 70 84 66 85 67 86 68 87 69 88 48 89 49 90
REMARK SMILES IDX 57 91 50 92 56 93 58 94 55 95 51 96 52 97 53 98 54 99
REMARK H PARENT 14 6 8 16 5 22 5 23 5 24 19 33 78 52 46 63
REMARK Flexibility Score: inf
ROOT
ATOM      1  C   UNL A   1      32.347  27.207  26.254  1.00  0.00     0.023 C 
ENDROOT
BRANCH   1   2
ATOM      2  C   UNL A   1      32.094  25.802  25.736  1.00  0.00     0.116 C 
BRANCH   2   3
ATOM      3  N   UNL A   1      31.313  24.932  26.606  1.00  0.00    -0.352 N 
ATOM      4  C   UNL A   1      31.385  23.568  26.822  1.00  0.00     0.251 C 
ATOM      5  O   UNL A   1      30.623  23.035  27.624  1.00  0.00    -0.269 OA
ATOM      6  H   UNL A   1      30.615  25.393  27.127  1.00  0.00     0.163 HD
BRANCH   4   7
ATOM      7  C   UNL A   1      32.322  22.718  26.040  1.00  0.00     0.042 A 
ATOM      8  C   UNL A   1      32.725  21.222  24.197  1.00  0.00     0.042 A 
ATOM      9  C   UNL A   1      31.824  21.875  25.036  1.00  0.00     0.040 A 
ATOM     10  C   UNL A   1      34.050  21.641  24.190  1.00  0.00     0.039 A 
ATOM     11  C   UNL A   1      34.573  22.365  25.257  1.00  0.00     0.058 A 
ATOM     12  C   UNL A   1      33.698  22.773  26.259  1.00  0.00     0.027 A 
BRANCH   8  13
ATOM     13  N   UNL A   1      32.299  20.188  23.359  1.00  0.00    -0.321 N 
ATOM     14  C   UNL A   1      32.700  18.866  23.314  1.00  0.00     0.285 C 
ATOM     15  O   UNL A   1      32.343  18.221  22.319  1.00  0.00    -0.267 OA
ATOM     16  H   UNL A   1      31.609  20.439  22.702  1.00  0.00     0.170 HD
BRANCH  14  17
ATOM     17  C   UNL A   1      33.444  18.149  24.528  1.00  0.00     0.171 C 
ATOM     18  C   UNL A   1      32.744  18.452  25.864  1.00  0.00     0.090 C 
BRANCH  17  19
ATOM     19  C   UNL A   1      33.497  16.609  24.300  1.00  0.00     0.075 C 
ATOM     20  C   UNL A   1      34.328  15.811  25.296  1.00  0.00     0.011 C 
ENDBRANCH  17  19
BRANCH  17  21
ATOM     21  N   UNL A   1      34.869  18.562  24.593  1.00  0.00    -0.345 N 
ATOM     22  H   UNL A   1      34.926  19.548  24.848  1.00  0.00     0.345 HD
ATOM     23  H   UNL A   1      35.305  18.421  23.681  1.00  0.00     0.345 HD
ATOM     24  H   UNL A   1      35.354  18.001  25.292  1.00  0.00     0.345 HD
ENDBRANCH  17  21
ENDBRANCH  14  17
ENDBRANCH   8  13
BRANCH  11  25
ATOM     25  C   UNL A   1      36.018  22.772  25.297  1.00  0.00     0.416 C 
ATOM     26  F   UNL A   1      36.333  23.417  26.453  1.00  0.00    -0.166 F 
ATOM     27  F   UNL A   1      36.861  21.707  25.219  1.00  0.00    -0.166 F 
ATOM     28  F   UNL A   1      36.377  23.607  24.286  1.00  0.00    -0.166 F 
ENDBRANCH  11  25
ENDBRANCH   4   7
ENDBRANCH   2   3
ENDBRANCH   1   2
BRANCH   1  29
ATOM     29  C   UNL A   1      33.792  27.561  26.554  1.00  0.00     0.023 C 
BRANCH  29  30
ATOM     30  C   UNL A   1      34.314  28.831  25.898  1.00  0.00     0.116 C 
BRANCH  30  31
ATOM     31  N   UNL A   1      33.777  30.059  26.467  1.00  0.00    -0.352 N 
ATOM     32  C   UNL A   1      34.276  30.843  27.482  1.00  0.00     0.251 C 
ATOM     33  H   UNL A   1      32.935  30.375  26.067  1.00  0.00     0.163 HD
ATOM     34  O   UNL A   1      33.632  31.812  27.876  1.00  0.00    -0.269 OA
BRANCH  32  35
ATOM     35  C   UNL A   1      35.559  30.484  28.127  1.00  0.00     0.039 A 
ATOM     36  C   UNL A   1      35.536  29.731  29.303  1.00  0.00     0.014 A 
ATOM     37  C   UNL A   1      36.778  30.845  27.551  1.00  0.00     0.014 A 
ATOM     38  C   UNL A   1      36.735  29.266  29.848  1.00  0.00     0.010 A 
ATOM     39  C   UNL A   1      37.961  30.300  28.038  1.00  0.00     0.010 A 
ATOM     40  C   UNL A   1      37.954  29.505  29.195  1.00  0.00    -0.014 A 
BRANCH  40  41
ATOM     41  C   UNL A   1      39.232  28.944  29.710  1.00  0.00     0.031 A 
ATOM     42  C   UNL A   1      39.913  29.588  30.889  1.00  0.00     0.074 A 
ATOM     43  C   UNL A   1      39.810  27.902  29.081  1.00  0.00     0.049 A 
ATOM     44  N   UNL A   1      41.060  29.296  31.445  1.00  0.00    -0.248 NA
ATOM     45  C   UNL A   1      39.225  30.736  31.499  1.00  0.00     0.031 C 
ATOM     46  C   UNL A   1      39.277  27.226  27.896  1.00  0.00     0.029 A 
ATOM     47  N   UNL A   1      40.977  27.228  29.346  1.00  0.00    -0.354 N 
ATOM     48  C   UNL A   1      41.240  30.233  32.457  1.00  0.00     0.074 A 
ATOM     49  C   UNL A   1      40.117  31.144  32.389  1.00  0.00     0.031 C 
ATOM     50  C   UNL A   1      40.095  26.217  27.558  1.00  0.00     0.029 A 
ATOM     51  C   UNL A   1      41.234  26.198  28.470  1.00  0.00     0.049 A 
ATOM     52  H   UNL A   1      41.574  27.460  30.094  1.00  0.00     0.167 HD
ATOM     53  C   UNL A   1      42.232  30.310  33.380  1.00  0.00     0.034 A 
ATOM     54  C   UNL A   1      42.271  25.339  28.408  1.00  0.00     0.034 A 
ATOM     55  C   UNL A   1      43.335  29.382  33.446  1.00  0.00     0.049 A 
ATOM     56  C   UNL A   1      43.364  25.444  29.441  1.00  0.00     0.074 A 
ATOM     57  C   UNL A   1      44.367  29.333  34.367  1.00  0.00     0.029 A 
ATOM     58  N   UNL A   1      43.553  28.341  32.553  1.00  0.00    -0.354 N 
ATOM     59  N   UNL A   1      43.491  26.303  30.427  1.00  0.00    -0.248 NA
ATOM     60  C   UNL A   1      44.445  24.453  29.362  1.00  0.00     0.031 C 
ATOM     61  C   UNL A   1      45.240  28.304  33.996  1.00  0.00     0.029 A 
ATOM     62  C   UNL A   1      44.715  27.661  32.887  1.00  0.00     0.049 A 
ATOM     63  H   UNL A   1      42.968  28.118  31.792  1.00  0.00     0.167 HD
ATOM     64  C   UNL A   1      44.649  25.932  31.105  1.00  0.00     0.074 A 
ATOM     65  C   UNL A   1      45.171  24.764  30.425  1.00  0.00     0.031 C 
ATOM     66  C   UNL A   1      45.228  26.501  32.193  1.00  0.00     0.034 A 
BRANCH  53  67
ATOM     67  C   UNL A   1      42.169  31.449  34.371  1.00  0.00     0.023 A 
ATOM     68  C   UNL A   1      41.271  31.437  35.453  1.00  0.00     0.031 A 
ATOM     69  C   UNL A   1      42.990  32.579  34.213  1.00  0.00     0.131 A 
ATOM     70  C   UNL A   1      41.152  32.564  36.279  1.00  0.00     0.055 A 
ATOM     71  C   UNL A   1      42.930  33.662  35.093  1.00  0.00     0.041 A 
ATOM     72  F   UNL A   1      43.854  32.660  33.189  1.00  0.00    -0.206 F 
ATOM     73  C   UNL A   1      41.995  33.667  36.124  1.00  0.00     0.022 A 
BRANCH  70  74
ATOM     74  S   UNL A   1      39.775  32.631  37.459  1.00  0.00     0.124 S 
ATOM     75  O   UNL A   1      38.970  31.488  37.034  1.00  0.00    -0.237 OA
ATOM     76  O   UNL A   1      40.452  32.494  38.743  1.00  0.00    -0.237 OA
ATOM     77  O   UNL A   1      39.171  33.937  37.206  1.00  0.00    -0.744 OA
ENDBRANCH  70  74
ENDBRANCH  53  67
BRANCH  54  78
ATOM     78  C   UNL A   1      42.333  24.302  27.337  1.00  0.00     0.023 A 
ATOM     79  C   UNL A   1      41.615  23.100  27.452  1.00  0.00     0.031 A 
ATOM     80  C   UNL A   1      43.147  24.477  26.204  1.00  0.00     0.131 A 
ATOM     81  C   UNL A   1      41.764  22.100  26.480  1.00  0.00     0.055 A 
ATOM     82  C   UNL A   1      43.250  23.500  25.212  1.00  0.00     0.041 A 
ATOM     83  F   UNL A   1      43.849  25.610  26.041  1.00  0.00    -0.206 F 
ATOM     84  C   UNL A   1      42.566  22.296  25.354  1.00  0.00     0.022 A 
BRANCH  81  85
ATOM     85  S   UNL A   1      40.957  20.498  26.751  1.00  0.00     0.124 S 
ATOM     86  O   UNL A   1      41.920  19.576  26.160  1.00  0.00    -0.237 OA
ATOM     87  O   UNL A   1      40.842  20.460  28.206  1.00  0.00    -0.237 OA
ATOM     88  O   UNL A   1      39.692  20.627  26.031  1.00  0.00    -0.744 OA
ENDBRANCH  81  85
ENDBRANCH  54  78
BRANCH  66  89
ATOM     89  C   UNL A   1      46.464  25.830  32.741  1.00  0.00     0.023 A 
ATOM     90  C   UNL A   1      47.725  25.993  32.141  1.00  0.00     0.031 A 
ATOM     91  C   UNL A   1      46.372  24.995  33.869  1.00  0.00     0.131 A 
ATOM     92  C   UNL A   1      48.830  25.281  32.631  1.00  0.00     0.055 A 
ATOM     93  C   UNL A   1      47.487  24.340  34.393  1.00  0.00     0.041 A 
ATOM     94  F   UNL A   1      45.193  24.801  34.482  1.00  0.00    -0.206 F 
ATOM     95  C   UNL A   1      48.723  24.469  33.764  1.00  0.00     0.022 A 
BRANCH  92  96
ATOM     96  S   UNL A   1      50.389  25.346  31.706  1.00  0.00     0.124 S 
ATOM     97  O   UNL A   1      49.955  25.876  30.417  1.00  0.00    -0.237 OA
ATOM     98  O   UNL A   1      51.198  26.244  32.525  1.00  0.00    -0.237 OA
ATOM     99  O   UNL A   1      50.834  23.954  31.687  1.00  0.00    -0.744 OA
ENDBRANCH  92  96
ENDBRANCH  66  89
ENDBRANCH  40  41
ENDBRANCH  32  35
ENDBRANCH  30  31
ENDBRANCH  29  30
ENDBRANCH   1  29
TORSDOF 19
ENDMDL
