MODEL 1
REMARK VINA RESULT:     -11.6      0.000      0.000
REMARK SMILES O=C(CCCNC(=O)COc1ccc2c3c(c(=O)oc2c1)CCC3)NCCCCNC(=O)c1ccc(-c2c3nc(c(-c4cc(S(=O)(=O)[O-])ccc4F)c4ccc([nH]4)c(-c4cc(S(=O)(=O)[O-])ccc4F)c4nc(c(-c5cc(S(=O)(=O)[O-])ccc5F)c5ccc2[nH]5)C=C4)C=C3)cc1
REMARK SMILES IDX 26 1 25 2 1 3 2 4 3 6 4 7 5 8 6 9 7 10 8 12 9 13 10 14 11 15
REMARK SMILES IDX 12 16 21 17 13 18 20 19 14 20 19 21 15 22 17 23 16 24 24 25
REMARK SMILES IDX 18 26 22 27 23 28 27 29 28 30 29 31 30 32 31 33 32 35 33 36
REMARK SMILES IDX 34 37 95 38 35 39 94 40 36 41 37 42 38 43 88 44 39 45 93 46
REMARK SMILES IDX 87 47 89 48 40 49 92 50 86 51 85 52 41 54 73 55 53 56 72 57
REMARK SMILES IDX 54 58 57 59 71 60 90 61 55 62 56 63 70 65 91 66 58 67 42 68
REMARK SMILES IDX 43 69 51 70 44 71 50 72 52 73 49 74 45 75 46 76 47 77 48 78
REMARK SMILES IDX 74 79 75 80 83 81 76 82 82 83 84 84 81 85 77 86 78 87 79 88
REMARK SMILES IDX 80 89 59 90 60 91 68 92 61 93 67 94 69 95 66 96 62 97 63 98
REMARK SMILES IDX 64 99 65 100
REMARK H PARENT 25 5 6 11 30 34 89 53 57 64
REMARK Flexibility Score: inf
ROOT
ATOM      1  C   UNL A   1      34.354  25.067  25.759  1.00  0.00     0.116 C 
ENDROOT
BRANCH   1   2
ATOM      2  N   UNL A   1      35.027  24.220  24.798  1.00  0.00    -0.356 N 
ATOM      3  O   UNL A   1      36.925  23.835  26.035  1.00  0.00    -0.275 OA
ATOM      4  C   UNL A   1      36.254  23.645  25.026  1.00  0.00     0.220 C 
ATOM      5  H   UNL A   1      34.582  24.046  23.937  1.00  0.00     0.163 HD
BRANCH   4   6
ATOM      6  C   UNL A   1      36.702  22.714  23.916  1.00  0.00     0.102 C 
BRANCH   6   7
ATOM      7  C   UNL A   1      36.842  21.265  24.387  1.00  0.00     0.031 C 
BRANCH   7   8
ATOM      8  C   UNL A   1      35.583  20.650  25.005  1.00  0.00     0.116 C 
BRANCH   8   9
ATOM      9  N   UNL A   1      35.596  19.199  24.975  1.00  0.00    -0.353 N 
ATOM     10  C   UNL A   1      34.623  18.339  24.559  1.00  0.00     0.257 C 
ATOM     11  H   UNL A   1      36.424  18.777  25.301  1.00  0.00     0.163 HD
ATOM     12  O   UNL A   1      34.895  17.138  24.555  1.00  0.00    -0.271 OA
BRANCH  10  13
ATOM     13  C   UNL A   1      33.253  18.863  24.129  1.00  0.00     0.329 C 
BRANCH  13  14
ATOM     14  O   UNL A   1      32.479  19.548  25.109  1.00  0.00    -0.484 OA
BRANCH  14  15
ATOM     15  C   UNL A   1      32.103  20.817  24.773  1.00  0.00     0.123 A 
ATOM     16  C   UNL A   1      32.411  21.224  23.472  1.00  0.00     0.047 A 
ATOM     17  C   UNL A   1      31.530  21.722  25.661  1.00  0.00     0.094 A 
ATOM     18  C   UNL A   1      32.107  22.522  23.039  1.00  0.00     0.016 A 
ATOM     19  C   UNL A   1      31.235  23.008  25.221  1.00  0.00     0.142 A 
ATOM     20  C   UNL A   1      31.509  23.425  23.918  1.00  0.00     0.021 A 
ATOM     21  O   UNL A   1      30.641  23.876  26.168  1.00  0.00    -0.422 OA
ATOM     22  C   UNL A   1      31.144  24.782  23.568  1.00  0.00    -0.027 A 
ATOM     23  C   UNL A   1      30.257  25.172  25.839  1.00  0.00     0.339 A 
ATOM     24  C   UNL A   1      30.547  25.574  24.460  1.00  0.00     0.042 A 
ATOM     25  C   UNL A   1      31.334  25.463  22.259  1.00  0.00     0.037 C 
ATOM     26  O   UNL A   1      29.739  25.934  26.641  1.00  0.00    -0.246 OA
ATOM     27  C   UNL A   1      30.220  26.911  23.903  1.00  0.00     0.044 C 
ATOM     28  C   UNL A   1      31.063  26.929  22.624  1.00  0.00     0.010 C 
ENDBRANCH  14  15
ENDBRANCH  13  14
ENDBRANCH  10  13
ENDBRANCH   8   9
ENDBRANCH   7   8
ENDBRANCH   6   7
ENDBRANCH   4   6
ENDBRANCH   1   2
BRANCH   1  29
ATOM     29  C   UNL A   1      33.857  26.363  25.120  1.00  0.00     0.023 C 
BRANCH  29  30
ATOM     30  C   UNL A   1      33.714  27.556  26.076  1.00  0.00     0.023 C 
BRANCH  30  31
ATOM     31  C   UNL A   1      34.354  28.859  25.603  1.00  0.00     0.116 C 
BRANCH  31  32
ATOM     32  N   UNL A   1      33.851  30.016  26.326  1.00  0.00    -0.352 N 
ATOM     33  C   UNL A   1      34.332  30.619  27.464  1.00  0.00     0.251 C 
ATOM     34  H   UNL A   1      33.044  30.429  25.943  1.00  0.00     0.163 HD
ATOM     35  O   UNL A   1      33.647  31.470  28.026  1.00  0.00    -0.269 OA
BRANCH  33  36
ATOM     36  C   UNL A   1      35.647  30.231  28.028  1.00  0.00     0.039 A 
ATOM     37  C   UNL A   1      35.692  29.653  29.299  1.00  0.00     0.014 A 
ATOM     38  C   UNL A   1      36.834  30.452  27.323  1.00  0.00     0.014 A 
ATOM     39  C   UNL A   1      36.915  29.230  29.831  1.00  0.00     0.010 A 
ATOM     40  C   UNL A   1      38.042  29.962  27.822  1.00  0.00     0.010 A 
ATOM     41  C   UNL A   1      38.097  29.343  29.081  1.00  0.00    -0.014 A 
BRANCH  41  42
ATOM     42  C   UNL A   1      39.391  28.810  29.594  1.00  0.00     0.031 A 
ATOM     43  C   UNL A   1      40.106  29.505  30.722  1.00  0.00     0.074 A 
ATOM     44  C   UNL A   1      39.950  27.734  29.006  1.00  0.00     0.049 A 
ATOM     45  N   UNL A   1      41.273  29.237  31.253  1.00  0.00    -0.248 NA
ATOM     46  C   UNL A   1      39.433  30.670  31.313  1.00  0.00     0.031 C 
ATOM     47  C   UNL A   1      39.372  26.990  27.883  1.00  0.00     0.029 A 
ATOM     48  N   UNL A   1      41.130  27.079  29.261  1.00  0.00    -0.354 N 
ATOM     49  C   UNL A   1      41.478  30.204  32.232  1.00  0.00     0.074 A 
ATOM     50  C   UNL A   1      40.342  31.099  32.175  1.00  0.00     0.031 C 
ATOM     51  C   UNL A   1      40.183  25.968  27.568  1.00  0.00     0.029 A 
ATOM     52  C   UNL A   1      41.366  26.012  28.423  1.00  0.00     0.049 A 
ATOM     53  H   UNL A   1      41.749  27.347  29.978  1.00  0.00     0.167 HD
ATOM     54  C   UNL A   1      42.506  30.320  33.111  1.00  0.00     0.034 A 
ATOM     55  C   UNL A   1      42.419  25.175  28.338  1.00  0.00     0.034 A 
ATOM     56  C   UNL A   1      43.630  29.414  33.158  1.00  0.00     0.049 A 
ATOM     57  C   UNL A   1      43.572  25.354  29.294  1.00  0.00     0.074 A 
ATOM     58  C   UNL A   1      44.696  29.413  34.040  1.00  0.00     0.029 A 
ATOM     59  N   UNL A   1      43.840  28.356  32.283  1.00  0.00    -0.354 N 
ATOM     60  N   UNL A   1      43.727  26.245  30.246  1.00  0.00    -0.248 NA
ATOM     61  C   UNL A   1      44.689  24.407  29.171  1.00  0.00     0.031 C 
ATOM     62  C   UNL A   1      45.590  28.411  33.649  1.00  0.00     0.029 A 
ATOM     63  C   UNL A   1      45.039  27.722  32.580  1.00  0.00     0.049 A 
ATOM     64  H   UNL A   1      43.229  28.093  31.557  1.00  0.00     0.167 HD
ATOM     65  C   UNL A   1      44.942  25.943  30.856  1.00  0.00     0.074 A 
ATOM     66  C   UNL A   1      45.469  24.778  30.175  1.00  0.00     0.031 C 
ATOM     67  C   UNL A   1      45.563  26.566  31.890  1.00  0.00     0.034 A 
BRANCH  54  68
ATOM     68  C   UNL A   1      42.474  31.487  34.071  1.00  0.00     0.023 A 
ATOM     69  C   UNL A   1      41.736  31.442  35.268  1.00  0.00     0.031 A 
ATOM     70  C   UNL A   1      43.179  32.669  33.780  1.00  0.00     0.131 A 
ATOM     71  C   UNL A   1      41.655  32.579  36.086  1.00  0.00     0.055 A 
ATOM     72  C   UNL A   1      43.166  33.766  34.645  1.00  0.00     0.041 A 
ATOM     73  F   UNL A   1      43.884  32.783  32.644  1.00  0.00    -0.206 F 
ATOM     74  C   UNL A   1      42.389  33.731  35.797  1.00  0.00     0.022 A 
BRANCH  71  75
ATOM     75  S   UNL A   1      40.458  32.581  37.448  1.00  0.00     0.124 S 
ATOM     76  O   UNL A   1      39.492  31.584  36.992  1.00  0.00    -0.237 OA
ATOM     77  O   UNL A   1      41.279  32.200  38.591  1.00  0.00    -0.237 OA
ATOM     78  O   UNL A   1      39.961  33.956  37.465  1.00  0.00    -0.744 OA
ENDBRANCH  71  75
ENDBRANCH  54  68
BRANCH  55  79
ATOM     79  C   UNL A   1      42.452  24.100  27.302  1.00  0.00     0.023 A 
ATOM     80  C   UNL A   1      41.811  22.869  27.516  1.00  0.00     0.031 A 
ATOM     81  C   UNL A   1      43.170  24.269  26.105  1.00  0.00     0.131 A 
ATOM     82  C   UNL A   1      41.943  21.838  26.573  1.00  0.00     0.055 A 
ATOM     83  C   UNL A   1      43.246  23.262  25.141  1.00  0.00     0.041 A 
ATOM     84  F   UNL A   1      43.802  25.424  25.849  1.00  0.00    -0.206 F 
ATOM     85  C   UNL A   1      42.642  22.031  25.379  1.00  0.00     0.022 A 
BRANCH  82  86
ATOM     86  S   UNL A   1      41.270  20.202  26.975  1.00  0.00     0.124 S 
ATOM     87  O   UNL A   1      40.153  20.104  26.041  1.00  0.00    -0.237 OA
ATOM     88  O   UNL A   1      42.408  19.331  26.705  1.00  0.00    -0.237 OA
ATOM     89  O   UNL A   1      40.899  20.323  28.383  1.00  0.00    -0.744 OA
ENDBRANCH  82  86
ENDBRANCH  55  79
BRANCH  67  90
ATOM     90  C   UNL A   1      46.859  25.966  32.381  1.00  0.00     0.023 A 
ATOM     91  C   UNL A   1      48.090  26.239  31.758  1.00  0.00     0.031 A 
ATOM     92  C   UNL A   1      46.859  25.097  33.487  1.00  0.00     0.131 A 
ATOM     93  C   UNL A   1      49.258  25.603  32.208  1.00  0.00     0.055 A 
ATOM     94  C   UNL A   1      48.034  24.521  33.973  1.00  0.00     0.041 A 
ATOM     95  F   UNL A   1      45.714  24.795  34.120  1.00  0.00    -0.206 F 
ATOM     96  C   UNL A   1      49.241  24.763  33.324  1.00  0.00     0.022 A 
BRANCH  93  97
ATOM     97  S   UNL A   1      50.786  25.811  31.254  1.00  0.00     0.124 S 
ATOM     98  O   UNL A   1      51.784  25.230  32.148  1.00  0.00    -0.237 OA
ATOM     99  O   UNL A   1      50.502  25.054  30.039  1.00  0.00    -0.237 OA
ATOM    100  O   UNL A   1      50.884  27.258  31.074  1.00  0.00    -0.744 OA
ENDBRANCH  93  97
ENDBRANCH  67  90
ENDBRANCH  41  42
ENDBRANCH  33  36
ENDBRANCH  31  32
ENDBRANCH  30  31
ENDBRANCH  29  30
ENDBRANCH   1  29
TORSDOF 20
ENDMDL
MODEL 2
REMARK VINA RESULT:     -11.4      2.834      7.970
REMARK SMILES O=C(CCCNC(=O)COc1ccc2c3c(c(=O)oc2c1)CCC3)NCCCCNC(=O)c1ccc(-c2c3nc(c(-c4cc(S(=O)(=O)[O-])ccc4F)c4ccc([nH]4)c(-c4cc(S(=O)(=O)[O-])ccc4F)c4nc(c(-c5cc(S(=O)(=O)[O-])ccc5F)c5ccc2[nH]5)C=C4)C=C3)cc1
REMARK SMILES IDX 26 1 25 2 1 3 2 4 3 6 4 7 5 8 6 9 7 10 8 12 9 13 10 14 11 15
REMARK SMILES IDX 12 16 21 17 13 18 20 19 14 20 19 21 15 22 17 23 16 24 24 25
REMARK SMILES IDX 18 26 22 27 23 28 27 29 28 30 29 31 30 32 31 33 32 35 33 36
REMARK SMILES IDX 34 37 95 38 35 39 94 40 36 41 37 42 38 43 88 44 39 45 93 46
REMARK SMILES IDX 87 47 89 48 40 49 92 50 86 51 85 52 41 54 73 55 53 56 72 57
REMARK SMILES IDX 54 58 57 59 71 60 90 61 55 62 56 63 70 65 91 66 58 67 42 68
REMARK SMILES IDX 43 69 51 70 44 71 50 72 52 73 49 74 45 75 46 76 47 77 48 78
REMARK SMILES IDX 74 79 75 80 83 81 76 82 82 83 84 84 81 85 77 86 78 87 79 88
REMARK SMILES IDX 80 89 59 90 60 91 68 92 61 93 67 94 69 95 66 96 62 97 63 98
REMARK SMILES IDX 64 99 65 100
REMARK H PARENT 25 5 6 11 30 34 89 53 57 64
REMARK Flexibility Score: inf
ROOT
ATOM      1  C   UNL A   1      31.890  25.792  26.805  1.00  0.00     0.116 C 
ENDROOT
BRANCH   1   2
ATOM      2  N   UNL A   1      32.107  24.483  26.226  1.00  0.00    -0.356 N 
ATOM      3  O   UNL A   1      30.379  23.408  27.291  1.00  0.00    -0.275 OA
ATOM      4  C   UNL A   1      31.311  23.396  26.495  1.00  0.00     0.220 C 
ATOM      5  H   UNL A   1      32.863  24.367  25.605  1.00  0.00     0.163 HD
BRANCH   4   6
ATOM      6  C   UNL A   1      31.673  22.166  25.686  1.00  0.00     0.102 C 
BRANCH   6   7
ATOM      7  C   UNL A   1      32.960  21.498  26.178  1.00  0.00     0.031 C 
BRANCH   7   8
ATOM      8  C   UNL A   1      33.809  20.829  25.094  1.00  0.00     0.116 C 
BRANCH   8   9
ATOM      9  N   UNL A   1      34.996  21.595  24.760  1.00  0.00    -0.353 N 
ATOM     10  C   UNL A   1      35.130  22.639  23.894  1.00  0.00     0.257 C 
ATOM     11  H   UNL A   1      35.820  21.323  25.226  1.00  0.00     0.163 HD
ATOM     12  O   UNL A   1      36.231  23.186  23.833  1.00  0.00    -0.271 OA
BRANCH  10  13
ATOM     13  C   UNL A   1      33.951  23.091  23.032  1.00  0.00     0.329 C 
BRANCH  13  14
ATOM     14  O   UNL A   1      34.133  24.259  22.237  1.00  0.00    -0.484 OA
BRANCH  14  15
ATOM     15  C   UNL A   1      33.132  25.185  22.324  1.00  0.00     0.123 A 
ATOM     16  C   UNL A   1      33.430  26.458  21.832  1.00  0.00     0.047 A 
ATOM     17  C   UNL A   1      31.906  24.953  22.939  1.00  0.00     0.094 A 
ATOM     18  C   UNL A   1      32.487  27.492  21.911  1.00  0.00     0.016 A 
ATOM     19  C   UNL A   1      30.979  25.987  23.014  1.00  0.00     0.142 A 
ATOM     20  C   UNL A   1      31.247  27.258  22.504  1.00  0.00     0.021 A 
ATOM     21  O   UNL A   1      29.746  25.683  23.640  1.00  0.00    -0.422 OA
ATOM     22  C   UNL A   1      30.201  28.252  22.624  1.00  0.00    -0.027 A 
ATOM     23  C   UNL A   1      28.721  26.618  23.737  1.00  0.00     0.339 A 
ATOM     24  C   UNL A   1      29.029  27.937  23.180  1.00  0.00     0.042 A 
ATOM     25  C   UNL A   1      30.238  29.668  22.171  1.00  0.00     0.037 C 
ATOM     26  O   UNL A   1      27.648  26.373  24.269  1.00  0.00    -0.246 OA
ATOM     27  C   UNL A   1      28.077  29.077  23.180  1.00  0.00     0.044 C 
ATOM     28  C   UNL A   1      29.004  30.256  22.868  1.00  0.00     0.010 C 
ENDBRANCH  14  15
ENDBRANCH  13  14
ENDBRANCH  10  13
ENDBRANCH   8   9
ENDBRANCH   7   8
ENDBRANCH   6   7
ENDBRANCH   4   6
ENDBRANCH   1   2
BRANCH   1  29
ATOM     29  C   UNL A   1      32.678  26.874  26.066  1.00  0.00     0.023 C 
BRANCH  29  30
ATOM     30  C   UNL A   1      31.964  28.224  25.920  1.00  0.00     0.023 C 
BRANCH  30  31
ATOM     31  C   UNL A   1      32.820  29.367  25.382  1.00  0.00     0.116 C 
BRANCH  31  32
ATOM     32  N   UNL A   1      32.378  30.665  25.867  1.00  0.00    -0.352 N 
ATOM     33  C   UNL A   1      32.884  31.444  26.881  1.00  0.00     0.251 C 
ATOM     34  H   UNL A   1      31.598  31.042  25.399  1.00  0.00     0.163 HD
ATOM     35  O   UNL A   1      32.245  32.421  27.261  1.00  0.00    -0.269 OA
BRANCH  33  36
ATOM     36  C   UNL A   1      34.172  31.099  27.530  1.00  0.00     0.039 A 
ATOM     37  C   UNL A   1      35.116  32.108  27.732  1.00  0.00     0.014 A 
ATOM     38  C   UNL A   1      34.461  29.789  27.921  1.00  0.00     0.014 A 
ATOM     39  C   UNL A   1      36.316  31.819  28.390  1.00  0.00     0.010 A 
ATOM     40  C   UNL A   1      35.624  29.518  28.643  1.00  0.00     0.010 A 
ATOM     41  C   UNL A   1      36.565  30.531  28.889  1.00  0.00    -0.014 A 
BRANCH  41  42
ATOM     42  C   UNL A   1      37.795  30.231  29.675  1.00  0.00     0.031 A 
ATOM     43  C   UNL A   1      38.863  29.335  29.105  1.00  0.00     0.074 A 
ATOM     44  C   UNL A   1      37.924  30.719  30.924  1.00  0.00     0.049 A 
ATOM     45  N   UNL A   1      39.964  28.900  29.664  1.00  0.00    -0.248 NA
ATOM     46  C   UNL A   1      38.652  28.844  27.735  1.00  0.00     0.031 C 
ATOM     47  C   UNL A   1      36.945  31.572  31.603  1.00  0.00     0.029 A 
ATOM     48  N   UNL A   1      38.925  30.565  31.853  1.00  0.00    -0.354 N 
ATOM     49  C   UNL A   1      40.572  28.077  28.721  1.00  0.00     0.074 A 
ATOM     50  C   UNL A   1      39.682  28.027  27.580  1.00  0.00     0.031 C 
ATOM     51  C   UNL A   1      37.406  31.887  32.823  1.00  0.00     0.029 A 
ATOM     52  C   UNL A   1      38.685  31.217  33.042  1.00  0.00     0.049 A 
ATOM     53  H   UNL A   1      39.739  30.038  31.684  1.00  0.00     0.167 HD
ATOM     54  C   UNL A   1      41.769  27.442  28.791  1.00  0.00     0.034 A 
ATOM     55  C   UNL A   1      39.400  31.259  34.183  1.00  0.00     0.034 A 
ATOM     56  C   UNL A   1      42.648  27.507  29.936  1.00  0.00     0.049 A 
ATOM     57  C   UNL A   1      40.705  30.505  34.255  1.00  0.00     0.074 A 
ATOM     58  C   UNL A   1      43.903  26.943  30.089  1.00  0.00     0.029 A 
ATOM     59  N   UNL A   1      42.362  28.165  31.125  1.00  0.00    -0.354 N 
ATOM     60  N   UNL A   1      41.287  29.770  33.336  1.00  0.00    -0.248 NA
ATOM     61  C   UNL A   1      41.454  30.594  35.516  1.00  0.00     0.031 C 
ATOM     62  C   UNL A   1      44.339  27.189  31.395  1.00  0.00     0.029 A 
ATOM     63  C   UNL A   1      43.400  27.986  32.030  1.00  0.00     0.049 A 
ATOM     64  H   UNL A   1      41.544  28.682  31.302  1.00  0.00     0.167 HD
ATOM     65  C   UNL A   1      42.487  29.340  33.897  1.00  0.00     0.074 A 
ATOM     66  C   UNL A   1      42.551  29.911  35.226  1.00  0.00     0.031 C 
ATOM     67  C   UNL A   1      43.452  28.551  33.359  1.00  0.00     0.034 A 
BRANCH  54  68
ATOM     68  C   UNL A   1      42.182  26.598  27.607  1.00  0.00     0.023 A 
ATOM     69  C   UNL A   1      41.949  25.211  27.569  1.00  0.00     0.031 A 
ATOM     70  C   UNL A   1      42.831  27.184  26.506  1.00  0.00     0.131 A 
ATOM     71  C   UNL A   1      42.431  24.448  26.495  1.00  0.00     0.055 A 
ATOM     72  C   UNL A   1      43.229  26.431  25.398  1.00  0.00     0.041 A 
ATOM     73  F   UNL A   1      43.102  28.498  26.491  1.00  0.00    -0.206 F 
ATOM     74  C   UNL A   1      43.044  25.052  25.395  1.00  0.00     0.022 A 
BRANCH  71  75
ATOM     75  S   UNL A   1      42.382  22.640  26.627  1.00  0.00     0.124 S 
ATOM     76  O   UNL A   1      42.655  22.442  28.049  1.00  0.00    -0.237 OA
ATOM     77  O   UNL A   1      41.028  22.327  26.186  1.00  0.00    -0.237 OA
ATOM     78  O   UNL A   1      43.449  22.201  25.730  1.00  0.00    -0.744 OA
ENDBRANCH  71  75
ENDBRANCH  54  68
BRANCH  55  79
ATOM     79  C   UNL A   1      38.899  32.023  35.364  1.00  0.00     0.023 A 
ATOM     80  C   UNL A   1      38.366  31.361  36.482  1.00  0.00     0.031 A 
ATOM     81  C   UNL A   1      38.898  33.429  35.371  1.00  0.00     0.131 A 
ATOM     82  C   UNL A   1      37.808  32.101  37.535  1.00  0.00     0.055 A 
ATOM     83  C   UNL A   1      38.398  34.163  36.449  1.00  0.00     0.041 A 
ATOM     84  F   UNL A   1      39.393  34.114  34.329  1.00  0.00    -0.206 F 
ATOM     85  C   UNL A   1      37.834  33.497  37.534  1.00  0.00     0.022 A 
BRANCH  82  86
ATOM     86  S   UNL A   1      36.952  31.212  38.864  1.00  0.00     0.124 S 
ATOM     87  O   UNL A   1      35.742  32.010  39.023  1.00  0.00    -0.237 OA
ATOM     88  O   UNL A   1      36.774  29.888  38.278  1.00  0.00    -0.237 OA
ATOM     89  O   UNL A   1      37.895  31.276  39.979  1.00  0.00    -0.744 OA
ENDBRANCH  82  86
ENDBRANCH  55  79
BRANCH  67  90
ATOM     90  C   UNL A   1      44.686  28.302  34.194  1.00  0.00     0.023 A 
ATOM     91  C   UNL A   1      44.761  27.243  35.117  1.00  0.00     0.031 A 
ATOM     92  C   UNL A   1      45.803  29.148  34.071  1.00  0.00     0.131 A 
ATOM     93  C   UNL A   1      45.903  27.094  35.920  1.00  0.00     0.055 A 
ATOM     94  C   UNL A   1      46.962  28.954  34.824  1.00  0.00     0.041 A 
ATOM     95  F   UNL A   1      45.789  30.179  33.212  1.00  0.00    -0.206 F 
ATOM     96  C   UNL A   1      47.011  27.929  35.764  1.00  0.00     0.022 A 
BRANCH  93  97
ATOM     97  S   UNL A   1      45.882  25.852  37.242  1.00  0.00     0.124 S 
ATOM     98  O   UNL A   1      44.696  25.071  36.906  1.00  0.00    -0.237 OA
ATOM     99  O   UNL A   1      47.163  25.178  37.057  1.00  0.00    -0.237 OA
ATOM    100  O   UNL A   1      45.773  26.651  38.461  1.00  0.00    -0.744 OA
ENDBRANCH  93  97
ENDBRANCH  67  90
ENDBRANCH  41  42
ENDBRANCH  33  36
ENDBRANCH  31  32
ENDBRANCH  30  31
ENDBRANCH  29  30
ENDBRANCH   1  29
TORSDOF 20
ENDMDL
MODEL 3
REMARK VINA RESULT:     -11.0      5.921      8.371
REMARK SMILES O=C(CCCNC(=O)COc1ccc2c3c(c(=O)oc2c1)CCC3)NCCCCNC(=O)c1ccc(-c2c3nc(c(-c4cc(S(=O)(=O)[O-])ccc4F)c4ccc([nH]4)c(-c4cc(S(=O)(=O)[O-])ccc4F)c4nc(c(-c5cc(S(=O)(=O)[O-])ccc5F)c5ccc2[nH]5)C=C4)C=C3)cc1
REMARK SMILES IDX 26 1 25 2 1 3 2 4 3 6 4 7 5 8 6 9 7 10 8 12 9 13 10 14 11 15
REMARK SMILES IDX 12 16 21 17 13 18 20 19 14 20 19 21 15 22 17 23 16 24 24 25
REMARK SMILES IDX 18 26 22 27 23 28 27 29 28 30 29 31 30 32 31 33 32 35 33 36
REMARK SMILES IDX 34 37 95 38 35 39 94 40 36 41 37 42 38 43 88 44 39 45 93 46
REMARK SMILES IDX 87 47 89 48 40 49 92 50 86 51 85 52 41 54 73 55 53 56 72 57
REMARK SMILES IDX 54 58 57 59 71 60 90 61 55 62 56 63 70 65 91 66 58 67 42 68
REMARK SMILES IDX 43 69 51 70 44 71 50 72 52 73 49 74 45 75 46 76 47 77 48 78
REMARK SMILES IDX 74 79 75 80 83 81 76 82 82 83 84 84 81 85 77 86 78 87 79 88
REMARK SMILES IDX 80 89 59 90 60 91 68 92 61 93 67 94 69 95 66 96 62 97 63 98
REMARK SMILES IDX 64 99 65 100
REMARK H PARENT 25 5 6 11 30 34 89 53 57 64
REMARK Flexibility Score: inf
ROOT
ATOM      1  C   UNL A   1      35.257  35.155  33.198  1.00  0.00     0.116 C 
ENDROOT
BRANCH   1   2
ATOM      2  N   UNL A   1      35.038  35.170  31.767  1.00  0.00    -0.356 N 
ATOM      3  O   UNL A   1      32.761  34.875  31.822  1.00  0.00    -0.275 OA
ATOM      4  C   UNL A   1      33.796  35.057  31.191  1.00  0.00     0.220 C 
ATOM      5  H   UNL A   1      35.820  35.269  31.177  1.00  0.00     0.163 HD
BRANCH   4   6
ATOM      6  C   UNL A   1      33.812  35.209  29.683  1.00  0.00     0.102 C 
BRANCH   6   7
ATOM      7  C   UNL A   1      34.009  33.874  28.961  1.00  0.00     0.031 C 
BRANCH   7   8
ATOM      8  C   UNL A   1      35.193  33.820  27.991  1.00  0.00     0.116 C 
BRANCH   8   9
ATOM      9  N   UNL A   1      36.474  33.915  28.667  1.00  0.00    -0.353 N 
ATOM     10  C   UNL A   1      37.416  32.949  28.862  1.00  0.00     0.257 C 
ATOM     11  H   UNL A   1      36.693  34.802  29.036  1.00  0.00     0.163 HD
ATOM     12  O   UNL A   1      38.470  33.288  29.402  1.00  0.00    -0.271 OA
BRANCH  10  13
ATOM     13  C   UNL A   1      37.153  31.507  28.429  1.00  0.00     0.329 C 
BRANCH  13  14
ATOM     14  O   UNL A   1      37.579  30.473  29.311  1.00  0.00    -0.484 OA
BRANCH  14  15
ATOM     15  C   UNL A   1      38.358  29.506  28.742  1.00  0.00     0.123 A 
ATOM     16  C   UNL A   1      38.307  28.245  29.342  1.00  0.00     0.047 A 
ATOM     17  C   UNL A   1      39.236  29.732  27.688  1.00  0.00     0.094 A 
ATOM     18  C   UNL A   1      39.098  27.193  28.862  1.00  0.00     0.016 A 
ATOM     19  C   UNL A   1      40.019  28.682  27.220  1.00  0.00     0.142 A 
ATOM     20  C   UNL A   1      39.963  27.408  27.788  1.00  0.00     0.021 A 
ATOM     21  O   UNL A   1      40.883  28.973  26.137  1.00  0.00    -0.422 OA
ATOM     22  C   UNL A   1      40.812  26.389  27.209  1.00  0.00    -0.027 A 
ATOM     23  C   UNL A   1      41.683  27.998  25.552  1.00  0.00     0.339 A 
ATOM     24  C   UNL A   1      41.590  26.670  26.162  1.00  0.00     0.042 A 
ATOM     25  C   UNL A   1      40.940  24.967  27.631  1.00  0.00     0.037 C 
ATOM     26  O   UNL A   1      42.430  28.229  24.613  1.00  0.00    -0.246 OA
ATOM     27  C   UNL A   1      42.357  25.488  25.691  1.00  0.00     0.044 C 
ATOM     28  C   UNL A   1      42.199  24.525  26.872  1.00  0.00     0.010 C 
ENDBRANCH  14  15
ENDBRANCH  13  14
ENDBRANCH  10  13
ENDBRANCH   8   9
ENDBRANCH   7   8
ENDBRANCH   6   7
ENDBRANCH   4   6
ENDBRANCH   1   2
BRANCH   1  29
ATOM     29  C   UNL A   1      35.402  33.730  33.732  1.00  0.00     0.023 C 
BRANCH  29  30
ATOM     30  C   UNL A   1      36.665  33.463  34.561  1.00  0.00     0.023 C 
BRANCH  30  31
ATOM     31  C   UNL A   1      37.380  32.147  34.268  1.00  0.00     0.116 C 
BRANCH  31  32
ATOM     32  N   UNL A   1      36.614  31.287  33.381  1.00  0.00    -0.352 N 
ATOM     33  C   UNL A   1      37.027  30.223  32.613  1.00  0.00     0.251 C 
ATOM     34  H   UNL A   1      35.654  31.498  33.320  1.00  0.00     0.163 HD
ATOM     35  O   UNL A   1      36.257  29.750  31.782  1.00  0.00    -0.269 OA
BRANCH  33  36
ATOM     36  C   UNL A   1      38.394  29.668  32.763  1.00  0.00     0.039 A 
ATOM     37  C   UNL A   1      38.556  28.281  32.813  1.00  0.00     0.014 A 
ATOM     38  C   UNL A   1      39.510  30.501  32.874  1.00  0.00     0.014 A 
ATOM     39  C   UNL A   1      39.839  27.731  32.900  1.00  0.00     0.010 A 
ATOM     40  C   UNL A   1      40.792  29.951  32.885  1.00  0.00     0.010 A 
ATOM     41  C   UNL A   1      40.973  28.559  32.895  1.00  0.00    -0.014 A 
BRANCH  41  42
ATOM     42  C   UNL A   1      42.348  27.986  32.891  1.00  0.00     0.031 A 
ATOM     43  C   UNL A   1      43.070  27.728  34.187  1.00  0.00     0.074 A 
ATOM     44  C   UNL A   1      42.969  27.750  31.718  1.00  0.00     0.049 A 
ATOM     45  N   UNL A   1      44.293  27.305  34.384  1.00  0.00    -0.248 NA
ATOM     46  C   UNL A   1      42.326  28.007  35.424  1.00  0.00     0.031 C 
ATOM     47  C   UNL A   1      42.390  27.987  30.393  1.00  0.00     0.029 A 
ATOM     48  N   UNL A   1      44.226  27.266  31.445  1.00  0.00    -0.354 N 
ATOM     49  C   UNL A   1      44.470  27.276  35.764  1.00  0.00     0.074 A 
ATOM     50  C   UNL A   1      43.247  27.785  36.349  1.00  0.00     0.031 C 
ATOM     51  C   UNL A   1      43.276  27.623  29.453  1.00  0.00     0.029 A 
ATOM     52  C   UNL A   1      44.507  27.179  30.100  1.00  0.00     0.049 A 
ATOM     53  H   UNL A   1      44.865  27.004  32.146  1.00  0.00     0.167 HD
ATOM     54  C   UNL A   1      45.542  26.845  36.476  1.00  0.00     0.034 A 
ATOM     55  C   UNL A   1      45.631  26.801  29.458  1.00  0.00     0.034 A 
ATOM     56  C   UNL A   1      46.752  26.335  35.876  1.00  0.00     0.049 A 
ATOM     57  C   UNL A   1      46.827  26.373  30.271  1.00  0.00     0.074 A 
ATOM     58  C   UNL A   1      47.876  25.826  36.506  1.00  0.00     0.029 A 
ATOM     59  N   UNL A   1      47.005  26.277  34.512  1.00  0.00    -0.354 N 
ATOM     60  N   UNL A   1      46.959  26.307  31.576  1.00  0.00    -0.248 NA
ATOM     61  C   UNL A   1      48.022  25.957  29.525  1.00  0.00     0.031 C 
ATOM     62  C   UNL A   1      48.835  25.540  35.530  1.00  0.00     0.029 A 
ATOM     63  C   UNL A   1      48.281  25.779  34.283  1.00  0.00     0.049 A 
ATOM     64  H   UNL A   1      46.372  26.549  33.808  1.00  0.00     0.167 HD
ATOM     65  C   UNL A   1      48.240  25.810  31.803  1.00  0.00     0.074 A 
ATOM     66  C   UNL A   1      48.832  25.577  30.502  1.00  0.00     0.031 C 
ATOM     67  C   UNL A   1      48.868  25.559  32.981  1.00  0.00     0.034 A 
BRANCH  54  68
ATOM     68  C   UNL A   1      45.461  26.937  37.982  1.00  0.00     0.023 A 
ATOM     69  C   UNL A   1      45.920  28.069  38.681  1.00  0.00     0.031 A 
ATOM     70  C   UNL A   1      44.933  25.872  38.734  1.00  0.00     0.131 A 
ATOM     71  C   UNL A   1      45.915  28.077  40.084  1.00  0.00     0.055 A 
ATOM     72  C   UNL A   1      44.849  25.924  40.127  1.00  0.00     0.041 A 
ATOM     73  F   UNL A   1      44.500  24.756  38.128  1.00  0.00    -0.206 F 
ATOM     74  C   UNL A   1      45.356  27.024  40.812  1.00  0.00     0.022 A 
BRANCH  71  75
ATOM     75  S   UNL A   1      46.787  29.413  40.944  1.00  0.00     0.124 S 
ATOM     76  O   UNL A   1      46.176  29.357  42.271  1.00  0.00    -0.237 OA
ATOM     77  O   UNL A   1      48.179  28.986  40.863  1.00  0.00    -0.237 OA
ATOM     78  O   UNL A   1      46.451  30.602  40.163  1.00  0.00    -0.744 OA
ENDBRANCH  71  75
ENDBRANCH  54  68
BRANCH  55  79
ATOM     79  C   UNL A   1      45.697  26.827  27.967  1.00  0.00     0.023 A 
ATOM     80  C   UNL A   1      45.739  25.636  27.223  1.00  0.00     0.031 A 
ATOM     81  C   UNL A   1      45.773  28.043  27.264  1.00  0.00     0.131 A 
ATOM     82  C   UNL A   1      45.906  25.685  25.831  1.00  0.00     0.055 A 
ATOM     83  C   UNL A   1      45.876  28.088  25.873  1.00  0.00     0.041 A 
ATOM     84  F   UNL A   1      45.739  29.211  27.924  1.00  0.00    -0.206 F 
ATOM     85  C   UNL A   1      45.958  26.902  25.148  1.00  0.00     0.022 A 
BRANCH  82  86
ATOM     86  S   UNL A   1      46.155  24.130  24.931  1.00  0.00     0.124 S 
ATOM     87  O   UNL A   1      47.208  24.498  23.991  1.00  0.00    -0.237 OA
ATOM     88  O   UNL A   1      46.543  23.218  26.002  1.00  0.00    -0.237 OA
ATOM     89  O   UNL A   1      44.847  23.868  24.334  1.00  0.00    -0.744 OA
ENDBRANCH  82  86
ENDBRANCH  55  79
BRANCH  67  90
ATOM     90  C   UNL A   1      50.251  24.957  32.912  1.00  0.00     0.023 A 
ATOM     91  C   UNL A   1      50.461  23.566  32.935  1.00  0.00     0.031 A 
ATOM     92  C   UNL A   1      51.380  25.792  32.833  1.00  0.00     0.131 A 
ATOM     93  C   UNL A   1      51.769  23.056  32.939  1.00  0.00     0.055 A 
ATOM     94  C   UNL A   1      52.676  25.277  32.767  1.00  0.00     0.041 A 
ATOM     95  F   UNL A   1      51.244  27.127  32.812  1.00  0.00    -0.206 F 
ATOM     96  C   UNL A   1      52.876  23.901  32.833  1.00  0.00     0.022 A 
BRANCH  93  97
ATOM     97  S   UNL A   1      52.008  21.275  33.182  1.00  0.00     0.124 S 
ATOM     98  O   UNL A   1      52.958  20.949  32.123  1.00  0.00    -0.237 OA
ATOM     99  O   UNL A   1      52.526  21.212  34.545  1.00  0.00    -0.237 OA
ATOM    100  O   UNL A   1      50.668  20.721  33.003  1.00  0.00    -0.744 OA
ENDBRANCH  93  97
ENDBRANCH  67  90
ENDBRANCH  41  42
ENDBRANCH  33  36
ENDBRANCH  31  32
ENDBRANCH  30  31
ENDBRANCH  29  30
ENDBRANCH   1  29
TORSDOF 20
ENDMDL
