MODEL 1
REMARK VINA RESULT:     -12.5      0.000      0.000
REMARK SMILES O=C(NCCCCNC(=O)[C@@H](c1cccc(O)c1)[NH+]1CC[NH+](C2CCCC2)CC1)c1ccc(-c2c3nc(c(-c4cc(S(=O)(=O)[O-])ccc4F)c4ccc([nH]4)c(-c4cc(S(=O)(=O)[O-])ccc4F)c4nc(c(-c5cc(S(=O)(=O)[O-])ccc5F)c5ccc2[nH]5)C=C4)C=C3)cc1
REMARK SMILES IDX 5 1 4 2 3 3 1 4 2 5 30 7 31 8 92 9 32 10 91 11 33 12 34 13
REMARK SMILES IDX 35 14 85 15 36 16 90 17 84 18 86 19 37 20 89 21 83 22 82 23
REMARK SMILES IDX 38 25 70 26 50 27 69 28 51 29 54 30 68 31 87 32 52 33 53 34
REMARK SMILES IDX 67 36 88 37 55 38 39 39 40 40 48 41 41 42 47 43 49 44 46 45
REMARK SMILES IDX 42 46 43 47 44 48 45 49 71 50 72 51 80 52 73 53 79 54 81 55
REMARK SMILES IDX 78 56 74 57 75 58 76 59 77 60 56 61 57 62 65 63 58 64 64 65
REMARK SMILES IDX 66 66 63 67 59 68 60 69 61 70 62 71 6 72 7 73 8 74 9 75
REMARK SMILES IDX 10 77 11 78 12 79 13 80 18 81 14 82 16 83 15 84 17 85 19 87
REMARK SMILES IDX 20 88 29 89 21 91 28 92 22 93 23 95 24 96 27 97 25 98 26 99
REMARK H PARENT 3 6 86 24 54 35 8 76 17 86 19 90 22 94
REMARK Flexibility Score: inf
ROOT
ATOM      1  C   UNL A   1      31.705  31.474  27.015  1.00  0.00     0.023 C 
ENDROOT
BRANCH   1   2
ATOM      2  C   UNL A   1      32.894  32.403  27.284  1.00  0.00     0.116 C 
BRANCH   2   3
ATOM      3  N   UNL A   1      32.532  33.783  27.554  1.00  0.00    -0.352 N 
ATOM      4  O   UNL A   1      32.647  35.794  28.583  1.00  0.00    -0.269 OA
ATOM      5  C   UNL A   1      33.100  34.667  28.453  1.00  0.00     0.251 C 
ATOM      6  H   UNL A   1      31.780  34.138  27.026  1.00  0.00     0.163 HD
BRANCH   5   7
ATOM      7  C   UNL A   1      34.246  34.224  29.292  1.00  0.00     0.039 A 
ATOM      8  C   UNL A   1      35.564  34.477  28.904  1.00  0.00     0.014 A 
ATOM      9  C   UNL A   1      33.992  33.510  30.466  1.00  0.00     0.014 A 
ATOM     10  C   UNL A   1      36.617  33.868  29.587  1.00  0.00     0.010 A 
ATOM     11  C   UNL A   1      35.058  32.966  31.197  1.00  0.00     0.010 A 
ATOM     12  C   UNL A   1      36.378  33.095  30.736  1.00  0.00    -0.014 A 
BRANCH  12  13
ATOM     13  C   UNL A   1      37.517  32.434  31.435  1.00  0.00     0.031 A 
ATOM     14  C   UNL A   1      38.287  31.314  30.778  1.00  0.00     0.074 A 
ATOM     15  C   UNL A   1      37.881  32.863  32.660  1.00  0.00     0.049 A 
ATOM     16  N   UNL A   1      39.296  30.618  31.243  1.00  0.00    -0.248 NA
ATOM     17  C   UNL A   1      37.863  30.919  29.427  1.00  0.00     0.031 C 
ATOM     18  C   UNL A   1      37.217  33.935  33.405  1.00  0.00     0.029 A 
ATOM     19  N   UNL A   1      38.899  32.464  33.490  1.00  0.00    -0.354 N 
ATOM     20  C   UNL A   1      39.612  29.688  30.257  1.00  0.00     0.074 A 
ATOM     21  C   UNL A   1      38.667  29.893  29.178  1.00  0.00     0.031 C 
ATOM     22  C   UNL A   1      37.864  34.131  34.564  1.00  0.00     0.029 A 
ATOM     23  C   UNL A   1      38.947  33.160  34.676  1.00  0.00     0.049 A 
ATOM     24  H   UNL A   1      39.534  31.749  33.258  1.00  0.00     0.167 HD
ATOM     25  C   UNL A   1      40.599  28.756  30.248  1.00  0.00     0.034 A 
ATOM     26  C   UNL A   1      39.752  33.022  35.747  1.00  0.00     0.034 A 
ATOM     27  C   UNL A   1      41.547  28.572  31.324  1.00  0.00     0.049 A 
ATOM     28  C   UNL A   1      40.826  31.968  35.724  1.00  0.00     0.074 A 
ATOM     29  C   UNL A   1      42.611  27.689  31.394  1.00  0.00     0.029 A 
ATOM     30  N   UNL A   1      41.542  29.276  32.522  1.00  0.00    -0.354 N 
ATOM     31  N   UNL A   1      41.114  31.106  34.776  1.00  0.00    -0.248 NA
ATOM     32  C   UNL A   1      41.682  31.870  36.911  1.00  0.00     0.031 C 
ATOM     33  C   UNL A   1      43.207  27.812  32.654  1.00  0.00     0.029 A 
ATOM     34  C   UNL A   1      42.562  28.824  33.347  1.00  0.00     0.049 A 
ATOM     35  H   UNL A   1      40.906  29.992  32.752  1.00  0.00     0.167 HD
ATOM     36  C   UNL A   1      42.196  30.371  35.251  1.00  0.00     0.074 A 
ATOM     37  C   UNL A   1      42.521  30.907  36.558  1.00  0.00     0.031 C 
ATOM     38  C   UNL A   1      42.861  29.347  34.659  1.00  0.00     0.034 A 
BRANCH  25  39
ATOM     39  C   UNL A   1      40.678  27.829  29.057  1.00  0.00     0.023 A 
ATOM     40  C   UNL A   1      41.615  28.017  28.026  1.00  0.00     0.031 A 
ATOM     41  C   UNL A   1      39.797  26.737  28.953  1.00  0.00     0.131 A 
ATOM     42  C   UNL A   1      41.608  27.166  26.909  1.00  0.00     0.055 A 
ATOM     43  C   UNL A   1      39.843  25.852  27.873  1.00  0.00     0.041 A 
ATOM     44  F   UNL A   1      38.869  26.516  29.897  1.00  0.00    -0.206 F 
ATOM     45  C   UNL A   1      40.744  26.071  26.836  1.00  0.00     0.022 A 
BRANCH  42  46
ATOM     46  S   UNL A   1      42.661  27.583  25.491  1.00  0.00     0.124 S 
ATOM     47  O   UNL A   1      42.507  26.398  24.650  1.00  0.00    -0.237 OA
ATOM     48  O   UNL A   1      42.046  28.806  24.990  1.00  0.00    -0.237 OA
ATOM     49  O   UNL A   1      43.986  27.748  26.084  1.00  0.00    -0.744 OA
ENDBRANCH  42  46
ENDBRANCH  25  39
BRANCH  26  50
ATOM     50  C   UNL A   1      39.544  33.877  36.949  1.00  0.00     0.023 A 
ATOM     51  C   UNL A   1      38.932  33.372  38.106  1.00  0.00     0.031 A 
ATOM     52  C   UNL A   1      39.950  35.223  36.948  1.00  0.00     0.131 A 
ATOM     53  C   UNL A   1      38.717  34.216  39.206  1.00  0.00     0.055 A 
ATOM     54  C   UNL A   1      39.778  36.046  38.061  1.00  0.00     0.041 A 
ATOM     55  F   UNL A   1      40.545  35.752  35.867  1.00  0.00    -0.206 F 
ATOM     56  C   UNL A   1      39.149  35.545  39.196  1.00  0.00     0.022 A 
BRANCH  53  57
ATOM     57  S   UNL A   1      37.807  33.570  40.635  1.00  0.00     0.124 S 
ATOM     58  O   UNL A   1      37.547  34.785  41.397  1.00  0.00    -0.237 OA
ATOM     59  O   UNL A   1      36.648  32.950  39.999  1.00  0.00    -0.237 OA
ATOM     60  O   UNL A   1      38.751  32.637  41.247  1.00  0.00    -0.744 OA
ENDBRANCH  53  57
ENDBRANCH  26  50
BRANCH  38  61
ATOM     61  C   UNL A   1      44.024  28.763  35.422  1.00  0.00     0.023 A 
ATOM     62  C   UNL A   1      43.864  27.659  36.279  1.00  0.00     0.031 A 
ATOM     63  C   UNL A   1      45.303  29.336  35.311  1.00  0.00     0.131 A 
ATOM     64  C   UNL A   1      44.952  27.201  37.038  1.00  0.00     0.055 A 
ATOM     65  C   UNL A   1      46.394  28.841  36.027  1.00  0.00     0.041 A 
ATOM     66  F   UNL A   1      45.511  30.393  34.509  1.00  0.00    -0.206 F 
ATOM     67  C   UNL A   1      46.220  27.775  36.905  1.00  0.00     0.022 A 
BRANCH  64  68
ATOM     68  S   UNL A   1      44.669  25.901  38.271  1.00  0.00     0.124 S 
ATOM     69  O   UNL A   1      44.273  26.676  39.443  1.00  0.00    -0.237 OA
ATOM     70  O   UNL A   1      43.618  25.103  37.648  1.00  0.00    -0.237 OA
ATOM     71  O   UNL A   1      45.968  25.239  38.377  1.00  0.00    -0.744 OA
ENDBRANCH  64  68
ENDBRANCH  38  61
ENDBRANCH  12  13
ENDBRANCH   5   7
ENDBRANCH   2   3
ENDBRANCH   1   2
BRANCH   1  72
ATOM     72  C   UNL A   1      31.775  30.602  25.749  1.00  0.00     0.023 C 
BRANCH  72  73
ATOM     73  C   UNL A   1      32.927  29.605  25.789  1.00  0.00     0.116 C 
BRANCH  73  74
ATOM     74  N   UNL A   1      33.593  29.294  24.540  1.00  0.00    -0.351 N 
ATOM     75  C   UNL A   1      33.128  28.710  23.391  1.00  0.00     0.283 C 
ATOM     76  H   UNL A   1      34.545  29.546  24.512  1.00  0.00     0.163 HD
ATOM     77  O   UNL A   1      33.732  28.993  22.347  1.00  0.00    -0.268 OA
BRANCH  75  78
ATOM     78  C   UNL A   1      31.970  27.656  23.381  1.00  0.00     0.306 C 
BRANCH  78  79
ATOM     79  C   UNL A   1      30.598  28.317  23.018  1.00  0.00     0.023 A 
ATOM     80  C   UNL A   1      29.325  27.835  23.377  1.00  0.00     0.011 A 
ATOM     81  C   UNL A   1      30.585  29.599  22.420  1.00  0.00     0.056 A 
ATOM     82  C   UNL A   1      28.133  28.479  23.010  1.00  0.00     0.004 A 
ATOM     83  C   UNL A   1      29.400  30.260  22.082  1.00  0.00     0.116 A 
ATOM     84  C   UNL A   1      28.166  29.691  22.342  1.00  0.00     0.046 A 
BRANCH  83  85
ATOM     85  O   UNL A   1      29.504  31.488  21.502  1.00  0.00    -0.508 OA
ATOM     86  H   UNL A   1      30.062  31.609  20.759  1.00  0.00     0.293 HD
ENDBRANCH  83  85
ENDBRANCH  78  79
BRANCH  78  87
ATOM     87  N   UNL A   1      32.414  26.279  22.962  1.00  0.00    -0.312 N 
ATOM     88  C   UNL A   1      33.674  25.750  23.446  1.00  0.00     0.325 C 
ATOM     89  C   UNL A   1      31.457  25.159  22.878  1.00  0.00     0.325 C 
ATOM     90  H   UNL A   1      32.541  26.635  22.015  1.00  0.00     0.349 HD
ATOM     91  C   UNL A   1      33.490  25.291  24.898  1.00  0.00     0.324 C 
ATOM     92  C   UNL A   1      31.789  23.901  23.783  1.00  0.00     0.324 C 
ATOM     93  N   UNL A   1      32.554  24.160  25.022  1.00  0.00    -0.323 N 
ATOM     94  H   UNL A   1      31.808  24.415  25.670  1.00  0.00     0.348 HD
BRANCH  93  95
ATOM     95  C   UNL A   1      33.201  23.014  25.659  1.00  0.00     0.184 C 
ATOM     96  C   UNL A   1      34.727  22.952  25.637  1.00  0.00     0.065 C 
ATOM     97  C   UNL A   1      32.898  22.804  27.151  1.00  0.00     0.065 C 
ATOM     98  C   UNL A   1      35.011  21.748  26.533  1.00  0.00     0.006 C 
ATOM     99  C   UNL A   1      33.928  21.776  27.612  1.00  0.00     0.006 C 
ENDBRANCH  93  95
ENDBRANCH  78  87
ENDBRANCH  75  78
ENDBRANCH  73  74
ENDBRANCH  72  73
ENDBRANCH   1  72
TORSDOF 18
ENDMDL
MODEL 2
REMARK VINA RESULT:     -12.4      5.483      9.048
REMARK SMILES O=C(NCCCCNC(=O)[C@@H](c1cccc(O)c1)[NH+]1CC[NH+](C2CCCC2)CC1)c1ccc(-c2c3nc(c(-c4cc(S(=O)(=O)[O-])ccc4F)c4ccc([nH]4)c(-c4cc(S(=O)(=O)[O-])ccc4F)c4nc(c(-c5cc(S(=O)(=O)[O-])ccc5F)c5ccc2[nH]5)C=C4)C=C3)cc1
REMARK SMILES IDX 5 1 4 2 3 3 1 4 2 5 30 7 31 8 92 9 32 10 91 11 33 12 34 13
REMARK SMILES IDX 35 14 85 15 36 16 90 17 84 18 86 19 37 20 89 21 83 22 82 23
REMARK SMILES IDX 38 25 70 26 50 27 69 28 51 29 54 30 68 31 87 32 52 33 53 34
REMARK SMILES IDX 67 36 88 37 55 38 39 39 40 40 48 41 41 42 47 43 49 44 46 45
REMARK SMILES IDX 42 46 43 47 44 48 45 49 71 50 72 51 80 52 73 53 79 54 81 55
REMARK SMILES IDX 78 56 74 57 75 58 76 59 77 60 56 61 57 62 65 63 58 64 64 65
REMARK SMILES IDX 66 66 63 67 59 68 60 69 61 70 62 71 6 72 7 73 8 74 9 75
REMARK SMILES IDX 10 77 11 78 12 79 13 80 18 81 14 82 16 83 15 84 17 85 19 87
REMARK SMILES IDX 20 88 29 89 21 91 28 92 22 93 23 95 24 96 27 97 25 98 26 99
REMARK H PARENT 3 6 86 24 54 35 8 76 17 86 19 90 22 94
REMARK Flexibility Score: inf
ROOT
ATOM      1  C   UNL A   1      36.259  21.522  25.664  1.00  0.00     0.023 C 
ENDROOT
BRANCH   1   2
ATOM      2  C   UNL A   1      37.624  21.521  24.966  1.00  0.00     0.116 C 
BRANCH   2   3
ATOM      3  N   UNL A   1      38.550  20.515  25.454  1.00  0.00    -0.352 N 
ATOM      4  O   UNL A   1      40.367  19.723  26.544  1.00  0.00    -0.269 OA
ATOM      5  C   UNL A   1      39.668  20.681  26.250  1.00  0.00     0.251 C 
ATOM      6  H   UNL A   1      38.356  19.588  25.181  1.00  0.00     0.163 HD
BRANCH   5   7
ATOM      7  C   UNL A   1      40.039  22.044  26.718  1.00  0.00     0.039 A 
ATOM      8  C   UNL A   1      39.487  23.184  26.129  1.00  0.00     0.014 A 
ATOM      9  C   UNL A   1      40.986  22.178  27.737  1.00  0.00     0.014 A 
ATOM     10  C   UNL A   1      40.008  24.442  26.430  1.00  0.00     0.010 A 
ATOM     11  C   UNL A   1      41.451  23.451  28.096  1.00  0.00     0.010 A 
ATOM     12  C   UNL A   1      41.005  24.593  27.410  1.00  0.00    -0.014 A 
BRANCH  12  13
ATOM     13  C   UNL A   1      41.564  25.945  27.698  1.00  0.00     0.031 A 
ATOM     14  C   UNL A   1      42.918  26.354  27.171  1.00  0.00     0.074 A 
ATOM     15  C   UNL A   1      40.835  26.822  28.416  1.00  0.00     0.049 A 
ATOM     16  N   UNL A   1      43.564  27.483  27.335  1.00  0.00    -0.248 NA
ATOM     17  C   UNL A   1      43.645  25.363  26.365  1.00  0.00     0.031 C 
ATOM     18  C   UNL A   1      39.513  26.550  28.984  1.00  0.00     0.029 A 
ATOM     19  N   UNL A   1      41.091  28.120  28.782  1.00  0.00    -0.354 N 
ATOM     20  C   UNL A   1      44.780  27.332  26.675  1.00  0.00     0.074 A 
ATOM     21  C   UNL A   1      44.791  25.989  26.131  1.00  0.00     0.031 C 
ATOM     22  C   UNL A   1      39.061  27.654  29.596  1.00  0.00     0.029 A 
ATOM     23  C   UNL A   1      40.083  28.693  29.522  1.00  0.00     0.049 A 
ATOM     24  H   UNL A   1      41.918  28.596  28.538  1.00  0.00     0.167 HD
ATOM     25  C   UNL A   1      45.789  28.229  26.530  1.00  0.00     0.034 A 
ATOM     26  C   UNL A   1      39.992  29.907  30.099  1.00  0.00     0.034 A 
ATOM     27  C   UNL A   1      45.758  29.572  27.062  1.00  0.00     0.049 A 
ATOM     28  C   UNL A   1      41.132  30.877  29.943  1.00  0.00     0.074 A 
ATOM     29  C   UNL A   1      46.708  30.572  26.932  1.00  0.00     0.029 A 
ATOM     30  N   UNL A   1      44.732  30.104  27.833  1.00  0.00    -0.354 N 
ATOM     31  N   UNL A   1      42.269  30.718  29.305  1.00  0.00    -0.248 NA
ATOM     32  C   UNL A   1      40.975  32.189  30.581  1.00  0.00     0.031 C 
ATOM     33  C   UNL A   1      46.287  31.681  27.675  1.00  0.00     0.029 A 
ATOM     34  C   UNL A   1      45.040  31.402  28.211  1.00  0.00     0.049 A 
ATOM     35  H   UNL A   1      43.905  29.627  28.075  1.00  0.00     0.167 HD
ATOM     36  C   UNL A   1      42.958  31.917  29.456  1.00  0.00     0.074 A 
ATOM     37  C   UNL A   1      42.098  32.796  30.225  1.00  0.00     0.031 C 
ATOM     38  C   UNL A   1      44.188  32.261  29.000  1.00  0.00     0.034 A 
BRANCH  25  39
ATOM     39  C   UNL A   1      47.034  27.773  25.805  1.00  0.00     0.023 A 
ATOM     40  C   UNL A   1      47.230  28.015  24.433  1.00  0.00     0.031 A 
ATOM     41  C   UNL A   1      48.043  27.082  26.500  1.00  0.00     0.131 A 
ATOM     42  C   UNL A   1      48.374  27.516  23.791  1.00  0.00     0.055 A 
ATOM     43  C   UNL A   1      49.213  26.651  25.870  1.00  0.00     0.041 A 
ATOM     44  F   UNL A   1      47.906  26.806  27.807  1.00  0.00    -0.206 F 
ATOM     45  C   UNL A   1      49.378  26.857  24.504  1.00  0.00     0.022 A 
BRANCH  42  46
ATOM     46  S   UNL A   1      48.477  27.633  21.982  1.00  0.00     0.124 S 
ATOM     47  O   UNL A   1      47.172  28.200  21.648  1.00  0.00    -0.237 OA
ATOM     48  O   UNL A   1      49.624  28.510  21.788  1.00  0.00    -0.237 OA
ATOM     49  O   UNL A   1      48.672  26.247  21.559  1.00  0.00    -0.744 OA
ENDBRANCH  42  46
ENDBRANCH  25  39
BRANCH  26  50
ATOM     50  C   UNL A   1      38.796  30.256  30.915  1.00  0.00     0.023 A 
ATOM     51  C   UNL A   1      37.744  31.014  30.380  1.00  0.00     0.031 A 
ATOM     52  C   UNL A   1      38.698  29.839  32.255  1.00  0.00     0.131 A 
ATOM     53  C   UNL A   1      36.650  31.356  31.189  1.00  0.00     0.055 A 
ATOM     54  C   UNL A   1      37.586  30.141  33.041  1.00  0.00     0.041 A 
ATOM     55  F   UNL A   1      39.676  29.107  32.811  1.00  0.00    -0.206 F 
ATOM     56  C   UNL A   1      36.558  30.913  32.511  1.00  0.00     0.022 A 
BRANCH  53  57
ATOM     57  S   UNL A   1      35.371  32.446  30.508  1.00  0.00     0.124 S 
ATOM     58  O   UNL A   1      34.406  32.493  31.601  1.00  0.00    -0.237 OA
ATOM     59  O   UNL A   1      36.120  33.673  30.260  1.00  0.00    -0.237 OA
ATOM     60  O   UNL A   1      34.924  31.740  29.310  1.00  0.00    -0.744 OA
ENDBRANCH  53  57
ENDBRANCH  26  50
BRANCH  38  61
ATOM     61  C   UNL A   1      44.658  33.662  29.305  1.00  0.00     0.023 A 
ATOM     62  C   UNL A   1      44.419  34.729  28.421  1.00  0.00     0.031 A 
ATOM     63  C   UNL A   1      45.380  33.926  30.483  1.00  0.00     0.131 A 
ATOM     64  C   UNL A   1      44.948  35.999  28.699  1.00  0.00     0.055 A 
ATOM     65  C   UNL A   1      45.856  35.203  30.781  1.00  0.00     0.041 A 
ATOM     66  F   UNL A   1      45.639  32.943  31.360  1.00  0.00    -0.206 F 
ATOM     67  C   UNL A   1      45.652  36.245  29.881  1.00  0.00     0.022 A 
BRANCH  64  68
ATOM     68  S   UNL A   1      44.783  37.304  27.451  1.00  0.00     0.124 S 
ATOM     69  O   UNL A   1      44.897  38.513  28.260  1.00  0.00    -0.237 OA
ATOM     70  O   UNL A   1      45.901  37.026  26.557  1.00  0.00    -0.237 OA
ATOM     71  O   UNL A   1      43.459  37.066  26.879  1.00  0.00    -0.744 OA
ENDBRANCH  64  68
ENDBRANCH  38  61
ENDBRANCH  12  13
ENDBRANCH   5   7
ENDBRANCH   2   3
ENDBRANCH   1   2
BRANCH   1  72
ATOM     72  C   UNL A   1      35.827  22.834  26.344  1.00  0.00     0.023 C 
BRANCH  72  73
ATOM     73  C   UNL A   1      35.951  24.039  25.419  1.00  0.00     0.116 C 
BRANCH  73  74
ATOM     74  N   UNL A   1      34.931  25.065  25.510  1.00  0.00    -0.351 N 
ATOM     75  C   UNL A   1      33.718  25.188  24.884  1.00  0.00     0.283 C 
ATOM     76  H   UNL A   1      35.146  25.800  26.128  1.00  0.00     0.163 HD
ATOM     77  O   UNL A   1      32.861  25.862  25.473  1.00  0.00    -0.268 OA
BRANCH  75  78
ATOM     78  C   UNL A   1      33.435  24.613  23.455  1.00  0.00     0.306 C 
BRANCH  78  79
ATOM     79  C   UNL A   1      32.964  23.121  23.522  1.00  0.00     0.023 A 
ATOM     80  C   UNL A   1      32.743  22.372  24.693  1.00  0.00     0.011 A 
ATOM     81  C   UNL A   1      32.552  22.473  22.333  1.00  0.00     0.056 A 
ATOM     82  C   UNL A   1      32.326  21.032  24.676  1.00  0.00     0.004 A 
ATOM     83  C   UNL A   1      32.104  21.149  22.314  1.00  0.00     0.116 A 
ATOM     84  C   UNL A   1      32.021  20.407  23.478  1.00  0.00     0.046 A 
BRANCH  83  85
ATOM     85  O   UNL A   1      31.741  20.622  21.112  1.00  0.00    -0.508 OA
ATOM     86  H   UNL A   1      31.117  19.923  21.076  1.00  0.00     0.293 HD
ENDBRANCH  83  85
ENDBRANCH  78  79
BRANCH  78  87
ATOM     87  N   UNL A   1      32.932  25.645  22.480  1.00  0.00    -0.312 N 
ATOM     88  C   UNL A   1      31.522  25.699  22.152  1.00  0.00     0.325 C 
ATOM     89  C   UNL A   1      33.446  27.029  22.497  1.00  0.00     0.325 C 
ATOM     90  H   UNL A   1      33.431  25.151  21.740  1.00  0.00     0.349 HD
ATOM     91  C   UNL A   1      30.773  26.373  23.309  1.00  0.00     0.324 C 
ATOM     92  C   UNL A   1      32.360  28.162  22.718  1.00  0.00     0.324 C 
ATOM     93  N   UNL A   1      31.155  27.785  23.488  1.00  0.00    -0.323 N 
ATOM     94  H   UNL A   1      31.478  27.923  24.446  1.00  0.00     0.348 HD
BRANCH  93  95
ATOM     95  C   UNL A   1      29.989  28.660  23.375  1.00  0.00     0.184 C 
ATOM     96  C   UNL A   1      29.949  29.650  22.212  1.00  0.00     0.065 C 
ATOM     97  C   UNL A   1      28.626  27.963  23.243  1.00  0.00     0.065 C 
ATOM     98  C   UNL A   1      28.540  30.227  22.333  1.00  0.00     0.006 C 
ATOM     99  C   UNL A   1      27.665  29.073  22.824  1.00  0.00     0.006 C 
ENDBRANCH  93  95
ENDBRANCH  78  87
ENDBRANCH  75  78
ENDBRANCH  73  74
ENDBRANCH  72  73
ENDBRANCH   1  72
TORSDOF 18
ENDMDL
MODEL 3
REMARK VINA RESULT:     -12.3      2.284      7.937
REMARK SMILES O=C(NCCCCNC(=O)[C@@H](c1cccc(O)c1)[NH+]1CC[NH+](C2CCCC2)CC1)c1ccc(-c2c3nc(c(-c4cc(S(=O)(=O)[O-])ccc4F)c4ccc([nH]4)c(-c4cc(S(=O)(=O)[O-])ccc4F)c4nc(c(-c5cc(S(=O)(=O)[O-])ccc5F)c5ccc2[nH]5)C=C4)C=C3)cc1
REMARK SMILES IDX 5 1 4 2 3 3 1 4 2 5 30 7 31 8 92 9 32 10 91 11 33 12 34 13
REMARK SMILES IDX 35 14 85 15 36 16 90 17 84 18 86 19 37 20 89 21 83 22 82 23
REMARK SMILES IDX 38 25 70 26 50 27 69 28 51 29 54 30 68 31 87 32 52 33 53 34
REMARK SMILES IDX 67 36 88 37 55 38 39 39 40 40 48 41 41 42 47 43 49 44 46 45
REMARK SMILES IDX 42 46 43 47 44 48 45 49 71 50 72 51 80 52 73 53 79 54 81 55
REMARK SMILES IDX 78 56 74 57 75 58 76 59 77 60 56 61 57 62 65 63 58 64 64 65
REMARK SMILES IDX 66 66 63 67 59 68 60 69 61 70 62 71 6 72 7 73 8 74 9 75
REMARK SMILES IDX 10 77 11 78 12 79 13 80 18 81 14 82 16 83 15 84 17 85 19 87
REMARK SMILES IDX 20 88 29 89 21 91 28 92 22 93 23 95 24 96 27 97 25 98 26 99
REMARK H PARENT 3 6 86 24 54 35 8 76 17 86 19 90 22 94
REMARK Flexibility Score: inf
ROOT
ATOM      1  C   UNL A   1      31.787  30.395  25.800  1.00  0.00     0.023 C 
ENDROOT
BRANCH   1   2
ATOM      2  C   UNL A   1      32.271  30.945  27.146  1.00  0.00     0.116 C 
BRANCH   2   3
ATOM      3  N   UNL A   1      32.415  32.389  27.190  1.00  0.00    -0.352 N 
ATOM      4  O   UNL A   1      33.444  34.358  27.614  1.00  0.00    -0.269 OA
ATOM      5  C   UNL A   1      33.501  33.138  27.607  1.00  0.00     0.251 C 
ATOM      6  H   UNL A   1      31.636  32.906  26.882  1.00  0.00     0.163 HD
BRANCH   5   7
ATOM      7  C   UNL A   1      34.729  32.447  28.085  1.00  0.00     0.039 A 
ATOM      8  C   UNL A   1      34.690  31.116  28.504  1.00  0.00     0.014 A 
ATOM      9  C   UNL A   1      35.928  33.162  28.150  1.00  0.00     0.014 A 
ATOM     10  C   UNL A   1      35.794  30.559  29.148  1.00  0.00     0.010 A 
ATOM     11  C   UNL A   1      37.062  32.572  28.726  1.00  0.00     0.010 A 
ATOM     12  C   UNL A   1      36.993  31.283  29.279  1.00  0.00    -0.014 A 
BRANCH  12  13
ATOM     13  C   UNL A   1      38.152  30.676  29.993  1.00  0.00     0.031 A 
ATOM     14  C   UNL A   1      38.426  30.997  31.442  1.00  0.00     0.074 A 
ATOM     15  C   UNL A   1      38.949  29.806  29.341  1.00  0.00     0.049 A 
ATOM     16  N   UNL A   1      39.395  30.571  32.216  1.00  0.00    -0.248 NA
ATOM     17  C   UNL A   1      37.498  31.923  32.105  1.00  0.00     0.031 C 
ATOM     18  C   UNL A   1      38.794  29.413  27.938  1.00  0.00     0.029 A 
ATOM     19  N   UNL A   1      40.038  29.087  29.766  1.00  0.00    -0.354 N 
ATOM     20  C   UNL A   1      39.209  31.193  33.447  1.00  0.00     0.074 A 
ATOM     21  C   UNL A   1      38.048  32.049  33.306  1.00  0.00     0.031 C 
ATOM     22  C   UNL A   1      39.728  28.502  27.630  1.00  0.00     0.029 A 
ATOM     23  C   UNL A   1      40.589  28.291  28.789  1.00  0.00     0.049 A 
ATOM     24  H   UNL A   1      40.391  29.136  30.684  1.00  0.00     0.167 HD
ATOM     25  C   UNL A   1      39.933  31.061  34.587  1.00  0.00     0.034 A 
ATOM     26  C   UNL A   1      41.678  27.498  28.808  1.00  0.00     0.034 A 
ATOM     27  C   UNL A   1      41.079  30.191  34.721  1.00  0.00     0.049 A 
ATOM     28  C   UNL A   1      42.477  27.383  30.077  1.00  0.00     0.074 A 
ATOM     29  C   UNL A   1      41.852  29.951  35.844  1.00  0.00     0.029 A 
ATOM     30  N   UNL A   1      41.625  29.425  33.698  1.00  0.00    -0.354 N 
ATOM     31  N   UNL A   1      42.277  27.972  31.234  1.00  0.00    -0.248 NA
ATOM     32  C   UNL A   1      43.644  26.495  30.045  1.00  0.00     0.031 C 
ATOM     33  C   UNL A   1      42.899  29.094  35.486  1.00  0.00     0.029 A 
ATOM     34  C   UNL A   1      42.740  28.740  34.157  1.00  0.00     0.049 A 
ATOM     35  H   UNL A   1      41.270  29.377  32.781  1.00  0.00     0.167 HD
ATOM     36  C   UNL A   1      43.290  27.515  32.070  1.00  0.00     0.074 A 
ATOM     37  C   UNL A   1      44.083  26.584  31.293  1.00  0.00     0.031 C 
ATOM     38  C   UNL A   1      43.541  27.834  33.366  1.00  0.00     0.034 A 
BRANCH  25  39
ATOM     39  C   UNL A   1      39.536  31.911  35.773  1.00  0.00     0.023 A 
ATOM     40  C   UNL A   1      38.717  31.418  36.804  1.00  0.00     0.031 A 
ATOM     41  C   UNL A   1      39.986  33.241  35.870  1.00  0.00     0.131 A 
ATOM     42  C   UNL A   1      38.324  32.266  37.852  1.00  0.00     0.055 A 
ATOM     43  C   UNL A   1      39.650  34.057  36.953  1.00  0.00     0.041 A 
ATOM     44  F   UNL A   1      40.756  33.773  34.908  1.00  0.00    -0.206 F 
ATOM     45  C   UNL A   1      38.803  33.575  37.946  1.00  0.00     0.022 A 
BRANCH  42  46
ATOM     46  S   UNL A   1      37.075  31.674  39.029  1.00  0.00     0.124 S 
ATOM     47  O   UNL A   1      37.802  31.752  40.294  1.00  0.00    -0.237 OA
ATOM     48  O   UNL A   1      35.994  32.635  38.851  1.00  0.00    -0.237 OA
ATOM     49  O   UNL A   1      36.786  30.317  38.569  1.00  0.00    -0.744 OA
ENDBRANCH  42  46
ENDBRANCH  25  39
BRANCH  26  50
ATOM     50  C   UNL A   1      42.100  26.784  27.570  1.00  0.00     0.023 A 
ATOM     51  C   UNL A   1      41.914  25.401  27.426  1.00  0.00     0.031 A 
ATOM     52  C   UNL A   1      42.708  27.485  26.513  1.00  0.00     0.131 A 
ATOM     53  C   UNL A   1      42.359  24.756  26.262  1.00  0.00     0.055 A 
ATOM     54  C   UNL A   1      43.105  26.847  25.338  1.00  0.00     0.041 A 
ATOM     55  F   UNL A   1      42.903  28.810  26.600  1.00  0.00    -0.206 F 
ATOM     56  C   UNL A   1      42.939  25.472  25.211  1.00  0.00     0.022 A 
BRANCH  53  57
ATOM     57  S   UNL A   1      42.224  22.951  26.162  1.00  0.00     0.124 S 
ATOM     58  O   UNL A   1      43.038  22.527  27.296  1.00  0.00    -0.237 OA
ATOM     59  O   UNL A   1      40.785  22.748  26.294  1.00  0.00    -0.237 OA
ATOM     60  O   UNL A   1      42.776  22.640  24.846  1.00  0.00    -0.744 OA
ENDBRANCH  53  57
ENDBRANCH  26  50
BRANCH  38  61
ATOM     61  C   UNL A   1      44.711  27.144  34.020  1.00  0.00     0.023 A 
ATOM     62  C   UNL A   1      44.559  25.928  34.710  1.00  0.00     0.031 A 
ATOM     63  C   UNL A   1      45.990  27.726  33.978  1.00  0.00     0.131 A 
ATOM     64  C   UNL A   1      45.654  25.363  35.380  1.00  0.00     0.055 A 
ATOM     65  C   UNL A   1      47.089  27.131  34.600  1.00  0.00     0.041 A 
ATOM     66  F   UNL A   1      46.192  28.888  33.336  1.00  0.00    -0.206 F 
ATOM     67  C   UNL A   1      46.922  25.949  35.316  1.00  0.00     0.022 A 
BRANCH  64  68
ATOM     68  S   UNL A   1      45.382  23.897  36.414  1.00  0.00     0.124 S 
ATOM     69  O   UNL A   1      46.731  23.351  36.526  1.00  0.00    -0.237 OA
ATOM     70  O   UNL A   1      44.823  24.474  37.632  1.00  0.00    -0.237 OA
ATOM     71  O   UNL A   1      44.451  23.091  35.627  1.00  0.00    -0.744 OA
ENDBRANCH  64  68
ENDBRANCH  38  61
ENDBRANCH  12  13
ENDBRANCH   5   7
ENDBRANCH   2   3
ENDBRANCH   1   2
BRANCH   1  72
ATOM     72  C   UNL A   1      32.423  29.080  25.316  1.00  0.00     0.023 C 
BRANCH  72  73
ATOM     73  C   UNL A   1      32.391  27.989  26.381  1.00  0.00     0.116 C 
BRANCH  73  74
ATOM     74  N   UNL A   1      31.132  27.308  26.610  1.00  0.00    -0.351 N 
ATOM     75  C   UNL A   1      30.495  26.326  25.897  1.00  0.00     0.283 C 
ATOM     76  H   UNL A   1      30.651  27.603  27.417  1.00  0.00     0.163 HD
ATOM     77  O   UNL A   1      29.716  25.602  26.533  1.00  0.00    -0.268 OA
BRANCH  75  78
ATOM     78  C   UNL A   1      30.639  26.171  24.346  1.00  0.00     0.306 C 
BRANCH  78  79
ATOM     79  C   UNL A   1      29.941  27.349  23.586  1.00  0.00     0.023 A 
ATOM     80  C   UNL A   1      30.560  28.239  22.688  1.00  0.00     0.011 A 
ATOM     81  C   UNL A   1      28.532  27.469  23.643  1.00  0.00     0.056 A 
ATOM     82  C   UNL A   1      29.870  29.280  22.046  1.00  0.00     0.004 A 
ATOM     83  C   UNL A   1      27.836  28.484  22.978  1.00  0.00     0.116 A 
ATOM     84  C   UNL A   1      28.501  29.417  22.204  1.00  0.00     0.046 A 
BRANCH  83  85
ATOM     85  O   UNL A   1      26.481  28.511  23.110  1.00  0.00    -0.508 OA
ATOM     86  H   UNL A   1      26.036  29.330  23.209  1.00  0.00     0.293 HD
ENDBRANCH  83  85
ENDBRANCH  78  79
BRANCH  78  87
ATOM     87  N   UNL A   1      31.918  25.496  23.924  1.00  0.00    -0.312 N 
ATOM     88  C   UNL A   1      32.605  24.615  24.847  1.00  0.00     0.325 C 
ATOM     89  C   UNL A   1      32.080  24.943  22.566  1.00  0.00     0.325 C 
ATOM     90  H   UNL A   1      32.372  26.410  23.931  1.00  0.00     0.349 HD
ATOM     91  C   UNL A   1      31.865  23.272  24.888  1.00  0.00     0.324 C 
ATOM     92  C   UNL A   1      32.411  23.395  22.489  1.00  0.00     0.324 C 
ATOM     93  N   UNL A   1      31.916  22.555  23.601  1.00  0.00    -0.323 N 
ATOM     94  H   UNL A   1      30.964  22.356  23.294  1.00  0.00     0.348 HD
BRANCH  93  95
ATOM     95  C   UNL A   1      32.522  21.235  23.762  1.00  0.00     0.184 C 
ATOM     96  C   UNL A   1      32.292  20.499  25.081  1.00  0.00     0.065 C 
ATOM     97  C   UNL A   1      32.116  20.169  22.732  1.00  0.00     0.065 C 
ATOM     98  C   UNL A   1      32.906  19.130  24.795  1.00  0.00     0.006 C 
ATOM     99  C   UNL A   1      32.622  18.854  23.318  1.00  0.00     0.006 C 
ENDBRANCH  93  95
ENDBRANCH  78  87
ENDBRANCH  75  78
ENDBRANCH  73  74
ENDBRANCH  72  73
ENDBRANCH   1  72
TORSDOF 18
ENDMDL
