MODEL 1
REMARK VINA RESULT:     -12.9      0.000      0.000
REMARK SMILES CC(C)c1cc(C2CC[NH+](Cc3c[nH]nc3C(=O)NCCCCNC(=O)c3ccc(-c4c5nc(c(-c6cc(S(=O)(=O)[O-])ccc6F)c6ccc([nH]6)c(-c6cc(S(=O)(=O)[O-])ccc6F)c6nc(c(-c7cc(S(=O)(=O)[O-])ccc7F)c7ccc4[nH]7)C=C6)C=C5)cc3)CC2)n[nH]1
REMARK SMILES IDX 21 1 20 2 19 3 17 4 18 5 16 7 12 8 13 9 14 10 15 11 11 13
REMARK SMILES IDX 10 14 7 15 8 16 91 17 9 18 90 19 6 21 4 22 5 23 93 24 92 25
REMARK SMILES IDX 2 27 1 28 3 29 22 30 23 31 24 32 25 33 26 35 27 36 28 37
REMARK SMILES IDX 89 38 29 39 88 40 30 41 31 42 32 43 82 44 33 45 87 46 81 47
REMARK SMILES IDX 83 48 34 49 86 50 80 51 79 52 35 54 67 55 47 56 66 57 48 58
REMARK SMILES IDX 51 59 65 60 84 61 49 62 50 63 64 65 85 66 52 67 36 68 37 69
REMARK SMILES IDX 45 70 38 71 44 72 46 73 43 74 39 75 40 76 41 77 42 78 68 79
REMARK SMILES IDX 69 80 77 81 70 82 76 83 78 84 75 85 71 86 72 87 73 88 74 89
REMARK SMILES IDX 53 90 54 91 62 92 55 93 61 94 63 95 60 96 56 97 57 98 58 99
REMARK SMILES IDX 59 100
REMARK H PARENT 19 6 14 12 10 20 93 26 24 34 83 53 51 64
REMARK Flexibility Score: inf
ROOT
ATOM      1  C   UNL A   1      31.454  29.238  25.051  1.00  0.00     0.023 C 
ENDROOT
BRANCH   1   2
ATOM      2  C   UNL A   1      31.274  29.104  23.541  1.00  0.00     0.116 C 
BRANCH   2   3
ATOM      3  N   UNL A   1      32.520  28.938  22.845  1.00  0.00    -0.351 N 
ATOM      4  C   UNL A   1      33.229  27.890  22.317  1.00  0.00     0.272 C 
ATOM      5  O   UNL A   1      34.280  28.280  21.785  1.00  0.00    -0.267 OA
ATOM      6  H   UNL A   1      32.981  29.798  22.712  1.00  0.00     0.163 HD
BRANCH   4   7
ATOM      7  C   UNL A   1      32.890  26.428  22.321  1.00  0.00     0.158 A 
ATOM      8  C   UNL A   1      32.311  25.441  23.222  1.00  0.00     0.057 A 
ATOM      9  C   UNL A   1      32.282  24.263  22.488  1.00  0.00     0.115 A 
ATOM     10  N   UNL A   1      32.812  24.540  21.282  1.00  0.00    -0.284 N 
ATOM     11  N   UNL A   1      33.191  25.800  21.154  1.00  0.00    -0.170 NA
ATOM     12  H   UNL A   1      32.907  23.871  20.565  1.00  0.00     0.189 HD
BRANCH   8  13
ATOM     13  C   UNL A   1      31.767  25.481  24.612  1.00  0.00     0.303 C 
BRANCH  13  14
ATOM     14  N   UNL A   1      32.536  24.688  25.596  1.00  0.00    -0.331 N 
ATOM     15  C   UNL A   1      33.978  22.505  26.966  1.00  0.00     0.051 C 
ATOM     16  C   UNL A   1      32.502  22.816  27.231  1.00  0.00     0.071 C 
ATOM     17  C   UNL A   1      34.682  23.727  26.370  1.00  0.00     0.071 C 
ATOM     18  C   UNL A   1      31.798  23.508  26.061  1.00  0.00     0.263 C 
ATOM     19  C   UNL A   1      33.904  24.334  25.204  1.00  0.00     0.263 C 
ATOM     20  H   UNL A   1      32.652  25.335  26.375  1.00  0.00     0.348 HD
BRANCH  15  21
ATOM     21  C   UNL A   1      34.203  21.257  26.150  1.00  0.00     0.066 A 
ATOM     22  C   UNL A   1      33.988  19.400  24.938  1.00  0.00     0.038 A 
ATOM     23  C   UNL A   1      33.287  20.247  25.768  1.00  0.00     0.049 A 
ATOM     24  N   UNL A   1      35.260  19.900  24.910  1.00  0.00    -0.282 N 
ATOM     25  N   UNL A   1      35.418  21.013  25.639  1.00  0.00    -0.180 NA
ATOM     26  H   UNL A   1      35.991  19.481  24.400  1.00  0.00     0.190 HD
BRANCH  22  27
ATOM     27  C   UNL A   1      33.542  18.188  24.184  1.00  0.00     0.031 C 
ATOM     28  C   UNL A   1      33.123  17.051  25.116  1.00  0.00     0.014 C 
ATOM     29  C   UNL A   1      32.423  18.538  23.205  1.00  0.00     0.014 C 
ENDBRANCH  22  27
ENDBRANCH  15  21
ENDBRANCH  13  14
ENDBRANCH   8  13
ENDBRANCH   4   7
ENDBRANCH   2   3
ENDBRANCH   1   2
BRANCH   1  30
ATOM     30  C   UNL A   1      31.250  30.640  25.604  1.00  0.00     0.023 C 
BRANCH  30  31
ATOM     31  C   UNL A   1      32.222  31.056  26.701  1.00  0.00     0.116 C 
BRANCH  31  32
ATOM     32  N   UNL A   1      32.106  32.453  27.110  1.00  0.00    -0.352 N 
ATOM     33  C   UNL A   1      33.043  33.238  27.746  1.00  0.00     0.251 C 
ATOM     34  H   UNL A   1      31.248  32.890  26.904  1.00  0.00     0.163 HD
ATOM     35  O   UNL A   1      32.780  34.389  28.071  1.00  0.00    -0.269 OA
BRANCH  33  36
ATOM     36  C   UNL A   1      34.350  32.636  28.078  1.00  0.00     0.039 A 
ATOM     37  C   UNL A   1      35.489  33.442  28.060  1.00  0.00     0.014 A 
ATOM     38  C   UNL A   1      34.410  31.323  28.549  1.00  0.00     0.014 A 
ATOM     39  C   UNL A   1      36.673  32.964  28.625  1.00  0.00     0.010 A 
ATOM     40  C   UNL A   1      35.559  30.886  29.192  1.00  0.00     0.010 A 
ATOM     41  C   UNL A   1      36.698  31.709  29.253  1.00  0.00    -0.014 A 
BRANCH  41  42
ATOM     42  C   UNL A   1      37.887  31.229  30.005  1.00  0.00     0.031 A 
ATOM     43  C   UNL A   1      38.809  30.225  29.371  1.00  0.00     0.074 A 
ATOM     44  C   UNL A   1      38.063  31.596  31.291  1.00  0.00     0.049 A 
ATOM     45  N   UNL A   1      39.787  29.542  29.907  1.00  0.00    -0.248 NA
ATOM     46  C   UNL A   1      38.556  29.912  27.957  1.00  0.00     0.031 C 
ATOM     47  C   UNL A   1      37.196  32.510  32.041  1.00  0.00     0.029 A 
ATOM     48  N   UNL A   1      39.017  31.224  32.205  1.00  0.00    -0.354 N 
ATOM     49  C   UNL A   1      40.235  28.683  28.908  1.00  0.00     0.074 A 
ATOM     50  C   UNL A   1      39.383  28.898  27.757  1.00  0.00     0.031 C 
ATOM     51  C   UNL A   1      37.666  32.636  33.293  1.00  0.00     0.029 A 
ATOM     52  C   UNL A   1      38.839  31.783  33.450  1.00  0.00     0.049 A 
ATOM     53  H   UNL A   1      39.760  30.615  31.989  1.00  0.00     0.167 HD
ATOM     54  C   UNL A   1      41.273  27.810  28.943  1.00  0.00     0.034 A 
ATOM     55  C   UNL A   1      39.531  31.612  34.594  1.00  0.00     0.034 A 
ATOM     56  C   UNL A   1      42.141  27.649  30.083  1.00  0.00     0.049 A 
ATOM     57  C   UNL A   1      40.713  30.678  34.596  1.00  0.00     0.074 A 
ATOM     58  C   UNL A   1      43.276  26.867  30.199  1.00  0.00     0.029 A 
ATOM     59  N   UNL A   1      41.967  28.283  31.307  1.00  0.00    -0.354 N 
ATOM     60  N   UNL A   1      41.162  29.914  33.627  1.00  0.00    -0.248 NA
ATOM     61  C   UNL A   1      41.488  30.592  35.841  1.00  0.00     0.031 C 
ATOM     62  C   UNL A   1      43.765  26.994  31.505  1.00  0.00     0.029 A 
ATOM     63  C   UNL A   1      42.966  27.897  32.187  1.00  0.00     0.049 A 
ATOM     64  H   UNL A   1      41.242  28.914  31.517  1.00  0.00     0.167 HD
ATOM     65  C   UNL A   1      42.285  29.274  34.141  1.00  0.00     0.074 A 
ATOM     66  C   UNL A   1      42.450  29.748  35.500  1.00  0.00     0.031 C 
ATOM     67  C   UNL A   1      43.109  28.378  33.541  1.00  0.00     0.034 A 
BRANCH  54  68
ATOM     68  C   UNL A   1      41.501  26.962  27.716  1.00  0.00     0.023 A 
ATOM     69  C   UNL A   1      41.083  25.621  27.660  1.00  0.00     0.031 A 
ATOM     70  C   UNL A   1      42.200  27.480  26.612  1.00  0.00     0.131 A 
ATOM     71  C   UNL A   1      41.453  24.817  26.571  1.00  0.00     0.055 A 
ATOM     72  C   UNL A   1      42.487  26.699  25.491  1.00  0.00     0.041 A 
ATOM     73  F   UNL A   1      42.640  28.748  26.616  1.00  0.00    -0.206 F 
ATOM     74  C   UNL A   1      42.132  25.353  25.474  1.00  0.00     0.022 A 
BRANCH  71  75
ATOM     75  S   UNL A   1      41.183  23.028  26.690  1.00  0.00     0.124 S 
ATOM     76  O   UNL A   1      39.733  22.939  26.531  1.00  0.00    -0.237 OA
ATOM     77  O   UNL A   1      41.980  22.515  25.583  1.00  0.00    -0.237 OA
ATOM     78  O   UNL A   1      41.678  22.695  28.024  1.00  0.00    -0.744 OA
ENDBRANCH  71  75
ENDBRANCH  54  68
BRANCH  55  79
ATOM     79  C   UNL A   1      39.124  32.327  35.834  1.00  0.00     0.023 A 
ATOM     80  C   UNL A   1      38.396  31.671  36.839  1.00  0.00     0.031 A 
ATOM     81  C   UNL A   1      39.436  33.684  36.021  1.00  0.00     0.131 A 
ATOM     82  C   UNL A   1      37.969  32.384  37.970  1.00  0.00     0.055 A 
ATOM     83  C   UNL A   1      39.044  34.379  37.167  1.00  0.00     0.041 A 
ATOM     84  F   UNL A   1      40.142  34.353  35.094  1.00  0.00    -0.206 F 
ATOM     85  C   UNL A   1      38.296  33.731  38.146  1.00  0.00     0.022 A 
BRANCH  82  86
ATOM     86  S   UNL A   1      36.925  31.536  39.187  1.00  0.00     0.124 S 
ATOM     87  O   UNL A   1      35.757  32.408  39.239  1.00  0.00    -0.237 OA
ATOM     88  O   UNL A   1      36.727  30.233  38.560  1.00  0.00    -0.237 OA
ATOM     89  O   UNL A   1      37.750  31.525  40.394  1.00  0.00    -0.744 OA
ENDBRANCH  82  86
ENDBRANCH  55  79
BRANCH  67  90
ATOM     90  C   UNL A   1      44.287  27.894  34.342  1.00  0.00     0.023 A 
ATOM     91  C   UNL A   1      44.215  26.738  35.137  1.00  0.00     0.031 A 
ATOM     92  C   UNL A   1      45.501  28.603  34.304  1.00  0.00     0.131 A 
ATOM     93  C   UNL A   1      45.327  26.345  35.896  1.00  0.00     0.055 A 
ATOM     94  C   UNL A   1      46.617  28.181  35.025  1.00  0.00     0.041 A 
ATOM     95  F   UNL A   1      45.619  29.713  33.558  1.00  0.00    -0.206 F 
ATOM     96  C   UNL A   1      46.531  27.052  35.834  1.00  0.00     0.022 A 
BRANCH  93  97
ATOM     97  S   UNL A   1      45.164  24.926  37.013  1.00  0.00     0.124 S 
ATOM     98  O   UNL A   1      43.803  25.089  37.515  1.00  0.00    -0.237 OA
ATOM     99  O   UNL A   1      45.381  23.794  36.116  1.00  0.00    -0.237 OA
ATOM    100  O   UNL A   1      46.220  25.143  38.000  1.00  0.00    -0.744 OA
ENDBRANCH  93  97
ENDBRANCH  67  90
ENDBRANCH  41  42
ENDBRANCH  33  36
ENDBRANCH  31  32
ENDBRANCH  30  31
ENDBRANCH   1  30
TORSDOF 18
ENDMDL
MODEL 2
REMARK VINA RESULT:     -12.7      2.126      2.957
REMARK SMILES CC(C)c1cc(C2CC[NH+](Cc3c[nH]nc3C(=O)NCCCCNC(=O)c3ccc(-c4c5nc(c(-c6cc(S(=O)(=O)[O-])ccc6F)c6ccc([nH]6)c(-c6cc(S(=O)(=O)[O-])ccc6F)c6nc(c(-c7cc(S(=O)(=O)[O-])ccc7F)c7ccc4[nH]7)C=C6)C=C5)cc3)CC2)n[nH]1
REMARK SMILES IDX 21 1 20 2 19 3 17 4 18 5 16 7 12 8 13 9 14 10 15 11 11 13
REMARK SMILES IDX 10 14 7 15 8 16 91 17 9 18 90 19 6 21 4 22 5 23 93 24 92 25
REMARK SMILES IDX 2 27 1 28 3 29 22 30 23 31 24 32 25 33 26 35 27 36 28 37
REMARK SMILES IDX 89 38 29 39 88 40 30 41 31 42 32 43 82 44 33 45 87 46 81 47
REMARK SMILES IDX 83 48 34 49 86 50 80 51 79 52 35 54 67 55 47 56 66 57 48 58
REMARK SMILES IDX 51 59 65 60 84 61 49 62 50 63 64 65 85 66 52 67 36 68 37 69
REMARK SMILES IDX 45 70 38 71 44 72 46 73 43 74 39 75 40 76 41 77 42 78 68 79
REMARK SMILES IDX 69 80 77 81 70 82 76 83 78 84 75 85 71 86 72 87 73 88 74 89
REMARK SMILES IDX 53 90 54 91 62 92 55 93 61 94 63 95 60 96 56 97 57 98 58 99
REMARK SMILES IDX 59 100
REMARK H PARENT 19 6 14 12 10 20 93 26 24 34 83 53 51 64
REMARK Flexibility Score: inf
ROOT
ATOM      1  C   UNL A   1      35.247  30.188  27.901  1.00  0.00     0.023 C 
ENDROOT
BRANCH   1   2
ATOM      2  C   UNL A   1      34.644  29.043  27.090  1.00  0.00     0.116 C 
BRANCH   2   3
ATOM      3  N   UNL A   1      33.392  28.583  27.624  1.00  0.00    -0.351 N 
ATOM      4  C   UNL A   1      32.147  28.298  27.126  1.00  0.00     0.272 C 
ATOM      5  O   UNL A   1      31.383  27.905  28.021  1.00  0.00    -0.267 OA
ATOM      6  H   UNL A   1      33.442  28.433  28.595  1.00  0.00     0.163 HD
BRANCH   4   7
ATOM      7  C   UNL A   1      31.651  28.407  25.713  1.00  0.00     0.158 A 
ATOM      8  C   UNL A   1      31.264  27.528  24.618  1.00  0.00     0.057 A 
ATOM      9  C   UNL A   1      30.867  28.383  23.599  1.00  0.00     0.115 A 
ATOM     10  N   UNL A   1      31.028  29.640  24.057  1.00  0.00    -0.284 N 
ATOM     11  N   UNL A   1      31.498  29.690  25.291  1.00  0.00    -0.170 NA
ATOM     12  H   UNL A   1      30.815  30.441  23.525  1.00  0.00     0.189 HD
BRANCH   8  13
ATOM     13  C   UNL A   1      31.186  26.048  24.438  1.00  0.00     0.303 C 
BRANCH  13  14
ATOM     14  N   UNL A   1      32.463  25.334  24.655  1.00  0.00    -0.331 N 
ATOM     15  C   UNL A   1      34.484  23.259  25.230  1.00  0.00     0.051 C 
ATOM     16  C   UNL A   1      33.967  24.229  26.297  1.00  0.00     0.071 C 
ATOM     17  C   UNL A   1      34.247  23.830  23.830  1.00  0.00     0.071 C 
ATOM     18  C   UNL A   1      32.566  24.775  26.007  1.00  0.00     0.263 C 
ATOM     19  C   UNL A   1      32.818  24.335  23.642  1.00  0.00     0.263 C 
ATOM     20  H   UNL A   1      33.160  26.070  24.546  1.00  0.00     0.348 HD
BRANCH  15  21
ATOM     21  C   UNL A   1      33.955  21.853  25.375  1.00  0.00     0.066 A 
ATOM     22  C   UNL A   1      33.383  19.720  25.084  1.00  0.00     0.038 A 
ATOM     23  C   UNL A   1      33.798  20.840  24.398  1.00  0.00     0.049 A 
ATOM     24  N   UNL A   1      33.265  20.122  26.386  1.00  0.00    -0.282 N 
ATOM     25  N   UNL A   1      33.595  21.406  26.585  1.00  0.00    -0.180 NA
ATOM     26  H   UNL A   1      32.967  19.524  27.108  1.00  0.00     0.190 HD
BRANCH  22  27
ATOM     27  C   UNL A   1      33.107  18.332  24.604  1.00  0.00     0.031 C 
ATOM     28  C   UNL A   1      34.340  17.681  23.977  1.00  0.00     0.014 C 
ATOM     29  C   UNL A   1      32.542  17.469  25.731  1.00  0.00     0.014 C 
ENDBRANCH  22  27
ENDBRANCH  15  21
ENDBRANCH  13  14
ENDBRANCH   8  13
ENDBRANCH   4   7
ENDBRANCH   2   3
ENDBRANCH   1   2
BRANCH   1  30
ATOM     30  C   UNL A   1      34.708  31.570  27.566  1.00  0.00     0.023 C 
BRANCH  30  31
ATOM     31  C   UNL A   1      33.279  31.840  28.017  1.00  0.00     0.116 C 
BRANCH  31  32
ATOM     32  N   UNL A   1      32.865  33.235  27.904  1.00  0.00    -0.352 N 
ATOM     33  C   UNL A   1      33.375  34.335  28.561  1.00  0.00     0.251 C 
ATOM     34  H   UNL A   1      32.125  33.414  27.279  1.00  0.00     0.163 HD
ATOM     35  O   UNL A   1      32.887  35.445  28.397  1.00  0.00    -0.269 OA
BRANCH  33  36
ATOM     36  C   UNL A   1      34.487  34.127  29.510  1.00  0.00     0.039 A 
ATOM     37  C   UNL A   1      34.254  33.393  30.674  1.00  0.00     0.014 A 
ATOM     38  C   UNL A   1      35.778  34.531  29.165  1.00  0.00     0.014 A 
ATOM     39  C   UNL A   1      35.339  32.962  31.439  1.00  0.00     0.010 A 
ATOM     40  C   UNL A   1      36.858  34.023  29.874  1.00  0.00     0.010 A 
ATOM     41  C   UNL A   1      36.650  33.218  31.008  1.00  0.00    -0.014 A 
BRANCH  41  42
ATOM     42  C   UNL A   1      37.832  32.643  31.703  1.00  0.00     0.031 A 
ATOM     43  C   UNL A   1      38.573  31.494  31.077  1.00  0.00     0.074 A 
ATOM     44  C   UNL A   1      38.155  33.064  32.943  1.00  0.00     0.049 A 
ATOM     45  N   UNL A   1      39.503  30.730  31.586  1.00  0.00    -0.248 NA
ATOM     46  C   UNL A   1      38.169  31.127  29.712  1.00  0.00     0.031 C 
ATOM     47  C   UNL A   1      37.468  34.124  33.687  1.00  0.00     0.029 A 
ATOM     48  N   UNL A   1      39.130  32.635  33.808  1.00  0.00    -0.354 N 
ATOM     49  C   UNL A   1      39.762  29.761  30.622  1.00  0.00     0.074 A 
ATOM     50  C   UNL A   1      38.850  30.008  29.524  1.00  0.00     0.031 C 
ATOM     51  C   UNL A   1      38.052  34.269  34.889  1.00  0.00     0.029 A 
ATOM     52  C   UNL A   1      39.123  33.288  35.019  1.00  0.00     0.049 A 
ATOM     53  H   UNL A   1      39.775  31.925  33.582  1.00  0.00     0.167 HD
ATOM     54  C   UNL A   1      40.688  28.770  30.642  1.00  0.00     0.034 A 
ATOM     55  C   UNL A   1      39.882  33.104  36.118  1.00  0.00     0.034 A 
ATOM     56  C   UNL A   1      41.622  28.573  31.724  1.00  0.00     0.049 A 
ATOM     57  C   UNL A   1      40.941  32.033  36.100  1.00  0.00     0.074 A 
ATOM     58  C   UNL A   1      42.662  27.666  31.811  1.00  0.00     0.029 A 
ATOM     59  N   UNL A   1      41.626  29.299  32.908  1.00  0.00    -0.354 N 
ATOM     60  N   UNL A   1      41.214  31.160  35.158  1.00  0.00    -0.248 NA
ATOM     61  C   UNL A   1      41.799  31.929  37.287  1.00  0.00     0.031 C 
ATOM     62  C   UNL A   1      43.268  27.812  33.065  1.00  0.00     0.029 A 
ATOM     63  C   UNL A   1      42.641  28.848  33.738  1.00  0.00     0.049 A 
ATOM     64  H   UNL A   1      41.000  30.028  33.126  1.00  0.00     0.167 HD
ATOM     65  C   UNL A   1      42.291  30.418  35.632  1.00  0.00     0.074 A 
ATOM     66  C   UNL A   1      42.623  30.952  36.937  1.00  0.00     0.031 C 
ATOM     67  C   UNL A   1      42.951  29.391  35.039  1.00  0.00     0.034 A 
BRANCH  54  68
ATOM     68  C   UNL A   1      40.712  27.825  29.466  1.00  0.00     0.023 A 
ATOM     69  C   UNL A   1      41.638  27.973  28.420  1.00  0.00     0.031 A 
ATOM     70  C   UNL A   1      39.757  26.799  29.359  1.00  0.00     0.131 A 
ATOM     71  C   UNL A   1      41.528  27.180  27.268  1.00  0.00     0.055 A 
ATOM     72  C   UNL A   1      39.709  25.952  28.249  1.00  0.00     0.041 A 
ATOM     73  F   UNL A   1      38.835  26.620  30.318  1.00  0.00    -0.206 F 
ATOM     74  C   UNL A   1      40.584  26.153  27.186  1.00  0.00     0.022 A 
BRANCH  71  75
ATOM     75  S   UNL A   1      42.523  27.622  25.819  1.00  0.00     0.124 S 
ATOM     76  O   UNL A   1      43.878  27.376  26.306  1.00  0.00    -0.237 OA
ATOM     77  O   UNL A   1      42.031  26.696  24.805  1.00  0.00    -0.237 OA
ATOM     78  O   UNL A   1      42.195  29.028  25.594  1.00  0.00    -0.744 OA
ENDBRANCH  71  75
ENDBRANCH  54  68
BRANCH  55  79
ATOM     79  C   UNL A   1      39.665  33.940  37.330  1.00  0.00     0.023 A 
ATOM     80  C   UNL A   1      38.945  33.446  38.428  1.00  0.00     0.031 A 
ATOM     81  C   UNL A   1      40.156  35.255  37.398  1.00  0.00     0.131 A 
ATOM     82  C   UNL A   1      38.701  34.276  39.534  1.00  0.00     0.055 A 
ATOM     83  C   UNL A   1      39.946  36.064  38.516  1.00  0.00     0.041 A 
ATOM     84  F   UNL A   1      40.862  35.770  36.378  1.00  0.00    -0.206 F 
ATOM     85  C   UNL A   1      39.204  35.578  39.590  1.00  0.00     0.022 A 
BRANCH  82  86
ATOM     86  S   UNL A   1      37.661  33.645  40.880  1.00  0.00     0.124 S 
ATOM     87  O   UNL A   1      36.563  33.028  40.146  1.00  0.00    -0.237 OA
ATOM     88  O   UNL A   1      38.572  32.730  41.561  1.00  0.00    -0.237 OA
ATOM     89  O   UNL A   1      37.312  34.848  41.633  1.00  0.00    -0.744 OA
ENDBRANCH  82  86
ENDBRANCH  55  79
BRANCH  67  90
ATOM     90  C   UNL A   1      44.125  28.816  35.783  1.00  0.00     0.023 A 
ATOM     91  C   UNL A   1      43.973  27.764  36.702  1.00  0.00     0.031 A 
ATOM     92  C   UNL A   1      45.415  29.330  35.564  1.00  0.00     0.131 A 
ATOM     93  C   UNL A   1      45.090  27.284  37.401  1.00  0.00     0.055 A 
ATOM     94  C   UNL A   1      46.529  28.817  36.228  1.00  0.00     0.041 A 
ATOM     95  F   UNL A   1      45.611  30.334  34.696  1.00  0.00    -0.206 F 
ATOM     96  C   UNL A   1      46.369  27.795  37.159  1.00  0.00     0.022 A 
BRANCH  93  97
ATOM     97  S   UNL A   1      44.845  26.017  38.674  1.00  0.00     0.124 S 
ATOM     98  O   UNL A   1      43.774  26.597  39.479  1.00  0.00    -0.237 OA
ATOM     99  O   UNL A   1      44.484  24.843  37.884  1.00  0.00    -0.237 OA
ATOM    100  O   UNL A   1      46.146  25.939  39.337  1.00  0.00    -0.744 OA
ENDBRANCH  93  97
ENDBRANCH  67  90
ENDBRANCH  41  42
ENDBRANCH  33  36
ENDBRANCH  31  32
ENDBRANCH  30  31
ENDBRANCH   1  30
TORSDOF 18
ENDMDL
MODEL 3
REMARK VINA RESULT:     -12.6      1.676      3.857
REMARK SMILES CC(C)c1cc(C2CC[NH+](Cc3c[nH]nc3C(=O)NCCCCNC(=O)c3ccc(-c4c5nc(c(-c6cc(S(=O)(=O)[O-])ccc6F)c6ccc([nH]6)c(-c6cc(S(=O)(=O)[O-])ccc6F)c6nc(c(-c7cc(S(=O)(=O)[O-])ccc7F)c7ccc4[nH]7)C=C6)C=C5)cc3)CC2)n[nH]1
REMARK SMILES IDX 21 1 20 2 19 3 17 4 18 5 16 7 12 8 13 9 14 10 15 11 11 13
REMARK SMILES IDX 10 14 7 15 8 16 91 17 9 18 90 19 6 21 4 22 5 23 93 24 92 25
REMARK SMILES IDX 2 27 1 28 3 29 22 30 23 31 24 32 25 33 26 35 27 36 28 37
REMARK SMILES IDX 89 38 29 39 88 40 30 41 31 42 32 43 82 44 33 45 87 46 81 47
REMARK SMILES IDX 83 48 34 49 86 50 80 51 79 52 35 54 67 55 47 56 66 57 48 58
REMARK SMILES IDX 51 59 65 60 84 61 49 62 50 63 64 65 85 66 52 67 36 68 37 69
REMARK SMILES IDX 45 70 38 71 44 72 46 73 43 74 39 75 40 76 41 77 42 78 68 79
REMARK SMILES IDX 69 80 77 81 70 82 76 83 78 84 75 85 71 86 72 87 73 88 74 89
REMARK SMILES IDX 53 90 54 91 62 92 55 93 61 94 63 95 60 96 56 97 57 98 58 99
REMARK SMILES IDX 59 100
REMARK H PARENT 19 6 14 12 10 20 93 26 24 34 83 53 51 64
REMARK Flexibility Score: inf
ROOT
ATOM      1  C   UNL A   1      31.768  28.961  27.568  1.00  0.00     0.023 C 
ENDROOT
BRANCH   1   2
ATOM      2  C   UNL A   1      32.158  27.490  27.440  1.00  0.00     0.116 C 
BRANCH   2   3
ATOM      3  N   UNL A   1      31.132  26.695  26.825  1.00  0.00    -0.351 N 
ATOM      4  C   UNL A   1      30.983  25.384  26.452  1.00  0.00     0.272 C 
ATOM      5  O   UNL A   1      29.864  25.181  25.955  1.00  0.00    -0.267 OA
ATOM      6  H   UNL A   1      30.330  27.228  26.619  1.00  0.00     0.163 HD
BRANCH   4   7
ATOM      7  C   UNL A   1      31.965  24.254  26.572  1.00  0.00     0.158 A 
ATOM      8  C   UNL A   1      33.354  23.972  26.237  1.00  0.00     0.057 A 
ATOM      9  C   UNL A   1      33.577  22.684  26.703  1.00  0.00     0.115 A 
ATOM     10  N   UNL A   1      32.419  22.255  27.241  1.00  0.00    -0.284 N 
ATOM     11  N   UNL A   1      31.447  23.149  27.169  1.00  0.00    -0.170 NA
ATOM     12  H   UNL A   1      32.307  21.366  27.648  1.00  0.00     0.189 HD
BRANCH   8  13
ATOM     13  C   UNL A   1      34.458  24.748  25.598  1.00  0.00     0.303 C 
BRANCH  13  14
ATOM     14  N   UNL A   1      34.081  25.436  24.345  1.00  0.00    -0.331 N 
ATOM     15  C   UNL A   1      32.582  26.875  22.246  1.00  0.00     0.051 C 
ATOM     16  C   UNL A   1      32.733  25.351  22.258  1.00  0.00     0.071 C 
ATOM     17  C   UNL A   1      33.689  27.527  23.079  1.00  0.00     0.071 C 
ATOM     18  C   UNL A   1      32.974  24.766  23.652  1.00  0.00     0.263 C 
ATOM     19  C   UNL A   1      33.839  26.878  24.454  1.00  0.00     0.263 C 
ATOM     20  H   UNL A   1      34.923  25.359  23.776  1.00  0.00     0.348 HD
BRANCH  15  21
ATOM     21  C   UNL A   1      31.207  27.357  22.638  1.00  0.00     0.066 A 
ATOM     22  C   UNL A   1      29.310  28.494  22.897  1.00  0.00     0.038 A 
ATOM     23  C   UNL A   1      30.611  28.630  22.466  1.00  0.00     0.049 A 
ATOM     24  N   UNL A   1      29.213  27.204  23.340  1.00  0.00    -0.282 N 
ATOM     25  N   UNL A   1      30.345  26.501  23.204  1.00  0.00    -0.180 NA
ATOM     26  H   UNL A   1      28.388  26.828  23.723  1.00  0.00     0.190 HD
BRANCH  22  27
ATOM     27  C   UNL A   1      28.182  29.475  22.909  1.00  0.00     0.031 C 
ATOM     28  C   UNL A   1      28.092  30.268  21.604  1.00  0.00     0.014 C 
ATOM     29  C   UNL A   1      26.859  28.778  23.220  1.00  0.00     0.014 C 
ENDBRANCH  22  27
ENDBRANCH  15  21
ENDBRANCH  13  14
ENDBRANCH   8  13
ENDBRANCH   4   7
ENDBRANCH   2   3
ENDBRANCH   1   2
BRANCH   1  30
ATOM     30  C   UNL A   1      31.627  29.708  26.251  1.00  0.00     0.023 C 
BRANCH  30  31
ATOM     31  C   UNL A   1      32.646  30.815  26.016  1.00  0.00     0.116 C 
BRANCH  31  32
ATOM     32  N   UNL A   1      32.337  32.072  26.692  1.00  0.00    -0.352 N 
ATOM     33  C   UNL A   1      33.123  32.788  27.569  1.00  0.00     0.251 C 
ATOM     34  H   UNL A   1      31.453  32.458  26.495  1.00  0.00     0.163 HD
ATOM     35  O   UNL A   1      32.703  33.809  28.096  1.00  0.00    -0.269 OA
BRANCH  33  36
ATOM     36  C   UNL A   1      34.461  32.258  27.901  1.00  0.00     0.039 A 
ATOM     37  C   UNL A   1      35.541  33.140  27.961  1.00  0.00     0.014 A 
ATOM     38  C   UNL A   1      34.602  30.925  28.294  1.00  0.00     0.014 A 
ATOM     39  C   UNL A   1      36.742  32.711  28.528  1.00  0.00     0.010 A 
ATOM     40  C   UNL A   1      35.764  30.531  28.942  1.00  0.00     0.010 A 
ATOM     41  C   UNL A   1      36.840  31.424  29.082  1.00  0.00    -0.014 A 
BRANCH  41  42
ATOM     42  C   UNL A   1      38.043  30.983  29.837  1.00  0.00     0.031 A 
ATOM     43  C   UNL A   1      38.978  29.981  29.220  1.00  0.00     0.074 A 
ATOM     44  C   UNL A   1      38.220  31.382  31.113  1.00  0.00     0.049 A 
ATOM     45  N   UNL A   1      39.971  29.327  29.764  1.00  0.00    -0.248 NA
ATOM     46  C   UNL A   1      38.722  29.630  27.815  1.00  0.00     0.031 C 
ATOM     47  C   UNL A   1      37.342  32.298  31.848  1.00  0.00     0.029 A 
ATOM     48  N   UNL A   1      39.186  31.048  32.028  1.00  0.00    -0.354 N 
ATOM     49  C   UNL A   1      40.427  28.453  28.782  1.00  0.00     0.074 A 
ATOM     50  C   UNL A   1      39.565  28.627  27.632  1.00  0.00     0.031 C 
ATOM     51  C   UNL A   1      37.819  32.461  33.094  1.00  0.00     0.029 A 
ATOM     52  C   UNL A   1      39.007  31.632  33.262  1.00  0.00     0.049 A 
ATOM     53  H   UNL A   1      39.938  30.447  31.822  1.00  0.00     0.167 HD
ATOM     54  C   UNL A   1      41.481  27.600  28.830  1.00  0.00     0.034 A 
ATOM     55  C   UNL A   1      39.710  31.499  34.404  1.00  0.00     0.034 A 
ATOM     56  C   UNL A   1      42.359  27.479  29.967  1.00  0.00     0.049 A 
ATOM     57  C   UNL A   1      40.908  30.587  34.420  1.00  0.00     0.074 A 
ATOM     58  C   UNL A   1      43.509  26.721  30.093  1.00  0.00     0.029 A 
ATOM     59  N   UNL A   1      42.182  28.138  31.177  1.00  0.00    -0.354 N 
ATOM     60  N   UNL A   1      41.363  29.808  33.466  1.00  0.00    -0.248 NA
ATOM     61  C   UNL A   1      41.692  30.542  35.661  1.00  0.00     0.031 C 
ATOM     62  C   UNL A   1      44.003  26.886  31.392  1.00  0.00     0.029 A 
ATOM     63  C   UNL A   1      43.193  27.790  32.060  1.00  0.00     0.049 A 
ATOM     64  H   UNL A   1      41.447  28.762  31.379  1.00  0.00     0.167 HD
ATOM     65  C   UNL A   1      42.500  29.199  33.986  1.00  0.00     0.074 A 
ATOM     66  C   UNL A   1      42.666  29.707  35.333  1.00  0.00     0.031 C 
ATOM     67  C   UNL A   1      43.336  28.304  33.401  1.00  0.00     0.034 A 
BRANCH  54  68
ATOM     68  C   UNL A   1      41.716  26.727  27.621  1.00  0.00     0.023 A 
ATOM     69  C   UNL A   1      41.268  25.396  27.575  1.00  0.00     0.031 A 
ATOM     70  C   UNL A   1      42.451  27.213  26.526  1.00  0.00     0.131 A 
ATOM     71  C   UNL A   1      41.643  24.567  26.507  1.00  0.00     0.055 A 
ATOM     72  C   UNL A   1      42.744  26.408  25.423  1.00  0.00     0.041 A 
ATOM     73  F   UNL A   1      42.921  28.470  26.521  1.00  0.00    -0.206 F 
ATOM     74  C   UNL A   1      42.358  25.070  25.418  1.00  0.00     0.022 A 
BRANCH  71  75
ATOM     75  S   UNL A   1      41.328  22.787  26.647  1.00  0.00     0.124 S 
ATOM     76  O   UNL A   1      41.903  22.489  27.957  1.00  0.00    -0.237 OA
ATOM     77  O   UNL A   1      39.875  22.716  26.556  1.00  0.00    -0.237 OA
ATOM     78  O   UNL A   1      42.054  22.221  25.513  1.00  0.00    -0.744 OA
ENDBRANCH  71  75
ENDBRANCH  54  68
BRANCH  55  79
ATOM     79  C   UNL A   1      39.297  32.235  35.631  1.00  0.00     0.023 A 
ATOM     80  C   UNL A   1      38.542  31.605  36.631  1.00  0.00     0.031 A 
ATOM     81  C   UNL A   1      39.633  33.588  35.808  1.00  0.00     0.131 A 
ATOM     82  C   UNL A   1      38.112  32.338  37.748  1.00  0.00     0.055 A 
ATOM     83  C   UNL A   1      39.238  34.303  36.941  1.00  0.00     0.041 A 
ATOM     84  F   UNL A   1      40.366  34.233  34.886  1.00  0.00    -0.206 F 
ATOM     85  C   UNL A   1      38.463  33.680  37.915  1.00  0.00     0.022 A 
BRANCH  82  86
ATOM     86  S   UNL A   1      37.033  31.524  38.958  1.00  0.00     0.124 S 
ATOM     87  O   UNL A   1      37.834  31.603  40.174  1.00  0.00    -0.237 OA
ATOM     88  O   UNL A   1      35.842  32.367  38.917  1.00  0.00    -0.237 OA
ATOM     89  O   UNL A   1      36.861  30.180  38.410  1.00  0.00    -0.744 OA
ENDBRANCH  82  86
ENDBRANCH  55  79
BRANCH  67  90
ATOM     90  C   UNL A   1      44.528  27.860  34.204  1.00  0.00     0.023 A 
ATOM     91  C   UNL A   1      44.481  26.722  35.027  1.00  0.00     0.031 A 
ATOM     92  C   UNL A   1      45.729  28.588  34.142  1.00  0.00     0.131 A 
ATOM     93  C   UNL A   1      45.604  26.365  35.787  1.00  0.00     0.055 A 
ATOM     94  C   UNL A   1      46.857  28.203  34.865  1.00  0.00     0.041 A 
ATOM     95  F   UNL A   1      45.823  29.683  33.371  1.00  0.00    -0.206 F 
ATOM     96  C   UNL A   1      46.796  27.091  35.700  1.00  0.00     0.022 A 
BRANCH  93  97
ATOM     97  S   UNL A   1      45.474  24.970  36.937  1.00  0.00     0.124 S 
ATOM     98  O   UNL A   1      46.848  24.480  36.978  1.00  0.00    -0.237 OA
ATOM     99  O   UNL A   1      44.989  25.611  38.156  1.00  0.00    -0.237 OA
ATOM    100  O   UNL A   1      44.517  24.077  36.287  1.00  0.00    -0.744 OA
ENDBRANCH  93  97
ENDBRANCH  67  90
ENDBRANCH  41  42
ENDBRANCH  33  36
ENDBRANCH  31  32
ENDBRANCH  30  31
ENDBRANCH   1  30
TORSDOF 18
ENDMDL
