MODEL 1
REMARK VINA RESULT:     -13.9      0.000      0.000
REMARK SMILES O=C(NCCCCNC(=O)c1ccc2c(c1)NC1=[NH+]S(=O)(=O)[NH+]=C1N2)c1ccc(-c2c3nc(c(-c4cc(S(=O)(=O)[O-])ccc4F)c4ccc([nH]4)c(-c4cc(S(=O)(=O)[O-])ccc4F)c4nc(c(-c5cc(S(=O)(=O)[O-])ccc5F)c5ccc2[nH]5)C=C4)C=C3)cc1
REMARK SMILES IDX 4 1 3 2 1 3 2 4 26 6 27 7 88 8 28 9 87 10 29 11 30 12 31 13
REMARK SMILES IDX 81 14 32 15 86 16 80 17 82 18 33 19 85 20 79 21 78 22 34 24
REMARK SMILES IDX 66 25 46 26 65 27 47 28 50 29 64 30 83 31 48 32 49 33 63 35
REMARK SMILES IDX 84 36 51 37 35 38 36 39 44 40 37 41 43 42 45 43 42 44 38 45
REMARK SMILES IDX 39 46 40 47 41 48 67 49 68 50 76 51 69 52 75 53 77 54 74 55
REMARK SMILES IDX 70 56 71 57 72 58 73 59 52 60 53 61 61 62 54 63 60 64 62 65
REMARK SMILES IDX 59 66 55 67 56 68 57 69 58 70 5 71 6 72 7 73 8 74 9 75 10 77
REMARK SMILES IDX 11 78 12 79 16 80 13 81 15 82 14 83 17 84 25 85 18 86 24 88
REMARK SMILES IDX 19 90 23 91 20 92 21 95 22 96
REMARK H PARENT 3 5 82 23 50 34 8 76 17 87 25 89 19 93 23 94
REMARK Flexibility Score: inf
ROOT
ATOM      1  C   UNL A   1      37.186  23.729  25.620  1.00  0.00     0.116 C 
ENDROOT
BRANCH   1   2
ATOM      2  N   UNL A   1      38.054  22.660  26.133  1.00  0.00    -0.352 N 
ATOM      3  O   UNL A   1      40.109  21.785  26.593  1.00  0.00    -0.269 OA
ATOM      4  C   UNL A   1      39.379  22.767  26.544  1.00  0.00     0.251 C 
ATOM      5  H   UNL A   1      37.652  21.763  26.194  1.00  0.00     0.163 HD
BRANCH   4   6
ATOM      6  C   UNL A   1      39.873  24.098  26.944  1.00  0.00     0.039 A 
ATOM      7  C   UNL A   1      40.397  25.036  26.053  1.00  0.00     0.014 A 
ATOM      8  C   UNL A   1      39.719  24.412  28.285  1.00  0.00     0.014 A 
ATOM      9  C   UNL A   1      40.690  26.313  26.539  1.00  0.00     0.010 A 
ATOM     10  C   UNL A   1      39.708  25.717  28.667  1.00  0.00     0.010 A 
ATOM     11  C   UNL A   1      40.328  26.646  27.856  1.00  0.00    -0.014 A 
BRANCH  11  12
ATOM     12  C   UNL A   1      40.558  27.961  28.437  1.00  0.00     0.031 A 
ATOM     13  C   UNL A   1      41.737  28.672  27.892  1.00  0.00     0.074 A 
ATOM     14  C   UNL A   1      39.671  28.567  29.259  1.00  0.00     0.049 A 
ATOM     15  N   UNL A   1      42.886  28.817  28.457  1.00  0.00    -0.248 NA
ATOM     16  C   UNL A   1      41.700  29.105  26.488  1.00  0.00     0.031 C 
ATOM     17  C   UNL A   1      38.304  28.151  29.620  1.00  0.00     0.029 A 
ATOM     18  N   UNL A   1      39.777  29.765  29.889  1.00  0.00    -0.354 N 
ATOM     19  C   UNL A   1      43.651  29.574  27.575  1.00  0.00     0.074 A 
ATOM     20  C   UNL A   1      42.956  29.523  26.313  1.00  0.00     0.031 C 
ATOM     21  C   UNL A   1      37.643  29.181  30.190  1.00  0.00     0.029 A 
ATOM     22  C   UNL A   1      38.593  30.246  30.434  1.00  0.00     0.049 A 
ATOM     23  H   UNL A   1      40.629  30.255  29.956  1.00  0.00     0.167 HD
ATOM     24  C   UNL A   1      44.656  30.378  28.030  1.00  0.00     0.034 A 
ATOM     25  C   UNL A   1      38.401  31.438  31.047  1.00  0.00     0.034 A 
ATOM     26  C   UNL A   1      44.925  30.108  29.422  1.00  0.00     0.049 A 
ATOM     27  C   UNL A   1      39.731  31.943  31.452  1.00  0.00     0.074 A 
ATOM     28  C   UNL A   1      45.401  29.025  30.131  1.00  0.00     0.029 A 
ATOM     29  N   UNL A   1      44.300  30.924  30.335  1.00  0.00    -0.354 N 
ATOM     30  N   UNL A   1      40.466  31.395  32.379  1.00  0.00    -0.248 NA
ATOM     31  C   UNL A   1      40.440  32.795  30.512  1.00  0.00     0.031 C 
ATOM     32  C   UNL A   1      44.670  29.032  31.353  1.00  0.00     0.029 A 
ATOM     33  C   UNL A   1      43.840  30.158  31.373  1.00  0.00     0.049 A 
ATOM     34  H   UNL A   1      44.197  31.900  30.255  1.00  0.00     0.167 HD
ATOM     35  C   UNL A   1      41.755  31.444  31.869  1.00  0.00     0.074 A 
ATOM     36  C   UNL A   1      41.694  32.424  30.786  1.00  0.00     0.031 C 
ATOM     37  C   UNL A   1      42.670  30.477  32.175  1.00  0.00     0.034 A 
BRANCH  24  38
ATOM     38  C   UNL A   1      45.120  31.649  27.355  1.00  0.00     0.023 A 
ATOM     39  C   UNL A   1      44.381  32.845  27.356  1.00  0.00     0.031 A 
ATOM     40  C   UNL A   1      46.441  31.750  26.866  1.00  0.00     0.131 A 
ATOM     41  C   UNL A   1      44.929  34.054  26.908  1.00  0.00     0.055 A 
ATOM     42  C   UNL A   1      47.011  32.968  26.476  1.00  0.00     0.041 A 
ATOM     43  F   UNL A   1      47.241  30.674  26.806  1.00  0.00    -0.206 F 
ATOM     44  C   UNL A   1      46.255  34.132  26.500  1.00  0.00     0.022 A 
BRANCH  41  45
ATOM     45  S   UNL A   1      43.914  35.558  26.872  1.00  0.00     0.124 S 
ATOM     46  O   UNL A   1      43.021  35.292  25.749  1.00  0.00    -0.237 OA
ATOM     47  O   UNL A   1      43.296  35.528  28.195  1.00  0.00    -0.237 OA
ATOM     48  O   UNL A   1      44.890  36.625  26.670  1.00  0.00    -0.744 OA
ENDBRANCH  41  45
ENDBRANCH  24  38
BRANCH  25  49
ATOM     49  C   UNL A   1      37.246  32.348  30.878  1.00  0.00     0.023 A 
ATOM     50  C   UNL A   1      36.574  32.833  32.014  1.00  0.00     0.031 A 
ATOM     51  C   UNL A   1      36.590  32.455  29.640  1.00  0.00     0.131 A 
ATOM     52  C   UNL A   1      35.267  33.325  31.907  1.00  0.00     0.055 A 
ATOM     53  C   UNL A   1      35.292  32.969  29.531  1.00  0.00     0.041 A 
ATOM     54  F   UNL A   1      37.165  31.985  28.523  1.00  0.00    -0.206 F 
ATOM     55  C   UNL A   1      34.616  33.389  30.673  1.00  0.00     0.022 A 
BRANCH  52  56
ATOM     56  S   UNL A   1      34.341  33.790  33.395  1.00  0.00     0.124 S 
ATOM     57  O   UNL A   1      33.108  33.023  33.242  1.00  0.00    -0.237 OA
ATOM     58  O   UNL A   1      35.238  33.339  34.453  1.00  0.00    -0.237 OA
ATOM     59  O   UNL A   1      34.190  35.237  33.260  1.00  0.00    -0.744 OA
ENDBRANCH  52  56
ENDBRANCH  25  49
BRANCH  37  60
ATOM     60  C   UNL A   1      42.362  29.516  33.307  1.00  0.00     0.023 A 
ATOM     61  C   UNL A   1      43.026  29.745  34.524  1.00  0.00     0.031 A 
ATOM     62  C   UNL A   1      41.651  28.307  33.177  1.00  0.00     0.131 A 
ATOM     63  C   UNL A   1      43.027  28.772  35.529  1.00  0.00     0.055 A 
ATOM     64  C   UNL A   1      41.589  27.369  34.215  1.00  0.00     0.041 A 
ATOM     65  F   UNL A   1      41.066  27.955  32.026  1.00  0.00    -0.206 F 
ATOM     66  C   UNL A   1      42.298  27.590  35.391  1.00  0.00     0.022 A 
BRANCH  63  67
ATOM     67  S   UNL A   1      44.117  28.951  36.963  1.00  0.00     0.124 S 
ATOM     68  O   UNL A   1      43.595  30.158  37.598  1.00  0.00    -0.237 OA
ATOM     69  O   UNL A   1      43.879  27.706  37.691  1.00  0.00    -0.237 OA
ATOM     70  O   UNL A   1      45.450  29.078  36.381  1.00  0.00    -0.744 OA
ENDBRANCH  63  67
ENDBRANCH  37  60
ENDBRANCH  11  12
ENDBRANCH   4   6
ENDBRANCH   1   2
BRANCH   1  71
ATOM     71  C   UNL A   1      35.700  23.425  25.724  1.00  0.00     0.023 C 
BRANCH  71  72
ATOM     72  C   UNL A   1      34.803  24.648  25.965  1.00  0.00     0.023 C 
BRANCH  72  73
ATOM     73  C   UNL A   1      33.841  25.042  24.838  1.00  0.00     0.116 C 
BRANCH  73  74
ATOM     74  N   UNL A   1      32.443  24.992  25.234  1.00  0.00    -0.352 N 
ATOM     75  C   UNL A   1      31.504  24.012  25.014  1.00  0.00     0.251 C 
ATOM     76  H   UNL A   1      32.120  25.776  25.735  1.00  0.00     0.163 HD
ATOM     77  O   UNL A   1      30.310  24.239  25.178  1.00  0.00    -0.269 OA
BRANCH  75  78
ATOM     78  C   UNL A   1      31.915  22.696  24.488  1.00  0.00     0.044 A 
ATOM     79  C   UNL A   1      31.874  22.406  23.120  1.00  0.00     0.018 A 
ATOM     80  C   UNL A   1      32.332  21.730  25.407  1.00  0.00     0.070 A 
ATOM     81  C   UNL A   1      32.124  21.106  22.677  1.00  0.00     0.057 A 
ATOM     82  C   UNL A   1      32.590  20.429  24.975  1.00  0.00     0.173 A 
ATOM     83  C   UNL A   1      32.441  20.102  23.598  1.00  0.00     0.172 A 
ATOM     84  N   UNL A   1      32.904  19.424  25.911  1.00  0.00    -0.229 N 
ATOM     85  N   UNL A   1      32.572  18.765  23.176  1.00  0.00    -0.229 N 
ATOM     86  C   UNL A   1      32.962  18.111  25.542  1.00  0.00     0.383 C 
ATOM     87  H   UNL A   1      33.084  19.674  26.847  1.00  0.00     0.313 HD
ATOM     88  C   UNL A   1      32.771  17.756  24.077  1.00  0.00     0.383 C 
ATOM     89  H   UNL A   1      32.520  18.553  22.216  1.00  0.00     0.313 HD
ATOM     90  N   UNL A   1      33.154  17.078  26.282  1.00  0.00    -0.122 N 
ATOM     91  N   UNL A   1      32.821  16.489  23.864  1.00  0.00    -0.122 N 
ATOM     92  S   UNL A   1      33.054  15.765  25.313  1.00  0.00     0.469 S 
ATOM     93  H   UNL A   1      33.329  17.076  27.252  1.00  0.00     0.331 HD
ATOM     94  H   UNL A   1      32.734  16.039  22.993  1.00  0.00     0.331 HD
ATOM     95  O   UNL A   1      34.349  15.107  25.293  1.00  0.00    -0.143 OA
ATOM     96  O   UNL A   1      31.861  15.034  25.656  1.00  0.00    -0.143 OA
ENDBRANCH  75  78
ENDBRANCH  73  74
ENDBRANCH  72  73
ENDBRANCH  71  72
ENDBRANCH   1  71
TORSDOF 14
ENDMDL
MODEL 2
REMARK VINA RESULT:     -13.7      4.383      8.661
REMARK SMILES O=C(NCCCCNC(=O)c1ccc2c(c1)NC1=[NH+]S(=O)(=O)[NH+]=C1N2)c1ccc(-c2c3nc(c(-c4cc(S(=O)(=O)[O-])ccc4F)c4ccc([nH]4)c(-c4cc(S(=O)(=O)[O-])ccc4F)c4nc(c(-c5cc(S(=O)(=O)[O-])ccc5F)c5ccc2[nH]5)C=C4)C=C3)cc1
REMARK SMILES IDX 4 1 3 2 1 3 2 4 26 6 27 7 88 8 28 9 87 10 29 11 30 12 31 13
REMARK SMILES IDX 81 14 32 15 86 16 80 17 82 18 33 19 85 20 79 21 78 22 34 24
REMARK SMILES IDX 66 25 46 26 65 27 47 28 50 29 64 30 83 31 48 32 49 33 63 35
REMARK SMILES IDX 84 36 51 37 35 38 36 39 44 40 37 41 43 42 45 43 42 44 38 45
REMARK SMILES IDX 39 46 40 47 41 48 67 49 68 50 76 51 69 52 75 53 77 54 74 55
REMARK SMILES IDX 70 56 71 57 72 58 73 59 52 60 53 61 61 62 54 63 60 64 62 65
REMARK SMILES IDX 59 66 55 67 56 68 57 69 58 70 5 71 6 72 7 73 8 74 9 75 10 77
REMARK SMILES IDX 11 78 12 79 16 80 13 81 15 82 14 83 17 84 25 85 18 86 24 88
REMARK SMILES IDX 19 90 23 91 20 92 21 95 22 96
REMARK H PARENT 3 5 82 23 50 34 8 76 17 87 25 89 19 93 23 94
REMARK Flexibility Score: inf
ROOT
ATOM      1  C   UNL A   1      32.214  28.872  27.338  1.00  0.00     0.116 C 
ENDROOT
BRANCH   1   2
ATOM      2  N   UNL A   1      31.694  30.101  26.720  1.00  0.00    -0.352 N 
ATOM      3  O   UNL A   1      31.454  32.367  26.642  1.00  0.00    -0.269 OA
ATOM      4  C   UNL A   1      32.164  31.400  26.887  1.00  0.00     0.251 C 
ATOM      5  H   UNL A   1      30.923  29.992  26.117  1.00  0.00     0.163 HD
BRANCH   4   6
ATOM      6  C   UNL A   1      33.554  31.577  27.347  1.00  0.00     0.039 A 
ATOM      7  C   UNL A   1      34.015  32.708  28.023  1.00  0.00     0.014 A 
ATOM      8  C   UNL A   1      34.394  30.496  27.132  1.00  0.00     0.014 A 
ATOM      9  C   UNL A   1      35.315  32.685  28.534  1.00  0.00     0.010 A 
ATOM     10  C   UNL A   1      35.516  30.363  27.888  1.00  0.00     0.010 A 
ATOM     11  C   UNL A   1      36.057  31.492  28.469  1.00  0.00    -0.014 A 
BRANCH  11  12
ATOM     12  C   UNL A   1      37.403  31.363  29.007  1.00  0.00     0.031 A 
ATOM     13  C   UNL A   1      38.046  30.056  28.740  1.00  0.00     0.074 A 
ATOM     14  C   UNL A   1      38.087  32.403  29.536  1.00  0.00     0.049 A 
ATOM     15  N   UNL A   1      38.200  29.083  29.572  1.00  0.00    -0.248 NA
ATOM     16  C   UNL A   1      38.380  29.715  27.350  1.00  0.00     0.031 C 
ATOM     17  C   UNL A   1      37.731  33.833  29.559  1.00  0.00     0.029 A 
ATOM     18  N   UNL A   1      39.323  32.411  30.098  1.00  0.00    -0.354 N 
ATOM     19  C   UNL A   1      38.875  28.087  28.871  1.00  0.00     0.074 A 
ATOM     20  C   UNL A   1      38.753  28.440  27.479  1.00  0.00     0.031 C 
ATOM     21  C   UNL A   1      38.815  34.574  29.876  1.00  0.00     0.029 A 
ATOM     22  C   UNL A   1      39.870  33.674  30.290  1.00  0.00     0.049 A 
ATOM     23  H   UNL A   1      39.796  31.585  30.351  1.00  0.00     0.167 HD
ATOM     24  C   UNL A   1      39.684  27.199  29.519  1.00  0.00     0.034 A 
ATOM     25  C   UNL A   1      41.107  33.965  30.760  1.00  0.00     0.034 A 
ATOM     26  C   UNL A   1      39.504  27.303  30.946  1.00  0.00     0.049 A 
ATOM     27  C   UNL A   1      41.606  32.761  31.461  1.00  0.00     0.074 A 
ATOM     28  C   UNL A   1      38.462  27.070  31.818  1.00  0.00     0.029 A 
ATOM     29  N   UNL A   1      40.397  28.106  31.617  1.00  0.00    -0.354 N 
ATOM     30  N   UNL A   1      41.105  32.310  32.576  1.00  0.00    -0.248 NA
ATOM     31  C   UNL A   1      42.372  31.802  30.684  1.00  0.00     0.031 C 
ATOM     32  C   UNL A   1      38.573  28.086  32.810  1.00  0.00     0.029 A 
ATOM     33  C   UNL A   1      39.717  28.846  32.547  1.00  0.00     0.049 A 
ATOM     34  H   UNL A   1      41.368  28.143  31.453  1.00  0.00     0.167 HD
ATOM     35  C   UNL A   1      41.086  30.933  32.412  1.00  0.00     0.074 A 
ATOM     36  C   UNL A   1      41.990  30.676  31.292  1.00  0.00     0.031 C 
ATOM     37  C   UNL A   1      40.121  30.167  33.001  1.00  0.00     0.034 A 
BRANCH  24  38
ATOM     38  C   UNL A   1      40.892  26.525  28.908  1.00  0.00     0.023 A 
ATOM     39  C   UNL A   1      40.897  25.191  28.465  1.00  0.00     0.031 A 
ATOM     40  C   UNL A   1      42.026  27.289  28.555  1.00  0.00     0.131 A 
ATOM     41  C   UNL A   1      41.958  24.664  27.715  1.00  0.00     0.055 A 
ATOM     42  C   UNL A   1      43.057  26.783  27.753  1.00  0.00     0.041 A 
ATOM     43  F   UNL A   1      42.140  28.572  28.929  1.00  0.00    -0.206 F 
ATOM     44  C   UNL A   1      43.026  25.463  27.324  1.00  0.00     0.022 A 
BRANCH  41  45
ATOM     45  S   UNL A   1      41.946  22.919  27.220  1.00  0.00     0.124 S 
ATOM     46  O   UNL A   1      42.892  22.331  28.163  1.00  0.00    -0.237 OA
ATOM     47  O   UNL A   1      40.544  22.564  27.424  1.00  0.00    -0.237 OA
ATOM     48  O   UNL A   1      42.377  22.956  25.826  1.00  0.00    -0.744 OA
ENDBRANCH  41  45
ENDBRANCH  24  38
BRANCH  25  49
ATOM     49  C   UNL A   1      42.031  35.000  30.245  1.00  0.00     0.023 A 
ATOM     50  C   UNL A   1      42.360  35.017  28.879  1.00  0.00     0.031 A 
ATOM     51  C   UNL A   1      42.852  35.731  31.121  1.00  0.00     0.131 A 
ATOM     52  C   UNL A   1      43.516  35.675  28.437  1.00  0.00     0.055 A 
ATOM     53  C   UNL A   1      43.993  36.408  30.674  1.00  0.00     0.041 A 
ATOM     54  F   UNL A   1      42.607  35.732  32.440  1.00  0.00    -0.206 F 
ATOM     55  C   UNL A   1      44.341  36.364  29.328  1.00  0.00     0.022 A 
BRANCH  52  56
ATOM     56  S   UNL A   1      44.032  35.551  26.703  1.00  0.00     0.124 S 
ATOM     57  O   UNL A   1      44.951  36.678  26.574  1.00  0.00    -0.237 OA
ATOM     58  O   UNL A   1      44.647  34.229  26.673  1.00  0.00    -0.237 OA
ATOM     59  O   UNL A   1      42.777  35.688  25.968  1.00  0.00    -0.744 OA
ENDBRANCH  52  56
ENDBRANCH  25  49
BRANCH  37  60
ATOM     60  C   UNL A   1      39.249  30.793  34.073  1.00  0.00     0.023 A 
ATOM     61  C   UNL A   1      38.197  31.613  33.628  1.00  0.00     0.031 A 
ATOM     62  C   UNL A   1      39.534  30.801  35.452  1.00  0.00     0.131 A 
ATOM     63  C   UNL A   1      37.517  32.446  34.522  1.00  0.00     0.055 A 
ATOM     64  C   UNL A   1      38.800  31.578  36.356  1.00  0.00     0.041 A 
ATOM     65  F   UNL A   1      40.575  30.128  35.959  1.00  0.00    -0.206 F 
ATOM     66  C   UNL A   1      37.799  32.423  35.888  1.00  0.00     0.022 A 
BRANCH  63  67
ATOM     67  S   UNL A   1      36.372  33.702  33.897  1.00  0.00     0.124 S 
ATOM     68  O   UNL A   1      36.001  33.160  32.593  1.00  0.00    -0.237 OA
ATOM     69  O   UNL A   1      35.315  33.686  34.907  1.00  0.00    -0.237 OA
ATOM     70  O   UNL A   1      37.171  34.923  33.861  1.00  0.00    -0.744 OA
ENDBRANCH  63  67
ENDBRANCH  37  60
ENDBRANCH  11  12
ENDBRANCH   4   6
ENDBRANCH   1   2
BRANCH   1  71
ATOM     71  C   UNL A   1      31.870  27.602  26.577  1.00  0.00     0.023 C 
BRANCH  71  72
ATOM     72  C   UNL A   1      33.078  26.768  26.127  1.00  0.00     0.023 C 
BRANCH  72  73
ATOM     73  C   UNL A   1      32.844  25.272  25.885  1.00  0.00     0.116 C 
BRANCH  73  74
ATOM     74  N   UNL A   1      33.077  24.871  24.507  1.00  0.00    -0.352 N 
ATOM     75  C   UNL A   1      32.325  25.120  23.383  1.00  0.00     0.251 C 
ATOM     76  H   UNL A   1      33.894  24.343  24.356  1.00  0.00     0.163 HD
ATOM     77  O   UNL A   1      32.517  24.490  22.349  1.00  0.00    -0.269 OA
BRANCH  75  78
ATOM     78  C   UNL A   1      31.215  26.091  23.434  1.00  0.00     0.044 A 
ATOM     79  C   UNL A   1      29.963  25.749  23.956  1.00  0.00     0.018 A 
ATOM     80  C   UNL A   1      31.445  27.370  22.921  1.00  0.00     0.070 A 
ATOM     81  C   UNL A   1      28.896  26.642  23.848  1.00  0.00     0.057 A 
ATOM     82  C   UNL A   1      30.388  28.274  22.814  1.00  0.00     0.173 A 
ATOM     83  C   UNL A   1      29.087  27.888  23.242  1.00  0.00     0.172 A 
ATOM     84  N   UNL A   1      30.589  29.524  22.198  1.00  0.00    -0.229 N 
ATOM     85  N   UNL A   1      27.991  28.744  23.017  1.00  0.00    -0.229 N 
ATOM     86  C   UNL A   1      29.535  30.340  21.899  1.00  0.00     0.383 C 
ATOM     87  H   UNL A   1      31.504  29.814  21.978  1.00  0.00     0.313 HD
ATOM     88  C   UNL A   1      28.140  29.916  22.327  1.00  0.00     0.383 C 
ATOM     89  H   UNL A   1      27.103  28.496  23.362  1.00  0.00     0.313 HD
ATOM     90  N   UNL A   1      29.543  31.462  21.273  1.00  0.00    -0.122 N 
ATOM     91  N   UNL A   1      27.235  30.753  21.964  1.00  0.00    -0.122 N 
ATOM     92  S   UNL A   1      27.988  31.954  21.146  1.00  0.00     0.469 S 
ATOM     93  H   UNL A   1      30.336  31.938  20.933  1.00  0.00     0.331 HD
ATOM     94  H   UNL A   1      26.270  30.685  22.144  1.00  0.00     0.331 HD
ATOM     95  O   UNL A   1      27.832  33.188  21.897  1.00  0.00    -0.143 OA
ATOM     96  O   UNL A   1      27.598  31.879  19.762  1.00  0.00    -0.143 OA
ENDBRANCH  75  78
ENDBRANCH  73  74
ENDBRANCH  72  73
ENDBRANCH  71  72
ENDBRANCH   1  71
TORSDOF 14
ENDMDL
MODEL 3
REMARK VINA RESULT:     -13.7      1.738      2.188
REMARK SMILES O=C(NCCCCNC(=O)c1ccc2c(c1)NC1=[NH+]S(=O)(=O)[NH+]=C1N2)c1ccc(-c2c3nc(c(-c4cc(S(=O)(=O)[O-])ccc4F)c4ccc([nH]4)c(-c4cc(S(=O)(=O)[O-])ccc4F)c4nc(c(-c5cc(S(=O)(=O)[O-])ccc5F)c5ccc2[nH]5)C=C4)C=C3)cc1
REMARK SMILES IDX 4 1 3 2 1 3 2 4 26 6 27 7 88 8 28 9 87 10 29 11 30 12 31 13
REMARK SMILES IDX 81 14 32 15 86 16 80 17 82 18 33 19 85 20 79 21 78 22 34 24
REMARK SMILES IDX 66 25 46 26 65 27 47 28 50 29 64 30 83 31 48 32 49 33 63 35
REMARK SMILES IDX 84 36 51 37 35 38 36 39 44 40 37 41 43 42 45 43 42 44 38 45
REMARK SMILES IDX 39 46 40 47 41 48 67 49 68 50 76 51 69 52 75 53 77 54 74 55
REMARK SMILES IDX 70 56 71 57 72 58 73 59 52 60 53 61 61 62 54 63 60 64 62 65
REMARK SMILES IDX 59 66 55 67 56 68 57 69 58 70 5 71 6 72 7 73 8 74 9 75 10 77
REMARK SMILES IDX 11 78 12 79 16 80 13 81 15 82 14 83 17 84 25 85 18 86 24 88
REMARK SMILES IDX 19 90 23 91 20 92 21 95 22 96
REMARK H PARENT 3 5 82 23 50 34 8 76 17 87 25 89 19 93 23 94
REMARK Flexibility Score: inf
ROOT
ATOM      1  C   UNL A   1      38.522  22.393  26.150  1.00  0.00     0.116 C 
ENDROOT
BRANCH   1   2
ATOM      2  N   UNL A   1      39.900  21.938  25.917  1.00  0.00    -0.352 N 
ATOM      3  O   UNL A   1      42.104  22.336  25.489  1.00  0.00    -0.269 OA
ATOM      4  C   UNL A   1      41.072  22.676  26.053  1.00  0.00     0.251 C 
ATOM      5  H   UNL A   1      40.007  21.002  25.631  1.00  0.00     0.163 HD
BRANCH   4   6
ATOM      6  C   UNL A   1      41.040  23.869  26.919  1.00  0.00     0.039 A 
ATOM      7  C   UNL A   1      41.902  24.076  27.997  1.00  0.00     0.014 A 
ATOM      8  C   UNL A   1      40.126  24.845  26.552  1.00  0.00     0.014 A 
ATOM      9  C   UNL A   1      41.864  25.315  28.641  1.00  0.00     0.010 A 
ATOM     10  C   UNL A   1      40.314  26.125  26.971  1.00  0.00     0.010 A 
ATOM     11  C   UNL A   1      41.067  26.343  28.108  1.00  0.00    -0.014 A 
BRANCH  11  12
ATOM     12  C   UNL A   1      40.993  27.676  28.688  1.00  0.00     0.031 A 
ATOM     13  C   UNL A   1      41.941  28.651  28.102  1.00  0.00     0.074 A 
ATOM     14  C   UNL A   1      40.019  28.050  29.549  1.00  0.00     0.049 A 
ATOM     15  N   UNL A   1      43.042  29.072  28.623  1.00  0.00    -0.248 NA
ATOM     16  C   UNL A   1      41.744  29.059  26.704  1.00  0.00     0.031 C 
ATOM     17  C   UNL A   1      38.810  27.314  29.960  1.00  0.00     0.029 A 
ATOM     18  N   UNL A   1      39.856  29.239  30.183  1.00  0.00    -0.354 N 
ATOM     19  C   UNL A   1      43.564  29.991  27.717  1.00  0.00     0.074 A 
ATOM     20  C   UNL A   1      42.853  29.769  26.483  1.00  0.00     0.031 C 
ATOM     21  C   UNL A   1      37.941  28.154  30.563  1.00  0.00     0.029 A 
ATOM     22  C   UNL A   1      38.612  29.419  30.777  1.00  0.00     0.049 A 
ATOM     23  H   UNL A   1      40.564  29.922  30.220  1.00  0.00     0.167 HD
ATOM     24  C   UNL A   1      44.360  31.017  28.138  1.00  0.00     0.034 A 
ATOM     25  C   UNL A   1      38.161  30.530  31.406  1.00  0.00     0.034 A 
ATOM     26  C   UNL A   1      44.742  30.823  29.516  1.00  0.00     0.049 A 
ATOM     27  C   UNL A   1      39.344  31.345  31.762  1.00  0.00     0.074 A 
ATOM     28  C   UNL A   1      45.495  29.891  30.198  1.00  0.00     0.029 A 
ATOM     29  N   UNL A   1      43.974  31.465  30.459  1.00  0.00    -0.354 N 
ATOM     30  N   UNL A   1      40.226  30.994  32.655  1.00  0.00    -0.248 NA
ATOM     31  C   UNL A   1      39.785  32.341  30.801  1.00  0.00     0.031 C 
ATOM     32  C   UNL A   1      44.834  29.723  31.448  1.00  0.00     0.029 A 
ATOM     33  C   UNL A   1      43.756  30.613  31.509  1.00  0.00     0.049 A 
ATOM     34  H   UNL A   1      43.634  32.387  30.390  1.00  0.00     0.167 HD
ATOM     35  C   UNL A   1      41.442  31.354  32.096  1.00  0.00     0.074 A 
ATOM     36  C   UNL A   1      41.101  32.288  31.022  1.00  0.00     0.031 C 
ATOM     37  C   UNL A   1      42.577  30.640  32.358  1.00  0.00     0.034 A 
BRANCH  24  38
ATOM     38  C   UNL A   1      44.474  32.360  27.454  1.00  0.00     0.023 A 
ATOM     39  C   UNL A   1      43.702  33.481  27.808  1.00  0.00     0.031 A 
ATOM     40  C   UNL A   1      45.533  32.610  26.554  1.00  0.00     0.131 A 
ATOM     41  C   UNL A   1      43.977  34.759  27.303  1.00  0.00     0.055 A 
ATOM     42  C   UNL A   1      45.848  33.896  26.097  1.00  0.00     0.041 A 
ATOM     43  F   UNL A   1      46.333  31.618  26.134  1.00  0.00    -0.206 F 
ATOM     44  C   UNL A   1      45.071  34.982  26.475  1.00  0.00     0.022 A 
BRANCH  41  45
ATOM     45  S   UNL A   1      42.914  36.162  27.741  1.00  0.00     0.124 S 
ATOM     46  O   UNL A   1      41.759  35.493  28.331  1.00  0.00    -0.237 OA
ATOM     47  O   UNL A   1      43.765  36.896  28.675  1.00  0.00    -0.237 OA
ATOM     48  O   UNL A   1      42.681  36.828  26.464  1.00  0.00    -0.744 OA
ENDBRANCH  41  45
ENDBRANCH  24  38
BRANCH  25  49
ATOM     49  C   UNL A   1      36.814  31.131  31.290  1.00  0.00     0.023 A 
ATOM     50  C   UNL A   1      36.264  31.358  30.016  1.00  0.00     0.031 A 
ATOM     51  C   UNL A   1      36.226  31.797  32.379  1.00  0.00     0.131 A 
ATOM     52  C   UNL A   1      35.224  32.281  29.848  1.00  0.00     0.055 A 
ATOM     53  C   UNL A   1      35.170  32.701  32.212  1.00  0.00     0.041 A 
ATOM     54  F   UNL A   1      36.721  31.643  33.617  1.00  0.00    -0.206 F 
ATOM     55  C   UNL A   1      34.678  32.962  30.937  1.00  0.00     0.022 A 
BRANCH  52  56
ATOM     56  S   UNL A   1      34.634  32.701  28.185  1.00  0.00     0.124 S 
ATOM     57  O   UNL A   1      33.500  33.575  28.472  1.00  0.00    -0.237 OA
ATOM     58  O   UNL A   1      35.806  33.355  27.613  1.00  0.00    -0.237 OA
ATOM     59  O   UNL A   1      34.285  31.403  27.614  1.00  0.00    -0.744 OA
ENDBRANCH  52  56
ENDBRANCH  25  49
BRANCH  37  60
ATOM     60  C   UNL A   1      42.557  29.636  33.495  1.00  0.00     0.023 A 
ATOM     61  C   UNL A   1      43.067  30.073  34.729  1.00  0.00     0.031 A 
ATOM     62  C   UNL A   1      42.283  28.261  33.361  1.00  0.00     0.131 A 
ATOM     63  C   UNL A   1      43.348  29.158  35.748  1.00  0.00     0.055 A 
ATOM     64  C   UNL A   1      42.492  27.358  34.410  1.00  0.00     0.041 A 
ATOM     65  F   UNL A   1      41.886  27.733  32.196  1.00  0.00    -0.206 F 
ATOM     66  C   UNL A   1      43.048  27.802  35.605  1.00  0.00     0.022 A 
BRANCH  63  67
ATOM     67  S   UNL A   1      44.268  29.688  37.215  1.00  0.00     0.124 S 
ATOM     68  O   UNL A   1      43.337  30.619  37.844  1.00  0.00    -0.237 OA
ATOM     69  O   UNL A   1      44.471  28.427  37.926  1.00  0.00    -0.237 OA
ATOM     70  O   UNL A   1      45.482  30.290  36.671  1.00  0.00    -0.744 OA
ENDBRANCH  63  67
ENDBRANCH  37  60
ENDBRANCH  11  12
ENDBRANCH   4   6
ENDBRANCH   1   2
BRANCH   1  71
ATOM     71  C   UNL A   1      37.572  22.108  24.998  1.00  0.00     0.023 C 
BRANCH  71  72
ATOM     72  C   UNL A   1      36.758  23.317  24.515  1.00  0.00     0.023 C 
BRANCH  72  73
ATOM     73  C   UNL A   1      36.047  23.186  23.162  1.00  0.00     0.116 C 
BRANCH  73  74
ATOM     74  N   UNL A   1      34.861  24.020  23.055  1.00  0.00    -0.352 N 
ATOM     75  C   UNL A   1      33.566  23.755  23.433  1.00  0.00     0.251 C 
ATOM     76  H   UNL A   1      35.006  24.906  22.652  1.00  0.00     0.163 HD
ATOM     77  O   UNL A   1      32.641  24.453  23.033  1.00  0.00    -0.269 OA
BRANCH  75  78
ATOM     78  C   UNL A   1      33.262  22.569  24.258  1.00  0.00     0.044 A 
ATOM     79  C   UNL A   1      33.200  22.642  25.654  1.00  0.00     0.018 A 
ATOM     80  C   UNL A   1      33.057  21.354  23.600  1.00  0.00     0.070 A 
ATOM     81  C   UNL A   1      33.063  21.474  26.405  1.00  0.00     0.057 A 
ATOM     82  C   UNL A   1      32.912  20.181  24.340  1.00  0.00     0.173 A 
ATOM     83  C   UNL A   1      32.961  20.236  25.761  1.00  0.00     0.172 A 
ATOM     84  N   UNL A   1      32.815  18.939  23.683  1.00  0.00    -0.229 N 
ATOM     85  N   UNL A   1      32.946  19.043  26.511  1.00  0.00    -0.229 N 
ATOM     86  C   UNL A   1      32.876  17.766  24.379  1.00  0.00     0.383 C 
ATOM     87  H   UNL A   1      32.702  18.917  22.705  1.00  0.00     0.313 HD
ATOM     88  C   UNL A   1      32.960  17.822  25.895  1.00  0.00     0.383 C 
ATOM     89  H   UNL A   1      32.927  19.089  27.494  1.00  0.00     0.313 HD
ATOM     90  N   UNL A   1      32.882  16.564  23.926  1.00  0.00    -0.122 N 
ATOM     91  N   UNL A   1      33.039  16.656  26.430  1.00  0.00    -0.122 N 
ATOM     92  S   UNL A   1      33.040  15.565  25.210  1.00  0.00     0.469 S 
ATOM     93  H   UNL A   1      32.807  16.294  22.981  1.00  0.00     0.331 HD
ATOM     94  H   UNL A   1      33.090  16.456  27.393  1.00  0.00     0.331 HD
ATOM     95  O   UNL A   1      31.836  14.758  25.317  1.00  0.00    -0.143 OA
ATOM     96  O   UNL A   1      34.339  14.946  25.151  1.00  0.00    -0.143 OA
ENDBRANCH  75  78
ENDBRANCH  73  74
ENDBRANCH  72  73
ENDBRANCH  71  72
ENDBRANCH   1  71
TORSDOF 14
ENDMDL
