MODEL 1
REMARK VINA RESULT:     -12.5      0.000      0.000
REMARK SMILES O=C(NCCCCNC(=O)[C@@H]1CN(c2ncccn2)CCN1C(=O)C1CCOCC1)c1ccc(-c2c3nc(c(-c4cc(S(=O)(=O)[O-])ccc4F)c4ccc([nH]4)c(-c4cc(S(=O)(=O)[O-])ccc4F)c4nc(c(-c5cc(S(=O)(=O)[O-])ccc5F)c5ccc2[nH]5)C=C4)C=C3)cc1
REMARK SMILES IDX 5 1 4 2 3 3 1 4 2 5 31 7 32 8 93 9 33 10 92 11 34 12 35 13
REMARK SMILES IDX 36 14 86 15 37 16 91 17 85 18 87 19 38 20 90 21 84 22 83 23
REMARK SMILES IDX 39 25 71 26 51 27 70 28 52 29 55 30 69 31 88 32 53 33 54 34
REMARK SMILES IDX 68 36 89 37 56 38 40 39 41 40 49 41 42 42 48 43 50 44 47 45
REMARK SMILES IDX 43 46 44 47 45 48 46 49 72 50 73 51 81 52 74 53 80 54 82 55
REMARK SMILES IDX 79 56 75 57 76 58 77 59 78 60 57 61 58 62 66 63 59 64 65 65
REMARK SMILES IDX 67 66 64 67 60 68 61 69 62 70 63 71 6 72 7 73 8 74 9 75
REMARK SMILES IDX 10 77 11 78 12 79 22 80 13 81 21 82 20 83 23 84 24 85 25 86
REMARK SMILES IDX 26 87 30 88 27 89 29 90 28 91 14 92 15 93 19 94 16 95 18 96
REMARK SMILES IDX 17 97
REMARK H PARENT 3 6 87 24 55 35 8 76
REMARK Flexibility Score: inf
ROOT
ATOM      1  C   UNL A   1      31.421  31.879  26.615  1.00  0.00     0.023 C 
ENDROOT
BRANCH   1   2
ATOM      2  C   UNL A   1      32.702  32.415  27.240  1.00  0.00     0.116 C 
BRANCH   2   3
ATOM      3  N   UNL A   1      32.589  33.820  27.605  1.00  0.00    -0.352 N 
ATOM      4  O   UNL A   1      32.942  35.640  28.890  1.00  0.00    -0.269 OA
ATOM      5  C   UNL A   1      33.283  34.512  28.572  1.00  0.00     0.251 C 
ATOM      6  H   UNL A   1      31.930  34.343  27.094  1.00  0.00     0.163 HD
BRANCH   5   7
ATOM      7  C   UNL A   1      34.438  33.861  29.226  1.00  0.00     0.039 A 
ATOM      8  C   UNL A   1      34.231  32.843  30.161  1.00  0.00     0.014 A 
ATOM      9  C   UNL A   1      35.732  34.282  28.912  1.00  0.00     0.014 A 
ATOM     10  C   UNL A   1      35.308  32.335  30.875  1.00  0.00     0.010 A 
ATOM     11  C   UNL A   1      36.823  33.709  29.574  1.00  0.00     0.010 A 
ATOM     12  C   UNL A   1      36.616  32.748  30.576  1.00  0.00    -0.014 A 
BRANCH  12  13
ATOM     13  C   UNL A   1      37.755  32.101  31.276  1.00  0.00     0.031 A 
ATOM     14  C   UNL A   1      38.557  31.013  30.620  1.00  0.00     0.074 A 
ATOM     15  C   UNL A   1      38.068  32.530  32.515  1.00  0.00     0.049 A 
ATOM     16  N   UNL A   1      39.577  30.344  31.092  1.00  0.00    -0.248 NA
ATOM     17  C   UNL A   1      38.155  30.617  29.263  1.00  0.00     0.031 C 
ATOM     18  C   UNL A   1      37.349  33.577  33.246  1.00  0.00     0.029 A 
ATOM     19  N   UNL A   1      39.072  32.159  33.370  1.00  0.00    -0.354 N 
ATOM     20  C   UNL A   1      39.933  29.435  30.102  1.00  0.00     0.074 A 
ATOM     21  C   UNL A   1      38.995  29.622  29.012  1.00  0.00     0.031 C 
ATOM     22  C   UNL A   1      37.958  33.791  34.421  1.00  0.00     0.029 A 
ATOM     23  C   UNL A   1      39.064  32.852  34.557  1.00  0.00     0.049 A 
ATOM     24  H   UNL A   1      39.735  31.463  33.155  1.00  0.00     0.167 HD
ATOM     25  C   UNL A   1      40.947  28.535  30.105  1.00  0.00     0.034 A 
ATOM     26  C   UNL A   1      39.843  32.730  35.649  1.00  0.00     0.034 A 
ATOM     27  C   UNL A   1      41.871  28.371  31.204  1.00  0.00     0.049 A 
ATOM     28  C   UNL A   1      40.943  31.705  35.637  1.00  0.00     0.074 A 
ATOM     29  C   UNL A   1      42.959  27.519  31.297  1.00  0.00     0.029 A 
ATOM     30  N   UNL A   1      41.813  29.066  32.408  1.00  0.00    -0.354 N 
ATOM     31  N   UNL A   1      41.276  30.865  34.684  1.00  0.00    -0.248 NA
ATOM     32  C   UNL A   1      41.771  31.613  36.843  1.00  0.00     0.031 C 
ATOM     33  C   UNL A   1      43.512  27.648  32.576  1.00  0.00     0.029 A 
ATOM     34  C   UNL A   1      42.821  28.636  33.258  1.00  0.00     0.049 A 
ATOM     35  H   UNL A   1      41.150  29.762  32.624  1.00  0.00     0.167 HD
ATOM     36  C   UNL A   1      42.364  30.152  35.173  1.00  0.00     0.074 A 
ATOM     37  C   UNL A   1      42.645  30.679  36.495  1.00  0.00     0.031 C 
ATOM     38  C   UNL A   1      43.070  29.154  34.584  1.00  0.00     0.034 A 
BRANCH  25  39
ATOM     39  C   UNL A   1      41.079  27.624  28.906  1.00  0.00     0.023 A 
ATOM     40  C   UNL A   1      42.061  27.825  27.921  1.00  0.00     0.031 A 
ATOM     41  C   UNL A   1      40.197  26.540  28.743  1.00  0.00     0.131 A 
ATOM     42  C   UNL A   1      42.099  26.995  26.789  1.00  0.00     0.055 A 
ATOM     43  C   UNL A   1      40.286  25.673  27.652  1.00  0.00     0.041 A 
ATOM     44  F   UNL A   1      39.226  26.307  29.640  1.00  0.00    -0.206 F 
ATOM     45  C   UNL A   1      41.233  25.907  26.659  1.00  0.00     0.022 A 
BRANCH  42  46
ATOM     46  S   UNL A   1      43.210  27.436  25.424  1.00  0.00     0.124 S 
ATOM     47  O   UNL A   1      43.634  26.120  24.950  1.00  0.00    -0.237 OA
ATOM     48  O   UNL A   1      42.332  28.184  24.532  1.00  0.00    -0.237 OA
ATOM     49  O   UNL A   1      44.257  28.223  26.073  1.00  0.00    -0.744 OA
ENDBRANCH  42  46
ENDBRANCH  25  39
BRANCH  26  50
ATOM     50  C   UNL A   1      39.582  33.573  36.848  1.00  0.00     0.023 A 
ATOM     51  C   UNL A   1      38.955  33.046  37.986  1.00  0.00     0.031 A 
ATOM     52  C   UNL A   1      39.955  34.930  36.866  1.00  0.00     0.131 A 
ATOM     53  C   UNL A   1      38.690  33.879  39.084  1.00  0.00     0.055 A 
ATOM     54  C   UNL A   1      39.736  35.740  37.980  1.00  0.00     0.041 A 
ATOM     55  F   UNL A   1      40.565  35.481  35.804  1.00  0.00    -0.206 F 
ATOM     56  C   UNL A   1      39.089  35.217  39.095  1.00  0.00     0.022 A 
BRANCH  53  57
ATOM     57  S   UNL A   1      37.751  33.202  40.479  1.00  0.00     0.124 S 
ATOM     58  O   UNL A   1      38.544  32.031  40.833  1.00  0.00    -0.237 OA
ATOM     59  O   UNL A   1      37.780  34.309  41.430  1.00  0.00    -0.237 OA
ATOM     60  O   UNL A   1      36.439  32.917  39.900  1.00  0.00    -0.744 OA
ENDBRANCH  53  57
ENDBRANCH  26  50
BRANCH  38  61
ATOM     61  C   UNL A   1      44.231  28.595  35.368  1.00  0.00     0.023 A 
ATOM     62  C   UNL A   1      44.067  27.531  36.271  1.00  0.00     0.031 A 
ATOM     63  C   UNL A   1      45.514  29.155  35.229  1.00  0.00     0.131 A 
ATOM     64  C   UNL A   1      45.152  27.099  37.046  1.00  0.00     0.055 A 
ATOM     65  C   UNL A   1      46.603  28.681  35.960  1.00  0.00     0.041 A 
ATOM     66  F   UNL A   1      45.725  30.176  34.383  1.00  0.00    -0.206 F 
ATOM     67  C   UNL A   1      46.423  27.657  36.886  1.00  0.00     0.022 A 
BRANCH  64  68
ATOM     68  S   UNL A   1      44.862  25.862  38.341  1.00  0.00     0.124 S 
ATOM     69  O   UNL A   1      43.942  26.565  39.231  1.00  0.00    -0.237 OA
ATOM     70  O   UNL A   1      44.294  24.748  37.588  1.00  0.00    -0.237 OA
ATOM     71  O   UNL A   1      46.194  25.621  38.892  1.00  0.00    -0.744 OA
ENDBRANCH  64  68
ENDBRANCH  38  61
ENDBRANCH  12  13
ENDBRANCH   5   7
ENDBRANCH   2   3
ENDBRANCH   1   2
BRANCH   1  72
ATOM     72  C   UNL A   1      31.429  30.375  26.338  1.00  0.00     0.023 C 
BRANCH  72  73
ATOM     73  C   UNL A   1      32.740  29.848  25.761  1.00  0.00     0.116 C 
BRANCH  73  74
ATOM     74  N   UNL A   1      32.721  29.873  24.309  1.00  0.00    -0.354 N 
ATOM     75  C   UNL A   1      32.264  28.949  23.414  1.00  0.00     0.244 C 
ATOM     76  H   UNL A   1      33.098  30.687  23.904  1.00  0.00     0.163 HD
ATOM     77  O   UNL A   1      32.632  29.052  22.243  1.00  0.00    -0.273 OA
BRANCH  75  78
ATOM     78  C   UNL A   1      31.362  27.803  23.893  1.00  0.00     0.193 C 
ATOM     79  C   UNL A   1      32.231  26.580  23.480  1.00  0.00     0.155 C 
ATOM     80  N   UNL A   1      29.935  27.563  23.454  1.00  0.00    -0.327 N 
ATOM     81  N   UNL A   1      31.666  25.355  24.022  1.00  0.00    -0.336 N 
ATOM     82  C   UNL A   1      29.419  26.255  23.943  1.00  0.00     0.142 C 
ATOM     83  C   UNL A   1      30.314  25.042  23.614  1.00  0.00     0.141 C 
BRANCH  80  84
ATOM     84  C   UNL A   1      28.935  28.495  23.189  1.00  0.00     0.226 C 
ATOM     85  O   UNL A   1      27.742  28.185  23.338  1.00  0.00    -0.275 OA
BRANCH  84  86
ATOM     86  C   UNL A   1      29.196  29.906  22.662  1.00  0.00     0.083 C 
ATOM     87  C   UNL A   1      29.117  30.994  23.732  1.00  0.00     0.042 C 
ATOM     88  C   UNL A   1      28.488  30.149  21.333  1.00  0.00     0.042 C 
ATOM     89  C   UNL A   1      28.734  32.374  23.205  1.00  0.00     0.161 C 
ATOM     90  C   UNL A   1      28.357  31.624  21.006  1.00  0.00     0.161 C 
ATOM     91  O   UNL A   1      27.812  32.315  22.118  1.00  0.00    -0.381 OA
ENDBRANCH  84  86
ENDBRANCH  80  84
BRANCH  81  92
ATOM     92  C   UNL A   1      32.504  24.452  24.604  1.00  0.00     0.225 A 
ATOM     93  N   UNL A   1      32.157  23.159  24.656  1.00  0.00    -0.221 NA
ATOM     94  N   UNL A   1      33.654  24.927  25.116  1.00  0.00    -0.221 NA
ATOM     95  C   UNL A   1      33.051  22.311  25.202  1.00  0.00     0.117 A 
ATOM     96  C   UNL A   1      34.491  24.052  25.694  1.00  0.00     0.117 A 
ATOM     97  C   UNL A   1      34.245  22.707  25.753  1.00  0.00     0.040 A 
ENDBRANCH  81  92
ENDBRANCH  75  78
ENDBRANCH  73  74
ENDBRANCH  72  73
ENDBRANCH   1  72
TORSDOF 17
ENDMDL
MODEL 2
REMARK VINA RESULT:     -12.2      1.387      3.773
REMARK SMILES O=C(NCCCCNC(=O)[C@@H]1CN(c2ncccn2)CCN1C(=O)C1CCOCC1)c1ccc(-c2c3nc(c(-c4cc(S(=O)(=O)[O-])ccc4F)c4ccc([nH]4)c(-c4cc(S(=O)(=O)[O-])ccc4F)c4nc(c(-c5cc(S(=O)(=O)[O-])ccc5F)c5ccc2[nH]5)C=C4)C=C3)cc1
REMARK SMILES IDX 5 1 4 2 3 3 1 4 2 5 31 7 32 8 93 9 33 10 92 11 34 12 35 13
REMARK SMILES IDX 36 14 86 15 37 16 91 17 85 18 87 19 38 20 90 21 84 22 83 23
REMARK SMILES IDX 39 25 71 26 51 27 70 28 52 29 55 30 69 31 88 32 53 33 54 34
REMARK SMILES IDX 68 36 89 37 56 38 40 39 41 40 49 41 42 42 48 43 50 44 47 45
REMARK SMILES IDX 43 46 44 47 45 48 46 49 72 50 73 51 81 52 74 53 80 54 82 55
REMARK SMILES IDX 79 56 75 57 76 58 77 59 78 60 57 61 58 62 66 63 59 64 65 65
REMARK SMILES IDX 67 66 64 67 60 68 61 69 62 70 63 71 6 72 7 73 8 74 9 75
REMARK SMILES IDX 10 77 11 78 12 79 22 80 13 81 21 82 20 83 23 84 24 85 25 86
REMARK SMILES IDX 26 87 30 88 27 89 29 90 28 91 14 92 15 93 19 94 16 95 18 96
REMARK SMILES IDX 17 97
REMARK H PARENT 3 6 87 24 55 35 8 76
REMARK Flexibility Score: inf
ROOT
ATOM      1  C   UNL A   1      31.617  32.461  26.828  1.00  0.00     0.023 C 
ENDROOT
BRANCH   1   2
ATOM      2  C   UNL A   1      32.897  32.923  27.513  1.00  0.00     0.116 C 
BRANCH   2   3
ATOM      3  N   UNL A   1      32.799  34.292  27.995  1.00  0.00    -0.352 N 
ATOM      4  O   UNL A   1      33.161  35.991  29.435  1.00  0.00    -0.269 OA
ATOM      5  C   UNL A   1      33.491  34.889  29.025  1.00  0.00     0.251 C 
ATOM      6  H   UNL A   1      32.154  34.867  27.523  1.00  0.00     0.163 HD
BRANCH   5   7
ATOM      7  C   UNL A   1      34.629  34.167  29.634  1.00  0.00     0.039 A 
ATOM      8  C   UNL A   1      34.403  33.235  30.649  1.00  0.00     0.014 A 
ATOM      9  C   UNL A   1      35.927  34.437  29.195  1.00  0.00     0.014 A 
ATOM     10  C   UNL A   1      35.482  32.666  31.313  1.00  0.00     0.010 A 
ATOM     11  C   UNL A   1      37.009  33.801  29.811  1.00  0.00     0.010 A 
ATOM     12  C   UNL A   1      36.795  32.928  30.889  1.00  0.00    -0.014 A 
BRANCH  12  13
ATOM     13  C   UNL A   1      37.921  32.215  31.545  1.00  0.00     0.031 A 
ATOM     14  C   UNL A   1      38.656  31.108  30.844  1.00  0.00     0.074 A 
ATOM     15  C   UNL A   1      38.285  32.601  32.784  1.00  0.00     0.049 A 
ATOM     16  N   UNL A   1      39.657  30.383  31.274  1.00  0.00    -0.248 NA
ATOM     17  C   UNL A   1      38.202  30.761  29.490  1.00  0.00     0.031 C 
ATOM     18  C   UNL A   1      37.633  33.662  33.557  1.00  0.00     0.029 A 
ATOM     19  N   UNL A   1      39.293  32.166  33.604  1.00  0.00    -0.354 N 
ATOM     20  C   UNL A   1      39.945  29.482  30.255  1.00  0.00     0.074 A 
ATOM     21  C   UNL A   1      38.990  29.736  29.195  1.00  0.00     0.031 C 
ATOM     22  C   UNL A   1      38.281  33.821  34.719  1.00  0.00     0.029 A 
ATOM     23  C   UNL A   1      39.347  32.831  34.806  1.00  0.00     0.049 A 
ATOM     24  H   UNL A   1      39.918  31.446  33.356  1.00  0.00     0.167 HD
ATOM     25  C   UNL A   1      40.917  28.538  30.211  1.00  0.00     0.034 A 
ATOM     26  C   UNL A   1      40.147  32.650  35.873  1.00  0.00     0.034 A 
ATOM     27  C   UNL A   1      41.861  28.307  31.281  1.00  0.00     0.049 A 
ATOM     28  C   UNL A   1      41.198  31.577  35.809  1.00  0.00     0.074 A 
ATOM     29  C   UNL A   1      42.912  27.406  31.327  1.00  0.00     0.029 A 
ATOM     30  N   UNL A   1      41.865  28.976  32.501  1.00  0.00    -0.354 N 
ATOM     31  N   UNL A   1      41.469  30.745  34.830  1.00  0.00    -0.248 NA
ATOM     32  C   UNL A   1      42.052  31.420  36.990  1.00  0.00     0.031 C 
ATOM     33  C   UNL A   1      43.503  27.480  32.593  1.00  0.00     0.029 A 
ATOM     34  C   UNL A   1      42.874  28.483  33.315  1.00  0.00     0.049 A 
ATOM     35  H   UNL A   1      41.241  29.696  32.751  1.00  0.00     0.167 HD
ATOM     36  C   UNL A   1      42.536  29.973  35.273  1.00  0.00     0.074 A 
ATOM     37  C   UNL A   1      42.874  30.457  36.599  1.00  0.00     0.031 C 
ATOM     38  C   UNL A   1      43.181  28.958  34.644  1.00  0.00     0.034 A 
BRANCH  25  39
ATOM     39  C   UNL A   1      40.977  27.650  28.990  1.00  0.00     0.023 A 
ATOM     40  C   UNL A   1      41.973  27.796  28.009  1.00  0.00     0.031 A 
ATOM     41  C   UNL A   1      40.012  26.643  28.801  1.00  0.00     0.131 A 
ATOM     42  C   UNL A   1      41.945  26.995  26.856  1.00  0.00     0.055 A 
ATOM     43  C   UNL A   1      40.032  25.800  27.688  1.00  0.00     0.041 A 
ATOM     44  F   UNL A   1      39.024  26.467  29.693  1.00  0.00    -0.206 F 
ATOM     45  C   UNL A   1      40.996  25.983  26.700  1.00  0.00     0.022 A 
BRANCH  42  46
ATOM     46  S   UNL A   1      43.089  27.380  25.502  1.00  0.00     0.124 S 
ATOM     47  O   UNL A   1      43.411  26.046  24.997  1.00  0.00    -0.237 OA
ATOM     48  O   UNL A   1      42.273  28.214  24.627  1.00  0.00    -0.237 OA
ATOM     49  O   UNL A   1      44.193  28.068  26.169  1.00  0.00    -0.744 OA
ENDBRANCH  42  46
ENDBRANCH  25  39
BRANCH  26  50
ATOM     50  C   UNL A   1      39.956  33.476  37.097  1.00  0.00     0.023 A 
ATOM     51  C   UNL A   1      39.309  32.960  38.229  1.00  0.00     0.031 A 
ATOM     52  C   UNL A   1      40.416  34.805  37.144  1.00  0.00     0.131 A 
ATOM     53  C   UNL A   1      39.111  33.779  39.351  1.00  0.00     0.055 A 
ATOM     54  C   UNL A   1      40.263  35.598  38.281  1.00  0.00     0.041 A 
ATOM     55  F   UNL A   1      41.048  35.342  36.089  1.00  0.00    -0.206 F 
ATOM     56  C   UNL A   1      39.596  35.088  39.391  1.00  0.00     0.022 A 
BRANCH  53  57
ATOM     57  S   UNL A   1      38.146  33.127  40.741  1.00  0.00     0.124 S 
ATOM     58  O   UNL A   1      36.781  33.413  40.318  1.00  0.00    -0.237 OA
ATOM     59  O   UNL A   1      38.536  31.721  40.747  1.00  0.00    -0.237 OA
ATOM     60  O   UNL A   1      38.623  33.907  41.882  1.00  0.00    -0.744 OA
ENDBRANCH  53  57
ENDBRANCH  26  50
BRANCH  38  61
ATOM     61  C   UNL A   1      44.335  28.330  35.384  1.00  0.00     0.023 A 
ATOM     62  C   UNL A   1      44.133  27.342  36.364  1.00  0.00     0.031 A 
ATOM     63  C   UNL A   1      45.653  28.747  35.126  1.00  0.00     0.131 A 
ATOM     64  C   UNL A   1      45.224  26.848  37.092  1.00  0.00     0.055 A 
ATOM     65  C   UNL A   1      46.741  28.209  35.813  1.00  0.00     0.041 A 
ATOM     66  F   UNL A   1      45.902  29.691  34.203  1.00  0.00    -0.206 F 
ATOM     67  C   UNL A   1      46.529  27.263  36.812  1.00  0.00     0.022 A 
BRANCH  64  68
ATOM     68  S   UNL A   1      44.908  25.723  38.480  1.00  0.00     0.124 S 
ATOM     69  O   UNL A   1      44.614  24.469  37.793  1.00  0.00    -0.237 OA
ATOM     70  O   UNL A   1      46.169  25.768  39.213  1.00  0.00    -0.237 OA
ATOM     71  O   UNL A   1      43.771  26.335  39.166  1.00  0.00    -0.744 OA
ENDBRANCH  64  68
ENDBRANCH  38  61
ENDBRANCH  12  13
ENDBRANCH   5   7
ENDBRANCH   2   3
ENDBRANCH   1   2
BRANCH   1  72
ATOM     72  C   UNL A   1      31.665  31.032  26.286  1.00  0.00     0.023 C 
BRANCH  72  73
ATOM     73  C   UNL A   1      32.774  30.169  26.882  1.00  0.00     0.116 C 
BRANCH  73  74
ATOM     74  N   UNL A   1      32.256  28.886  27.328  1.00  0.00    -0.354 N 
ATOM     75  C   UNL A   1      31.668  27.877  26.622  1.00  0.00     0.244 C 
ATOM     76  H   UNL A   1      32.344  28.718  28.294  1.00  0.00     0.163 HD
ATOM     77  O   UNL A   1      31.036  27.028  27.253  1.00  0.00    -0.273 OA
BRANCH  75  78
ATOM     78  C   UNL A   1      31.767  27.856  25.090  1.00  0.00     0.193 C 
ATOM     79  C   UNL A   1      30.326  28.309  24.716  1.00  0.00     0.155 C 
ATOM     80  N   UNL A   1      32.140  26.656  24.249  1.00  0.00    -0.327 N 
ATOM     81  N   UNL A   1      30.234  28.564  23.288  1.00  0.00    -0.336 N 
ATOM     82  C   UNL A   1      31.941  26.917  22.796  1.00  0.00     0.142 C 
ATOM     83  C   UNL A   1      30.542  27.448  22.420  1.00  0.00     0.141 C 
BRANCH  80  84
ATOM     84  C   UNL A   1      33.075  25.660  24.515  1.00  0.00     0.226 C 
ATOM     85  O   UNL A   1      34.170  25.663  23.928  1.00  0.00    -0.275 OA
BRANCH  84  86
ATOM     86  C   UNL A   1      32.834  24.492  25.471  1.00  0.00     0.083 C 
ATOM     87  C   UNL A   1      33.940  23.437  25.456  1.00  0.00     0.042 C 
ATOM     88  C   UNL A   1      31.385  24.017  25.425  1.00  0.00     0.042 C 
ATOM     89  C   UNL A   1      33.484  22.036  25.851  1.00  0.00     0.161 C 
ATOM     90  C   UNL A   1      31.211  22.627  26.002  1.00  0.00     0.161 C 
ATOM     91  O   UNL A   1      32.156  21.743  25.420  1.00  0.00    -0.381 OA
ENDBRANCH  84  86
ENDBRANCH  80  84
BRANCH  81  92
ATOM     92  C   UNL A   1      29.593  29.690  22.867  1.00  0.00     0.225 A 
ATOM     93  N   UNL A   1      29.369  30.690  23.730  1.00  0.00    -0.221 NA
ATOM     94  N   UNL A   1      29.201  29.726  21.581  1.00  0.00    -0.221 NA
ATOM     95  C   UNL A   1      28.772  31.795  23.240  1.00  0.00     0.117 A 
ATOM     96  C   UNL A   1      28.567  30.827  21.150  1.00  0.00     0.117 A 
ATOM     97  C   UNL A   1      28.335  31.918  21.944  1.00  0.00     0.040 A 
ENDBRANCH  81  92
ENDBRANCH  75  78
ENDBRANCH  73  74
ENDBRANCH  72  73
ENDBRANCH   1  72
TORSDOF 17
ENDMDL
MODEL 3
REMARK VINA RESULT:     -12.2      5.819     11.971
REMARK SMILES O=C(NCCCCNC(=O)[C@@H]1CN(c2ncccn2)CCN1C(=O)C1CCOCC1)c1ccc(-c2c3nc(c(-c4cc(S(=O)(=O)[O-])ccc4F)c4ccc([nH]4)c(-c4cc(S(=O)(=O)[O-])ccc4F)c4nc(c(-c5cc(S(=O)(=O)[O-])ccc5F)c5ccc2[nH]5)C=C4)C=C3)cc1
REMARK SMILES IDX 5 1 4 2 3 3 1 4 2 5 31 7 32 8 93 9 33 10 92 11 34 12 35 13
REMARK SMILES IDX 36 14 86 15 37 16 91 17 85 18 87 19 38 20 90 21 84 22 83 23
REMARK SMILES IDX 39 25 71 26 51 27 70 28 52 29 55 30 69 31 88 32 53 33 54 34
REMARK SMILES IDX 68 36 89 37 56 38 40 39 41 40 49 41 42 42 48 43 50 44 47 45
REMARK SMILES IDX 43 46 44 47 45 48 46 49 72 50 73 51 81 52 74 53 80 54 82 55
REMARK SMILES IDX 79 56 75 57 76 58 77 59 78 60 57 61 58 62 66 63 59 64 65 65
REMARK SMILES IDX 67 66 64 67 60 68 61 69 62 70 63 71 6 72 7 73 8 74 9 75
REMARK SMILES IDX 10 77 11 78 12 79 22 80 13 81 21 82 20 83 23 84 24 85 25 86
REMARK SMILES IDX 26 87 30 88 27 89 29 90 28 91 14 92 15 93 19 94 16 95 18 96
REMARK SMILES IDX 17 97
REMARK H PARENT 3 6 87 24 55 35 8 76
REMARK Flexibility Score: inf
ROOT
ATOM      1  C   UNL A   1      38.032  19.720  25.188  1.00  0.00     0.023 C 
ENDROOT
BRANCH   1   2
ATOM      2  C   UNL A   1      39.314  20.314  25.756  1.00  0.00     0.116 C 
BRANCH   2   3
ATOM      3  N   UNL A   1      40.328  19.299  26.002  1.00  0.00    -0.352 N 
ATOM      4  O   UNL A   1      42.430  18.512  26.233  1.00  0.00    -0.269 OA
ATOM      5  C   UNL A   1      41.675  19.471  26.233  1.00  0.00     0.251 C 
ATOM      6  H   UNL A   1      40.009  18.368  26.005  1.00  0.00     0.163 HD
BRANCH   5   7
ATOM      7  C   UNL A   1      42.190  20.838  26.466  1.00  0.00     0.039 A 
ATOM      8  C   UNL A   1      42.502  21.256  27.762  1.00  0.00     0.014 A 
ATOM      9  C   UNL A   1      42.344  21.707  25.385  1.00  0.00     0.014 A 
ATOM     10  C   UNL A   1      42.848  22.581  27.993  1.00  0.00     0.010 A 
ATOM     11  C   UNL A   1      42.772  23.019  25.610  1.00  0.00     0.010 A 
ATOM     12  C   UNL A   1      43.006  23.471  26.918  1.00  0.00    -0.014 A 
BRANCH  12  13
ATOM     13  C   UNL A   1      43.489  24.849  27.188  1.00  0.00     0.031 A 
ATOM     14  C   UNL A   1      42.571  25.903  27.740  1.00  0.00     0.074 A 
ATOM     15  C   UNL A   1      44.784  25.131  26.944  1.00  0.00     0.049 A 
ATOM     16  N   UNL A   1      42.831  27.152  28.029  1.00  0.00    -0.248 NA
ATOM     17  C   UNL A   1      41.177  25.506  27.990  1.00  0.00     0.031 C 
ATOM     18  C   UNL A   1      45.760  24.181  26.401  1.00  0.00     0.029 A 
ATOM     19  N   UNL A   1      45.508  26.278  27.132  1.00  0.00    -0.354 N 
ATOM     20  C   UNL A   1      41.634  27.700  28.479  1.00  0.00     0.074 A 
ATOM     21  C   UNL A   1      40.640  26.649  28.395  1.00  0.00     0.031 C 
ATOM     22  C   UNL A   1      46.961  24.773  26.338  1.00  0.00     0.029 A 
ATOM     23  C   UNL A   1      46.828  26.159  26.766  1.00  0.00     0.049 A 
ATOM     24  H   UNL A   1      45.120  27.108  27.494  1.00  0.00     0.167 HD
ATOM     25  C   UNL A   1      41.395  28.959  28.921  1.00  0.00     0.034 A 
ATOM     26  C   UNL A   1      47.819  27.069  26.752  1.00  0.00     0.034 A 
ATOM     27  C   UNL A   1      42.406  29.989  28.998  1.00  0.00     0.049 A 
ATOM     28  C   UNL A   1      47.520  28.466  27.221  1.00  0.00     0.074 A 
ATOM     29  C   UNL A   1      42.283  31.286  29.468  1.00  0.00     0.029 A 
ATOM     30  N   UNL A   1      43.727  29.844  28.586  1.00  0.00    -0.354 N 
ATOM     31  N   UNL A   1      46.386  28.963  27.660  1.00  0.00    -0.248 NA
ATOM     32  C   UNL A   1      48.631  29.423  27.196  1.00  0.00     0.031 C 
ATOM     33  C   UNL A   1      43.504  31.942  29.276  1.00  0.00     0.029 A 
ATOM     34  C   UNL A   1      44.415  31.036  28.758  1.00  0.00     0.049 A 
ATOM     35  H   UNL A   1      44.116  29.015  28.223  1.00  0.00     0.167 HD
ATOM     36  C   UNL A   1      46.652  30.290  27.976  1.00  0.00     0.074 A 
ATOM     37  C   UNL A   1      48.060  30.507  27.700  1.00  0.00     0.031 C 
ATOM     38  C   UNL A   1      45.812  31.243  28.453  1.00  0.00     0.034 A 
BRANCH  25  39
ATOM     39  C   UNL A   1      39.975  29.308  29.306  1.00  0.00     0.023 A 
ATOM     40  C   UNL A   1      39.568  29.402  30.648  1.00  0.00     0.031 A 
ATOM     41  C   UNL A   1      39.010  29.542  28.310  1.00  0.00     0.131 A 
ATOM     42  C   UNL A   1      38.223  29.657  30.957  1.00  0.00     0.055 A 
ATOM     43  C   UNL A   1      37.690  29.869  28.623  1.00  0.00     0.041 A 
ATOM     44  F   UNL A   1      39.333  29.449  27.010  1.00  0.00    -0.206 F 
ATOM     45  C   UNL A   1      37.286  29.915  29.954  1.00  0.00     0.022 A 
BRANCH  42  46
ATOM     46  S   UNL A   1      37.686  29.521  32.684  1.00  0.00     0.124 S 
ATOM     47  O   UNL A   1      38.798  30.151  33.392  1.00  0.00    -0.237 OA
ATOM     48  O   UNL A   1      36.429  30.260  32.683  1.00  0.00    -0.237 OA
ATOM     49  O   UNL A   1      37.562  28.080  32.893  1.00  0.00    -0.744 OA
ENDBRANCH  42  46
ENDBRANCH  25  39
BRANCH  26  50
ATOM     50  C   UNL A   1      49.167  26.695  26.242  1.00  0.00     0.023 A 
ATOM     51  C   UNL A   1      49.631  27.160  25.002  1.00  0.00     0.031 A 
ATOM     52  C   UNL A   1      50.011  25.856  26.993  1.00  0.00     0.131 A 
ATOM     53  C   UNL A   1      50.891  26.756  24.535  1.00  0.00     0.055 A 
ATOM     54  C   UNL A   1      51.284  25.501  26.547  1.00  0.00     0.041 A 
ATOM     55  F   UNL A   1      49.616  25.392  28.189  1.00  0.00    -0.206 F 
ATOM     56  C   UNL A   1      51.726  25.943  25.304  1.00  0.00     0.022 A 
BRANCH  53  57
ATOM     57  S   UNL A   1      51.399  27.257  22.868  1.00  0.00     0.124 S 
ATOM     58  O   UNL A   1      52.625  26.490  22.686  1.00  0.00    -0.237 OA
ATOM     59  O   UNL A   1      50.255  26.840  22.065  1.00  0.00    -0.237 OA
ATOM     60  O   UNL A   1      51.579  28.703  22.988  1.00  0.00    -0.744 OA
ENDBRANCH  53  57
ENDBRANCH  26  50
BRANCH  38  61
ATOM     61  C   UNL A   1      46.416  32.598  28.729  1.00  0.00     0.023 A 
ATOM     62  C   UNL A   1      46.488  33.589  27.735  1.00  0.00     0.031 A 
ATOM     63  C   UNL A   1      46.952  32.889  29.996  1.00  0.00     0.131 A 
ATOM     64  C   UNL A   1      47.136  34.803  28.005  1.00  0.00     0.055 A 
ATOM     65  C   UNL A   1      47.543  34.120  30.277  1.00  0.00     0.041 A 
ATOM     66  F   UNL A   1      46.913  31.976  30.980  1.00  0.00    -0.206 F 
ATOM     67  C   UNL A   1      47.651  35.081  29.274  1.00  0.00     0.022 A 
BRANCH  64  68
ATOM     68  S   UNL A   1      47.387  35.978  26.647  1.00  0.00     0.124 S 
ATOM     69  O   UNL A   1      47.605  35.087  25.511  1.00  0.00    -0.237 OA
ATOM     70  O   UNL A   1      46.132  36.722  26.642  1.00  0.00    -0.237 OA
ATOM     71  O   UNL A   1      48.559  36.744  27.067  1.00  0.00    -0.744 OA
ENDBRANCH  64  68
ENDBRANCH  38  61
ENDBRANCH  12  13
ENDBRANCH   5   7
ENDBRANCH   2   3
ENDBRANCH   1   2
BRANCH   1  72
ATOM     72  C   UNL A   1      37.067  20.744  24.588  1.00  0.00     0.023 C 
BRANCH  72  73
ATOM     73  C   UNL A   1      36.654  21.857  25.547  1.00  0.00     0.116 C 
BRANCH  73  74
ATOM     74  N   UNL A   1      35.697  21.375  26.527  1.00  0.00    -0.354 N 
ATOM     75  C   UNL A   1      34.351  21.580  26.623  1.00  0.00     0.244 C 
ATOM     76  H   UNL A   1      36.080  20.810  27.236  1.00  0.00     0.163 HD
ATOM     77  O   UNL A   1      33.807  21.331  27.701  1.00  0.00    -0.273 OA
BRANCH  75  78
ATOM     78  C   UNL A   1      33.577  22.150  25.426  1.00  0.00     0.193 C 
ATOM     79  C   UNL A   1      32.750  23.259  26.138  1.00  0.00     0.155 C 
ATOM     80  N   UNL A   1      32.662  21.362  24.515  1.00  0.00    -0.327 N 
ATOM     81  N   UNL A   1      32.073  24.090  25.155  1.00  0.00    -0.336 N 
ATOM     82  C   UNL A   1      31.909  22.251  23.587  1.00  0.00     0.142 C 
ATOM     83  C   UNL A   1      31.153  23.409  24.272  1.00  0.00     0.141 C 
BRANCH  80  84
ATOM     84  C   UNL A   1      32.806  20.059  24.047  1.00  0.00     0.226 C 
ATOM     85  O   UNL A   1      32.427  19.766  22.902  1.00  0.00    -0.275 OA
BRANCH  84  86
ATOM     86  C   UNL A   1      33.370  18.908  24.879  1.00  0.00     0.083 C 
ATOM     87  C   UNL A   1      34.607  18.248  24.270  1.00  0.00     0.042 C 
ATOM     88  C   UNL A   1      32.262  18.005  25.413  1.00  0.00     0.042 C 
ATOM     89  C   UNL A   1      34.807  16.789  24.668  1.00  0.00     0.161 C 
ATOM     90  C   UNL A   1      32.779  16.650  25.853  1.00  0.00     0.161 C 
ATOM     91  O   UNL A   1      33.577  16.084  24.825  1.00  0.00    -0.381 OA
ENDBRANCH  84  86
ENDBRANCH  80  84
BRANCH  81  92
ATOM     92  C   UNL A   1      32.101  25.443  25.315  1.00  0.00     0.225 A 
ATOM     93  N   UNL A   1      31.260  26.214  24.613  1.00  0.00    -0.221 NA
ATOM     94  N   UNL A   1      33.004  25.937  26.181  1.00  0.00    -0.221 NA
ATOM     95  C   UNL A   1      31.306  27.539  24.851  1.00  0.00     0.117 A 
ATOM     96  C   UNL A   1      33.047  27.268  26.349  1.00  0.00     0.117 A 
ATOM     97  C   UNL A   1      32.196  28.131  25.712  1.00  0.00     0.040 A 
ENDBRANCH  81  92
ENDBRANCH  75  78
ENDBRANCH  73  74
ENDBRANCH  72  73
ENDBRANCH   1  72
TORSDOF 17
ENDMDL
