MODEL 1
REMARK VINA RESULT:     -12.5      0.000      0.000
REMARK SMILES O=C(CCC(=O)N1Cc2[nH]cnc2C[C@H]1C(=O)NCc1ccccc1)NCCCCNC(=O)c1ccc(-c2c3nc(c(-c4cc(S(=O)(=O)[O-])ccc4F)c4ccc([nH]4)c(-c4cc(S(=O)(=O)[O-])ccc4F)c4nc(c(-c5cc(S(=O)(=O)[O-])ccc5F)c5ccc2[nH]5)C=C4)C=C3)cc1
REMARK SMILES IDX 27 1 26 2 1 3 2 4 3 6 4 7 5 8 6 9 7 10 8 11 15 12 9 13 14 14
REMARK SMILES IDX 10 15 13 16 11 17 12 19 16 20 17 21 18 22 19 24 20 25 21 26
REMARK SMILES IDX 25 27 22 28 24 29 23 30 28 31 29 32 30 33 31 34 32 35 33 37
REMARK SMILES IDX 34 38 35 39 96 40 36 41 95 42 37 43 38 44 39 45 89 46 40 47
REMARK SMILES IDX 94 48 88 49 90 50 41 51 93 52 87 53 86 54 42 56 74 57 54 58
REMARK SMILES IDX 73 59 55 60 58 61 72 62 91 63 56 64 57 65 71 67 92 68 59 69
REMARK SMILES IDX 43 70 44 71 52 72 45 73 51 74 53 75 50 76 46 77 47 78 48 79
REMARK SMILES IDX 49 80 75 81 76 82 84 83 77 84 83 85 85 86 82 87 78 88 79 89
REMARK SMILES IDX 80 90 81 91 60 92 61 93 69 94 62 95 68 96 70 97 67 98 63 99
REMARK SMILES IDX 64 100 65 101 66 102
REMARK H PARENT 26 5 10 18 18 23 31 36 90 55 58 66
REMARK Flexibility Score: inf
ROOT
ATOM      1  C   UNL A   1      33.147  30.656  27.010  1.00  0.00     0.116 C 
ENDROOT
BRANCH   1   2
ATOM      2  N   UNL A   1      32.573  29.387  27.486  1.00  0.00    -0.356 N 
ATOM      3  O   UNL A   1      31.532  28.883  25.492  1.00  0.00    -0.275 OA
ATOM      4  C   UNL A   1      31.889  28.525  26.612  1.00  0.00     0.220 C 
ATOM      5  H   UNL A   1      32.671  29.139  28.434  1.00  0.00     0.163 HD
BRANCH   4   6
ATOM      6  C   UNL A   1      31.730  27.053  27.097  1.00  0.00     0.110 C 
BRANCH   6   7
ATOM      7  C   UNL A   1      31.698  25.901  26.044  1.00  0.00     0.110 C 
BRANCH   7   8
ATOM      8  C   UNL A   1      31.761  24.407  26.502  1.00  0.00     0.224 C 
ATOM      9  O   UNL A   1      30.856  23.938  27.193  1.00  0.00    -0.275 OA
BRANCH   8  10
ATOM     10  N   UNL A   1      32.847  23.635  26.090  1.00  0.00    -0.324 N 
ATOM     11  C   UNL A   1      33.925  23.180  27.031  1.00  0.00     0.176 C 
ATOM     12  C   UNL A   1      33.167  23.598  24.658  1.00  0.00     0.180 C 
ATOM     13  C   UNL A   1      35.221  23.187  26.284  1.00  0.00     0.058 A 
ATOM     14  C   UNL A   1      34.384  24.468  24.400  1.00  0.00     0.093 C 
ATOM     15  N   UNL A   1      36.297  22.354  26.370  1.00  0.00    -0.347 N 
ATOM     16  C   UNL A   1      35.468  23.855  25.119  1.00  0.00     0.066 A 
ATOM     17  C   UNL A   1      37.142  22.633  25.320  1.00  0.00     0.197 A 
ATOM     18  H   UNL A   1      36.445  21.670  27.064  1.00  0.00     0.167 HD
ATOM     19  N   UNL A   1      36.656  23.567  24.541  1.00  0.00    -0.242 NA
BRANCH  12  20
ATOM     20  C   UNL A   1      32.723  22.373  23.837  1.00  0.00     0.243 C 
ATOM     21  O   UNL A   1      31.754  22.482  23.070  1.00  0.00    -0.273 OA
ATOM     22  N   UNL A   1      33.269  21.141  23.853  1.00  0.00    -0.350 N 
ATOM     23  H   UNL A   1      33.172  20.639  23.012  1.00  0.00     0.163 HD
BRANCH  22  24
ATOM     24  C   UNL A   1      33.968  20.436  24.893  1.00  0.00     0.151 C 
BRANCH  24  25
ATOM     25  C   UNL A   1      33.728  18.943  24.860  1.00  0.00    -0.029 A 
ATOM     26  C   UNL A   1      34.714  18.106  24.309  1.00  0.00     0.005 A 
ATOM     27  C   UNL A   1      32.580  18.340  25.409  1.00  0.00     0.005 A 
ATOM     28  C   UNL A   1      34.540  16.722  24.283  1.00  0.00     0.000 A 
ATOM     29  C   UNL A   1      32.406  16.960  25.378  1.00  0.00     0.000 A 
ATOM     30  C   UNL A   1      33.368  16.160  24.782  1.00  0.00     0.000 A 
ENDBRANCH  24  25
ENDBRANCH  22  24
ENDBRANCH  12  20
ENDBRANCH   8  10
ENDBRANCH   7   8
ENDBRANCH   6   7
ENDBRANCH   4   6
ENDBRANCH   1   2
BRANCH   1  31
ATOM     31  C   UNL A   1      34.480  31.237  27.626  1.00  0.00     0.023 C 
BRANCH  31  32
ATOM     32  C   UNL A   1      34.725  32.723  28.017  1.00  0.00     0.023 C 
BRANCH  32  33
ATOM     33  C   UNL A   1      33.957  33.495  29.150  1.00  0.00     0.116 C 
BRANCH  33  34
ATOM     34  N   UNL A   1      34.336  33.364  30.562  1.00  0.00    -0.352 N 
ATOM     35  C   UNL A   1      35.186  32.473  31.250  1.00  0.00     0.251 C 
ATOM     36  H   UNL A   1      33.911  34.033  31.146  1.00  0.00     0.163 HD
ATOM     37  O   UNL A   1      35.122  32.499  32.485  1.00  0.00    -0.269 OA
BRANCH  35  38
ATOM     38  C   UNL A   1      36.225  31.557  30.628  1.00  0.00     0.039 A 
ATOM     39  C   UNL A   1      36.044  30.145  30.580  1.00  0.00     0.014 A 
ATOM     40  C   UNL A   1      37.459  32.017  30.242  1.00  0.00     0.014 A 
ATOM     41  C   UNL A   1      37.135  29.227  30.400  1.00  0.00     0.010 A 
ATOM     42  C   UNL A   1      38.530  31.120  30.183  1.00  0.00     0.010 A 
ATOM     43  C   UNL A   1      38.437  29.711  30.321  1.00  0.00    -0.014 A 
BRANCH  43  44
ATOM     44  C   UNL A   1      39.738  28.952  30.143  1.00  0.00     0.031 A 
ATOM     45  C   UNL A   1      40.259  28.638  31.495  1.00  0.00     0.074 A 
ATOM     46  C   UNL A   1      40.443  28.433  29.088  1.00  0.00     0.049 A 
ATOM     47  N   UNL A   1      41.047  29.424  32.159  1.00  0.00    -0.248 NA
ATOM     48  C   UNL A   1      39.625  27.591  32.318  1.00  0.00     0.031 C 
ATOM     49  C   UNL A   1      40.279  28.645  27.649  1.00  0.00     0.029 A 
ATOM     50  N   UNL A   1      41.481  27.498  29.090  1.00  0.00    -0.354 N 
ATOM     51  C   UNL A   1      41.192  28.778  33.371  1.00  0.00     0.074 A 
ATOM     52  C   UNL A   1      39.995  28.012  33.529  1.00  0.00     0.031 C 
ATOM     53  C   UNL A   1      41.003  27.735  26.945  1.00  0.00     0.029 A 
ATOM     54  C   UNL A   1      41.757  26.884  27.848  1.00  0.00     0.049 A 
ATOM     55  H   UNL A   1      41.987  27.280  29.905  1.00  0.00     0.167 HD
ATOM     56  C   UNL A   1      42.428  28.508  33.868  1.00  0.00     0.034 A 
ATOM     57  C   UNL A   1      42.702  25.949  27.484  1.00  0.00     0.034 A 
ATOM     58  C   UNL A   1      43.437  29.320  33.207  1.00  0.00     0.049 A 
ATOM     59  C   UNL A   1      43.845  26.163  28.381  1.00  0.00     0.074 A 
ATOM     60  C   UNL A   1      43.582  30.669  32.938  1.00  0.00     0.029 A 
ATOM     61  N   UNL A   1      44.321  28.680  32.367  1.00  0.00    -0.354 N 
ATOM     62  N   UNL A   1      44.602  27.217  28.308  1.00  0.00    -0.248 NA
ATOM     63  C   UNL A   1      43.873  25.447  29.640  1.00  0.00     0.031 C 
ATOM     64  C   UNL A   1      44.213  30.743  31.662  1.00  0.00     0.029 A 
ATOM     65  C   UNL A   1      44.518  29.448  31.247  1.00  0.00     0.049 A 
ATOM     66  H   UNL A   1      44.746  27.810  32.542  1.00  0.00     0.167 HD
ATOM     67  C   UNL A   1      44.771  27.588  29.626  1.00  0.00     0.074 A 
ATOM     68  C   UNL A   1      44.422  26.397  30.401  1.00  0.00     0.031 C 
ATOM     69  C   UNL A   1      44.888  28.906  29.954  1.00  0.00     0.034 A 
BRANCH  56  70
ATOM     70  C   UNL A   1      42.763  27.222  34.611  1.00  0.00     0.023 A 
ATOM     71  C   UNL A   1      43.664  26.361  33.971  1.00  0.00     0.031 A 
ATOM     72  C   UNL A   1      42.102  26.671  35.742  1.00  0.00     0.131 A 
ATOM     73  C   UNL A   1      43.788  25.019  34.370  1.00  0.00     0.055 A 
ATOM     74  C   UNL A   1      42.284  25.358  36.178  1.00  0.00     0.041 A 
ATOM     75  F   UNL A   1      41.181  27.314  36.464  1.00  0.00    -0.206 F 
ATOM     76  C   UNL A   1      43.105  24.511  35.469  1.00  0.00     0.022 A 
BRANCH  73  77
ATOM     77  S   UNL A   1      44.729  23.914  33.301  1.00  0.00     0.124 S 
ATOM     78  O   UNL A   1      45.722  24.826  32.755  1.00  0.00    -0.237 OA
ATOM     79  O   UNL A   1      45.206  22.918  34.249  1.00  0.00    -0.237 OA
ATOM     80  O   UNL A   1      43.720  23.436  32.348  1.00  0.00    -0.744 OA
ENDBRANCH  73  77
ENDBRANCH  56  70
BRANCH  57  81
ATOM     81  C   UNL A   1      42.646  24.705  26.626  1.00  0.00     0.023 A 
ATOM     82  C   UNL A   1      43.764  24.196  25.892  1.00  0.00     0.031 A 
ATOM     83  C   UNL A   1      41.561  23.820  26.768  1.00  0.00     0.131 A 
ATOM     84  C   UNL A   1      43.762  22.873  25.363  1.00  0.00     0.055 A 
ATOM     85  C   UNL A   1      41.567  22.513  26.252  1.00  0.00     0.041 A 
ATOM     86  F   UNL A   1      40.490  24.168  27.499  1.00  0.00    -0.206 F 
ATOM     87  C   UNL A   1      42.669  22.029  25.560  1.00  0.00     0.022 A 
BRANCH  84  88
ATOM     88  S   UNL A   1      45.222  22.167  24.498  1.00  0.00     0.124 S 
ATOM     89  O   UNL A   1      45.571  23.226  23.558  1.00  0.00    -0.237 OA
ATOM     90  O   UNL A   1      46.159  21.931  25.589  1.00  0.00    -0.237 OA
ATOM     91  O   UNL A   1      44.697  20.949  23.876  1.00  0.00    -0.744 OA
ENDBRANCH  84  88
ENDBRANCH  57  81
BRANCH  69  92
ATOM     92  C   UNL A   1      45.272  29.880  28.851  1.00  0.00     0.023 A 
ATOM     93  C   UNL A   1      46.590  30.263  28.504  1.00  0.00     0.031 A 
ATOM     94  C   UNL A   1      44.224  30.417  28.086  1.00  0.00     0.131 A 
ATOM     95  C   UNL A   1      46.812  31.166  27.444  1.00  0.00     0.055 A 
ATOM     96  C   UNL A   1      44.446  31.290  27.022  1.00  0.00     0.041 A 
ATOM     97  F   UNL A   1      42.948  30.088  28.353  1.00  0.00    -0.206 F 
ATOM     98  C   UNL A   1      45.741  31.677  26.702  1.00  0.00     0.022 A 
BRANCH  95  99
ATOM     99  S   UNL A   1      48.498  31.724  27.034  1.00  0.00     0.124 S 
ATOM    100  O   UNL A   1      49.117  30.546  26.437  1.00  0.00    -0.237 OA
ATOM    101  O   UNL A   1      48.249  32.836  26.118  1.00  0.00    -0.237 OA
ATOM    102  O   UNL A   1      49.052  32.118  28.331  1.00  0.00    -0.744 OA
ENDBRANCH  95  99
ENDBRANCH  69  92
ENDBRANCH  43  44
ENDBRANCH  35  38
ENDBRANCH  33  34
ENDBRANCH  32  33
ENDBRANCH  31  32
ENDBRANCH   1  31
TORSDOF 20
ENDMDL
MODEL 2
REMARK VINA RESULT:     -12.5      1.771      3.306
REMARK SMILES O=C(CCC(=O)N1Cc2[nH]cnc2C[C@H]1C(=O)NCc1ccccc1)NCCCCNC(=O)c1ccc(-c2c3nc(c(-c4cc(S(=O)(=O)[O-])ccc4F)c4ccc([nH]4)c(-c4cc(S(=O)(=O)[O-])ccc4F)c4nc(c(-c5cc(S(=O)(=O)[O-])ccc5F)c5ccc2[nH]5)C=C4)C=C3)cc1
REMARK SMILES IDX 27 1 26 2 1 3 2 4 3 6 4 7 5 8 6 9 7 10 8 11 15 12 9 13 14 14
REMARK SMILES IDX 10 15 13 16 11 17 12 19 16 20 17 21 18 22 19 24 20 25 21 26
REMARK SMILES IDX 25 27 22 28 24 29 23 30 28 31 29 32 30 33 31 34 32 35 33 37
REMARK SMILES IDX 34 38 35 39 96 40 36 41 95 42 37 43 38 44 39 45 89 46 40 47
REMARK SMILES IDX 94 48 88 49 90 50 41 51 93 52 87 53 86 54 42 56 74 57 54 58
REMARK SMILES IDX 73 59 55 60 58 61 72 62 91 63 56 64 57 65 71 67 92 68 59 69
REMARK SMILES IDX 43 70 44 71 52 72 45 73 51 74 53 75 50 76 46 77 47 78 48 79
REMARK SMILES IDX 49 80 75 81 76 82 84 83 77 84 83 85 85 86 82 87 78 88 79 89
REMARK SMILES IDX 80 90 81 91 60 92 61 93 69 94 62 95 68 96 70 97 67 98 63 99
REMARK SMILES IDX 64 100 65 101 66 102
REMARK H PARENT 26 5 10 18 18 23 31 36 90 55 58 66
REMARK Flexibility Score: inf
ROOT
ATOM      1  C   UNL A   1      33.379  30.402  27.160  1.00  0.00     0.116 C 
ENDROOT
BRANCH   1   2
ATOM      2  N   UNL A   1      33.645  29.076  26.582  1.00  0.00    -0.356 N 
ATOM      3  O   UNL A   1      31.700  28.125  27.372  1.00  0.00    -0.275 OA
ATOM      4  C   UNL A   1      32.686  28.050  26.643  1.00  0.00     0.220 C 
ATOM      5  H   UNL A   1      34.510  28.905  26.144  1.00  0.00     0.163 HD
BRANCH   4   6
ATOM      6  C   UNL A   1      32.882  26.878  25.636  1.00  0.00     0.110 C 
BRANCH   6   7
ATOM      7  C   UNL A   1      33.392  25.498  26.159  1.00  0.00     0.110 C 
BRANCH   7   8
ATOM      8  C   UNL A   1      32.399  24.306  26.350  1.00  0.00     0.224 C 
ATOM      9  O   UNL A   1      31.472  24.402  27.156  1.00  0.00    -0.275 OA
BRANCH   8  10
ATOM     10  N   UNL A   1      32.583  23.162  25.575  1.00  0.00    -0.324 N 
ATOM     11  C   UNL A   1      31.935  21.846  25.899  1.00  0.00     0.176 C 
ATOM     12  C   UNL A   1      33.732  23.120  24.663  1.00  0.00     0.180 C 
ATOM     13  C   UNL A   1      32.893  20.758  25.527  1.00  0.00     0.058 A 
ATOM     14  C   UNL A   1      34.805  22.228  25.260  1.00  0.00     0.093 C 
ATOM     15  N   UNL A   1      32.663  19.514  25.020  1.00  0.00    -0.347 N 
ATOM     16  C   UNL A   1      34.234  20.910  25.323  1.00  0.00     0.066 A 
ATOM     17  C   UNL A   1      33.872  18.980  24.632  1.00  0.00     0.197 A 
ATOM     18  H   UNL A   1      31.786  19.073  24.943  1.00  0.00     0.167 HD
ATOM     19  N   UNL A   1      34.858  19.820  24.824  1.00  0.00    -0.242 NA
BRANCH  12  20
ATOM     20  C   UNL A   1      33.495  23.395  23.167  1.00  0.00     0.243 C 
ATOM     21  O   UNL A   1      34.469  23.639  22.438  1.00  0.00    -0.273 OA
ATOM     22  N   UNL A   1      32.313  23.418  22.521  1.00  0.00    -0.350 N 
ATOM     23  H   UNL A   1      32.362  23.178  21.568  1.00  0.00     0.163 HD
BRANCH  22  24
ATOM     24  C   UNL A   1      30.991  23.735  22.990  1.00  0.00     0.151 C 
BRANCH  24  25
ATOM     25  C   UNL A   1      30.715  25.222  23.023  1.00  0.00    -0.029 A 
ATOM     26  C   UNL A   1      29.787  25.722  23.953  1.00  0.00     0.005 A 
ATOM     27  C   UNL A   1      31.389  26.144  22.201  1.00  0.00     0.005 A 
ATOM     28  C   UNL A   1      29.523  27.089  24.032  1.00  0.00     0.000 A 
ATOM     29  C   UNL A   1      31.122  27.507  22.276  1.00  0.00     0.000 A 
ATOM     30  C   UNL A   1      30.163  27.970  23.165  1.00  0.00     0.000 A 
ENDBRANCH  24  25
ENDBRANCH  22  24
ENDBRANCH  12  20
ENDBRANCH   8  10
ENDBRANCH   7   8
ENDBRANCH   6   7
ENDBRANCH   4   6
ENDBRANCH   1   2
BRANCH   1  31
ATOM     31  C   UNL A   1      34.556  31.354  27.611  1.00  0.00     0.023 C 
BRANCH  31  32
ATOM     32  C   UNL A   1      34.472  32.432  28.729  1.00  0.00     0.023 C 
BRANCH  32  33
ATOM     33  C   UNL A   1      35.333  33.746  28.780  1.00  0.00     0.116 C 
BRANCH  33  34
ATOM     34  N   UNL A   1      36.058  34.142  29.994  1.00  0.00    -0.352 N 
ATOM     35  C   UNL A   1      37.127  33.560  30.708  1.00  0.00     0.251 C 
ATOM     36  H   UNL A   1      35.734  34.984  30.387  1.00  0.00     0.163 HD
ATOM     37  O   UNL A   1      37.367  34.042  31.821  1.00  0.00    -0.269 OA
BRANCH  35  38
ATOM     38  C   UNL A   1      38.056  32.469  30.208  1.00  0.00     0.039 A 
ATOM     39  C   UNL A   1      37.584  31.154  29.930  1.00  0.00     0.014 A 
ATOM     40  C   UNL A   1      39.418  32.638  30.166  1.00  0.00     0.014 A 
ATOM     41  C   UNL A   1      38.454  30.012  29.868  1.00  0.00     0.010 A 
ATOM     42  C   UNL A   1      40.244  31.512  30.220  1.00  0.00     0.010 A 
ATOM     43  C   UNL A   1      39.810  30.163  30.142  1.00  0.00    -0.014 A 
BRANCH  43  44
ATOM     44  C   UNL A   1      40.914  29.123  30.150  1.00  0.00     0.031 A 
ATOM     45  C   UNL A   1      41.166  28.751  31.563  1.00  0.00     0.074 A 
ATOM     46  C   UNL A   1      41.613  28.416  29.206  1.00  0.00     0.049 A 
ATOM     47  N   UNL A   1      42.019  29.364  32.323  1.00  0.00    -0.248 NA
ATOM     48  C   UNL A   1      40.205  27.909  32.299  1.00  0.00     0.031 C 
ATOM     49  C   UNL A   1      41.693  28.604  27.756  1.00  0.00     0.029 A 
ATOM     50  N   UNL A   1      42.399  27.271  29.357  1.00  0.00    -0.354 N 
ATOM     51  C   UNL A   1      41.850  28.750  33.547  1.00  0.00     0.074 A 
ATOM     52  C   UNL A   1      40.499  28.281  33.546  1.00  0.00     0.031 C 
ATOM     53  C   UNL A   1      42.275  27.526  27.165  1.00  0.00     0.029 A 
ATOM     54  C   UNL A   1      42.687  26.562  28.170  1.00  0.00     0.049 A 
ATOM     55  H   UNL A   1      42.729  26.976  30.236  1.00  0.00     0.167 HD
ATOM     56  C   UNL A   1      42.915  28.226  34.212  1.00  0.00     0.034 A 
ATOM     57  C   UNL A   1      43.431  25.425  27.946  1.00  0.00     0.034 A 
ATOM     58  C   UNL A   1      44.161  28.761  33.689  1.00  0.00     0.049 A 
ATOM     59  C   UNL A   1      44.464  25.409  28.990  1.00  0.00     0.074 A 
ATOM     60  C   UNL A   1      44.647  30.031  33.432  1.00  0.00     0.029 A 
ATOM     61  N   UNL A   1      44.977  27.906  32.984  1.00  0.00    -0.354 N 
ATOM     62  N   UNL A   1      45.447  26.259  29.013  1.00  0.00    -0.248 NA
ATOM     63  C   UNL A   1      44.161  24.754  30.246  1.00  0.00     0.031 C 
ATOM     64  C   UNL A   1      45.440  29.910  32.254  1.00  0.00     0.029 A 
ATOM     65  C   UNL A   1      45.491  28.565  31.895  1.00  0.00     0.049 A 
ATOM     66  H   UNL A   1      45.164  26.969  33.222  1.00  0.00     0.167 HD
ATOM     67  C   UNL A   1      45.522  26.634  30.339  1.00  0.00     0.074 A 
ATOM     68  C   UNL A   1      44.808  25.584  31.068  1.00  0.00     0.031 C 
ATOM     69  C   UNL A   1      45.894  27.903  30.669  1.00  0.00     0.034 A 
BRANCH  56  70
ATOM     70  C   UNL A   1      42.844  26.928  35.004  1.00  0.00     0.023 A 
ATOM     71  C   UNL A   1      43.624  25.870  34.518  1.00  0.00     0.031 A 
ATOM     72  C   UNL A   1      41.913  26.575  36.018  1.00  0.00     0.131 A 
ATOM     73  C   UNL A   1      43.390  24.549  34.937  1.00  0.00     0.055 A 
ATOM     74  C   UNL A   1      41.736  25.271  36.483  1.00  0.00     0.041 A 
ATOM     75  F   UNL A   1      41.054  27.427  36.583  1.00  0.00    -0.206 F 
ATOM     76  C   UNL A   1      42.453  24.241  35.917  1.00  0.00     0.022 A 
BRANCH  73  77
ATOM     77  S   UNL A   1      44.221  23.228  34.035  1.00  0.00     0.124 S 
ATOM     78  O   UNL A   1      43.292  23.007  32.937  1.00  0.00    -0.237 OA
ATOM     79  O   UNL A   1      45.494  23.850  33.701  1.00  0.00    -0.237 OA
ATOM     80  O   UNL A   1      44.296  22.146  35.025  1.00  0.00    -0.744 OA
ENDBRANCH  73  77
ENDBRANCH  56  70
BRANCH  57  81
ATOM     81  C   UNL A   1      43.204  24.193  27.098  1.00  0.00     0.023 A 
ATOM     82  C   UNL A   1      44.164  23.681  26.168  1.00  0.00     0.031 A 
ATOM     83  C   UNL A   1      42.150  23.318  27.423  1.00  0.00     0.131 A 
ATOM     84  C   UNL A   1      44.048  22.365  25.633  1.00  0.00     0.055 A 
ATOM     85  C   UNL A   1      42.045  22.019  26.900  1.00  0.00     0.041 A 
ATOM     86  F   UNL A   1      41.234  23.669  28.339  1.00  0.00    -0.206 F 
ATOM     87  C   UNL A   1      42.998  21.532  26.014  1.00  0.00     0.022 A 
BRANCH  84  88
ATOM     88  S   UNL A   1      45.319  21.655  24.511  1.00  0.00     0.124 S 
ATOM     89  O   UNL A   1      46.275  21.076  25.447  1.00  0.00    -0.237 OA
ATOM     90  O   UNL A   1      44.548  20.717  23.705  1.00  0.00    -0.237 OA
ATOM     91  O   UNL A   1      45.816  22.820  23.774  1.00  0.00    -0.744 OA
ENDBRANCH  84  88
ENDBRANCH  57  81
BRANCH  69  92
ATOM     92  C   UNL A   1      46.634  28.720  29.622  1.00  0.00     0.023 A 
ATOM     93  C   UNL A   1      46.044  29.391  28.524  1.00  0.00     0.031 A 
ATOM     94  C   UNL A   1      48.023  28.849  29.784  1.00  0.00     0.131 A 
ATOM     95  C   UNL A   1      46.845  30.132  27.630  1.00  0.00     0.055 A 
ATOM     96  C   UNL A   1      48.811  29.604  28.915  1.00  0.00     0.041 A 
ATOM     97  F   UNL A   1      48.648  28.248  30.811  1.00  0.00    -0.206 F 
ATOM     98  C   UNL A   1      48.226  30.241  27.828  1.00  0.00     0.022 A 
BRANCH  95  99
ATOM     99  S   UNL A   1      46.109  30.940  26.171  1.00  0.00     0.124 S 
ATOM    100  O   UNL A   1      44.690  31.019  26.499  1.00  0.00    -0.237 OA
ATOM    101  O   UNL A   1      46.817  32.217  26.127  1.00  0.00    -0.237 OA
ATOM    102  O   UNL A   1      46.435  30.025  25.075  1.00  0.00    -0.744 OA
ENDBRANCH  95  99
ENDBRANCH  69  92
ENDBRANCH  43  44
ENDBRANCH  35  38
ENDBRANCH  33  34
ENDBRANCH  32  33
ENDBRANCH  31  32
ENDBRANCH   1  31
TORSDOF 20
ENDMDL
MODEL 3
REMARK VINA RESULT:     -12.4      3.001      4.254
REMARK SMILES O=C(CCC(=O)N1Cc2[nH]cnc2C[C@H]1C(=O)NCc1ccccc1)NCCCCNC(=O)c1ccc(-c2c3nc(c(-c4cc(S(=O)(=O)[O-])ccc4F)c4ccc([nH]4)c(-c4cc(S(=O)(=O)[O-])ccc4F)c4nc(c(-c5cc(S(=O)(=O)[O-])ccc5F)c5ccc2[nH]5)C=C4)C=C3)cc1
REMARK SMILES IDX 27 1 26 2 1 3 2 4 3 6 4 7 5 8 6 9 7 10 8 11 15 12 9 13 14 14
REMARK SMILES IDX 10 15 13 16 11 17 12 19 16 20 17 21 18 22 19 24 20 25 21 26
REMARK SMILES IDX 25 27 22 28 24 29 23 30 28 31 29 32 30 33 31 34 32 35 33 37
REMARK SMILES IDX 34 38 35 39 96 40 36 41 95 42 37 43 38 44 39 45 89 46 40 47
REMARK SMILES IDX 94 48 88 49 90 50 41 51 93 52 87 53 86 54 42 56 74 57 54 58
REMARK SMILES IDX 73 59 55 60 58 61 72 62 91 63 56 64 57 65 71 67 92 68 59 69
REMARK SMILES IDX 43 70 44 71 52 72 45 73 51 74 53 75 50 76 46 77 47 78 48 79
REMARK SMILES IDX 49 80 75 81 76 82 84 83 77 84 83 85 85 86 82 87 78 88 79 89
REMARK SMILES IDX 80 90 81 91 60 92 61 93 69 94 62 95 68 96 70 97 67 98 63 99
REMARK SMILES IDX 64 100 65 101 66 102
REMARK H PARENT 26 5 10 18 18 23 31 36 90 55 58 66
REMARK Flexibility Score: inf
ROOT
ATOM      1  C   UNL A   1      35.325  31.898  29.092  1.00  0.00     0.116 C 
ENDROOT
BRANCH   1   2
ATOM      2  N   UNL A   1      34.477  31.119  28.176  1.00  0.00    -0.356 N 
ATOM      3  O   UNL A   1      35.957  29.363  27.986  1.00  0.00    -0.275 OA
ATOM      4  C   UNL A   1      34.834  29.817  27.785  1.00  0.00     0.220 C 
ATOM      5  H   UNL A   1      33.645  31.517  27.832  1.00  0.00     0.163 HD
BRANCH   4   6
ATOM      6  C   UNL A   1      33.682  28.944  27.203  1.00  0.00     0.110 C 
BRANCH   6   7
ATOM      7  C   UNL A   1      33.996  27.928  26.060  1.00  0.00     0.110 C 
BRANCH   7   8
ATOM      8  C   UNL A   1      32.857  27.057  25.438  1.00  0.00     0.224 C 
ATOM      9  O   UNL A   1      32.483  26.034  26.012  1.00  0.00    -0.275 OA
BRANCH   8  10
ATOM     10  N   UNL A   1      32.276  27.484  24.244  1.00  0.00    -0.324 N 
ATOM     11  C   UNL A   1      32.381  28.897  23.748  1.00  0.00     0.176 C 
ATOM     12  C   UNL A   1      31.212  26.661  23.658  1.00  0.00     0.180 C 
ATOM     13  C   UNL A   1      31.096  29.242  23.064  1.00  0.00     0.058 A 
ATOM     14  C   UNL A   1      29.872  27.327  23.915  1.00  0.00     0.093 C 
ATOM     15  N   UNL A   1      30.856  30.023  21.973  1.00  0.00    -0.347 N 
ATOM     16  C   UNL A   1      29.911  28.579  23.209  1.00  0.00     0.066 A 
ATOM     17  C   UNL A   1      29.544  29.844  21.597  1.00  0.00     0.197 A 
ATOM     18  H   UNL A   1      31.508  30.614  21.530  1.00  0.00     0.167 HD
ATOM     19  N   UNL A   1      28.937  28.966  22.356  1.00  0.00    -0.242 NA
BRANCH  12  20
ATOM     20  C   UNL A   1      31.564  25.730  22.482  1.00  0.00     0.243 C 
ATOM     21  O   UNL A   1      31.659  26.210  21.342  1.00  0.00    -0.273 OA
ATOM     22  N   UNL A   1      31.780  24.401  22.533  1.00  0.00    -0.350 N 
ATOM     23  H   UNL A   1      32.388  24.059  21.839  1.00  0.00     0.163 HD
BRANCH  22  24
ATOM     24  C   UNL A   1      31.271  23.399  23.429  1.00  0.00     0.151 C 
BRANCH  24  25
ATOM     25  C   UNL A   1      32.358  22.534  24.029  1.00  0.00    -0.029 A 
ATOM     26  C   UNL A   1      32.320  21.145  23.814  1.00  0.00     0.005 A 
ATOM     27  C   UNL A   1      33.446  23.062  24.749  1.00  0.00     0.005 A 
ATOM     28  C   UNL A   1      33.316  20.317  24.329  1.00  0.00     0.000 A 
ATOM     29  C   UNL A   1      34.437  22.235  25.267  1.00  0.00     0.000 A 
ATOM     30  C   UNL A   1      34.349  20.863  25.088  1.00  0.00     0.000 A 
ENDBRANCH  24  25
ENDBRANCH  22  24
ENDBRANCH  12  20
ENDBRANCH   8  10
ENDBRANCH   7   8
ENDBRANCH   6   7
ENDBRANCH   4   6
ENDBRANCH   1   2
BRANCH   1  31
ATOM     31  C   UNL A   1      34.697  32.879  30.159  1.00  0.00     0.023 C 
BRANCH  31  32
ATOM     32  C   UNL A   1      35.369  33.320  31.490  1.00  0.00     0.023 C 
BRANCH  32  33
ATOM     33  C   UNL A   1      36.721  34.114  31.598  1.00  0.00     0.116 C 
BRANCH  33  34
ATOM     34  N   UNL A   1      37.535  34.409  30.412  1.00  0.00    -0.352 N 
ATOM     35  C   UNL A   1      38.721  33.845  29.897  1.00  0.00     0.251 C 
ATOM     36  H   UNL A   1      37.182  35.149  29.867  1.00  0.00     0.163 HD
ATOM     37  O   UNL A   1      39.272  34.470  28.983  1.00  0.00    -0.269 OA
BRANCH  35  38
ATOM     38  C   UNL A   1      39.332  32.513  30.293  1.00  0.00     0.039 A 
ATOM     39  C   UNL A   1      40.500  32.437  31.104  1.00  0.00     0.014 A 
ATOM     40  C   UNL A   1      38.901  31.327  29.751  1.00  0.00     0.014 A 
ATOM     41  C   UNL A   1      41.338  31.270  31.155  1.00  0.00     0.010 A 
ATOM     42  C   UNL A   1      39.778  30.239  29.713  1.00  0.00     0.010 A 
ATOM     43  C   UNL A   1      41.046  30.177  30.346  1.00  0.00    -0.014 A 
BRANCH  43  44
ATOM     44  C   UNL A   1      41.774  28.853  30.215  1.00  0.00     0.031 A 
ATOM     45  C   UNL A   1      42.207  28.446  31.573  1.00  0.00     0.074 A 
ATOM     46  C   UNL A   1      42.015  27.952  29.209  1.00  0.00     0.049 A 
ATOM     47  N   UNL A   1      43.345  28.785  32.093  1.00  0.00    -0.248 NA
ATOM     48  C   UNL A   1      41.226  27.945  32.554  1.00  0.00     0.031 C 
ATOM     49  C   UNL A   1      41.830  28.083  27.763  1.00  0.00     0.029 A 
ATOM     50  N   UNL A   1      42.447  26.626  29.291  1.00  0.00    -0.354 N 
ATOM     51  C   UNL A   1      43.274  28.271  33.372  1.00  0.00     0.074 A 
ATOM     52  C   UNL A   1      41.879  28.232  33.682  1.00  0.00     0.031 C 
ATOM     53  C   UNL A   1      41.930  26.870  27.156  1.00  0.00     0.029 A 
ATOM     54  C   UNL A   1      42.252  25.844  28.131  1.00  0.00     0.049 A 
ATOM     55  H   UNL A   1      42.860  26.260  30.106  1.00  0.00     0.167 HD
ATOM     56  C   UNL A   1      44.258  27.462  33.848  1.00  0.00     0.034 A 
ATOM     57  C   UNL A   1      42.566  24.531  27.855  1.00  0.00     0.034 A 
ATOM     58  C   UNL A   1      45.462  27.588  33.043  1.00  0.00     0.049 A 
ATOM     59  C   UNL A   1      43.750  24.222  28.666  1.00  0.00     0.074 A 
ATOM     60  C   UNL A   1      46.228  28.648  32.592  1.00  0.00     0.029 A 
ATOM     61  N   UNL A   1      45.821  26.515  32.259  1.00  0.00    -0.354 N 
ATOM     62  N   UNL A   1      44.918  24.737  28.422  1.00  0.00    -0.248 NA
ATOM     63  C   UNL A   1      43.550  23.710  30.007  1.00  0.00     0.031 C 
ATOM     64  C   UNL A   1      46.677  28.274  31.291  1.00  0.00     0.029 A 
ATOM     65  C   UNL A   1      46.255  26.970  31.039  1.00  0.00     0.049 A 
ATOM     66  H   UNL A   1      45.774  25.569  32.530  1.00  0.00     0.167 HD
ATOM     67  C   UNL A   1      45.384  25.094  29.670  1.00  0.00     0.074 A 
ATOM     68  C   UNL A   1      44.573  24.320  30.611  1.00  0.00     0.031 C 
ATOM     69  C   UNL A   1      46.172  26.197  29.815  1.00  0.00     0.034 A 
BRANCH  56  70
ATOM     70  C   UNL A   1      43.986  26.259  34.741  1.00  0.00     0.023 A 
ATOM     71  C   UNL A   1      44.312  26.414  36.095  1.00  0.00     0.031 A 
ATOM     72  C   UNL A   1      43.677  24.930  34.343  1.00  0.00     0.131 A 
ATOM     73  C   UNL A   1      44.434  25.298  36.940  1.00  0.00     0.055 A 
ATOM     74  C   UNL A   1      43.730  23.834  35.206  1.00  0.00     0.041 A 
ATOM     75  F   UNL A   1      43.380  24.568  33.093  1.00  0.00    -0.206 F 
ATOM     76  C   UNL A   1      44.145  24.009  36.507  1.00  0.00     0.022 A 
BRANCH  73  77
ATOM     77  S   UNL A   1      45.156  25.562  38.571  1.00  0.00     0.124 S 
ATOM     78  O   UNL A   1      44.880  24.285  39.212  1.00  0.00    -0.237 OA
ATOM     79  O   UNL A   1      46.545  25.842  38.240  1.00  0.00    -0.237 OA
ATOM     80  O   UNL A   1      44.394  26.705  39.090  1.00  0.00    -0.744 OA
ENDBRANCH  73  77
ENDBRANCH  56  70
BRANCH  57  81
ATOM     81  C   UNL A   1      41.812  23.411  27.172  1.00  0.00     0.023 A 
ATOM     82  C   UNL A   1      42.397  22.149  26.838  1.00  0.00     0.031 A 
ATOM     83  C   UNL A   1      40.406  23.460  27.121  1.00  0.00     0.131 A 
ATOM     84  C   UNL A   1      41.590  21.026  26.494  1.00  0.00     0.055 A 
ATOM     85  C   UNL A   1      39.614  22.348  26.790  1.00  0.00     0.041 A 
ATOM     86  F   UNL A   1      39.751  24.573  27.485  1.00  0.00    -0.206 F 
ATOM     87  C   UNL A   1      40.199  21.125  26.488  1.00  0.00     0.022 A 
BRANCH  84  88
ATOM     88  S   UNL A   1      42.315  19.372  26.153  1.00  0.00     0.124 S 
ATOM     89  O   UNL A   1      41.157  18.609  25.705  1.00  0.00    -0.237 OA
ATOM     90  O   UNL A   1      43.329  19.667  25.148  1.00  0.00    -0.237 OA
ATOM     91  O   UNL A   1      42.853  18.958  27.451  1.00  0.00    -0.744 OA
ENDBRANCH  84  88
ENDBRANCH  57  81
BRANCH  69  92
ATOM     92  C   UNL A   1      46.872  26.736  28.578  1.00  0.00     0.023 A 
ATOM     93  C   UNL A   1      46.253  27.424  27.507  1.00  0.00     0.031 A 
ATOM     94  C   UNL A   1      48.265  26.566  28.512  1.00  0.00     0.131 A 
ATOM     95  C   UNL A   1      47.022  27.889  26.420  1.00  0.00     0.055 A 
ATOM     96  C   UNL A   1      49.029  27.048  27.450  1.00  0.00     0.041 A 
ATOM     97  F   UNL A   1      48.920  25.931  29.500  1.00  0.00    -0.206 F 
ATOM     98  C   UNL A   1      48.409  27.704  26.394  1.00  0.00     0.022 A 
BRANCH  95  99
ATOM     99  S   UNL A   1      46.227  28.711  25.001  1.00  0.00     0.124 S 
ATOM    100  O   UNL A   1      44.858  28.210  25.033  1.00  0.00    -0.237 OA
ATOM    101  O   UNL A   1      46.387  30.127  25.327  1.00  0.00    -0.237 OA
ATOM    102  O   UNL A   1      47.020  28.258  23.856  1.00  0.00    -0.744 OA
ENDBRANCH  95  99
ENDBRANCH  69  92
ENDBRANCH  43  44
ENDBRANCH  35  38
ENDBRANCH  33  34
ENDBRANCH  32  33
ENDBRANCH  31  32
ENDBRANCH   1  31
TORSDOF 20
ENDMDL
