MODEL 1
REMARK VINA RESULT:     -12.5      0.000      0.000
REMARK SMILES Cc1nsc(NC(=O)c2ccc(N)cc2)c1C(=O)NCCCCNC(=O)c1ccc(-c2c3nc(c(-c4cc(S(=O)(=O)[O-])ccc4F)c4ccc([nH]4)c(-c4cc(S(=O)(=O)[O-])ccc4F)c4nc(c(-c5cc(S(=O)(=O)[O-])ccc5F)c5ccc2[nH]5)C=C4)C=C3)cc1
REMARK SMILES IDX 21 1 20 2 19 3 17 4 18 5 16 7 1 8 2 9 3 10 4 11 5 12 6 13
REMARK SMILES IDX 7 14 8 16 9 17 10 18 15 19 11 20 14 21 12 22 13 23 22 26
REMARK SMILES IDX 23 27 24 28 25 29 26 31 27 32 28 33 89 34 29 35 88 36 30 37
REMARK SMILES IDX 31 38 32 39 82 40 33 41 87 42 81 43 83 44 34 45 86 46 80 47
REMARK SMILES IDX 79 48 35 50 67 51 47 52 66 53 48 54 51 55 65 56 84 57 49 58
REMARK SMILES IDX 50 59 64 61 85 62 52 63 36 64 37 65 45 66 38 67 44 68 46 69
REMARK SMILES IDX 43 70 39 71 40 72 41 73 42 74 68 75 69 76 77 77 70 78 76 79
REMARK SMILES IDX 78 80 75 81 71 82 72 83 73 84 74 85 53 86 54 87 62 88 55 89
REMARK SMILES IDX 61 90 63 91 60 92 56 93 57 94 58 95 59 96
REMARK H PARENT 19 6 6 15 13 24 13 25 24 30 83 49 51 60
REMARK Flexibility Score: inf
ROOT
ATOM      1  C   UNL A   1      32.199  30.709  26.812  1.00  0.00     0.023 C 
ENDROOT
BRANCH   1   2
ATOM      2  C   UNL A   1      31.686  30.148  25.485  1.00  0.00     0.116 C 
BRANCH   2   3
ATOM      3  N   UNL A   1      32.676  29.545  24.612  1.00  0.00    -0.352 N 
ATOM      4  C   UNL A   1      32.840  28.238  24.197  1.00  0.00     0.256 C 
ATOM      5  O   UNL A   1      33.783  28.003  23.439  1.00  0.00    -0.269 OA
ATOM      6  H   UNL A   1      33.343  30.174  24.255  1.00  0.00     0.163 HD
BRANCH   4   7
ATOM      7  C   UNL A   1      32.030  27.147  24.738  1.00  0.00     0.097 A 
ATOM      8  C   UNL A   1      29.648  27.392  23.602  1.00  0.00     0.069 C 
ATOM      9  C   UNL A   1      30.617  26.846  24.594  1.00  0.00     0.066 A 
ATOM     10  N   UNL A   1      30.125  25.944  25.448  1.00  0.00    -0.195 NA
ATOM     11  S   UNL A   1      31.379  25.295  26.293  1.00  0.00    -0.017 S 
ATOM     12  C   UNL A   1      32.607  26.055  25.392  1.00  0.00     0.129 A 
BRANCH  12  13
ATOM     13  N   UNL A   1      33.941  25.683  25.449  1.00  0.00    -0.312 N 
ATOM     14  C   UNL A   1      34.595  24.559  24.980  1.00  0.00     0.256 C 
ATOM     15  H   UNL A   1      34.526  26.333  25.901  1.00  0.00     0.171 HD
ATOM     16  O   UNL A   1      35.767  24.347  25.292  1.00  0.00    -0.269 OA
BRANCH  14  17
ATOM     17  C   UNL A   1      33.947  23.585  24.076  1.00  0.00     0.040 A 
ATOM     18  C   UNL A   1      33.820  23.830  22.706  1.00  0.00     0.016 A 
ATOM     19  C   UNL A   1      33.446  22.401  24.623  1.00  0.00     0.016 A 
ATOM     20  C   UNL A   1      33.057  22.960  21.919  1.00  0.00     0.026 A 
ATOM     21  C   UNL A   1      32.704  21.529  23.822  1.00  0.00     0.026 A 
ATOM     22  C   UNL A   1      32.445  21.836  22.483  1.00  0.00     0.031 A 
BRANCH  22  23
ATOM     23  N   UNL A   1      31.697  20.973  21.697  1.00  0.00    -0.399 N 
ATOM     24  H   UNL A   1      31.096  21.333  21.006  1.00  0.00     0.156 HD
ATOM     25  H   UNL A   1      31.766  20.000  21.830  1.00  0.00     0.156 HD
ENDBRANCH  22  23
ENDBRANCH  14  17
ENDBRANCH  12  13
ENDBRANCH   4   7
ENDBRANCH   2   3
ENDBRANCH   1   2
BRANCH   1  26
ATOM     26  C   UNL A   1      33.525  30.182  27.361  1.00  0.00     0.023 C 
BRANCH  26  27
ATOM     27  C   UNL A   1      34.615  31.221  27.581  1.00  0.00     0.116 C 
BRANCH  27  28
ATOM     28  N   UNL A   1      34.547  31.898  28.876  1.00  0.00    -0.352 N 
ATOM     29  C   UNL A   1      35.376  31.682  29.965  1.00  0.00     0.251 C 
ATOM     30  H   UNL A   1      33.841  32.574  28.984  1.00  0.00     0.163 HD
ATOM     31  O   UNL A   1      35.037  32.037  31.090  1.00  0.00    -0.269 OA
BRANCH  29  32
ATOM     32  C   UNL A   1      36.668  31.006  29.741  1.00  0.00     0.039 A 
ATOM     33  C   UNL A   1      37.858  31.729  29.603  1.00  0.00     0.014 A 
ATOM     34  C   UNL A   1      36.679  29.614  29.755  1.00  0.00     0.014 A 
ATOM     35  C   UNL A   1      39.072  31.038  29.590  1.00  0.00     0.010 A 
ATOM     36  C   UNL A   1      37.877  28.947  29.866  1.00  0.00     0.010 A 
ATOM     37  C   UNL A   1      39.080  29.644  29.754  1.00  0.00    -0.014 A 
BRANCH  37  38
ATOM     38  C   UNL A   1      40.337  28.914  29.971  1.00  0.00     0.031 A 
ATOM     39  C   UNL A   1      40.682  28.650  31.399  1.00  0.00     0.074 A 
ATOM     40  C   UNL A   1      40.977  28.261  28.976  1.00  0.00     0.049 A 
ATOM     41  N   UNL A   1      41.732  29.021  32.055  1.00  0.00    -0.248 NA
ATOM     42  C   UNL A   1      39.673  27.983  32.239  1.00  0.00     0.031 C 
ATOM     43  C   UNL A   1      40.562  28.163  27.571  1.00  0.00     0.029 A 
ATOM     44  N   UNL A   1      42.046  27.414  29.031  1.00  0.00    -0.354 N 
ATOM     45  C   UNL A   1      41.632  28.432  33.317  1.00  0.00     0.074 A 
ATOM     46  C   UNL A   1      40.267  27.997  33.433  1.00  0.00     0.031 C 
ATOM     47  C   UNL A   1      41.191  27.125  26.983  1.00  0.00     0.029 A 
ATOM     48  C   UNL A   1      42.182  26.602  27.906  1.00  0.00     0.049 A 
ATOM     49  H   UNL A   1      42.666  27.380  29.795  1.00  0.00     0.167 HD
ATOM     50  C   UNL A   1      42.742  28.134  34.053  1.00  0.00     0.034 A 
ATOM     51  C   UNL A   1      43.019  25.548  27.730  1.00  0.00     0.034 A 
ATOM     52  C   UNL A   1      43.898  28.837  33.539  1.00  0.00     0.049 A 
ATOM     53  C   UNL A   1      44.116  25.695  28.712  1.00  0.00     0.074 A 
ATOM     54  C   UNL A   1      44.226  30.165  33.342  1.00  0.00     0.029 A 
ATOM     55  N   UNL A   1      44.805  28.120  32.790  1.00  0.00    -0.354 N 
ATOM     56  N   UNL A   1      44.968  26.681  28.690  1.00  0.00    -0.248 NA
ATOM     57  C   UNL A   1      44.010  25.002  29.988  1.00  0.00     0.031 C 
ATOM     58  C   UNL A   1      44.970  30.185  32.126  1.00  0.00     0.029 A 
ATOM     59  C   UNL A   1      45.127  28.869  31.687  1.00  0.00     0.049 A 
ATOM     60  H   UNL A   1      45.159  27.228  33.007  1.00  0.00     0.167 HD
ATOM     61  C   UNL A   1      45.159  27.018  30.020  1.00  0.00     0.074 A 
ATOM     62  C   UNL A   1      44.658  25.870  30.771  1.00  0.00     0.031 C 
ATOM     63  C   UNL A   1      45.435  28.306  30.385  1.00  0.00     0.034 A 
BRANCH  50  64
ATOM     64  C   UNL A   1      42.895  26.924  34.968  1.00  0.00     0.023 A 
ATOM     65  C   UNL A   1      43.700  25.868  34.491  1.00  0.00     0.031 A 
ATOM     66  C   UNL A   1      42.092  26.609  36.086  1.00  0.00     0.131 A 
ATOM     67  C   UNL A   1      43.565  24.562  34.994  1.00  0.00     0.055 A 
ATOM     68  C   UNL A   1      42.015  25.322  36.632  1.00  0.00     0.041 A 
ATOM     69  F   UNL A   1      41.279  27.492  36.675  1.00  0.00    -0.206 F 
ATOM     70  C   UNL A   1      42.718  24.278  36.058  1.00  0.00     0.022 A 
BRANCH  67  71
ATOM     71  S   UNL A   1      44.354  23.210  34.082  1.00  0.00     0.124 S 
ATOM     72  O   UNL A   1      45.657  23.792  33.777  1.00  0.00    -0.237 OA
ATOM     73  O   UNL A   1      44.340  22.136  35.070  1.00  0.00    -0.237 OA
ATOM     74  O   UNL A   1      43.471  23.017  32.935  1.00  0.00    -0.744 OA
ENDBRANCH  67  71
ENDBRANCH  50  64
BRANCH  51  75
ATOM     75  C   UNL A   1      42.746  24.307  26.956  1.00  0.00     0.023 A 
ATOM     76  C   UNL A   1      43.675  23.730  26.068  1.00  0.00     0.031 A 
ATOM     77  C   UNL A   1      41.597  23.542  27.263  1.00  0.00     0.131 A 
ATOM     78  C   UNL A   1      43.434  22.444  25.526  1.00  0.00     0.055 A 
ATOM     79  C   UNL A   1      41.361  22.278  26.720  1.00  0.00     0.041 A 
ATOM     80  F   UNL A   1      40.701  23.972  28.166  1.00  0.00    -0.206 F 
ATOM     81  C   UNL A   1      42.284  21.719  25.852  1.00  0.00     0.022 A 
BRANCH  78  82
ATOM     82  S   UNL A   1      44.663  21.656  24.435  1.00  0.00     0.124 S 
ATOM     83  O   UNL A   1      44.418  22.314  23.158  1.00  0.00    -0.237 OA
ATOM     84  O   UNL A   1      45.920  21.978  25.102  1.00  0.00    -0.237 OA
ATOM     85  O   UNL A   1      44.298  20.239  24.473  1.00  0.00    -0.744 OA
ENDBRANCH  78  82
ENDBRANCH  51  75
BRANCH  63  86
ATOM     86  C   UNL A   1      45.889  29.276  29.312  1.00  0.00     0.023 A 
ATOM     87  C   UNL A   1      45.029  30.026  28.479  1.00  0.00     0.031 A 
ATOM     88  C   UNL A   1      47.270  29.526  29.219  1.00  0.00     0.131 A 
ATOM     89  C   UNL A   1      45.565  30.977  27.588  1.00  0.00     0.055 A 
ATOM     90  C   UNL A   1      47.795  30.482  28.352  1.00  0.00     0.041 A 
ATOM     91  F   UNL A   1      48.137  28.866  30.007  1.00  0.00    -0.206 F 
ATOM     92  C   UNL A   1      46.944  31.206  27.527  1.00  0.00     0.022 A 
BRANCH  89  93
ATOM     93  S   UNL A   1      44.478  31.925  26.474  1.00  0.00     0.124 S 
ATOM     94  O   UNL A   1      43.450  30.963  26.095  1.00  0.00    -0.237 OA
ATOM     95  O   UNL A   1      44.039  33.028  27.326  1.00  0.00    -0.237 OA
ATOM     96  O   UNL A   1      45.372  32.322  25.384  1.00  0.00    -0.744 OA
ENDBRANCH  89  93
ENDBRANCH  63  86
ENDBRANCH  37  38
ENDBRANCH  29  32
ENDBRANCH  27  28
ENDBRANCH  26  27
ENDBRANCH   1  26
TORSDOF 17
ENDMDL
MODEL 2
REMARK VINA RESULT:     -12.4      2.553      7.122
REMARK SMILES Cc1nsc(NC(=O)c2ccc(N)cc2)c1C(=O)NCCCCNC(=O)c1ccc(-c2c3nc(c(-c4cc(S(=O)(=O)[O-])ccc4F)c4ccc([nH]4)c(-c4cc(S(=O)(=O)[O-])ccc4F)c4nc(c(-c5cc(S(=O)(=O)[O-])ccc5F)c5ccc2[nH]5)C=C4)C=C3)cc1
REMARK SMILES IDX 21 1 20 2 19 3 17 4 18 5 16 7 1 8 2 9 3 10 4 11 5 12 6 13
REMARK SMILES IDX 7 14 8 16 9 17 10 18 15 19 11 20 14 21 12 22 13 23 22 26
REMARK SMILES IDX 23 27 24 28 25 29 26 31 27 32 28 33 89 34 29 35 88 36 30 37
REMARK SMILES IDX 31 38 32 39 82 40 33 41 87 42 81 43 83 44 34 45 86 46 80 47
REMARK SMILES IDX 79 48 35 50 67 51 47 52 66 53 48 54 51 55 65 56 84 57 49 58
REMARK SMILES IDX 50 59 64 61 85 62 52 63 36 64 37 65 45 66 38 67 44 68 46 69
REMARK SMILES IDX 43 70 39 71 40 72 41 73 42 74 68 75 69 76 77 77 70 78 76 79
REMARK SMILES IDX 78 80 75 81 71 82 72 83 73 84 74 85 53 86 54 87 62 88 55 89
REMARK SMILES IDX 61 90 63 91 60 92 56 93 57 94 58 95 59 96
REMARK H PARENT 19 6 6 15 13 24 13 25 24 30 83 49 51 60
REMARK Flexibility Score: inf
ROOT
ATOM      1  C   UNL A   1      32.548  28.284  27.051  1.00  0.00     0.023 C 
ENDROOT
BRANCH   1   2
ATOM      2  C   UNL A   1      32.152  27.082  26.192  1.00  0.00     0.116 C 
BRANCH   2   3
ATOM      3  N   UNL A   1      31.028  27.271  25.294  1.00  0.00    -0.352 N 
ATOM      4  C   UNL A   1      30.824  26.843  23.996  1.00  0.00     0.256 C 
ATOM      5  O   UNL A   1      29.756  27.151  23.464  1.00  0.00    -0.269 OA
ATOM      6  H   UNL A   1      30.285  27.792  25.674  1.00  0.00     0.163 HD
BRANCH   4   7
ATOM      7  C   UNL A   1      31.876  26.180  23.227  1.00  0.00     0.097 A 
ATOM      8  C   UNL A   1      33.594  28.089  22.572  1.00  0.00     0.069 C 
ATOM      9  C   UNL A   1      33.007  26.721  22.496  1.00  0.00     0.066 A 
ATOM     10  N   UNL A   1      33.617  25.875  21.660  1.00  0.00    -0.195 NA
ATOM     11  S   UNL A   1      32.982  24.375  21.889  1.00  0.00    -0.017 S 
ATOM     12  C   UNL A   1      32.036  24.791  23.242  1.00  0.00     0.129 A 
BRANCH  12  13
ATOM     13  N   UNL A   1      31.454  23.859  24.086  1.00  0.00    -0.312 N 
ATOM     14  C   UNL A   1      32.008  22.847  24.848  1.00  0.00     0.256 C 
ATOM     15  H   UNL A   1      30.475  23.931  24.158  1.00  0.00     0.171 HD
ATOM     16  O   UNL A   1      31.284  22.017  25.398  1.00  0.00    -0.269 OA
BRANCH  14  17
ATOM     17  C   UNL A   1      33.466  22.723  25.061  1.00  0.00     0.040 A 
ATOM     18  C   UNL A   1      34.225  21.758  24.392  1.00  0.00     0.016 A 
ATOM     19  C   UNL A   1      34.082  23.592  25.964  1.00  0.00     0.016 A 
ATOM     20  C   UNL A   1      35.565  21.570  24.746  1.00  0.00     0.026 A 
ATOM     21  C   UNL A   1      35.427  23.408  26.294  1.00  0.00     0.026 A 
ATOM     22  C   UNL A   1      36.160  22.353  25.741  1.00  0.00     0.031 A 
BRANCH  22  23
ATOM     23  N   UNL A   1      37.490  22.168  26.082  1.00  0.00    -0.399 N 
ATOM     24  H   UNL A   1      37.875  21.261  26.086  1.00  0.00     0.156 HD
ATOM     25  H   UNL A   1      38.050  22.941  26.320  1.00  0.00     0.156 HD
ENDBRANCH  22  23
ENDBRANCH  14  17
ENDBRANCH  12  13
ENDBRANCH   4   7
ENDBRANCH   2   3
ENDBRANCH   1   2
BRANCH   1  26
ATOM     26  C   UNL A   1      33.678  29.189  26.558  1.00  0.00     0.023 C 
BRANCH  26  27
ATOM     27  C   UNL A   1      34.995  29.081  27.314  1.00  0.00     0.116 C 
BRANCH  27  28
ATOM     28  N   UNL A   1      35.158  30.067  28.381  1.00  0.00    -0.352 N 
ATOM     29  C   UNL A   1      36.194  30.126  29.300  1.00  0.00     0.251 C 
ATOM     30  H   UNL A   1      34.461  30.758  28.455  1.00  0.00     0.163 HD
ATOM     31  O   UNL A   1      36.071  30.761  30.343  1.00  0.00    -0.269 OA
BRANCH  29  32
ATOM     32  C   UNL A   1      37.442  29.398  28.999  1.00  0.00     0.039 A 
ATOM     33  C   UNL A   1      38.211  29.700  27.871  1.00  0.00     0.014 A 
ATOM     34  C   UNL A   1      37.876  28.452  29.924  1.00  0.00     0.014 A 
ATOM     35  C   UNL A   1      39.475  29.120  27.739  1.00  0.00     0.010 A 
ATOM     36  C   UNL A   1      39.166  27.980  29.855  1.00  0.00     0.010 A 
ATOM     37  C   UNL A   1      39.965  28.282  28.752  1.00  0.00    -0.014 A 
BRANCH  37  38
ATOM     38  C   UNL A   1      41.366  27.839  28.758  1.00  0.00     0.031 A 
ATOM     39  C   UNL A   1      41.654  26.623  27.942  1.00  0.00     0.074 A 
ATOM     40  C   UNL A   1      42.373  28.624  29.201  1.00  0.00     0.049 A 
ATOM     41  N   UNL A   1      42.144  25.491  28.329  1.00  0.00    -0.248 NA
ATOM     42  C   UNL A   1      41.233  26.626  26.531  1.00  0.00     0.031 C 
ATOM     43  C   UNL A   1      42.263  29.991  29.729  1.00  0.00     0.029 A 
ATOM     44  N   UNL A   1      43.723  28.440  29.130  1.00  0.00    -0.354 N 
ATOM     45  C   UNL A   1      42.320  24.727  27.175  1.00  0.00     0.074 A 
ATOM     46  C   UNL A   1      41.554  25.387  26.153  1.00  0.00     0.031 C 
ATOM     47  C   UNL A   1      43.468  30.594  29.680  1.00  0.00     0.029 A 
ATOM     48  C   UNL A   1      44.463  29.610  29.294  1.00  0.00     0.049 A 
ATOM     49  H   UNL A   1      44.138  27.560  28.976  1.00  0.00     0.167 HD
ATOM     50  C   UNL A   1      43.279  23.759  27.102  1.00  0.00     0.034 A 
ATOM     51  C   UNL A   1      45.794  29.793  29.103  1.00  0.00     0.034 A 
ATOM     52  C   UNL A   1      43.755  23.412  28.424  1.00  0.00     0.049 A 
ATOM     53  C   UNL A   1      46.432  28.460  29.179  1.00  0.00     0.074 A 
ATOM     54  C   UNL A   1      43.168  22.927  29.577  1.00  0.00     0.029 A 
ATOM     55  N   UNL A   1      44.980  23.906  28.815  1.00  0.00    -0.354 N 
ATOM     56  N   UNL A   1      46.446  27.735  30.263  1.00  0.00    -0.248 NA
ATOM     57  C   UNL A   1      46.669  27.726  27.945  1.00  0.00     0.031 C 
ATOM     58  C   UNL A   1      43.842  23.592  30.643  1.00  0.00     0.029 A 
ATOM     59  C   UNL A   1      44.854  24.383  30.094  1.00  0.00     0.049 A 
ATOM     60  H   UNL A   1      45.801  23.914  28.273  1.00  0.00     0.167 HD
ATOM     61  C   UNL A   1      46.239  26.437  29.826  1.00  0.00     0.074 A 
ATOM     62  C   UNL A   1      46.522  26.476  28.394  1.00  0.00     0.031 C 
ATOM     63  C   UNL A   1      45.581  25.529  30.609  1.00  0.00     0.034 A 
BRANCH  50  64
ATOM     64  C   UNL A   1      44.082  23.405  25.855  1.00  0.00     0.023 A 
ATOM     65  C   UNL A   1      44.029  22.061  25.430  1.00  0.00     0.031 A 
ATOM     66  C   UNL A   1      45.099  24.182  25.261  1.00  0.00     0.131 A 
ATOM     67  C   UNL A   1      45.033  21.513  24.611  1.00  0.00     0.055 A 
ATOM     68  C   UNL A   1      46.056  23.649  24.388  1.00  0.00     0.041 A 
ATOM     69  F   UNL A   1      45.287  25.477  25.538  1.00  0.00    -0.206 F 
ATOM     70  C   UNL A   1      46.055  22.299  24.093  1.00  0.00     0.022 A 
BRANCH  67  71
ATOM     71  S   UNL A   1      45.093  19.712  24.422  1.00  0.00     0.124 S 
ATOM     72  O   UNL A   1      46.522  19.457  24.566  1.00  0.00    -0.237 OA
ATOM     73  O   UNL A   1      44.242  19.269  25.522  1.00  0.00    -0.237 OA
ATOM     74  O   UNL A   1      44.550  19.496  23.084  1.00  0.00    -0.744 OA
ENDBRANCH  67  71
ENDBRANCH  50  64
BRANCH  51  75
ATOM     75  C   UNL A   1      46.465  31.016  28.585  1.00  0.00     0.023 A 
ATOM     76  C   UNL A   1      45.983  31.758  27.490  1.00  0.00     0.031 A 
ATOM     77  C   UNL A   1      47.514  31.596  29.336  1.00  0.00     0.131 A 
ATOM     78  C   UNL A   1      46.548  33.020  27.183  1.00  0.00     0.055 A 
ATOM     79  C   UNL A   1      48.073  32.836  29.025  1.00  0.00     0.041 A 
ATOM     80  F   UNL A   1      47.978  31.003  30.448  1.00  0.00    -0.206 F 
ATOM     81  C   UNL A   1      47.586  33.559  27.948  1.00  0.00     0.022 A 
BRANCH  78  82
ATOM     82  S   UNL A   1      45.882  34.023  25.815  1.00  0.00     0.124 S 
ATOM     83  O   UNL A   1      45.064  35.006  26.515  1.00  0.00    -0.237 OA
ATOM     84  O   UNL A   1      47.095  34.522  25.177  1.00  0.00    -0.237 OA
ATOM     85  O   UNL A   1      45.126  33.056  25.017  1.00  0.00    -0.744 OA
ENDBRANCH  78  82
ENDBRANCH  51  75
BRANCH  63  86
ATOM     86  C   UNL A   1      45.410  25.842  32.082  1.00  0.00     0.023 A 
ATOM     87  C   UNL A   1      44.222  26.324  32.677  1.00  0.00     0.031 A 
ATOM     88  C   UNL A   1      46.482  25.520  32.933  1.00  0.00     0.131 A 
ATOM     89  C   UNL A   1      44.147  26.478  34.075  1.00  0.00     0.055 A 
ATOM     90  C   UNL A   1      46.397  25.654  34.318  1.00  0.00     0.041 A 
ATOM     91  F   UNL A   1      47.627  25.029  32.431  1.00  0.00    -0.206 F 
ATOM     92  C   UNL A   1      45.231  26.141  34.894  1.00  0.00     0.022 A 
BRANCH  89  93
ATOM     93  S   UNL A   1      42.641  27.139  34.860  1.00  0.00     0.124 S 
ATOM     94  O   UNL A   1      43.150  27.922  35.979  1.00  0.00    -0.237 OA
ATOM     95  O   UNL A   1      42.027  27.899  33.774  1.00  0.00    -0.237 OA
ATOM     96  O   UNL A   1      41.903  25.934  35.246  1.00  0.00    -0.744 OA
ENDBRANCH  89  93
ENDBRANCH  63  86
ENDBRANCH  37  38
ENDBRANCH  29  32
ENDBRANCH  27  28
ENDBRANCH  26  27
ENDBRANCH   1  26
TORSDOF 17
ENDMDL
MODEL 3
REMARK VINA RESULT:     -12.3      2.551      6.957
REMARK SMILES Cc1nsc(NC(=O)c2ccc(N)cc2)c1C(=O)NCCCCNC(=O)c1ccc(-c2c3nc(c(-c4cc(S(=O)(=O)[O-])ccc4F)c4ccc([nH]4)c(-c4cc(S(=O)(=O)[O-])ccc4F)c4nc(c(-c5cc(S(=O)(=O)[O-])ccc5F)c5ccc2[nH]5)C=C4)C=C3)cc1
REMARK SMILES IDX 21 1 20 2 19 3 17 4 18 5 16 7 1 8 2 9 3 10 4 11 5 12 6 13
REMARK SMILES IDX 7 14 8 16 9 17 10 18 15 19 11 20 14 21 12 22 13 23 22 26
REMARK SMILES IDX 23 27 24 28 25 29 26 31 27 32 28 33 89 34 29 35 88 36 30 37
REMARK SMILES IDX 31 38 32 39 82 40 33 41 87 42 81 43 83 44 34 45 86 46 80 47
REMARK SMILES IDX 79 48 35 50 67 51 47 52 66 53 48 54 51 55 65 56 84 57 49 58
REMARK SMILES IDX 50 59 64 61 85 62 52 63 36 64 37 65 45 66 38 67 44 68 46 69
REMARK SMILES IDX 43 70 39 71 40 72 41 73 42 74 68 75 69 76 77 77 70 78 76 79
REMARK SMILES IDX 78 80 75 81 71 82 72 83 73 84 74 85 53 86 54 87 62 88 55 89
REMARK SMILES IDX 61 90 63 91 60 92 56 93 57 94 58 95 59 96
REMARK H PARENT 19 6 6 15 13 24 13 25 24 30 83 49 51 60
REMARK Flexibility Score: inf
ROOT
ATOM      1  C   UNL A   1      32.939  28.048  27.144  1.00  0.00     0.023 C 
ENDROOT
BRANCH   1   2
ATOM      2  C   UNL A   1      33.359  27.097  26.022  1.00  0.00     0.116 C 
BRANCH   2   3
ATOM      3  N   UNL A   1      33.959  27.706  24.850  1.00  0.00    -0.352 N 
ATOM      4  C   UNL A   1      33.385  28.348  23.769  1.00  0.00     0.256 C 
ATOM      5  O   UNL A   1      34.146  28.778  22.901  1.00  0.00    -0.269 OA
ATOM      6  H   UNL A   1      34.941  27.654  24.819  1.00  0.00     0.163 HD
BRANCH   4   7
ATOM      7  C   UNL A   1      31.935  28.392  23.578  1.00  0.00     0.097 A 
ATOM      8  C   UNL A   1      31.100  30.513  24.931  1.00  0.00     0.069 C 
ATOM      9  C   UNL A   1      30.920  29.240  24.176  1.00  0.00     0.066 A 
ATOM     10  N   UNL A   1      29.657  28.839  24.011  1.00  0.00    -0.195 NA
ATOM     11  S   UNL A   1      29.651  27.566  22.969  1.00  0.00    -0.017 S 
ATOM     12  C   UNL A   1      31.302  27.663  22.567  1.00  0.00     0.129 A 
BRANCH  12  13
ATOM     13  N   UNL A   1      31.869  27.003  21.488  1.00  0.00    -0.312 N 
ATOM     14  C   UNL A   1      32.549  25.803  21.408  1.00  0.00     0.256 C 
ATOM     15  H   UNL A   1      31.767  27.470  20.627  1.00  0.00     0.171 HD
ATOM     16  O   UNL A   1      33.123  25.483  20.367  1.00  0.00    -0.269 OA
BRANCH  14  17
ATOM     17  C   UNL A   1      32.602  24.845  22.534  1.00  0.00     0.040 A 
ATOM     18  C   UNL A   1      31.450  24.215  23.014  1.00  0.00     0.016 A 
ATOM     19  C   UNL A   1      33.839  24.584  23.127  1.00  0.00     0.016 A 
ATOM     20  C   UNL A   1      31.521  23.447  24.181  1.00  0.00     0.026 A 
ATOM     21  C   UNL A   1      33.901  23.797  24.281  1.00  0.00     0.026 A 
ATOM     22  C   UNL A   1      32.735  23.281  24.855  1.00  0.00     0.031 A 
BRANCH  22  23
ATOM     23  N   UNL A   1      32.802  22.512  26.007  1.00  0.00    -0.399 N 
ATOM     24  H   UNL A   1      33.236  22.871  26.814  1.00  0.00     0.156 HD
ATOM     25  H   UNL A   1      32.415  21.607  26.018  1.00  0.00     0.156 HD
ENDBRANCH  22  23
ENDBRANCH  14  17
ENDBRANCH  12  13
ENDBRANCH   4   7
ENDBRANCH   2   3
ENDBRANCH   1   2
BRANCH   1  26
ATOM     26  C   UNL A   1      33.575  29.438  27.196  1.00  0.00     0.023 C 
BRANCH  26  27
ATOM     27  C   UNL A   1      35.025  29.490  27.655  1.00  0.00     0.116 C 
BRANCH  27  28
ATOM     28  N   UNL A   1      35.244  30.275  28.868  1.00  0.00    -0.352 N 
ATOM     29  C   UNL A   1      36.274  30.116  29.781  1.00  0.00     0.251 C 
ATOM     30  H   UNL A   1      34.593  30.990  29.056  1.00  0.00     0.163 HD
ATOM     31  O   UNL A   1      36.184  30.578  30.915  1.00  0.00    -0.269 OA
BRANCH  29  32
ATOM     32  C   UNL A   1      37.474  29.366  29.363  1.00  0.00     0.039 A 
ATOM     33  C   UNL A   1      38.152  29.673  28.179  1.00  0.00     0.014 A 
ATOM     34  C   UNL A   1      37.961  28.392  30.230  1.00  0.00     0.014 A 
ATOM     35  C   UNL A   1      39.386  29.067  27.930  1.00  0.00     0.010 A 
ATOM     36  C   UNL A   1      39.229  27.892  30.044  1.00  0.00     0.010 A 
ATOM     37  C   UNL A   1      39.939  28.198  28.883  1.00  0.00    -0.014 A 
BRANCH  37  38
ATOM     38  C   UNL A   1      41.324  27.724  28.762  1.00  0.00     0.031 A 
ATOM     39  C   UNL A   1      41.498  26.449  28.005  1.00  0.00     0.074 A 
ATOM     40  C   UNL A   1      42.388  28.513  29.034  1.00  0.00     0.049 A 
ATOM     41  N   UNL A   1      42.012  25.334  28.412  1.00  0.00    -0.248 NA
ATOM     42  C   UNL A   1      40.919  26.367  26.653  1.00  0.00     0.031 C 
ATOM     43  C   UNL A   1      42.360  29.913  29.475  1.00  0.00     0.029 A 
ATOM     44  N   UNL A   1      43.718  28.292  28.824  1.00  0.00    -0.354 N 
ATOM     45  C   UNL A   1      42.042  24.491  27.301  1.00  0.00     0.074 A 
ATOM     46  C   UNL A   1      41.175  25.099  26.329  1.00  0.00     0.031 C 
ATOM     47  C   UNL A   1      43.562  30.484  29.248  1.00  0.00     0.029 A 
ATOM     48  C   UNL A   1      44.490  29.453  28.822  1.00  0.00     0.049 A 
ATOM     49  H   UNL A   1      44.098  27.394  28.686  1.00  0.00     0.167 HD
ATOM     50  C   UNL A   1      42.972  23.497  27.188  1.00  0.00     0.034 A 
ATOM     51  C   UNL A   1      45.794  29.591  28.470  1.00  0.00     0.034 A 
ATOM     52  C   UNL A   1      43.589  23.229  28.469  1.00  0.00     0.049 A 
ATOM     53  C   UNL A   1      46.415  28.251  28.567  1.00  0.00     0.074 A 
ATOM     54  C   UNL A   1      43.129  22.836  29.712  1.00  0.00     0.029 A 
ATOM     55  N   UNL A   1      44.859  23.718  28.685  1.00  0.00    -0.354 N 
ATOM     56  N   UNL A   1      46.540  27.600  29.690  1.00  0.00    -0.248 NA
ATOM     57  C   UNL A   1      46.498  27.430  27.367  1.00  0.00     0.031 C 
ATOM     58  C   UNL A   1      43.932  23.555  30.646  1.00  0.00     0.029 A 
ATOM     59  C   UNL A   1      44.886  24.284  29.933  1.00  0.00     0.049 A 
ATOM     60  H   UNL A   1      45.613  23.671  28.054  1.00  0.00     0.167 HD
ATOM     61  C   UNL A   1      46.264  26.281  29.370  1.00  0.00     0.074 A 
ATOM     62  C   UNL A   1      46.383  26.217  27.915  1.00  0.00     0.031 C 
ATOM     63  C   UNL A   1      45.686  25.443  30.282  1.00  0.00     0.034 A 
BRANCH  50  64
ATOM     64  C   UNL A   1      43.621  23.041  25.886  1.00  0.00     0.023 A 
ATOM     65  C   UNL A   1      43.684  21.650  25.665  1.00  0.00     0.031 A 
ATOM     66  C   UNL A   1      44.428  23.822  25.031  1.00  0.00     0.131 A 
ATOM     67  C   UNL A   1      44.620  21.093  24.774  1.00  0.00     0.055 A 
ATOM     68  C   UNL A   1      45.308  23.266  24.093  1.00  0.00     0.041 A 
ATOM     69  F   UNL A   1      44.481  25.156  25.092  1.00  0.00    -0.206 F 
ATOM     70  C   UNL A   1      45.442  21.894  23.992  1.00  0.00     0.022 A 
BRANCH  67  71
ATOM     71  S   UNL A   1      44.890  19.302  24.828  1.00  0.00     0.124 S 
ATOM     72  O   UNL A   1      46.175  19.226  25.515  1.00  0.00    -0.237 OA
ATOM     73  O   UNL A   1      43.725  18.848  25.582  1.00  0.00    -0.237 OA
ATOM     74  O   UNL A   1      44.910  18.922  23.418  1.00  0.00    -0.744 OA
ENDBRANCH  67  71
ENDBRANCH  50  64
BRANCH  51  75
ATOM     75  C   UNL A   1      46.421  30.760  27.797  1.00  0.00     0.023 A 
ATOM     76  C   UNL A   1      45.717  31.628  26.939  1.00  0.00     0.031 A 
ATOM     77  C   UNL A   1      47.722  31.160  28.181  1.00  0.00     0.131 A 
ATOM     78  C   UNL A   1      46.318  32.833  26.501  1.00  0.00     0.055 A 
ATOM     79  C   UNL A   1      48.312  32.345  27.740  1.00  0.00     0.041 A 
ATOM     80  F   UNL A   1      48.433  30.441  29.064  1.00  0.00    -0.206 F 
ATOM     81  C   UNL A   1      47.608  33.193  26.901  1.00  0.00     0.022 A 
BRANCH  78  82
ATOM     82  S   UNL A   1      45.389  33.999  25.452  1.00  0.00     0.124 S 
ATOM     83  O   UNL A   1      46.450  34.658  24.699  1.00  0.00    -0.237 OA
ATOM     84  O   UNL A   1      44.514  33.108  24.698  1.00  0.00    -0.237 OA
ATOM     85  O   UNL A   1      44.702  34.857  26.418  1.00  0.00    -0.744 OA
ENDBRANCH  78  82
ENDBRANCH  51  75
BRANCH  63  86
ATOM     86  C   UNL A   1      45.688  25.858  31.740  1.00  0.00     0.023 A 
ATOM     87  C   UNL A   1      44.555  26.298  32.461  1.00  0.00     0.031 A 
ATOM     88  C   UNL A   1      46.888  25.684  32.453  1.00  0.00     0.131 A 
ATOM     89  C   UNL A   1      44.656  26.556  33.843  1.00  0.00     0.055 A 
ATOM     90  C   UNL A   1      46.979  25.921  33.823  1.00  0.00     0.041 A 
ATOM     91  F   UNL A   1      47.993  25.240  31.829  1.00  0.00    -0.206 F 
ATOM     92  C   UNL A   1      45.864  26.365  34.522  1.00  0.00     0.022 A 
BRANCH  89  93
ATOM     93  S   UNL A   1      43.219  27.164  34.784  1.00  0.00     0.124 S 
ATOM     94  O   UNL A   1      42.740  25.980  35.485  1.00  0.00    -0.237 OA
ATOM     95  O   UNL A   1      43.807  28.208  35.619  1.00  0.00    -0.237 OA
ATOM     96  O   UNL A   1      42.317  27.661  33.742  1.00  0.00    -0.744 OA
ENDBRANCH  89  93
ENDBRANCH  63  86
ENDBRANCH  37  38
ENDBRANCH  29  32
ENDBRANCH  27  28
ENDBRANCH  26  27
ENDBRANCH   1  26
TORSDOF 17
ENDMDL
