MODEL 1
REMARK VINA RESULT:     -12.0      0.000      0.000
REMARK SMILES C[C@H](O)[C@H](C)[N@H+]1Cc2ccccc2C[C@@H]1C(=O)NCCCCNC(=O)c1ccc(-c2c3nc(c(-c4cc(S(=O)(=O)[O-])ccc4F)c4ccc([nH]4)c(-c4cc(S(=O)(=O)[O-])ccc4F)c4nc(c(-c5cc(S(=O)(=O)[O-])ccc5F)c5ccc2[nH]5)C=C4)C=C3)cc1
REMARK SMILES IDX 20 1 19 2 18 3 16 4 17 5 15 7 6 8 7 9 8 11 14 12 9 13 13 14
REMARK SMILES IDX 10 15 12 16 11 17 4 18 5 19 2 20 1 21 3 22 21 24 22 25 23 26
REMARK SMILES IDX 24 27 25 29 26 30 27 31 88 32 28 33 87 34 29 35 30 36 31 37
REMARK SMILES IDX 81 38 32 39 86 40 80 41 82 42 33 43 85 44 79 45 78 46 34 48
REMARK SMILES IDX 66 49 46 50 65 51 47 52 50 53 64 54 83 55 48 56 49 57 63 59
REMARK SMILES IDX 84 60 51 61 35 62 36 63 44 64 37 65 43 66 45 67 42 68 38 69
REMARK SMILES IDX 39 70 40 71 41 72 67 73 68 74 76 75 69 76 75 77 77 78 74 79
REMARK SMILES IDX 70 80 71 81 72 82 73 83 52 84 53 85 61 86 54 87 60 88 62 89
REMARK SMILES IDX 59 90 55 91 56 92 57 93 58 94
REMARK H PARENT 18 6 6 10 3 23 23 28 82 47 50 58
REMARK Flexibility Score: inf
ROOT
ATOM      1  C   UNL A   1      31.922  30.626  26.305  1.00  0.00     0.023 C 
ENDROOT
BRANCH   1   2
ATOM      2  C   UNL A   1      32.735  29.736  27.246  1.00  0.00     0.116 C 
BRANCH   2   3
ATOM      3  N   UNL A   1      32.024  28.505  27.528  1.00  0.00    -0.351 N 
ATOM      4  C   UNL A   1      31.903  27.369  26.775  1.00  0.00     0.278 C 
ATOM      5  O   UNL A   1      31.071  26.538  27.149  1.00  0.00    -0.268 OA
ATOM      6  H   UNL A   1      31.558  28.482  28.395  1.00  0.00     0.163 HD
BRANCH   4   7
ATOM      7  C   UNL A   1      32.824  27.173  25.540  1.00  0.00     0.279 C 
ATOM      8  N   UNL A   1      31.988  27.076  24.319  1.00  0.00    -0.316 N 
ATOM      9  C   UNL A   1      31.708  25.707  23.855  1.00  0.00     0.300 C 
ATOM     10  H   UNL A   1      31.058  27.369  24.621  1.00  0.00     0.349 HD
ATOM     11  C   UNL A   1      31.958  24.585  24.840  1.00  0.00     0.010 A 
ATOM     12  C   UNL A   1      33.765  25.984  25.810  1.00  0.00     0.111 C 
ATOM     13  C   UNL A   1      31.211  23.401  24.784  1.00  0.00     0.010 A 
ATOM     14  C   UNL A   1      33.004  24.691  25.766  1.00  0.00    -0.033 A 
ATOM     15  C   UNL A   1      31.497  22.346  25.651  1.00  0.00     0.001 A 
ATOM     16  C   UNL A   1      33.301  23.626  26.621  1.00  0.00     0.004 A 
ATOM     17  C   UNL A   1      32.542  22.457  26.566  1.00  0.00     0.000 A 
BRANCH   8  18
ATOM     18  C   UNL A   1      32.324  28.073  23.283  1.00  0.00     0.210 C 
ATOM     19  C   UNL A   1      33.004  27.473  22.041  1.00  0.00     0.078 C 
BRANCH  18  20
ATOM     20  C   UNL A   1      31.181  29.081  22.927  1.00  0.00     0.169 C 
ATOM     21  C   UNL A   1      29.783  28.503  22.773  1.00  0.00     0.045 C 
BRANCH  20  22
ATOM     22  O   UNL A   1      31.485  29.764  21.702  1.00  0.00    -0.387 OA
ATOM     23  H   UNL A   1      32.212  29.309  21.249  1.00  0.00     0.211 HD
ENDBRANCH  20  22
ENDBRANCH  18  20
ENDBRANCH   8  18
ENDBRANCH   4   7
ENDBRANCH   2   3
ENDBRANCH   1   2
BRANCH   1  24
ATOM     24  C   UNL A   1      31.643  32.031  26.849  1.00  0.00     0.023 C 
BRANCH  24  25
ATOM     25  C   UNL A   1      32.861  32.768  27.398  1.00  0.00     0.116 C 
BRANCH  25  26
ATOM     26  N   UNL A   1      32.578  34.156  27.725  1.00  0.00    -0.352 N 
ATOM     27  C   UNL A   1      33.153  34.952  28.686  1.00  0.00     0.251 C 
ATOM     28  H   UNL A   1      31.877  34.586  27.182  1.00  0.00     0.163 HD
ATOM     29  O   UNL A   1      32.678  36.060  28.918  1.00  0.00    -0.269 OA
BRANCH  27  30
ATOM     30  C   UNL A   1      34.312  34.453  29.458  1.00  0.00     0.039 A 
ATOM     31  C   UNL A   1      34.084  33.808  30.676  1.00  0.00     0.014 A 
ATOM     32  C   UNL A   1      35.616  34.606  28.979  1.00  0.00     0.014 A 
ATOM     33  C   UNL A   1      35.157  33.258  31.380  1.00  0.00     0.010 A 
ATOM     34  C   UNL A   1      36.675  33.994  29.646  1.00  0.00     0.010 A 
ATOM     35  C   UNL A   1      36.459  33.312  30.853  1.00  0.00    -0.014 A 
BRANCH  35  36
ATOM     36  C   UNL A   1      37.601  32.668  31.556  1.00  0.00     0.031 A 
ATOM     37  C   UNL A   1      38.317  31.503  30.923  1.00  0.00     0.074 A 
ATOM     38  C   UNL A   1      37.965  33.100  32.780  1.00  0.00     0.049 A 
ATOM     39  N   UNL A   1      39.288  30.768  31.402  1.00  0.00    -0.248 NA
ATOM     40  C   UNL A   1      37.863  31.100  29.583  1.00  0.00     0.031 C 
ATOM     41  C   UNL A   1      37.333  34.200  33.511  1.00  0.00     0.029 A 
ATOM     42  N   UNL A   1      38.955  32.669  33.628  1.00  0.00    -0.354 N 
ATOM     43  C   UNL A   1      39.561  29.818  30.425  1.00  0.00     0.074 A 
ATOM     44  C   UNL A   1      38.603  30.025  29.360  1.00  0.00     0.031 C 
ATOM     45  C   UNL A   1      37.970  34.377  34.679  1.00  0.00     0.029 A 
ATOM     46  C   UNL A   1      39.023  33.375  34.807  1.00  0.00     0.049 A 
ATOM     47  H   UNL A   1      39.560  31.923  33.413  1.00  0.00     0.167 HD
ATOM     48  C   UNL A   1      40.541  28.878  30.402  1.00  0.00     0.034 A 
ATOM     49  C   UNL A   1      39.837  33.227  35.872  1.00  0.00     0.034 A 
ATOM     50  C   UNL A   1      41.491  28.680  31.469  1.00  0.00     0.049 A 
ATOM     51  C   UNL A   1      40.885  32.141  35.843  1.00  0.00     0.074 A 
ATOM     52  C   UNL A   1      42.526  27.764  31.545  1.00  0.00     0.029 A 
ATOM     53  N   UNL A   1      41.525  29.412  32.649  1.00  0.00    -0.354 N 
ATOM     54  N   UNL A   1      41.146  31.268  34.897  1.00  0.00    -0.248 NA
ATOM     55  C   UNL A   1      41.758  32.033  37.018  1.00  0.00     0.031 C 
ATOM     56  C   UNL A   1      43.146  27.903  32.792  1.00  0.00     0.029 A 
ATOM     57  C   UNL A   1      42.552  28.958  33.463  1.00  0.00     0.049 A 
ATOM     58  H   UNL A   1      40.910  30.147  32.875  1.00  0.00     0.167 HD
ATOM     59  C   UNL A   1      42.247  30.542  35.347  1.00  0.00     0.074 A 
ATOM     60  C   UNL A   1      42.605  31.089  36.638  1.00  0.00     0.031 C 
ATOM     61  C   UNL A   1      42.906  29.519  34.745  1.00  0.00     0.034 A 
BRANCH  48  62
ATOM     62  C   UNL A   1      40.618  27.989  29.183  1.00  0.00     0.023 A 
ATOM     63  C   UNL A   1      41.522  28.255  28.138  1.00  0.00     0.031 A 
ATOM     64  C   UNL A   1      39.771  26.875  29.051  1.00  0.00     0.131 A 
ATOM     65  C   UNL A   1      41.508  27.464  26.980  1.00  0.00     0.055 A 
ATOM     66  C   UNL A   1      39.821  26.041  27.931  1.00  0.00     0.041 A 
ATOM     67  F   UNL A   1      38.872  26.582  30.004  1.00  0.00    -0.206 F 
ATOM     68  C   UNL A   1      40.683  26.342  26.881  1.00  0.00     0.022 A 
BRANCH  65  69
ATOM     69  S   UNL A   1      42.485  28.006  25.551  1.00  0.00     0.124 S 
ATOM     70  O   UNL A   1      42.491  26.799  24.726  1.00  0.00    -0.237 OA
ATOM     71  O   UNL A   1      41.703  29.125  25.040  1.00  0.00    -0.237 OA
ATOM     72  O   UNL A   1      43.777  28.360  26.134  1.00  0.00    -0.744 OA
ENDBRANCH  65  69
ENDBRANCH  48  62
BRANCH  49  73
ATOM     73  C   UNL A   1      39.710  34.119  37.064  1.00  0.00     0.023 A 
ATOM     74  C   UNL A   1      39.167  33.637  38.266  1.00  0.00     0.031 A 
ATOM     75  C   UNL A   1      40.051  35.481  36.996  1.00  0.00     0.131 A 
ATOM     76  C   UNL A   1      38.911  34.523  39.325  1.00  0.00     0.055 A 
ATOM     77  C   UNL A   1      39.856  36.344  38.076  1.00  0.00     0.041 A 
ATOM     78  F   UNL A   1      40.577  35.995  35.873  1.00  0.00    -0.206 F 
ATOM     79  C   UNL A   1      39.264  35.870  39.243  1.00  0.00     0.022 A 
BRANCH  76  80
ATOM     80  S   UNL A   1      37.990  33.909  40.762  1.00  0.00     0.124 S 
ATOM     81  O   UNL A   1      37.411  35.140  41.289  1.00  0.00    -0.237 OA
ATOM     82  O   UNL A   1      37.056  32.973  40.145  1.00  0.00    -0.237 OA
ATOM     83  O   UNL A   1      39.026  33.299  41.593  1.00  0.00    -0.744 OA
ENDBRANCH  76  80
ENDBRANCH  49  73
BRANCH  61  84
ATOM     84  C   UNL A   1      44.130  28.982  35.449  1.00  0.00     0.023 A 
ATOM     85  C   UNL A   1      44.054  27.946  36.396  1.00  0.00     0.031 A 
ATOM     86  C   UNL A   1      45.394  29.541  35.183  1.00  0.00     0.131 A 
ATOM     87  C   UNL A   1      45.205  27.550  37.093  1.00  0.00     0.055 A 
ATOM     88  C   UNL A   1      46.547  29.096  35.831  1.00  0.00     0.041 A 
ATOM     89  F   UNL A   1      45.528  30.534  34.290  1.00  0.00    -0.206 F 
ATOM     90  C   UNL A   1      46.453  28.106  36.804  1.00  0.00     0.022 A 
BRANCH  87  91
ATOM     91  S   UNL A   1      45.032  26.372  38.462  1.00  0.00     0.124 S 
ATOM     92  O   UNL A   1      43.636  26.558  38.848  1.00  0.00    -0.237 OA
ATOM     93  O   UNL A   1      45.352  25.101  37.822  1.00  0.00    -0.237 OA
ATOM     94  O   UNL A   1      46.013  26.837  39.442  1.00  0.00    -0.744 OA
ENDBRANCH  87  91
ENDBRANCH  61  84
ENDBRANCH  35  36
ENDBRANCH  27  30
ENDBRANCH  25  26
ENDBRANCH  24  25
ENDBRANCH   1  24
TORSDOF 17
ENDMDL
MODEL 2
REMARK VINA RESULT:     -11.9      2.695      8.054
REMARK SMILES C[C@H](O)[C@H](C)[N@H+]1Cc2ccccc2C[C@@H]1C(=O)NCCCCNC(=O)c1ccc(-c2c3nc(c(-c4cc(S(=O)(=O)[O-])ccc4F)c4ccc([nH]4)c(-c4cc(S(=O)(=O)[O-])ccc4F)c4nc(c(-c5cc(S(=O)(=O)[O-])ccc5F)c5ccc2[nH]5)C=C4)C=C3)cc1
REMARK SMILES IDX 20 1 19 2 18 3 16 4 17 5 15 7 6 8 7 9 8 11 14 12 9 13 13 14
REMARK SMILES IDX 10 15 12 16 11 17 4 18 5 19 2 20 1 21 3 22 21 24 22 25 23 26
REMARK SMILES IDX 24 27 25 29 26 30 27 31 88 32 28 33 87 34 29 35 30 36 31 37
REMARK SMILES IDX 81 38 32 39 86 40 80 41 82 42 33 43 85 44 79 45 78 46 34 48
REMARK SMILES IDX 66 49 46 50 65 51 47 52 50 53 64 54 83 55 48 56 49 57 63 59
REMARK SMILES IDX 84 60 51 61 35 62 36 63 44 64 37 65 43 66 45 67 42 68 38 69
REMARK SMILES IDX 39 70 40 71 41 72 67 73 68 74 76 75 69 76 75 77 77 78 74 79
REMARK SMILES IDX 70 80 71 81 72 82 73 83 52 84 53 85 61 86 54 87 60 88 62 89
REMARK SMILES IDX 59 90 55 91 56 92 57 93 58 94
REMARK H PARENT 18 6 6 10 3 23 23 28 82 47 50 58
REMARK Flexibility Score: inf
ROOT
ATOM      1  C   UNL A   1      31.487  27.785  26.902  1.00  0.00     0.023 C 
ENDROOT
BRANCH   1   2
ATOM      2  C   UNL A   1      30.696  26.544  26.492  1.00  0.00     0.116 C 
BRANCH   2   3
ATOM      3  N   UNL A   1      31.437  25.338  26.804  1.00  0.00    -0.351 N 
ATOM      4  C   UNL A   1      32.326  24.632  26.041  1.00  0.00     0.278 C 
ATOM      5  O   UNL A   1      32.664  23.522  26.461  1.00  0.00    -0.268 OA
ATOM      6  H   UNL A   1      31.276  24.970  27.703  1.00  0.00     0.163 HD
BRANCH   4   7
ATOM      7  C   UNL A   1      32.881  25.267  24.736  1.00  0.00     0.279 C 
ATOM      8  N   UNL A   1      32.508  24.412  23.583  1.00  0.00    -0.316 N 
ATOM      9  C   UNL A   1      33.552  23.481  23.125  1.00  0.00     0.300 C 
ATOM     10  H   UNL A   1      31.821  23.759  23.958  1.00  0.00     0.349 HD
ATOM     11  C   UNL A   1      34.702  23.222  24.076  1.00  0.00     0.010 A 
ATOM     12  C   UNL A   1      34.387  25.535  24.919  1.00  0.00     0.111 C 
ATOM     13  C   UNL A   1      35.381  21.996  24.064  1.00  0.00     0.010 A 
ATOM     14  C   UNL A   1      35.154  24.245  24.919  1.00  0.00    -0.033 A 
ATOM     15  C   UNL A   1      36.484  21.792  24.894  1.00  0.00     0.001 A 
ATOM     16  C   UNL A   1      36.271  24.046  25.737  1.00  0.00     0.004 A 
ATOM     17  C   UNL A   1      36.930  22.817  25.727  1.00  0.00     0.000 A 
BRANCH   8  18
ATOM     18  C   UNL A   1      31.746  25.121  22.535  1.00  0.00     0.210 C 
ATOM     19  C   UNL A   1      30.700  26.105  23.085  1.00  0.00     0.078 C 
BRANCH  18  20
ATOM     20  C   UNL A   1      32.606  25.727  21.376  1.00  0.00     0.169 C 
ATOM     21  C   UNL A   1      33.324  27.034  21.669  1.00  0.00     0.045 C 
BRANCH  20  22
ATOM     22  O   UNL A   1      31.789  25.952  20.217  1.00  0.00    -0.387 OA
ATOM     23  H   UNL A   1      30.901  26.226  20.496  1.00  0.00     0.211 HD
ENDBRANCH  20  22
ENDBRANCH  18  20
ENDBRANCH   8  18
ENDBRANCH   4   7
ENDBRANCH   2   3
ENDBRANCH   1   2
BRANCH   1  24
ATOM     24  C   UNL A   1      31.603  28.851  25.807  1.00  0.00     0.023 C 
BRANCH  24  25
ATOM     25  C   UNL A   1      32.863  29.709  25.866  1.00  0.00     0.116 C 
BRANCH  25  26
ATOM     26  N   UNL A   1      32.594  31.074  26.288  1.00  0.00    -0.352 N 
ATOM     27  C   UNL A   1      33.257  31.837  27.219  1.00  0.00     0.251 C 
ATOM     28  H   UNL A   1      31.831  31.513  25.845  1.00  0.00     0.163 HD
ATOM     29  O   UNL A   1      32.792  32.922  27.555  1.00  0.00    -0.269 OA
BRANCH  27  30
ATOM     30  C   UNL A   1      34.501  31.327  27.837  1.00  0.00     0.039 A 
ATOM     31  C   UNL A   1      35.575  32.203  28.013  1.00  0.00     0.014 A 
ATOM     32  C   UNL A   1      34.606  29.997  28.255  1.00  0.00     0.014 A 
ATOM     33  C   UNL A   1      36.728  31.764  28.667  1.00  0.00     0.010 A 
ATOM     34  C   UNL A   1      35.726  29.582  28.971  1.00  0.00     0.010 A 
ATOM     35  C   UNL A   1      36.800  30.460  29.187  1.00  0.00    -0.014 A 
BRANCH  35  36
ATOM     36  C   UNL A   1      37.991  30.000  29.949  1.00  0.00     0.031 A 
ATOM     37  C   UNL A   1      38.255  30.533  31.333  1.00  0.00     0.074 A 
ATOM     38  C   UNL A   1      38.859  29.139  29.381  1.00  0.00     0.049 A 
ATOM     39  N   UNL A   1      39.267  30.308  32.130  1.00  0.00    -0.248 NA
ATOM     40  C   UNL A   1      37.255  31.463  31.882  1.00  0.00     0.031 C 
ATOM     41  C   UNL A   1      38.731  28.572  28.037  1.00  0.00     0.029 A 
ATOM     42  N   UNL A   1      40.023  28.587  29.860  1.00  0.00    -0.354 N 
ATOM     43  C   UNL A   1      39.029  31.063  33.272  1.00  0.00     0.074 A 
ATOM     44  C   UNL A   1      37.812  31.811  33.031  1.00  0.00     0.031 C 
ATOM     45  C   UNL A   1      39.753  27.731  27.814  1.00  0.00     0.029 A 
ATOM     46  C   UNL A   1      40.638  27.733  28.974  1.00  0.00     0.049 A 
ATOM     47  H   UNL A   1      40.382  28.785  30.755  1.00  0.00     0.167 HD
ATOM     48  C   UNL A   1      39.739  31.108  34.428  1.00  0.00     0.034 A 
ATOM     49  C   UNL A   1      41.788  27.037  29.083  1.00  0.00     0.034 A 
ATOM     50  C   UNL A   1      40.950  30.358  34.656  1.00  0.00     0.049 A 
ATOM     51  C   UNL A   1      42.586  27.144  30.360  1.00  0.00     0.074 A 
ATOM     52  C   UNL A   1      41.743  30.324  35.791  1.00  0.00     0.029 A 
ATOM     53  N   UNL A   1      41.545  29.508  33.733  1.00  0.00    -0.354 N 
ATOM     54  N   UNL A   1      42.329  27.844  31.440  1.00  0.00    -0.248 NA
ATOM     55  C   UNL A   1      43.821  26.352  30.435  1.00  0.00     0.031 C 
ATOM     56  C   UNL A   1      42.846  29.501  35.533  1.00  0.00     0.029 A 
ATOM     57  C   UNL A   1      42.701  28.957  34.267  1.00  0.00     0.049 A 
ATOM     58  H   UNL A   1      41.197  29.321  32.831  1.00  0.00     0.167 HD
ATOM     59  C   UNL A   1      43.346  27.534  32.341  1.00  0.00     0.074 A 
ATOM     60  C   UNL A   1      44.208  26.578  31.682  1.00  0.00     0.031 C 
ATOM     61  C   UNL A   1      43.547  27.995  33.603  1.00  0.00     0.034 A 
BRANCH  48  62
ATOM     62  C   UNL A   1      39.221  32.009  35.524  1.00  0.00     0.023 A 
ATOM     63  C   UNL A   1      39.662  33.339  35.649  1.00  0.00     0.031 A 
ATOM     64  C   UNL A   1      38.294  31.533  36.467  1.00  0.00     0.131 A 
ATOM     65  C   UNL A   1      39.232  34.123  36.729  1.00  0.00     0.055 A 
ATOM     66  C   UNL A   1      37.805  32.347  37.493  1.00  0.00     0.041 A 
ATOM     67  F   UNL A   1      37.853  30.267  36.415  1.00  0.00    -0.206 F 
ATOM     68  C   UNL A   1      38.284  33.645  37.636  1.00  0.00     0.022 A 
BRANCH  65  69
ATOM     69  S   UNL A   1      40.034  35.725  37.009  1.00  0.00     0.124 S 
ATOM     70  O   UNL A   1      39.647  36.461  35.807  1.00  0.00    -0.237 OA
ATOM     71  O   UNL A   1      39.423  36.171  38.256  1.00  0.00    -0.237 OA
ATOM     72  O   UNL A   1      41.453  35.387  37.095  1.00  0.00    -0.744 OA
ENDBRANCH  65  69
ENDBRANCH  48  62
BRANCH  49  73
ATOM     73  C   UNL A   1      42.270  26.174  27.964  1.00  0.00     0.023 A 
ATOM     74  C   UNL A   1      41.750  24.882  27.778  1.00  0.00     0.031 A 
ATOM     75  C   UNL A   1      43.312  26.590  27.117  1.00  0.00     0.131 A 
ATOM     76  C   UNL A   1      42.320  24.027  26.822  1.00  0.00     0.055 A 
ATOM     77  C   UNL A   1      43.831  25.759  26.122  1.00  0.00     0.041 A 
ATOM     78  F   UNL A   1      43.845  27.815  27.247  1.00  0.00    -0.206 F 
ATOM     79  C   UNL A   1      43.348  24.461  25.984  1.00  0.00     0.022 A 
BRANCH  76  80
ATOM     80  S   UNL A   1      41.783  22.295  26.781  1.00  0.00     0.124 S 
ATOM     81  O   UNL A   1      40.396  22.405  27.219  1.00  0.00    -0.237 OA
ATOM     82  O   UNL A   1      41.986  21.949  25.378  1.00  0.00    -0.237 OA
ATOM     83  O   UNL A   1      42.687  21.637  27.722  1.00  0.00    -0.744 OA
ENDBRANCH  76  80
ENDBRANCH  49  73
BRANCH  61  84
ATOM     84  C   UNL A   1      44.704  27.405  34.373  1.00  0.00     0.023 A 
ATOM     85  C   UNL A   1      44.556  26.273  35.194  1.00  0.00     0.031 A 
ATOM     86  C   UNL A   1      45.974  28.007  34.304  1.00  0.00     0.131 A 
ATOM     87  C   UNL A   1      45.637  25.821  35.964  1.00  0.00     0.055 A 
ATOM     88  C   UNL A   1      47.064  27.512  35.021  1.00  0.00     0.041 A 
ATOM     89  F   UNL A   1      46.176  29.091  33.538  1.00  0.00    -0.206 F 
ATOM     90  C   UNL A   1      46.894  26.422  35.870  1.00  0.00     0.022 A 
BRANCH  87  91
ATOM     91  S   UNL A   1      45.351  24.503  37.177  1.00  0.00     0.124 S 
ATOM     92  O   UNL A   1      45.392  23.306  36.342  1.00  0.00    -0.237 OA
ATOM     93  O   UNL A   1      46.472  24.676  38.095  1.00  0.00    -0.237 OA
ATOM     94  O   UNL A   1      44.038  24.827  37.734  1.00  0.00    -0.744 OA
ENDBRANCH  87  91
ENDBRANCH  61  84
ENDBRANCH  35  36
ENDBRANCH  27  30
ENDBRANCH  25  26
ENDBRANCH  24  25
ENDBRANCH   1  24
TORSDOF 17
ENDMDL
MODEL 3
REMARK VINA RESULT:     -11.9      1.798      7.835
REMARK SMILES C[C@H](O)[C@H](C)[N@H+]1Cc2ccccc2C[C@@H]1C(=O)NCCCCNC(=O)c1ccc(-c2c3nc(c(-c4cc(S(=O)(=O)[O-])ccc4F)c4ccc([nH]4)c(-c4cc(S(=O)(=O)[O-])ccc4F)c4nc(c(-c5cc(S(=O)(=O)[O-])ccc5F)c5ccc2[nH]5)C=C4)C=C3)cc1
REMARK SMILES IDX 20 1 19 2 18 3 16 4 17 5 15 7 6 8 7 9 8 11 14 12 9 13 13 14
REMARK SMILES IDX 10 15 12 16 11 17 4 18 5 19 2 20 1 21 3 22 21 24 22 25 23 26
REMARK SMILES IDX 24 27 25 29 26 30 27 31 88 32 28 33 87 34 29 35 30 36 31 37
REMARK SMILES IDX 81 38 32 39 86 40 80 41 82 42 33 43 85 44 79 45 78 46 34 48
REMARK SMILES IDX 66 49 46 50 65 51 47 52 50 53 64 54 83 55 48 56 49 57 63 59
REMARK SMILES IDX 84 60 51 61 35 62 36 63 44 64 37 65 43 66 45 67 42 68 38 69
REMARK SMILES IDX 39 70 40 71 41 72 67 73 68 74 76 75 69 76 75 77 77 78 74 79
REMARK SMILES IDX 70 80 71 81 72 82 73 83 52 84 53 85 61 86 54 87 60 88 62 89
REMARK SMILES IDX 59 90 55 91 56 92 57 93 58 94
REMARK H PARENT 18 6 6 10 3 23 23 28 82 47 50 58
REMARK Flexibility Score: inf
ROOT
ATOM      1  C   UNL A   1      31.632  30.237  25.828  1.00  0.00     0.023 C 
ENDROOT
BRANCH   1   2
ATOM      2  C   UNL A   1      32.598  29.295  26.544  1.00  0.00     0.116 C 
BRANCH   2   3
ATOM      3  N   UNL A   1      31.922  28.079  26.949  1.00  0.00    -0.351 N 
ATOM      4  C   UNL A   1      31.808  26.879  26.301  1.00  0.00     0.278 C 
ATOM      5  O   UNL A   1      31.004  26.067  26.766  1.00  0.00    -0.268 OA
ATOM      6  H   UNL A   1      31.476  28.122  27.826  1.00  0.00     0.163 HD
BRANCH   4   7
ATOM      7  C   UNL A   1      32.706  26.595  25.065  1.00  0.00     0.279 C 
ATOM      8  N   UNL A   1      31.874  26.015  23.983  1.00  0.00    -0.316 N 
ATOM      9  C   UNL A   1      31.913  24.547  23.876  1.00  0.00     0.300 C 
ATOM     10  H   UNL A   1      30.912  26.158  24.293  1.00  0.00     0.349 HD
ATOM     11  C   UNL A   1      32.458  23.789  25.067  1.00  0.00     0.010 A 
ATOM     12  C   UNL A   1      33.913  25.750  25.515  1.00  0.00     0.111 C 
ATOM     13  C   UNL A   1      32.015  22.491  25.356  1.00  0.00     0.010 A 
ATOM     14  C   UNL A   1      33.481  24.350  25.842  1.00  0.00    -0.033 A 
ATOM     15  C   UNL A   1      32.575  21.774  26.414  1.00  0.00     0.001 A 
ATOM     16  C   UNL A   1      34.055  23.623  26.890  1.00  0.00     0.004 A 
ATOM     17  C   UNL A   1      33.595  22.338  27.177  1.00  0.00     0.000 A 
BRANCH   8  18
ATOM     18  C   UNL A   1      31.925  26.774  22.717  1.00  0.00     0.210 C 
ATOM     19  C   UNL A   1      31.200  28.129  22.774  1.00  0.00     0.078 C 
BRANCH  18  20
ATOM     20  C   UNL A   1      33.337  26.863  22.047  1.00  0.00     0.169 C 
ATOM     21  C   UNL A   1      33.994  28.233  22.017  1.00  0.00     0.045 C 
BRANCH  20  22
ATOM     22  O   UNL A   1      33.271  26.405  20.688  1.00  0.00    -0.387 OA
ATOM     23  H   UNL A   1      32.479  25.857  20.569  1.00  0.00     0.211 HD
ENDBRANCH  20  22
ENDBRANCH  18  20
ENDBRANCH   8  18
ENDBRANCH   4   7
ENDBRANCH   2   3
ENDBRANCH   1   2
BRANCH   1  24
ATOM     24  C   UNL A   1      31.450  31.596  26.513  1.00  0.00     0.023 C 
BRANCH  24  25
ATOM     25  C   UNL A   1      32.744  32.295  26.922  1.00  0.00     0.116 C 
BRANCH  25  26
ATOM     26  N   UNL A   1      32.526  33.658  27.378  1.00  0.00    -0.352 N 
ATOM     27  C   UNL A   1      33.152  34.338  28.395  1.00  0.00     0.251 C 
ATOM     28  H   UNL A   1      31.836  34.164  26.891  1.00  0.00     0.163 HD
ATOM     29  O   UNL A   1      32.729  35.440  28.736  1.00  0.00    -0.269 OA
BRANCH  27  30
ATOM     30  C   UNL A   1      34.302  33.723  29.094  1.00  0.00     0.039 A 
ATOM     31  C   UNL A   1      34.072  32.641  29.948  1.00  0.00     0.014 A 
ATOM     32  C   UNL A   1      35.601  34.199  28.900  1.00  0.00     0.014 A 
ATOM     33  C   UNL A   1      35.152  31.995  30.553  1.00  0.00     0.010 A 
ATOM     34  C   UNL A   1      36.681  33.509  29.446  1.00  0.00     0.010 A 
ATOM     35  C   UNL A   1      36.470  32.399  30.279  1.00  0.00    -0.014 A 
BRANCH  35  36
ATOM     36  C   UNL A   1      37.633  31.675  30.858  1.00  0.00     0.031 A 
ATOM     37  C   UNL A   1      38.104  31.996  32.253  1.00  0.00     0.074 A 
ATOM     38  C   UNL A   1      38.293  30.764  30.116  1.00  0.00     0.049 A 
ATOM     39  N   UNL A   1      39.133  31.525  32.909  1.00  0.00    -0.248 NA
ATOM     40  C   UNL A   1      37.324  32.997  32.998  1.00  0.00     0.031 C 
ATOM     41  C   UNL A   1      37.953  30.385  28.742  1.00  0.00     0.029 A 
ATOM     42  N   UNL A   1      39.388  29.988  30.408  1.00  0.00    -0.354 N 
ATOM     43  C   UNL A   1      39.125  32.169  34.141  1.00  0.00     0.074 A 
ATOM     44  C   UNL A   1      38.032  33.118  34.110  1.00  0.00     0.031 C 
ATOM     45  C   UNL A   1      38.799  29.429  28.326  1.00  0.00     0.029 A 
ATOM     46  C   UNL A   1      39.772  29.159  29.379  1.00  0.00     0.049 A 
ATOM     47  H   UNL A   1      39.854  30.022  31.275  1.00  0.00     0.167 HD
ATOM     48  C   UNL A   1      39.934  31.968  35.212  1.00  0.00     0.034 A 
ATOM     49  C   UNL A   1      40.797  28.287  29.292  1.00  0.00     0.034 A 
ATOM     50  C   UNL A   1      41.021  31.019  35.232  1.00  0.00     0.049 A 
ATOM     51  C   UNL A   1      41.713  28.119  30.480  1.00  0.00     0.074 A 
ATOM     52  C   UNL A   1      41.896  30.731  36.265  1.00  0.00     0.029 A 
ATOM     53  N   UNL A   1      41.382  30.202  34.169  1.00  0.00    -0.354 N 
ATOM     54  N   UNL A   1      41.673  28.719  31.648  1.00  0.00    -0.248 NA
ATOM     55  C   UNL A   1      42.802  27.143  30.342  1.00  0.00     0.031 C 
ATOM     56  C   UNL A   1      42.821  29.784  35.808  1.00  0.00     0.029 A 
ATOM     57  C   UNL A   1      42.476  29.421  34.517  1.00  0.00     0.049 A 
ATOM     58  H   UNL A   1      40.929  30.178  33.295  1.00  0.00     0.167 HD
ATOM     59  C   UNL A   1      42.702  28.153  32.398  1.00  0.00     0.074 A 
ATOM     60  C   UNL A   1      43.332  27.159  31.556  1.00  0.00     0.031 C 
ATOM     61  C   UNL A   1      43.089  28.426  33.671  1.00  0.00     0.034 A 
BRANCH  48  62
ATOM     62  C   UNL A   1      39.673  32.803  36.444  1.00  0.00     0.023 A 
ATOM     63  C   UNL A   1      38.832  32.345  37.474  1.00  0.00     0.031 A 
ATOM     64  C   UNL A   1      40.252  34.075  36.585  1.00  0.00     0.131 A 
ATOM     65  C   UNL A   1      38.537  33.179  38.562  1.00  0.00     0.055 A 
ATOM     66  C   UNL A   1      40.021  34.867  37.713  1.00  0.00     0.041 A 
ATOM     67  F   UNL A   1      41.046  34.577  35.626  1.00  0.00    -0.206 F 
ATOM     68  C   UNL A   1      39.148  34.426  38.703  1.00  0.00     0.022 A 
BRANCH  65  69
ATOM     69  S   UNL A   1      37.237  32.666  39.719  1.00  0.00     0.124 S 
ATOM     70  O   UNL A   1      37.772  31.401  40.219  1.00  0.00    -0.237 OA
ATOM     71  O   UNL A   1      37.209  33.769  40.672  1.00  0.00    -0.237 OA
ATOM     72  O   UNL A   1      36.054  32.542  38.871  1.00  0.00    -0.744 OA
ENDBRANCH  65  69
ENDBRANCH  48  62
BRANCH  49  73
ATOM     73  C   UNL A   1      41.028  27.497  28.046  1.00  0.00     0.023 A 
ATOM     74  C   UNL A   1      40.722  26.127  27.997  1.00  0.00     0.031 A 
ATOM     75  C   UNL A   1      41.632  28.076  26.917  1.00  0.00     0.131 A 
ATOM     76  C   UNL A   1      41.087  25.366  26.875  1.00  0.00     0.055 A 
ATOM     77  C   UNL A   1      41.933  27.328  25.776  1.00  0.00     0.041 A 
ATOM     78  F   UNL A   1      41.945  29.381  26.906  1.00  0.00    -0.206 F 
ATOM     79  C   UNL A   1      41.678  25.960  25.759  1.00  0.00     0.022 A 
BRANCH  76  80
ATOM     80  S   UNL A   1      40.893  23.565  26.952  1.00  0.00     0.124 S 
ATOM     81  O   UNL A   1      41.803  23.124  25.900  1.00  0.00    -0.237 OA
ATOM     82  O   UNL A   1      41.307  23.275  28.321  1.00  0.00    -0.237 OA
ATOM     83  O   UNL A   1      39.472  23.364  26.676  1.00  0.00    -0.744 OA
ENDBRANCH  76  80
ENDBRANCH  49  73
BRANCH  61  84
ATOM     84  C   UNL A   1      44.197  27.578  34.249  1.00  0.00     0.023 A 
ATOM     85  C   UNL A   1      43.960  26.297  34.778  1.00  0.00     0.031 A 
ATOM     86  C   UNL A   1      45.512  28.077  34.294  1.00  0.00     0.131 A 
ATOM     87  C   UNL A   1      45.005  25.590  35.390  1.00  0.00     0.055 A 
ATOM     88  C   UNL A   1      46.561  27.340  34.845  1.00  0.00     0.041 A 
ATOM     89  F   UNL A   1      45.798  29.295  33.806  1.00  0.00    -0.206 F 
ATOM     90  C   UNL A   1      46.307  26.095  35.412  1.00  0.00     0.022 A 
BRANCH  87  91
ATOM     91  S   UNL A   1      44.618  24.045  36.259  1.00  0.00     0.124 S 
ATOM     92  O   UNL A   1      43.309  23.705  35.708  1.00  0.00    -0.237 OA
ATOM     93  O   UNL A   1      45.721  23.178  35.859  1.00  0.00    -0.237 OA
ATOM     94  O   UNL A   1      44.616  24.434  37.669  1.00  0.00    -0.744 OA
ENDBRANCH  87  91
ENDBRANCH  61  84
ENDBRANCH  35  36
ENDBRANCH  27  30
ENDBRANCH  25  26
ENDBRANCH  24  25
ENDBRANCH   1  24
TORSDOF 17
ENDMDL
