MODEL 1
REMARK VINA RESULT:     -11.1      0.000      0.000
REMARK SMILES CC(C)C[C@H](NC(=O)[C@H](Cc1ccccc1)NC(=O)CNC(=O)C[NH3+])C(=O)NCCCCNC(=O)c1ccc(-c2c3nc(c(-c4cc(S(=O)(=O)[O-])ccc4F)c4ccc([nH]4)c(-c4cc(S(=O)(=O)[O-])ccc4F)c4nc(c(-c5cc(S(=O)(=O)[O-])ccc5F)c5ccc2[nH]5)C=C4)C=C3)cc1
REMARK SMILES IDX 26 1 27 2 28 3 5 5 4 6 2 7 1 8 3 9 6 10 7 11 8 13 9 14 17 15
REMARK SMILES IDX 18 16 19 18 20 19 21 20 22 21 23 23 24 24 25 25 10 29 11 30
REMARK SMILES IDX 12 31 16 32 13 33 15 34 14 35 29 36 30 37 31 38 32 39 33 40
REMARK SMILES IDX 34 41 35 43 36 44 37 45 98 46 38 47 97 48 39 49 40 50 41 51
REMARK SMILES IDX 91 52 42 53 96 54 90 55 92 56 43 57 95 58 89 59 88 60 44 62
REMARK SMILES IDX 76 63 56 64 75 65 57 66 60 67 74 68 93 69 58 70 59 71 73 73
REMARK SMILES IDX 94 74 61 75 45 76 46 77 54 78 47 79 53 80 55 81 52 82 48 83
REMARK SMILES IDX 49 84 50 85 51 86 77 87 78 88 86 89 79 90 85 91 87 92 84 93
REMARK SMILES IDX 80 94 81 95 82 96 83 97 62 98 63 99 71 100 64 101 70 102
REMARK SMILES IDX 72 103 69 104 65 105 66 106 67 107 68 108
REMARK H PARENT 28 4 6 12 17 17 21 22 25 26 25 27 25 28 33 42 92 61 60 72
REMARK Flexibility Score: inf
ROOT
ATOM      1  C   UNL A   1      33.907  25.618  23.221  1.00  0.00     0.242 C 
ATOM      2  O   UNL A   1      33.759  25.993  22.048  1.00  0.00    -0.273 OA
ATOM      3  N   UNL A   1      33.999  26.632  24.120  1.00  0.00    -0.354 N 
ATOM      4  H   UNL A   1      34.145  27.499  23.678  1.00  0.00     0.163 HD
ENDROOT
BRANCH   1   5
ATOM      5  C   UNL A   1      34.129  24.094  23.491  1.00  0.00     0.171 C 
BRANCH   5   6
ATOM      6  C   UNL A   1      35.570  23.528  23.535  1.00  0.00     0.038 C 
BRANCH   6   7
ATOM      7  C   UNL A   1      36.176  22.691  24.700  1.00  0.00    -0.015 C 
ATOM      8  C   UNL A   1      37.278  21.699  24.380  1.00  0.00     0.007 C 
ATOM      9  C   UNL A   1      36.635  23.640  25.822  1.00  0.00     0.007 C 
ENDBRANCH   6   7
ENDBRANCH   5   6
BRANCH   5  10
ATOM     10  N   UNL A   1      33.017  23.230  23.078  1.00  0.00    -0.343 N 
ATOM     11  C   UNL A   1      32.272  22.266  23.684  1.00  0.00     0.243 C 
ATOM     12  H   UNL A   1      32.747  23.385  22.144  1.00  0.00     0.164 HD
ATOM     13  O   UNL A   1      31.260  21.877  23.094  1.00  0.00    -0.273 OA
BRANCH  11  14
ATOM     14  C   UNL A   1      32.673  21.666  25.041  1.00  0.00     0.175 C 
BRANCH  14  15
ATOM     15  N   UNL A   1      32.080  22.570  26.156  1.00  0.00    -0.342 N 
ATOM     16  C   UNL A   1      31.193  23.618  26.368  1.00  0.00     0.240 C 
ATOM     17  H   UNL A   1      32.474  22.308  27.019  1.00  0.00     0.164 HD
ATOM     18  O   UNL A   1      30.412  23.341  27.302  1.00  0.00    -0.273 OA
BRANCH  16  19
ATOM     19  C   UNL A   1      30.908  25.083  25.652  1.00  0.00     0.216 C 
BRANCH  19  20
ATOM     20  N   UNL A   1      29.755  25.483  24.797  1.00  0.00    -0.342 N 
ATOM     21  C   UNL A   1      29.434  26.521  23.956  1.00  0.00     0.275 C 
ATOM     22  H   UNL A   1      29.025  24.825  24.849  1.00  0.00     0.164 HD
ATOM     23  O   UNL A   1      28.235  26.674  23.683  1.00  0.00    -0.268 OA
BRANCH  21  24
ATOM     24  C   UNL A   1      30.449  27.564  23.459  1.00  0.00     0.360 C 
BRANCH  24  25
ATOM     25  N   UNL A   1      30.927  27.332  22.078  1.00  0.00    -0.350 N 
ATOM     26  H   UNL A   1      30.126  27.239  21.452  1.00  0.00     0.344 HD
ATOM     27  H   UNL A   1      31.482  26.477  22.049  1.00  0.00     0.344 HD
ATOM     28  H   UNL A   1      31.502  28.120  21.780  1.00  0.00     0.344 HD
ENDBRANCH  24  25
ENDBRANCH  21  24
ENDBRANCH  19  20
ENDBRANCH  16  19
ENDBRANCH  14  15
BRANCH  14  29
ATOM     29  C   UNL A   1      32.098  20.167  24.962  1.00  0.00     0.070 C 
BRANCH  29  30
ATOM     30  C   UNL A   1      33.021  19.026  24.529  1.00  0.00    -0.045 A 
ATOM     31  C   UNL A   1      32.497  17.782  24.150  1.00  0.00     0.004 A 
ATOM     32  C   UNL A   1      34.422  19.153  24.579  1.00  0.00     0.004 A 
ATOM     33  C   UNL A   1      33.333  16.665  24.007  1.00  0.00     0.000 A 
ATOM     34  C   UNL A   1      35.252  18.024  24.503  1.00  0.00     0.000 A 
ATOM     35  C   UNL A   1      34.700  16.773  24.246  1.00  0.00     0.000 A 
ENDBRANCH  29  30
ENDBRANCH  14  29
ENDBRANCH  11  14
ENDBRANCH   5  10
ENDBRANCH   1   5
BRANCH   3  36
ATOM     36  C   UNL A   1      33.940  26.768  25.558  1.00  0.00     0.116 C 
BRANCH  36  37
ATOM     37  C   UNL A   1      33.036  27.827  26.205  1.00  0.00     0.023 C 
BRANCH  37  38
ATOM     38  C   UNL A   1      33.554  29.254  26.508  1.00  0.00     0.023 C 
BRANCH  38  39
ATOM     39  C   UNL A   1      32.876  30.467  27.254  1.00  0.00     0.116 C 
BRANCH  39  40
ATOM     40  N   UNL A   1      33.629  31.676  27.614  1.00  0.00    -0.352 N 
ATOM     41  C   UNL A   1      34.968  31.921  27.954  1.00  0.00     0.251 C 
ATOM     42  H   UNL A   1      33.075  32.490  27.618  1.00  0.00     0.163 HD
ATOM     43  O   UNL A   1      35.347  33.050  28.116  1.00  0.00    -0.269 OA
BRANCH  41  44
ATOM     44  C   UNL A   1      35.888  30.792  28.237  1.00  0.00     0.039 A 
ATOM     45  C   UNL A   1      36.982  30.624  27.374  1.00  0.00     0.014 A 
ATOM     46  C   UNL A   1      35.781  30.018  29.380  1.00  0.00     0.014 A 
ATOM     47  C   UNL A   1      38.062  29.838  27.776  1.00  0.00     0.010 A 
ATOM     48  C   UNL A   1      36.896  29.333  29.834  1.00  0.00     0.010 A 
ATOM     49  C   UNL A   1      38.064  29.281  29.060  1.00  0.00    -0.014 A 
BRANCH  49  50
ATOM     50  C   UNL A   1      39.286  28.691  29.654  1.00  0.00     0.031 A 
ATOM     51  C   UNL A   1      39.940  29.369  30.820  1.00  0.00     0.074 A 
ATOM     52  C   UNL A   1      39.863  27.635  29.044  1.00  0.00     0.049 A 
ATOM     53  N   UNL A   1      41.094  29.126  31.379  1.00  0.00    -0.248 NA
ATOM     54  C   UNL A   1      39.212  30.508  31.402  1.00  0.00     0.031 C 
ATOM     55  C   UNL A   1      39.337  26.946  27.861  1.00  0.00     0.029 A 
ATOM     56  N   UNL A   1      41.026  26.962  29.320  1.00  0.00    -0.354 N 
ATOM     57  C   UNL A   1      41.247  30.101  32.358  1.00  0.00     0.074 A 
ATOM     58  C   UNL A   1      40.098  30.974  32.267  1.00  0.00     0.031 C 
ATOM     59  C   UNL A   1      40.154  25.933  27.536  1.00  0.00     0.029 A 
ATOM     60  C   UNL A   1      41.289  25.929  28.450  1.00  0.00     0.049 A 
ATOM     61  H   UNL A   1      41.618  27.198  30.070  1.00  0.00     0.167 HD
ATOM     62  C   UNL A   1      42.249  30.237  33.261  1.00  0.00     0.034 A 
ATOM     63  C   UNL A   1      42.335  25.081  28.396  1.00  0.00     0.034 A 
ATOM     64  C   UNL A   1      43.371  29.335  33.333  1.00  0.00     0.049 A 
ATOM     65  C   UNL A   1      43.424  25.234  29.427  1.00  0.00     0.074 A 
ATOM     66  C   UNL A   1      44.425  29.330  34.228  1.00  0.00     0.029 A 
ATOM     67  N   UNL A   1      43.582  28.266  32.467  1.00  0.00    -0.354 N 
ATOM     68  N   UNL A   1      43.535  26.132  30.380  1.00  0.00    -0.248 NA
ATOM     69  C   UNL A   1      44.519  24.259  29.384  1.00  0.00     0.031 C 
ATOM     70  C   UNL A   1      45.298  28.295  33.872  1.00  0.00     0.029 A 
ATOM     71  C   UNL A   1      44.756  27.608  32.796  1.00  0.00     0.049 A 
ATOM     72  H   UNL A   1      42.983  28.014  31.727  1.00  0.00     0.167 HD
ATOM     73  C   UNL A   1      44.698  25.811  31.070  1.00  0.00     0.074 A 
ATOM     74  C   UNL A   1      45.242  24.627  30.432  1.00  0.00     0.031 C 
ATOM     75  C   UNL A   1      45.271  26.432  32.133  1.00  0.00     0.034 A 
BRANCH  62  76
ATOM     76  C   UNL A   1      42.170  31.413  34.206  1.00  0.00     0.023 A 
ATOM     77  C   UNL A   1      41.331  31.396  35.335  1.00  0.00     0.031 A 
ATOM     78  C   UNL A   1      42.887  32.593  33.943  1.00  0.00     0.131 A 
ATOM     79  C   UNL A   1      41.151  32.561  36.096  1.00  0.00     0.055 A 
ATOM     80  C   UNL A   1      42.775  33.721  34.758  1.00  0.00     0.041 A 
ATOM     81  F   UNL A   1      43.689  32.681  32.870  1.00  0.00    -0.206 F 
ATOM     82  C   UNL A   1      41.887  33.717  35.831  1.00  0.00     0.022 A 
BRANCH  79  83
ATOM     83  S   UNL A   1      39.820  32.592  37.329  1.00  0.00     0.124 S 
ATOM     84  O   UNL A   1      40.548  32.274  38.555  1.00  0.00    -0.237 OA
ATOM     85  O   UNL A   1      39.319  33.956  37.218  1.00  0.00    -0.237 OA
ATOM     86  O   UNL A   1      38.903  31.551  36.870  1.00  0.00    -0.744 OA
ENDBRANCH  79  83
ENDBRANCH  62  76
BRANCH  63  87
ATOM     87  C   UNL A   1      42.402  24.015  27.354  1.00  0.00     0.023 A 
ATOM     88  C   UNL A   1      41.812  22.759  27.570  1.00  0.00     0.031 A 
ATOM     89  C   UNL A   1      43.075  24.222  26.137  1.00  0.00     0.131 A 
ATOM     90  C   UNL A   1      41.944  21.744  26.608  1.00  0.00     0.055 A 
ATOM     91  C   UNL A   1      43.162  23.225  25.161  1.00  0.00     0.041 A 
ATOM     92  F   UNL A   1      43.648  25.407  25.871  1.00  0.00    -0.206 F 
ATOM     93  C   UNL A   1      42.605  21.973  25.399  1.00  0.00     0.022 A 
BRANCH  90  94
ATOM     94  S   UNL A   1      41.301  20.092  26.993  1.00  0.00     0.124 S 
ATOM     95  O   UNL A   1      40.852  20.260  28.370  1.00  0.00    -0.237 OA
ATOM     96  O   UNL A   1      40.253  19.934  25.990  1.00  0.00    -0.237 OA
ATOM     97  O   UNL A   1      42.465  19.226  26.817  1.00  0.00    -0.744 OA
ENDBRANCH  90  94
ENDBRANCH  63  87
BRANCH  75  98
ATOM     98  C   UNL A   1      46.524  25.805  32.686  1.00  0.00     0.023 A 
ATOM     99  C   UNL A   1      47.779  26.023  32.093  1.00  0.00     0.031 A 
ATOM    100  C   UNL A   1      46.456  24.973  33.817  1.00  0.00     0.131 A 
ATOM    101  C   UNL A   1      48.911  25.370  32.601  1.00  0.00     0.055 A 
ATOM    102  C   UNL A   1      47.594  24.373  34.353  1.00  0.00     0.041 A 
ATOM    103  F   UNL A   1      45.280  24.733  34.418  1.00  0.00    -0.206 F 
ATOM    104  C   UNL A   1      48.829  24.560  33.737  1.00  0.00     0.022 A 
BRANCH 101 105
ATOM    105  S   UNL A   1      50.478  25.523  31.703  1.00  0.00     0.124 S 
ATOM    106  O   UNL A   1      50.105  26.388  30.589  1.00  0.00    -0.237 OA
ATOM    107  O   UNL A   1      51.355  26.120  32.706  1.00  0.00    -0.237 OA
ATOM    108  O   UNL A   1      50.801  24.146  31.339  1.00  0.00    -0.744 OA
ENDBRANCH 101 105
ENDBRANCH  75  98
ENDBRANCH  49  50
ENDBRANCH  41  44
ENDBRANCH  39  40
ENDBRANCH  38  39
ENDBRANCH  37  38
ENDBRANCH  36  37
ENDBRANCH   3  36
TORSDOF 25
ENDMDL
MODEL 2
REMARK VINA RESULT:     -10.7      3.326      5.368
REMARK SMILES CC(C)C[C@H](NC(=O)[C@H](Cc1ccccc1)NC(=O)CNC(=O)C[NH3+])C(=O)NCCCCNC(=O)c1ccc(-c2c3nc(c(-c4cc(S(=O)(=O)[O-])ccc4F)c4ccc([nH]4)c(-c4cc(S(=O)(=O)[O-])ccc4F)c4nc(c(-c5cc(S(=O)(=O)[O-])ccc5F)c5ccc2[nH]5)C=C4)C=C3)cc1
REMARK SMILES IDX 26 1 27 2 28 3 5 5 4 6 2 7 1 8 3 9 6 10 7 11 8 13 9 14 17 15
REMARK SMILES IDX 18 16 19 18 20 19 21 20 22 21 23 23 24 24 25 25 10 29 11 30
REMARK SMILES IDX 12 31 16 32 13 33 15 34 14 35 29 36 30 37 31 38 32 39 33 40
REMARK SMILES IDX 34 41 35 43 36 44 37 45 98 46 38 47 97 48 39 49 40 50 41 51
REMARK SMILES IDX 91 52 42 53 96 54 90 55 92 56 43 57 95 58 89 59 88 60 44 62
REMARK SMILES IDX 76 63 56 64 75 65 57 66 60 67 74 68 93 69 58 70 59 71 73 73
REMARK SMILES IDX 94 74 61 75 45 76 46 77 54 78 47 79 53 80 55 81 52 82 48 83
REMARK SMILES IDX 49 84 50 85 51 86 77 87 78 88 86 89 79 90 85 91 87 92 84 93
REMARK SMILES IDX 80 94 81 95 82 96 83 97 62 98 63 99 71 100 64 101 70 102
REMARK SMILES IDX 72 103 69 104 65 105 66 106 67 107 68 108
REMARK H PARENT 28 4 6 12 17 17 21 22 25 26 25 27 25 28 33 42 92 61 60 72
REMARK Flexibility Score: inf
ROOT
ATOM      1  C   UNL A   1      32.337  25.448  26.435  1.00  0.00     0.242 C 
ATOM      2  O   UNL A   1      31.435  24.773  26.957  1.00  0.00    -0.273 OA
ATOM      3  N   UNL A   1      32.051  26.771  26.335  1.00  0.00    -0.354 N 
ATOM      4  H   UNL A   1      31.097  26.952  26.498  1.00  0.00     0.163 HD
ENDROOT
BRANCH   1   5
ATOM      5  C   UNL A   1      33.568  24.699  25.830  1.00  0.00     0.171 C 
BRANCH   5   6
ATOM      6  C   UNL A   1      33.764  24.668  24.294  1.00  0.00     0.038 C 
BRANCH   6   7
ATOM      7  C   UNL A   1      32.664  24.312  23.251  1.00  0.00    -0.015 C 
ATOM      8  C   UNL A   1      31.863  25.441  22.631  1.00  0.00     0.007 C 
ATOM      9  C   UNL A   1      33.278  23.435  22.144  1.00  0.00     0.007 C 
ENDBRANCH   6   7
ENDBRANCH   5   6
BRANCH   5  10
ATOM     10  N   UNL A   1      34.083  23.599  26.654  1.00  0.00    -0.343 N 
ATOM     11  C   UNL A   1      34.583  22.359  26.400  1.00  0.00     0.243 C 
ATOM     12  H   UNL A   1      34.062  23.808  27.617  1.00  0.00     0.164 HD
ATOM     13  O   UNL A   1      35.124  21.763  27.336  1.00  0.00    -0.273 OA
BRANCH  11  14
ATOM     14  C   UNL A   1      34.469  21.709  25.012  1.00  0.00     0.175 C 
BRANCH  14  15
ATOM     15  N   UNL A   1      35.901  21.328  24.545  1.00  0.00    -0.342 N 
ATOM     16  C   UNL A   1      37.203  21.168  25.004  1.00  0.00     0.240 C 
ATOM     17  H   UNL A   1      35.878  21.132  23.581  1.00  0.00     0.164 HD
ATOM     18  O   UNL A   1      37.663  20.071  24.625  1.00  0.00    -0.273 OA
BRANCH  16  19
ATOM     19  C   UNL A   1      38.232  22.048  25.956  1.00  0.00     0.216 C 
BRANCH  19  20
ATOM     20  N   UNL A   1      39.688  22.294  25.758  1.00  0.00    -0.342 N 
ATOM     21  C   UNL A   1      40.870  21.860  26.309  1.00  0.00     0.275 C 
ATOM     22  H   UNL A   1      39.847  22.943  25.035  1.00  0.00     0.164 HD
ATOM     23  O   UNL A   1      41.876  22.551  26.099  1.00  0.00    -0.268 OA
BRANCH  21  24
ATOM     24  C   UNL A   1      40.976  20.663  27.268  1.00  0.00     0.360 C 
BRANCH  24  25
ATOM     25  N   UNL A   1      42.271  20.571  27.979  1.00  0.00    -0.350 N 
ATOM     26  H   UNL A   1      42.925  21.247  27.583  1.00  0.00     0.344 HD
ATOM     27  H   UNL A   1      42.650  19.630  27.875  1.00  0.00     0.344 HD
ATOM     28  H   UNL A   1      42.130  20.773  28.969  1.00  0.00     0.344 HD
ENDBRANCH  24  25
ENDBRANCH  21  24
ENDBRANCH  19  20
ENDBRANCH  16  19
ENDBRANCH  14  15
BRANCH  14  29
ATOM     29  C   UNL A   1      33.456  20.487  25.263  1.00  0.00     0.070 C 
BRANCH  29  30
ATOM     30  C   UNL A   1      33.553  19.235  24.389  1.00  0.00    -0.045 A 
ATOM     31  C   UNL A   1      32.617  18.993  23.373  1.00  0.00     0.004 A 
ATOM     32  C   UNL A   1      34.524  18.244  24.627  1.00  0.00     0.004 A 
ATOM     33  C   UNL A   1      32.543  17.739  22.750  1.00  0.00     0.000 A 
ATOM     34  C   UNL A   1      34.409  16.968  24.054  1.00  0.00     0.000 A 
ATOM     35  C   UNL A   1      33.397  16.709  23.136  1.00  0.00     0.000 A 
ENDBRANCH  29  30
ENDBRANCH  14  29
ENDBRANCH  11  14
ENDBRANCH   5  10
ENDBRANCH   1   5
BRANCH   3  36
ATOM     36  C   UNL A   1      32.785  27.985  26.051  1.00  0.00     0.116 C 
BRANCH  36  37
ATOM     37  C   UNL A   1      33.264  28.892  27.192  1.00  0.00     0.023 C 
BRANCH  37  38
ATOM     38  C   UNL A   1      32.872  30.389  27.252  1.00  0.00     0.023 C 
BRANCH  38  39
ATOM     39  C   UNL A   1      33.748  31.682  27.466  1.00  0.00     0.116 C 
BRANCH  39  40
ATOM     40  N   UNL A   1      33.150  32.975  27.828  1.00  0.00    -0.352 N 
ATOM     41  C   UNL A   1      33.512  33.998  28.718  1.00  0.00     0.251 C 
ATOM     42  H   UNL A   1      32.314  33.164  27.342  1.00  0.00     0.163 HD
ATOM     43  O   UNL A   1      32.875  35.017  28.749  1.00  0.00    -0.269 OA
BRANCH  41  44
ATOM     44  C   UNL A   1      34.599  33.783  29.706  1.00  0.00     0.039 A 
ATOM     45  C   UNL A   1      34.293  33.012  30.838  1.00  0.00     0.014 A 
ATOM     46  C   UNL A   1      35.902  34.185  29.472  1.00  0.00     0.014 A 
ATOM     47  C   UNL A   1      35.325  32.472  31.603  1.00  0.00     0.010 A 
ATOM     48  C   UNL A   1      36.931  33.558  30.156  1.00  0.00     0.010 A 
ATOM     49  C   UNL A   1      36.651  32.656  31.193  1.00  0.00    -0.014 A 
BRANCH  49  50
ATOM     50  C   UNL A   1      37.766  31.878  31.780  1.00  0.00     0.031 A 
ATOM     51  C   UNL A   1      38.330  32.285  33.108  1.00  0.00     0.074 A 
ATOM     52  C   UNL A   1      38.343  30.905  31.043  1.00  0.00     0.049 A 
ATOM     53  N   UNL A   1      39.402  31.859  33.719  1.00  0.00    -0.248 NA
ATOM     54  C   UNL A   1      37.612  33.355  33.819  1.00  0.00     0.031 C 
ATOM     55  C   UNL A   1      37.906  30.481  29.708  1.00  0.00     0.029 A 
ATOM     56  N   UNL A   1      39.428  30.107  31.298  1.00  0.00    -0.354 N 
ATOM     57  C   UNL A   1      39.506  32.629  34.871  1.00  0.00     0.074 A 
ATOM     58  C   UNL A   1      38.426  33.590  34.835  1.00  0.00     0.031 C 
ATOM     59  C   UNL A   1      38.693  29.482  29.280  1.00  0.00     0.029 A 
ATOM     60  C   UNL A   1      39.721  29.228  30.281  1.00  0.00     0.049 A 
ATOM     61  H   UNL A   1      39.949  30.159  32.131  1.00  0.00     0.167 HD
ATOM     62  C   UNL A   1      40.412  32.525  35.874  1.00  0.00     0.034 A 
ATOM     63  C   UNL A   1      40.716  28.325  30.170  1.00  0.00     0.034 A 
ATOM     64  C   UNL A   1      41.466  31.540  35.883  1.00  0.00     0.049 A 
ATOM     65  C   UNL A   1      41.695  28.208  31.310  1.00  0.00     0.074 A 
ATOM     66  C   UNL A   1      42.416  31.296  36.858  1.00  0.00     0.029 A 
ATOM     67  N   UNL A   1      41.705  30.629  34.858  1.00  0.00    -0.354 N 
ATOM     68  N   UNL A   1      41.756  28.911  32.418  1.00  0.00    -0.248 NA
ATOM     69  C   UNL A   1      42.730  27.175  31.191  1.00  0.00     0.031 C 
ATOM     70  C   UNL A   1      43.259  30.276  36.400  1.00  0.00     0.029 A 
ATOM     71  C   UNL A   1      42.797  29.836  35.169  1.00  0.00     0.049 A 
ATOM     72  H   UNL A   1      41.175  30.560  34.032  1.00  0.00     0.167 HD
ATOM     73  C   UNL A   1      42.818  28.384  33.143  1.00  0.00     0.074 A 
ATOM     74  C   UNL A   1      43.357  27.294  32.352  1.00  0.00     0.031 C 
ATOM     75  C   UNL A   1      43.310  28.760  34.353  1.00  0.00     0.034 A 
BRANCH  62  76
ATOM     76  C   UNL A   1      40.302  33.516  37.008  1.00  0.00     0.023 A 
ATOM     77  C   UNL A   1      39.747  33.156  38.250  1.00  0.00     0.031 A 
ATOM     78  C   UNL A   1      40.690  34.855  36.830  1.00  0.00     0.131 A 
ATOM     79  C   UNL A   1      39.503  34.137  39.223  1.00  0.00     0.055 A 
ATOM     80  C   UNL A   1      40.529  35.810  37.837  1.00  0.00     0.041 A 
ATOM     81  F   UNL A   1      41.207  35.268  35.661  1.00  0.00    -0.206 F 
ATOM     82  C   UNL A   1      39.913  35.457  39.035  1.00  0.00     0.022 A 
BRANCH  79  83
ATOM     83  S   UNL A   1      38.491  33.695  40.662  1.00  0.00     0.124 S 
ATOM     84  O   UNL A   1      39.505  33.211  41.597  1.00  0.00    -0.237 OA
ATOM     85  O   UNL A   1      37.859  34.962  41.006  1.00  0.00    -0.237 OA
ATOM     86  O   UNL A   1      37.590  32.667  40.146  1.00  0.00    -0.744 OA
ENDBRANCH  79  83
ENDBRANCH  62  76
BRANCH  63  87
ATOM     87  C   UNL A   1      40.831  27.459  28.960  1.00  0.00     0.023 A 
ATOM     88  C   UNL A   1      41.820  27.703  27.992  1.00  0.00     0.031 A 
ATOM     89  C   UNL A   1      39.944  26.391  28.737  1.00  0.00     0.131 A 
ATOM     90  C   UNL A   1      41.871  26.921  26.827  1.00  0.00     0.055 A 
ATOM     91  C   UNL A   1      40.030  25.585  27.598  1.00  0.00     0.041 A 
ATOM     92  F   UNL A   1      38.987  26.105  29.634  1.00  0.00    -0.206 F 
ATOM     93  C   UNL A   1      40.989  25.856  26.629  1.00  0.00     0.022 A 
BRANCH  90  94
ATOM     94  S   UNL A   1      43.062  27.367  25.532  1.00  0.00     0.124 S 
ATOM     95  O   UNL A   1      44.087  28.066  26.299  1.00  0.00    -0.237 OA
ATOM     96  O   UNL A   1      43.436  26.059  25.003  1.00  0.00    -0.237 OA
ATOM     97  O   UNL A   1      42.281  28.204  24.625  1.00  0.00    -0.744 OA
ENDBRANCH  90  94
ENDBRANCH  63  87
BRANCH  75  98
ATOM     98  C   UNL A   1      44.458  27.950  34.896  1.00  0.00     0.023 A 
ATOM     99  C   UNL A   1      44.248  26.738  35.574  1.00  0.00     0.031 A 
ATOM    100  C   UNL A   1      45.778  28.407  34.738  1.00  0.00     0.131 A 
ATOM    101  C   UNL A   1      45.339  26.049  36.120  1.00  0.00     0.055 A 
ATOM    102  C   UNL A   1      46.865  27.686  35.232  1.00  0.00     0.041 A 
ATOM    103  F   UNL A   1      46.030  29.560  34.099  1.00  0.00    -0.206 F 
ATOM    104  C   UNL A   1      46.648  26.506  35.938  1.00  0.00     0.022 A 
BRANCH 101 105
ATOM    105  S   UNL A   1      45.019  24.590  37.148  1.00  0.00     0.124 S 
ATOM    106  O   UNL A   1      44.568  23.616  36.160  1.00  0.00    -0.237 OA
ATOM    107  O   UNL A   1      46.328  24.334  37.742  1.00  0.00    -0.237 OA
ATOM    108  O   UNL A   1      43.993  25.047  38.082  1.00  0.00    -0.744 OA
ENDBRANCH 101 105
ENDBRANCH  75  98
ENDBRANCH  49  50
ENDBRANCH  41  44
ENDBRANCH  39  40
ENDBRANCH  38  39
ENDBRANCH  37  38
ENDBRANCH  36  37
ENDBRANCH   3  36
TORSDOF 25
ENDMDL
MODEL 3
REMARK VINA RESULT:     -10.6      2.662      8.244
REMARK SMILES CC(C)C[C@H](NC(=O)[C@H](Cc1ccccc1)NC(=O)CNC(=O)C[NH3+])C(=O)NCCCCNC(=O)c1ccc(-c2c3nc(c(-c4cc(S(=O)(=O)[O-])ccc4F)c4ccc([nH]4)c(-c4cc(S(=O)(=O)[O-])ccc4F)c4nc(c(-c5cc(S(=O)(=O)[O-])ccc5F)c5ccc2[nH]5)C=C4)C=C3)cc1
REMARK SMILES IDX 26 1 27 2 28 3 5 5 4 6 2 7 1 8 3 9 6 10 7 11 8 13 9 14 17 15
REMARK SMILES IDX 18 16 19 18 20 19 21 20 22 21 23 23 24 24 25 25 10 29 11 30
REMARK SMILES IDX 12 31 16 32 13 33 15 34 14 35 29 36 30 37 31 38 32 39 33 40
REMARK SMILES IDX 34 41 35 43 36 44 37 45 98 46 38 47 97 48 39 49 40 50 41 51
REMARK SMILES IDX 91 52 42 53 96 54 90 55 92 56 43 57 95 58 89 59 88 60 44 62
REMARK SMILES IDX 76 63 56 64 75 65 57 66 60 67 74 68 93 69 58 70 59 71 73 73
REMARK SMILES IDX 94 74 61 75 45 76 46 77 54 78 47 79 53 80 55 81 52 82 48 83
REMARK SMILES IDX 49 84 50 85 51 86 77 87 78 88 86 89 79 90 85 91 87 92 84 93
REMARK SMILES IDX 80 94 81 95 82 96 83 97 62 98 63 99 71 100 64 101 70 102
REMARK SMILES IDX 72 103 69 104 65 105 66 106 67 107 68 108
REMARK H PARENT 28 4 6 12 17 17 21 22 25 26 25 27 25 28 33 42 92 61 60 72
REMARK Flexibility Score: inf
ROOT
ATOM      1  C   UNL A   1      30.547  29.111  23.926  1.00  0.00     0.242 C 
ATOM      2  O   UNL A   1      29.750  29.769  23.239  1.00  0.00    -0.273 OA
ATOM      3  N   UNL A   1      31.384  29.868  24.680  1.00  0.00    -0.354 N 
ATOM      4  H   UNL A   1      31.369  30.814  24.406  1.00  0.00     0.163 HD
ENDROOT
BRANCH   1   5
ATOM      5  C   UNL A   1      30.600  27.562  23.721  1.00  0.00     0.171 C 
BRANCH   5   6
ATOM      6  C   UNL A   1      30.791  26.986  22.296  1.00  0.00     0.038 C 
BRANCH   6   7
ATOM      7  C   UNL A   1      32.102  26.352  21.746  1.00  0.00    -0.015 C 
ATOM      8  C   UNL A   1      33.427  26.979  22.135  1.00  0.00     0.007 C 
ATOM      9  C   UNL A   1      32.116  24.848  22.076  1.00  0.00     0.007 C 
ENDBRANCH   6   7
ENDBRANCH   5   6
BRANCH   5  10
ATOM     10  N   UNL A   1      29.875  26.785  24.732  1.00  0.00    -0.343 N 
ATOM     11  C   UNL A   1      30.148  25.674  25.470  1.00  0.00     0.243 C 
ATOM     12  H   UNL A   1      28.981  27.152  24.921  1.00  0.00     0.164 HD
ATOM     13  O   UNL A   1      29.376  25.404  26.395  1.00  0.00    -0.273 OA
BRANCH  11  14
ATOM     14  C   UNL A   1      31.357  24.776  25.164  1.00  0.00     0.175 C 
BRANCH  14  15
ATOM     15  N   UNL A   1      32.606  25.412  25.834  1.00  0.00    -0.342 N 
ATOM     16  C   UNL A   1      33.985  25.528  25.706  1.00  0.00     0.240 C 
ATOM     17  H   UNL A   1      32.319  25.910  26.632  1.00  0.00     0.164 HD
ATOM     18  O   UNL A   1      34.330  26.724  25.800  1.00  0.00    -0.273 OA
BRANCH  16  19
ATOM     19  C   UNL A   1      35.232  24.478  25.414  1.00  0.00     0.216 C 
BRANCH  19  20
ATOM     20  N   UNL A   1      35.571  23.780  24.142  1.00  0.00    -0.342 N 
ATOM     21  C   UNL A   1      36.495  22.859  23.711  1.00  0.00     0.275 C 
ATOM     22  H   UNL A   1      34.969  24.053  23.412  1.00  0.00     0.164 HD
ATOM     23  O   UNL A   1      36.675  22.772  22.488  1.00  0.00    -0.268 OA
BRANCH  21  24
ATOM     24  C   UNL A   1      37.397  22.047  24.655  1.00  0.00     0.360 C 
BRANCH  24  25
ATOM     25  N   UNL A   1      37.014  22.135  26.082  1.00  0.00    -0.350 N 
ATOM     26  H   UNL A   1      36.126  21.652  26.225  1.00  0.00     0.344 HD
ATOM     27  H   UNL A   1      36.915  23.114  26.348  1.00  0.00     0.344 HD
ATOM     28  H   UNL A   1      37.736  21.698  26.655  1.00  0.00     0.344 HD
ENDBRANCH  24  25
ENDBRANCH  21  24
ENDBRANCH  19  20
ENDBRANCH  16  19
ENDBRANCH  14  15
BRANCH  14  29
ATOM     29  C   UNL A   1      30.901  23.343  25.731  1.00  0.00     0.070 C 
BRANCH  29  30
ATOM     30  C   UNL A   1      31.852  22.150  25.620  1.00  0.00    -0.045 A 
ATOM     31  C   UNL A   1      32.711  21.816  26.678  1.00  0.00     0.004 A 
ATOM     32  C   UNL A   1      31.963  21.403  24.432  1.00  0.00     0.004 A 
ATOM     33  C   UNL A   1      33.756  20.900  26.490  1.00  0.00     0.000 A 
ATOM     34  C   UNL A   1      33.048  20.539  24.222  1.00  0.00     0.000 A 
ATOM     35  C   UNL A   1      33.963  20.312  25.245  1.00  0.00     0.000 A 
ENDBRANCH  29  30
ENDBRANCH  14  29
ENDBRANCH  11  14
ENDBRANCH   5  10
ENDBRANCH   1   5
BRANCH   3  36
ATOM     36  C   UNL A   1      32.294  29.646  25.783  1.00  0.00     0.116 C 
BRANCH  36  37
ATOM     37  C   UNL A   1      32.310  30.600  26.985  1.00  0.00     0.023 C 
BRANCH  37  38
ATOM     38  C   UNL A   1      31.609  31.980  26.930  1.00  0.00     0.023 C 
BRANCH  38  39
ATOM     39  C   UNL A   1      32.199  33.439  26.834  1.00  0.00     0.116 C 
BRANCH  39  40
ATOM     40  N   UNL A   1      32.302  34.313  28.011  1.00  0.00    -0.352 N 
ATOM     41  C   UNL A   1      33.303  34.537  28.969  1.00  0.00     0.251 C 
ATOM     42  H   UNL A   1      31.497  34.860  28.159  1.00  0.00     0.163 HD
ATOM     43  O   UNL A   1      33.159  35.400  29.794  1.00  0.00    -0.269 OA
BRANCH  41  44
ATOM     44  C   UNL A   1      34.479  33.635  29.050  1.00  0.00     0.039 A 
ATOM     45  C   UNL A   1      35.723  34.169  28.682  1.00  0.00     0.014 A 
ATOM     46  C   UNL A   1      34.404  32.369  29.603  1.00  0.00     0.014 A 
ATOM     47  C   UNL A   1      36.894  33.519  29.071  1.00  0.00     0.010 A 
ATOM     48  C   UNL A   1      35.558  31.780  30.093  1.00  0.00     0.010 A 
ATOM     49  C   UNL A   1      36.809  32.377  29.876  1.00  0.00    -0.014 A 
BRANCH  49  50
ATOM     50  C   UNL A   1      37.995  31.813  30.560  1.00  0.00     0.031 A 
ATOM     51  C   UNL A   1      38.798  30.744  29.883  1.00  0.00     0.074 A 
ATOM     52  C   UNL A   1      38.245  32.175  31.837  1.00  0.00     0.049 A 
ATOM     53  N   UNL A   1      39.758  30.000  30.362  1.00  0.00    -0.248 NA
ATOM     54  C   UNL A   1      38.433  30.441  28.490  1.00  0.00     0.031 C 
ATOM     55  C   UNL A   1      37.478  33.161  32.605  1.00  0.00     0.029 A 
ATOM     56  N   UNL A   1      39.202  31.747  32.721  1.00  0.00    -0.354 N 
ATOM     57  C   UNL A   1      40.091  29.118  29.341  1.00  0.00     0.074 A 
ATOM     58  C   UNL A   1      39.183  29.379  28.245  1.00  0.00     0.031 C 
ATOM     59  C   UNL A   1      38.013  33.285  33.829  1.00  0.00     0.029 A 
ATOM     60  C   UNL A   1      39.126  32.352  33.955  1.00  0.00     0.049 A 
ATOM     61  H   UNL A   1      39.878  31.069  32.494  1.00  0.00     0.167 HD
ATOM     62  C   UNL A   1      41.079  28.190  29.319  1.00  0.00     0.034 A 
ATOM     63  C   UNL A   1      39.870  32.167  35.063  1.00  0.00     0.034 A 
ATOM     64  C   UNL A   1      41.976  27.971  30.426  1.00  0.00     0.049 A 
ATOM     65  C   UNL A   1      40.981  31.149  35.006  1.00  0.00     0.074 A 
ATOM     66  C   UNL A   1      43.047  27.100  30.515  1.00  0.00     0.029 A 
ATOM     67  N   UNL A   1      41.904  28.638  31.645  1.00  0.00    -0.354 N 
ATOM     68  N   UNL A   1      41.318  30.352  34.017  1.00  0.00    -0.248 NA
ATOM     69  C   UNL A   1      41.815  31.011  36.205  1.00  0.00     0.031 C 
ATOM     70  C   UNL A   1      43.588  27.202  31.803  1.00  0.00     0.029 A 
ATOM     71  C   UNL A   1      42.899  28.185  32.497  1.00  0.00     0.049 A 
ATOM     72  H   UNL A   1      41.242  29.330  31.870  1.00  0.00     0.167 HD
ATOM     73  C   UNL A   1      42.424  29.639  34.465  1.00  0.00     0.074 A 
ATOM     74  C   UNL A   1      42.705  30.114  35.807  1.00  0.00     0.031 C 
ATOM     75  C   UNL A   1      43.147  28.679  33.832  1.00  0.00     0.034 A 
BRANCH  62  76
ATOM     76  C   UNL A   1      41.204  27.345  28.073  1.00  0.00     0.023 A 
ATOM     77  C   UNL A   1      40.878  25.976  28.075  1.00  0.00     0.031 A 
ATOM     78  C   UNL A   1      41.720  27.893  26.885  1.00  0.00     0.131 A 
ATOM     79  C   UNL A   1      41.165  25.183  26.954  1.00  0.00     0.055 A 
ATOM     80  C   UNL A   1      41.917  27.116  25.741  1.00  0.00     0.041 A 
ATOM     81  F   UNL A   1      42.070  29.187  26.824  1.00  0.00    -0.206 F 
ATOM     82  C   UNL A   1      41.658  25.749  25.777  1.00  0.00     0.022 A 
BRANCH  79  83
ATOM     83  S   UNL A   1      41.041  23.380  27.115  1.00  0.00     0.124 S 
ATOM     84  O   UNL A   1      41.799  22.929  25.949  1.00  0.00    -0.237 OA
ATOM     85  O   UNL A   1      41.660  23.136  28.412  1.00  0.00    -0.237 OA
ATOM     86  O   UNL A   1      39.604  23.128  27.051  1.00  0.00    -0.744 OA
ENDBRANCH  79  83
ENDBRANCH  62  76
BRANCH  63  87
ATOM     87  C   UNL A   1      39.609  32.957  36.301  1.00  0.00     0.023 A 
ATOM     88  C   UNL A   1      38.792  32.445  37.322  1.00  0.00     0.031 A 
ATOM     89  C   UNL A   1      40.149  34.243  36.476  1.00  0.00     0.131 A 
ATOM     90  C   UNL A   1      38.501  33.230  38.450  1.00  0.00     0.055 A 
ATOM     91  C   UNL A   1      39.897  35.002  37.623  1.00  0.00     0.041 A 
ATOM     92  F   UNL A   1      40.947  34.778  35.538  1.00  0.00    -0.206 F 
ATOM     93  C   UNL A   1      39.057  34.501  38.612  1.00  0.00     0.022 A 
BRANCH  90  94
ATOM     94  S   UNL A   1      37.318  32.594  39.671  1.00  0.00     0.124 S 
ATOM     95  O   UNL A   1      38.018  31.420  40.179  1.00  0.00    -0.237 OA
ATOM     96  O   UNL A   1      37.199  33.720  40.591  1.00  0.00    -0.237 OA
ATOM     97  O   UNL A   1      36.125  32.315  38.874  1.00  0.00    -0.744 OA
ENDBRANCH  90  94
ENDBRANCH  63  87
BRANCH  75  98
ATOM     98  C   UNL A   1      44.330  28.122  34.579  1.00  0.00     0.023 A 
ATOM     99  C   UNL A   1      45.593  28.735  34.521  1.00  0.00     0.031 A 
ATOM    100  C   UNL A   1      44.190  26.956  35.352  1.00  0.00     0.131 A 
ATOM    101  C   UNL A   1      46.682  28.148  35.180  1.00  0.00     0.055 A 
ATOM    102  C   UNL A   1      45.264  26.410  36.054  1.00  0.00     0.041 A 
ATOM    103  F   UNL A   1      43.004  26.332  35.439  1.00  0.00    -0.206 F 
ATOM    104  C   UNL A   1      46.522  26.999  35.959  1.00  0.00     0.022 A 
BRANCH 101 105
ATOM    105  S   UNL A   1      48.332  28.858  34.932  1.00  0.00     0.124 S 
ATOM    106  O   UNL A   1      48.405  29.837  36.010  1.00  0.00    -0.237 OA
ATOM    107  O   UNL A   1      49.197  27.691  35.071  1.00  0.00    -0.237 OA
ATOM    108  O   UNL A   1      48.265  29.421  33.585  1.00  0.00    -0.744 OA
ENDBRANCH 101 105
ENDBRANCH  75  98
ENDBRANCH  49  50
ENDBRANCH  41  44
ENDBRANCH  39  40
ENDBRANCH  38  39
ENDBRANCH  37  38
ENDBRANCH  36  37
ENDBRANCH   3  36
TORSDOF 25
ENDMDL
