MODEL 1
REMARK VINA RESULT:     -11.5      0.000      0.000
REMARK SMILES CN(CC(=O)NCCCCNC(=O)c1ccc(-c2c3nc(c(-c4cc(S(=O)(=O)[O-])ccc4F)c4ccc([nH]4)c(-c4cc(S(=O)(=O)[O-])ccc4F)c4nc(c(-c5cc(S(=O)(=O)[O-])ccc5F)c5ccc2[nH]5)C=C4)C=C3)cc1)C(=O)N[C@@H]1C[C@H]1c1ccccc1
REMARK SMILES IDX 8 1 7 2 6 3 4 4 5 5 3 7 2 8 1 9 77 10 78 11 79 12 80 14
REMARK SMILES IDX 81 15 82 16 83 17 84 18 88 19 85 20 87 21 86 22 9 23 10 24
REMARK SMILES IDX 11 25 12 26 13 28 14 29 15 30 76 31 16 32 75 33 17 34 18 35
REMARK SMILES IDX 19 36 69 37 20 38 74 39 68 40 70 41 21 42 73 43 67 44 66 45
REMARK SMILES IDX 22 47 54 48 34 49 53 50 35 51 38 52 52 53 71 54 36 55 37 56
REMARK SMILES IDX 51 58 72 59 39 60 23 61 24 62 32 63 25 64 31 65 33 66 30 67
REMARK SMILES IDX 26 68 27 69 28 70 29 71 55 72 56 73 64 74 57 75 63 76 65 77
REMARK SMILES IDX 62 78 58 79 59 80 60 81 61 82 40 83 41 84 49 85 42 86 48 87
REMARK SMILES IDX 50 88 47 89 43 90 44 91 45 92 46 93
REMARK H PARENT 6 6 79 13 11 27 70 46 38 57
REMARK Flexibility Score: inf
ROOT
ATOM      1  C   UNL A   1      35.020  23.391  24.008  1.00  0.00     0.023 C 
ENDROOT
BRANCH   1   2
ATOM      2  C   UNL A   1      33.931  23.339  22.940  1.00  0.00     0.116 C 
BRANCH   2   3
ATOM      3  N   UNL A   1      32.995  22.288  23.232  1.00  0.00    -0.355 N 
ATOM      4  C   UNL A   1      31.884  22.563  24.001  1.00  0.00     0.239 C 
ATOM      5  O   UNL A   1      31.068  23.438  23.736  1.00  0.00    -0.273 OA
ATOM      6  H   UNL A   1      33.145  21.379  22.885  1.00  0.00     0.163 HD
BRANCH   4   7
ATOM      7  C   UNL A   1      31.823  21.722  25.284  1.00  0.00     0.220 C 
BRANCH   7   8
ATOM      8  N   UNL A   1      31.855  22.569  26.484  1.00  0.00    -0.319 N 
ATOM      9  C   UNL A   1      33.054  22.440  27.311  1.00  0.00     0.149 C 
BRANCH   8  10
ATOM     10  C   UNL A   1      30.903  23.441  26.926  1.00  0.00     0.317 C 
ATOM     11  O   UNL A   1      29.824  23.031  27.368  1.00  0.00    -0.249 OA
ATOM     12  N   UNL A   1      31.035  24.784  26.849  1.00  0.00    -0.335 N 
ATOM     13  H   UNL A   1      30.296  25.246  27.307  1.00  0.00     0.165 HD
BRANCH  12  14
ATOM     14  C   UNL A   1      31.964  25.713  26.278  1.00  0.00     0.092 C 
ATOM     15  C   UNL A   1      31.845  27.146  26.728  1.00  0.00     0.036 C 
ATOM     16  C   UNL A   1      31.528  26.789  25.297  1.00  0.00     0.044 C 
BRANCH  16  17
ATOM     17  C   UNL A   1      32.436  27.274  24.179  1.00  0.00    -0.043 A 
ATOM     18  C   UNL A   1      33.107  28.509  24.235  1.00  0.00     0.004 A 
ATOM     19  C   UNL A   1      32.583  26.535  22.994  1.00  0.00     0.004 A 
ATOM     20  C   UNL A   1      33.896  28.970  23.176  1.00  0.00     0.000 A 
ATOM     21  C   UNL A   1      33.372  26.985  21.931  1.00  0.00     0.000 A 
ATOM     22  C   UNL A   1      34.030  28.205  22.022  1.00  0.00     0.000 A 
ENDBRANCH  16  17
ENDBRANCH  12  14
ENDBRANCH   8  10
ENDBRANCH   7   8
ENDBRANCH   4   7
ENDBRANCH   2   3
ENDBRANCH   1   2
BRANCH   1  23
ATOM     23  C   UNL A   1      35.703  22.051  24.263  1.00  0.00     0.023 C 
BRANCH  23  24
ATOM     24  C   UNL A   1      36.367  21.939  25.632  1.00  0.00     0.116 C 
BRANCH  24  25
ATOM     25  N   UNL A   1      37.348  20.862  25.683  1.00  0.00    -0.352 N 
ATOM     26  C   UNL A   1      38.697  20.920  25.913  1.00  0.00     0.251 C 
ATOM     27  H   UNL A   1      36.988  19.959  25.528  1.00  0.00     0.163 HD
ATOM     28  O   UNL A   1      39.391  19.923  25.715  1.00  0.00    -0.269 OA
BRANCH  26  29
ATOM     29  C   UNL A   1      39.308  22.180  26.375  1.00  0.00     0.039 A 
ATOM     30  C   UNL A   1      40.383  22.126  27.265  1.00  0.00     0.014 A 
ATOM     31  C   UNL A   1      38.825  23.412  25.924  1.00  0.00     0.014 A 
ATOM     32  C   UNL A   1      41.014  23.308  27.653  1.00  0.00     0.010 A 
ATOM     33  C   UNL A   1      39.506  24.580  26.246  1.00  0.00     0.010 A 
ATOM     34  C   UNL A   1      40.605  24.541  27.117  1.00  0.00    -0.014 A 
BRANCH  34  35
ATOM     35  C   UNL A   1      41.311  25.802  27.457  1.00  0.00     0.031 A 
ATOM     36  C   UNL A   1      40.621  26.853  28.280  1.00  0.00     0.074 A 
ATOM     37  C   UNL A   1      42.548  26.024  26.971  1.00  0.00     0.049 A 
ATOM     38  N   UNL A   1      41.036  28.048  28.616  1.00  0.00    -0.248 NA
ATOM     39  C   UNL A   1      39.271  26.527  28.760  1.00  0.00     0.031 C 
ATOM     40  C   UNL A   1      43.307  25.092  26.134  1.00  0.00     0.029 A 
ATOM     41  N   UNL A   1      43.383  27.104  27.104  1.00  0.00    -0.354 N 
ATOM     42  C   UNL A   1      39.995  28.619  29.340  1.00  0.00     0.074 A 
ATOM     43  C   UNL A   1      38.905  27.666  29.327  1.00  0.00     0.031 C 
ATOM     44  C   UNL A   1      44.506  25.628  25.856  1.00  0.00     0.029 A 
ATOM     45  C   UNL A   1      44.582  26.960  26.446  1.00  0.00     0.049 A 
ATOM     46  H   UNL A   1      43.146  27.908  27.622  1.00  0.00     0.167 HD
ATOM     47  C   UNL A   1      39.962  29.817  29.977  1.00  0.00     0.034 A 
ATOM     48  C   UNL A   1      45.621  27.810  26.321  1.00  0.00     0.034 A 
ATOM     49  C   UNL A   1      41.059  30.754  29.974  1.00  0.00     0.049 A 
ATOM     50  C   UNL A   1      45.542  29.158  26.991  1.00  0.00     0.074 A 
ATOM     51  C   UNL A   1      41.153  31.975  30.620  1.00  0.00     0.029 A 
ATOM     52  N   UNL A   1      42.251  30.584  29.278  1.00  0.00    -0.354 N 
ATOM     53  N   UNL A   1      44.569  29.669  27.710  1.00  0.00    -0.248 NA
ATOM     54  C   UNL A   1      46.705  30.041  26.835  1.00  0.00     0.031 C 
ATOM     55  C   UNL A   1      42.362  32.575  30.253  1.00  0.00     0.029 A 
ATOM     56  C   UNL A   1      43.067  31.693  29.449  1.00  0.00     0.049 A 
ATOM     57  H   UNL A   1      42.482  29.792  28.742  1.00  0.00     0.167 HD
ATOM     58  C   UNL A   1      45.019  30.921  28.123  1.00  0.00     0.074 A 
ATOM     59  C   UNL A   1      46.354  31.079  27.579  1.00  0.00     0.031 C 
ATOM     60  C   UNL A   1      44.391  31.850  28.889  1.00  0.00     0.034 A 
BRANCH  47  61
ATOM     61  C   UNL A   1      38.682  30.181  30.695  1.00  0.00     0.023 A 
ATOM     62  C   UNL A   1      37.640  30.866  30.045  1.00  0.00     0.031 A 
ATOM     63  C   UNL A   1      38.518  29.887  32.061  1.00  0.00     0.131 A 
ATOM     64  C   UNL A   1      36.533  31.321  30.778  1.00  0.00     0.055 A 
ATOM     65  C   UNL A   1      37.369  30.258  32.763  1.00  0.00     0.041 A 
ATOM     66  F   UNL A   1      39.485  29.254  32.746  1.00  0.00    -0.206 F 
ATOM     67  C   UNL A   1      36.377  30.998  32.126  1.00  0.00     0.022 A 
BRANCH  64  68
ATOM     68  S   UNL A   1      35.398  32.495  29.986  1.00  0.00     0.124 S 
ATOM     69  O   UNL A   1      34.421  32.722  31.049  1.00  0.00    -0.237 OA
ATOM     70  O   UNL A   1      36.273  33.617  29.671  1.00  0.00    -0.237 OA
ATOM     71  O   UNL A   1      34.890  31.754  28.833  1.00  0.00    -0.744 OA
ENDBRANCH  64  68
ENDBRANCH  47  61
BRANCH  48  72
ATOM     72  C   UNL A   1      46.821  27.418  25.529  1.00  0.00     0.023 A 
ATOM     73  C   UNL A   1      46.982  27.850  24.204  1.00  0.00     0.031 A 
ATOM     74  C   UNL A   1      47.814  26.587  26.078  1.00  0.00     0.131 A 
ATOM     75  C   UNL A   1      48.088  27.417  23.456  1.00  0.00     0.055 A 
ATOM     76  C   UNL A   1      48.940  26.203  25.348  1.00  0.00     0.041 A 
ATOM     77  F   UNL A   1      47.712  26.149  27.344  1.00  0.00    -0.206 F 
ATOM     78  C   UNL A   1      49.076  26.609  24.025  1.00  0.00     0.022 A 
BRANCH  75  79
ATOM     79  S   UNL A   1      48.180  27.866  21.702  1.00  0.00     0.124 S 
ATOM     80  O   UNL A   1      48.285  26.558  21.066  1.00  0.00    -0.237 OA
ATOM     81  O   UNL A   1      46.921  28.577  21.503  1.00  0.00    -0.237 OA
ATOM     82  O   UNL A   1      49.380  28.696  21.627  1.00  0.00    -0.744 OA
ENDBRANCH  75  79
ENDBRANCH  48  72
BRANCH  60  83
ATOM     83  C   UNL A   1      45.165  33.103  29.224  1.00  0.00     0.023 A 
ATOM     84  C   UNL A   1      45.058  34.273  28.453  1.00  0.00     0.031 A 
ATOM     85  C   UNL A   1      46.029  33.121  30.334  1.00  0.00     0.131 A 
ATOM     86  C   UNL A   1      45.843  35.393  28.768  1.00  0.00     0.055 A 
ATOM     87  C   UNL A   1      46.758  34.259  30.681  1.00  0.00     0.041 A 
ATOM     88  F   UNL A   1      46.176  32.031  31.104  1.00  0.00    -0.206 F 
ATOM     89  C   UNL A   1      46.677  35.400  29.888  1.00  0.00     0.022 A 
BRANCH  86  90
ATOM     90  S   UNL A   1      45.834  36.811  27.636  1.00  0.00     0.124 S 
ATOM     91  O   UNL A   1      47.260  37.032  27.415  1.00  0.00    -0.237 OA
ATOM     92  O   UNL A   1      45.084  36.296  26.495  1.00  0.00    -0.237 OA
ATOM     93  O   UNL A   1      45.156  37.856  28.402  1.00  0.00    -0.744 OA
ENDBRANCH  86  90
ENDBRANCH  60  83
ENDBRANCH  34  35
ENDBRANCH  26  29
ENDBRANCH  24  25
ENDBRANCH  23  24
ENDBRANCH   1  23
TORSDOF 18
ENDMDL
MODEL 2
REMARK VINA RESULT:     -11.0      4.892      9.940
REMARK SMILES CN(CC(=O)NCCCCNC(=O)c1ccc(-c2c3nc(c(-c4cc(S(=O)(=O)[O-])ccc4F)c4ccc([nH]4)c(-c4cc(S(=O)(=O)[O-])ccc4F)c4nc(c(-c5cc(S(=O)(=O)[O-])ccc5F)c5ccc2[nH]5)C=C4)C=C3)cc1)C(=O)N[C@@H]1C[C@H]1c1ccccc1
REMARK SMILES IDX 8 1 7 2 6 3 4 4 5 5 3 7 2 8 1 9 77 10 78 11 79 12 80 14
REMARK SMILES IDX 81 15 82 16 83 17 84 18 88 19 85 20 87 21 86 22 9 23 10 24
REMARK SMILES IDX 11 25 12 26 13 28 14 29 15 30 76 31 16 32 75 33 17 34 18 35
REMARK SMILES IDX 19 36 69 37 20 38 74 39 68 40 70 41 21 42 73 43 67 44 66 45
REMARK SMILES IDX 22 47 54 48 34 49 53 50 35 51 38 52 52 53 71 54 36 55 37 56
REMARK SMILES IDX 51 58 72 59 39 60 23 61 24 62 32 63 25 64 31 65 33 66 30 67
REMARK SMILES IDX 26 68 27 69 28 70 29 71 55 72 56 73 64 74 57 75 63 76 65 77
REMARK SMILES IDX 62 78 58 79 59 80 60 81 61 82 40 83 41 84 49 85 42 86 48 87
REMARK SMILES IDX 50 88 47 89 43 90 44 91 45 92 46 93
REMARK H PARENT 6 6 79 13 11 27 70 46 38 57
REMARK Flexibility Score: inf
ROOT
ATOM      1  C   UNL A   1      31.673  28.627  23.314  1.00  0.00     0.023 C 
ENDROOT
BRANCH   1   2
ATOM      2  C   UNL A   1      31.015  27.622  22.374  1.00  0.00     0.116 C 
BRANCH   2   3
ATOM      3  N   UNL A   1      30.937  26.329  22.999  1.00  0.00    -0.355 N 
ATOM      4  C   UNL A   1      30.170  26.169  24.133  1.00  0.00     0.239 C 
ATOM      5  O   UNL A   1      28.980  26.453  24.199  1.00  0.00    -0.273 OA
ATOM      6  H   UNL A   1      31.427  25.565  22.620  1.00  0.00     0.163 HD
BRANCH   4   7
ATOM      7  C   UNL A   1      30.985  25.687  25.342  1.00  0.00     0.220 C 
BRANCH   7   8
ATOM      8  N   UNL A   1      31.219  24.238  25.287  1.00  0.00    -0.319 N 
ATOM      9  C   UNL A   1      30.765  23.485  26.455  1.00  0.00     0.149 C 
BRANCH   8  10
ATOM     10  C   UNL A   1      31.820  23.517  24.297  1.00  0.00     0.317 C 
ATOM     11  O   UNL A   1      31.154  23.011  23.387  1.00  0.00    -0.249 OA
ATOM     12  N   UNL A   1      33.145  23.247  24.275  1.00  0.00    -0.335 N 
ATOM     13  H   UNL A   1      33.409  22.804  23.436  1.00  0.00     0.165 HD
BRANCH  12  14
ATOM     14  C   UNL A   1      34.264  23.434  25.148  1.00  0.00     0.092 C 
ATOM     15  C   UNL A   1      34.785  24.841  25.282  1.00  0.00     0.036 C 
ATOM     16  C   UNL A   1      35.646  23.792  24.622  1.00  0.00     0.044 C 
BRANCH  16  17
ATOM     17  C   UNL A   1      36.915  23.316  25.308  1.00  0.00    -0.043 A 
ATOM     18  C   UNL A   1      37.676  24.150  26.147  1.00  0.00     0.004 A 
ATOM     19  C   UNL A   1      37.431  22.033  25.066  1.00  0.00     0.004 A 
ATOM     20  C   UNL A   1      38.873  23.718  26.729  1.00  0.00     0.000 A 
ATOM     21  C   UNL A   1      38.625  21.591  25.646  1.00  0.00     0.000 A 
ATOM     22  C   UNL A   1      39.347  22.435  26.479  1.00  0.00     0.000 A 
ENDBRANCH  16  17
ENDBRANCH  12  14
ENDBRANCH   8  10
ENDBRANCH   7   8
ENDBRANCH   4   7
ENDBRANCH   2   3
ENDBRANCH   1   2
BRANCH   1  23
ATOM     23  C   UNL A   1      33.141  28.332  23.608  1.00  0.00     0.023 C 
BRANCH  23  24
ATOM     24  C   UNL A   1      33.637  28.892  24.939  1.00  0.00     0.116 C 
BRANCH  24  25
ATOM     25  N   UNL A   1      32.860  30.045  25.375  1.00  0.00    -0.352 N 
ATOM     26  C   UNL A   1      32.988  30.809  26.505  1.00  0.00     0.251 C 
ATOM     27  H   UNL A   1      32.135  30.317  24.766  1.00  0.00     0.163 HD
ATOM     28  O   UNL A   1      32.107  31.617  26.796  1.00  0.00    -0.269 OA
BRANCH  26  29
ATOM     29  C   UNL A   1      34.167  30.638  27.374  1.00  0.00     0.039 A 
ATOM     30  C   UNL A   1      34.397  29.396  27.968  1.00  0.00     0.014 A 
ATOM     31  C   UNL A   1      35.048  31.700  27.595  1.00  0.00     0.014 A 
ATOM     32  C   UNL A   1      35.546  29.202  28.734  1.00  0.00     0.010 A 
ATOM     33  C   UNL A   1      36.232  31.483  28.288  1.00  0.00     0.010 A 
ATOM     34  C   UNL A   1      36.493  30.232  28.868  1.00  0.00    -0.014 A 
BRANCH  34  35
ATOM     35  C   UNL A   1      37.758  30.023  29.615  1.00  0.00     0.031 A 
ATOM     36  C   UNL A   1      38.848  29.172  29.027  1.00  0.00     0.074 A 
ATOM     37  C   UNL A   1      37.898  30.547  30.849  1.00  0.00     0.049 A 
ATOM     38  N   UNL A   1      39.990  28.806  29.553  1.00  0.00    -0.248 NA
ATOM     39  C   UNL A   1      38.606  28.636  27.680  1.00  0.00     0.031 C 
ATOM     40  C   UNL A   1      36.896  31.362  31.539  1.00  0.00     0.029 A 
ATOM     41  N   UNL A   1      38.933  30.467  31.746  1.00  0.00    -0.354 N 
ATOM     42  C   UNL A   1      40.597  27.990  28.605  1.00  0.00     0.074 A 
ATOM     43  C   UNL A   1      39.662  27.858  27.507  1.00  0.00     0.031 C 
ATOM     44  C   UNL A   1      37.378  31.733  32.734  1.00  0.00     0.029 A 
ATOM     45  C   UNL A   1      38.698  31.139  32.922  1.00  0.00     0.049 A 
ATOM     46  H   UNL A   1      39.766  29.975  31.564  1.00  0.00     0.167 HD
ATOM     47  C   UNL A   1      41.831  27.425  28.637  1.00  0.00     0.034 A 
ATOM     48  C   UNL A   1      39.454  31.254  34.032  1.00  0.00     0.034 A 
ATOM     49  C   UNL A   1      42.746  27.567  29.744  1.00  0.00     0.049 A 
ATOM     50  C   UNL A   1      40.798  30.573  34.070  1.00  0.00     0.074 A 
ATOM     51  C   UNL A   1      44.034  27.076  29.866  1.00  0.00     0.029 A 
ATOM     52  N   UNL A   1      42.465  28.238  30.929  1.00  0.00    -0.354 N 
ATOM     53  N   UNL A   1      41.381  29.840  33.148  1.00  0.00    -0.248 NA
ATOM     54  C   UNL A   1      41.588  30.740  35.296  1.00  0.00     0.031 C 
ATOM     55  C   UNL A   1      44.501  27.381  31.149  1.00  0.00     0.029 A 
ATOM     56  C   UNL A   1      43.542  28.140  31.800  1.00  0.00     0.049 A 
ATOM     57  H   UNL A   1      41.625  28.712  31.122  1.00  0.00     0.167 HD
ATOM     58  C   UNL A   1      42.623  29.489  33.672  1.00  0.00     0.074 A 
ATOM     59  C   UNL A   1      42.705  30.099  34.984  1.00  0.00     0.031 C 
ATOM     60  C   UNL A   1      43.608  28.738  33.114  1.00  0.00     0.034 A 
BRANCH  47  61
ATOM     61  C   UNL A   1      42.233  26.579  27.450  1.00  0.00     0.023 A 
ATOM     62  C   UNL A   1      42.249  25.173  27.518  1.00  0.00     0.031 A 
ATOM     63  C   UNL A   1      42.656  27.179  26.251  1.00  0.00     0.131 A 
ATOM     64  C   UNL A   1      42.771  24.424  26.452  1.00  0.00     0.055 A 
ATOM     65  C   UNL A   1      43.083  26.423  25.157  1.00  0.00     0.041 A 
ATOM     66  F   UNL A   1      42.685  28.516  26.129  1.00  0.00    -0.206 F 
ATOM     67  C   UNL A   1      43.162  25.038  25.261  1.00  0.00     0.022 A 
BRANCH  64  68
ATOM     68  S   UNL A   1      43.101  22.660  26.718  1.00  0.00     0.124 S 
ATOM     69  O   UNL A   1      42.535  22.069  25.507  1.00  0.00    -0.237 OA
ATOM     70  O   UNL A   1      44.554  22.623  26.829  1.00  0.00    -0.237 OA
ATOM     71  O   UNL A   1      42.372  22.357  27.948  1.00  0.00    -0.744 OA
ENDBRANCH  64  68
ENDBRANCH  47  61
BRANCH  48  72
ATOM     72  C   UNL A   1      38.961  32.039  35.199  1.00  0.00     0.023 A 
ATOM     73  C   UNL A   1      38.420  31.395  36.322  1.00  0.00     0.031 A 
ATOM     74  C   UNL A   1      39.003  33.445  35.200  1.00  0.00     0.131 A 
ATOM     75  C   UNL A   1      37.903  32.155  37.383  1.00  0.00     0.055 A 
ATOM     76  C   UNL A   1      38.537  34.195  36.281  1.00  0.00     0.041 A 
ATOM     77  F   UNL A   1      39.516  34.110  34.152  1.00  0.00    -0.206 F 
ATOM     78  C   UNL A   1      37.973  33.551  37.376  1.00  0.00     0.022 A 
BRANCH  75  79
ATOM     79  S   UNL A   1      37.069  31.294  38.744  1.00  0.00     0.124 S 
ATOM     80  O   UNL A   1      36.920  29.950  38.197  1.00  0.00    -0.237 OA
ATOM     81  O   UNL A   1      38.030  31.442  39.831  1.00  0.00    -0.237 OA
ATOM     82  O   UNL A   1      35.825  32.043  38.907  1.00  0.00    -0.744 OA
ENDBRANCH  75  79
ENDBRANCH  48  72
BRANCH  60  83
ATOM     83  C   UNL A   1      44.883  28.578  33.908  1.00  0.00     0.023 A 
ATOM     84  C   UNL A   1      45.082  27.501  34.789  1.00  0.00     0.031 A 
ATOM     85  C   UNL A   1      45.914  29.527  33.782  1.00  0.00     0.131 A 
ATOM     86  C   UNL A   1      46.258  27.428  35.551  1.00  0.00     0.055 A 
ATOM     87  C   UNL A   1      47.110  29.413  34.493  1.00  0.00     0.041 A 
ATOM     88  F   UNL A   1      45.779  30.580  32.961  1.00  0.00    -0.206 F 
ATOM     89  C   UNL A   1      47.281  28.366  35.394  1.00  0.00     0.022 A 
BRANCH  86  90
ATOM     90  S   UNL A   1      46.395  26.142  36.823  1.00  0.00     0.124 S 
ATOM     91  O   UNL A   1      45.036  25.611  36.864  1.00  0.00    -0.237 OA
ATOM     92  O   UNL A   1      47.410  25.255  36.264  1.00  0.00    -0.237 OA
ATOM     93  O   UNL A   1      46.809  26.881  38.015  1.00  0.00    -0.744 OA
ENDBRANCH  86  90
ENDBRANCH  60  83
ENDBRANCH  34  35
ENDBRANCH  26  29
ENDBRANCH  24  25
ENDBRANCH  23  24
ENDBRANCH   1  23
TORSDOF 18
ENDMDL
MODEL 3
REMARK VINA RESULT:     -10.9      5.759     10.763
REMARK SMILES CN(CC(=O)NCCCCNC(=O)c1ccc(-c2c3nc(c(-c4cc(S(=O)(=O)[O-])ccc4F)c4ccc([nH]4)c(-c4cc(S(=O)(=O)[O-])ccc4F)c4nc(c(-c5cc(S(=O)(=O)[O-])ccc5F)c5ccc2[nH]5)C=C4)C=C3)cc1)C(=O)N[C@@H]1C[C@H]1c1ccccc1
REMARK SMILES IDX 8 1 7 2 6 3 4 4 5 5 3 7 2 8 1 9 77 10 78 11 79 12 80 14
REMARK SMILES IDX 81 15 82 16 83 17 84 18 88 19 85 20 87 21 86 22 9 23 10 24
REMARK SMILES IDX 11 25 12 26 13 28 14 29 15 30 76 31 16 32 75 33 17 34 18 35
REMARK SMILES IDX 19 36 69 37 20 38 74 39 68 40 70 41 21 42 73 43 67 44 66 45
REMARK SMILES IDX 22 47 54 48 34 49 53 50 35 51 38 52 52 53 71 54 36 55 37 56
REMARK SMILES IDX 51 58 72 59 39 60 23 61 24 62 32 63 25 64 31 65 33 66 30 67
REMARK SMILES IDX 26 68 27 69 28 70 29 71 55 72 56 73 64 74 57 75 63 76 65 77
REMARK SMILES IDX 62 78 58 79 59 80 60 81 61 82 40 83 41 84 49 85 42 86 48 87
REMARK SMILES IDX 50 88 47 89 43 90 44 91 45 92 46 93
REMARK H PARENT 6 6 79 13 11 27 70 46 38 57
REMARK Flexibility Score: inf
ROOT
ATOM      1  C   UNL A   1      31.396  30.704  25.894  1.00  0.00     0.023 C 
ENDROOT
BRANCH   1   2
ATOM      2  C   UNL A   1      32.607  29.902  26.359  1.00  0.00     0.116 C 
BRANCH   2   3
ATOM      3  N   UNL A   1      32.759  28.717  25.559  1.00  0.00    -0.355 N 
ATOM      4  C   UNL A   1      32.297  27.510  26.040  1.00  0.00     0.239 C 
ATOM      5  O   UNL A   1      31.143  27.315  26.401  1.00  0.00    -0.273 OA
ATOM      6  H   UNL A   1      33.188  28.767  24.676  1.00  0.00     0.163 HD
BRANCH   4   7
ATOM      7  C   UNL A   1      33.405  26.456  26.169  1.00  0.00     0.220 C 
BRANCH   7   8
ATOM      8  N   UNL A   1      33.002  25.177  25.568  1.00  0.00    -0.319 N 
ATOM      9  C   UNL A   1      31.994  24.424  26.313  1.00  0.00     0.149 C 
BRANCH   8  10
ATOM     10  C   UNL A   1      33.463  24.602  24.420  1.00  0.00     0.317 C 
ATOM     11  O   UNL A   1      34.524  23.968  24.409  1.00  0.00    -0.249 OA
ATOM     12  N   UNL A   1      32.849  24.740  23.223  1.00  0.00    -0.335 N 
ATOM     13  H   UNL A   1      33.268  24.175  22.535  1.00  0.00     0.165 HD
BRANCH  12  14
ATOM     14  C   UNL A   1      31.751  25.491  22.692  1.00  0.00     0.092 C 
ATOM     15  C   UNL A   1      31.917  26.027  21.295  1.00  0.00     0.036 C 
ATOM     16  C   UNL A   1      31.840  26.990  22.453  1.00  0.00     0.044 C 
BRANCH  16  17
ATOM     17  C   UNL A   1      30.632  27.900  22.600  1.00  0.00    -0.043 A 
ATOM     18  C   UNL A   1      30.653  29.250  22.203  1.00  0.00     0.004 A 
ATOM     19  C   UNL A   1      29.455  27.448  23.218  1.00  0.00     0.004 A 
ATOM     20  C   UNL A   1      29.554  30.094  22.394  1.00  0.00     0.000 A 
ATOM     21  C   UNL A   1      28.349  28.282  23.410  1.00  0.00     0.000 A 
ATOM     22  C   UNL A   1      28.399  29.607  22.998  1.00  0.00     0.000 A 
ENDBRANCH  16  17
ENDBRANCH  12  14
ENDBRANCH   8  10
ENDBRANCH   7   8
ENDBRANCH   4   7
ENDBRANCH   2   3
ENDBRANCH   1   2
BRANCH   1  23
ATOM     23  C   UNL A   1      31.345  32.127  26.443  1.00  0.00     0.023 C 
BRANCH  23  24
ATOM     24  C   UNL A   1      32.622  32.568  27.153  1.00  0.00     0.116 C 
BRANCH  24  25
ATOM     25  N   UNL A   1      32.535  33.938  27.643  1.00  0.00    -0.352 N 
ATOM     26  C   UNL A   1      33.232  34.552  28.649  1.00  0.00     0.251 C 
ATOM     27  H   UNL A   1      31.877  34.507  27.182  1.00  0.00     0.163 HD
ATOM     28  O   UNL A   1      32.873  35.659  29.050  1.00  0.00    -0.269 OA
BRANCH  26  29
ATOM     29  C   UNL A   1      34.391  33.872  29.258  1.00  0.00     0.039 A 
ATOM     30  C   UNL A   1      35.678  34.283  28.908  1.00  0.00     0.014 A 
ATOM     31  C   UNL A   1      34.206  32.836  30.177  1.00  0.00     0.014 A 
ATOM     32  C   UNL A   1      36.781  33.696  29.529  1.00  0.00     0.010 A 
ATOM     33  C   UNL A   1      35.299  32.311  30.855  1.00  0.00     0.010 A 
ATOM     34  C   UNL A   1      36.598  32.733  30.536  1.00  0.00    -0.014 A 
BRANCH  34  35
ATOM     35  C   UNL A   1      37.754  32.151  31.263  1.00  0.00     0.031 A 
ATOM     36  C   UNL A   1      38.533  31.018  30.656  1.00  0.00     0.074 A 
ATOM     37  C   UNL A   1      38.060  32.600  32.497  1.00  0.00     0.049 A 
ATOM     38  N   UNL A   1      39.520  30.324  31.164  1.00  0.00    -0.248 NA
ATOM     39  C   UNL A   1      38.124  30.588  29.311  1.00  0.00     0.031 C 
ATOM     40  C   UNL A   1      37.355  33.672  33.203  1.00  0.00     0.029 A 
ATOM     41  N   UNL A   1      39.036  32.209  33.377  1.00  0.00    -0.354 N 
ATOM     42  C   UNL A   1      39.845  29.372  30.204  1.00  0.00     0.074 A 
ATOM     43  C   UNL A   1      38.898  29.532  29.120  1.00  0.00     0.031 C 
ATOM     44  C   UNL A   1      37.943  33.874  34.393  1.00  0.00     0.029 A 
ATOM     45  C   UNL A   1      39.028  32.912  34.559  1.00  0.00     0.049 A 
ATOM     46  H   UNL A   1      39.682  31.492  33.182  1.00  0.00     0.167 HD
ATOM     47  C   UNL A   1      40.854  28.465  30.217  1.00  0.00     0.034 A 
ATOM     48  C   UNL A   1      39.799  32.788  35.657  1.00  0.00     0.034 A 
ATOM     49  C   UNL A   1      41.785  28.319  31.310  1.00  0.00     0.049 A 
ATOM     50  C   UNL A   1      40.879  31.737  35.674  1.00  0.00     0.074 A 
ATOM     51  C   UNL A   1      42.870  27.466  31.411  1.00  0.00     0.029 A 
ATOM     52  N   UNL A   1      41.732  29.034  32.501  1.00  0.00    -0.354 N 
ATOM     53  N   UNL A   1      41.204  30.871  34.741  1.00  0.00    -0.248 NA
ATOM     54  C   UNL A   1      41.699  31.653  36.888  1.00  0.00     0.031 C 
ATOM     55  C   UNL A   1      43.423  27.609  32.689  1.00  0.00     0.029 A 
ATOM     56  C   UNL A   1      42.742  28.614  33.356  1.00  0.00     0.049 A 
ATOM     57  H   UNL A   1      41.075  29.736  32.708  1.00  0.00     0.167 HD
ATOM     58  C   UNL A   1      42.292  30.162  35.245  1.00  0.00     0.074 A 
ATOM     59  C   UNL A   1      42.570  30.710  36.557  1.00  0.00     0.031 C 
ATOM     60  C   UNL A   1      43.001  29.156  34.671  1.00  0.00     0.034 A 
BRANCH  47  61
ATOM     61  C   UNL A   1      40.970  27.545  29.022  1.00  0.00     0.023 A 
ATOM     62  C   UNL A   1      41.981  27.712  28.057  1.00  0.00     0.031 A 
ATOM     63  C   UNL A   1      40.030  26.520  28.812  1.00  0.00     0.131 A 
ATOM     64  C   UNL A   1      41.969  26.940  26.886  1.00  0.00     0.055 A 
ATOM     65  C   UNL A   1      40.083  25.689  27.691  1.00  0.00     0.041 A 
ATOM     66  F   UNL A   1      39.028  26.321  29.684  1.00  0.00    -0.206 F 
ATOM     67  C   UNL A   1      41.044  25.910  26.709  1.00  0.00     0.022 A 
BRANCH  64  68
ATOM     68  S   UNL A   1      43.064  27.424  25.523  1.00  0.00     0.124 S 
ATOM     69  O   UNL A   1      44.113  28.152  26.233  1.00  0.00    -0.237 OA
ATOM     70  O   UNL A   1      43.450  26.138  24.955  1.00  0.00    -0.237 OA
ATOM     71  O   UNL A   1      42.208  28.252  24.674  1.00  0.00    -0.744 OA
ENDBRANCH  64  68
ENDBRANCH  47  61
BRANCH  48  72
ATOM     72  C   UNL A   1      39.578  33.676  36.835  1.00  0.00     0.023 A 
ATOM     73  C   UNL A   1      38.964  33.188  37.999  1.00  0.00     0.031 A 
ATOM     74  C   UNL A   1      39.955  35.030  36.805  1.00  0.00     0.131 A 
ATOM     75  C   UNL A   1      38.708  34.057  39.071  1.00  0.00     0.055 A 
ATOM     76  C   UNL A   1      39.747  35.877  37.895  1.00  0.00     0.041 A 
ATOM     77  F   UNL A   1      40.551  35.546  35.717  1.00  0.00    -0.206 F 
ATOM     78  C   UNL A   1      39.110  35.394  39.032  1.00  0.00     0.022 A 
BRANCH  75  79
ATOM     79  S   UNL A   1      37.773  33.430  40.492  1.00  0.00     0.124 S 
ATOM     80  O   UNL A   1      36.542  32.972  39.859  1.00  0.00    -0.237 OA
ATOM     81  O   UNL A   1      38.658  32.389  41.003  1.00  0.00    -0.237 OA
ATOM     82  O   UNL A   1      37.634  34.604  41.352  1.00  0.00    -0.744 OA
ENDBRANCH  75  79
ENDBRANCH  48  72
BRANCH  60  83
ATOM     83  C   UNL A   1      44.181  28.617  35.445  1.00  0.00     0.023 A 
ATOM     84  C   UNL A   1      44.049  27.568  36.371  1.00  0.00     0.031 A 
ATOM     85  C   UNL A   1      45.461  29.171  35.254  1.00  0.00     0.131 A 
ATOM     86  C   UNL A   1      45.163  27.143  37.111  1.00  0.00     0.055 A 
ATOM     87  C   UNL A   1      46.578  28.699  35.945  1.00  0.00     0.041 A 
ATOM     88  F   UNL A   1      45.648  30.179  34.388  1.00  0.00    -0.206 F 
ATOM     89  C   UNL A   1      46.429  27.688  36.890  1.00  0.00     0.022 A 
BRANCH  86  90
ATOM     90  S   UNL A   1      44.917  25.931  38.439  1.00  0.00     0.124 S 
ATOM     91  O   UNL A   1      44.047  26.660  39.357  1.00  0.00    -0.237 OA
ATOM     92  O   UNL A   1      44.303  24.812  37.731  1.00  0.00    -0.237 OA
ATOM     93  O   UNL A   1      46.271  25.684  38.932  1.00  0.00    -0.744 OA
ENDBRANCH  86  90
ENDBRANCH  60  83
ENDBRANCH  34  35
ENDBRANCH  26  29
ENDBRANCH  24  25
ENDBRANCH  23  24
ENDBRANCH   1  23
TORSDOF 18
ENDMDL
