MODEL 1
REMARK VINA RESULT:     -12.6      0.000      0.000
REMARK SMILES COc1ccc(NC(=O)N[C@@H]2C=C[C@H](C(=O)NCCCCNC(=O)c3ccc(-c4c5nc(c(-c6cc(S(=O)(=O)[O-])ccc6F)c6ccc([nH]6)c(-c6cc(S(=O)(=O)[O-])ccc6F)c6nc(c(-c7cc(S(=O)(=O)[O-])ccc7F)c7ccc4[nH]7)C=C6)C=C5)cc3)C2)c(C)c1
REMARK SMILES IDX 19 1 18 2 17 3 15 4 16 5 14 7 11 8 12 9 88 10 13 11 10 12
REMARK SMILES IDX 7 13 8 14 9 16 6 18 3 19 4 20 91 21 5 22 89 23 90 24 2 25
REMARK SMILES IDX 1 26 20 27 21 28 22 29 23 30 24 32 25 33 26 34 87 35 27 36
REMARK SMILES IDX 86 37 28 38 29 39 30 40 80 41 31 42 85 43 79 44 81 45 32 46
REMARK SMILES IDX 84 47 78 48 77 49 33 51 65 52 45 53 64 54 46 55 49 56 63 57
REMARK SMILES IDX 82 58 47 59 48 60 62 62 83 63 50 64 34 65 35 66 43 67 36 68
REMARK SMILES IDX 42 69 44 70 41 71 37 72 38 73 39 74 40 75 66 76 67 77 75 78
REMARK SMILES IDX 68 79 74 80 76 81 73 82 69 83 70 84 71 85 72 86 51 87 52 88
REMARK SMILES IDX 60 89 53 90 59 91 61 92 58 93 54 94 55 95 56 96 57 97
REMARK H PARENT 17 6 7 15 10 17 22 31 81 50 49 61
REMARK Flexibility Score: inf
ROOT
ATOM      1  C   UNL A   1      31.942  30.465  26.910  1.00  0.00     0.023 C 
ENDROOT
BRANCH   1   2
ATOM      2  C   UNL A   1      32.194  30.440  25.398  1.00  0.00     0.116 C 
BRANCH   2   3
ATOM      3  N   UNL A   1      30.954  30.428  24.634  1.00  0.00    -0.356 N 
ATOM      4  C   UNL A   1      30.293  29.386  24.064  1.00  0.00     0.227 C 
ATOM      5  O   UNL A   1      29.272  29.630  23.418  1.00  0.00    -0.274 OA
ATOM      6  H   UNL A   1      30.531  31.308  24.511  1.00  0.00     0.163 HD
BRANCH   4   7
ATOM      7  C   UNL A   1      30.842  27.972  24.245  1.00  0.00     0.103 C 
ATOM      8  C   UNL A   1      31.957  26.228  22.957  1.00  0.00     0.107 C 
ATOM      9  C   UNL A   1      30.471  26.051  22.957  1.00  0.00    -0.006 C 
ATOM     10  C   UNL A   1      32.082  27.701  23.370  1.00  0.00     0.047 C 
ATOM     11  C   UNL A   1      29.863  26.965  23.714  1.00  0.00    -0.016 C 
BRANCH   8  12
ATOM     12  N   UNL A   1      32.436  25.889  21.643  1.00  0.00    -0.332 N 
ATOM     13  N   UNL A   1      33.221  23.604  21.623  1.00  0.00    -0.308 N 
ATOM     14  C   UNL A   1      32.905  24.782  21.059  1.00  0.00     0.319 C 
ATOM     15  H   UNL A   1      33.603  22.995  20.950  1.00  0.00     0.171 HD
ATOM     16  O   UNL A   1      33.146  24.874  19.845  1.00  0.00    -0.248 OA
ATOM     17  H   UNL A   1      32.415  26.658  21.028  1.00  0.00     0.165 HD
BRANCH  13  18
ATOM     18  C   UNL A   1      33.173  22.970  22.881  1.00  0.00     0.046 A 
ATOM     19  C   UNL A   1      33.007  22.078  25.570  1.00  0.00     0.119 A 
ATOM     20  C   UNL A   1      31.900  22.032  24.746  1.00  0.00     0.048 A 
ATOM     21  C   UNL A   1      34.236  22.411  25.002  1.00  0.00     0.052 A 
ATOM     22  C   UNL A   1      32.016  22.424  23.411  1.00  0.00     0.030 A 
ATOM     23  C   UNL A   1      34.343  22.834  23.655  1.00  0.00    -0.024 A 
ATOM     24  C   UNL A   1      35.736  23.005  23.109  1.00  0.00     0.047 C 
BRANCH  19  25
ATOM     25  O   UNL A   1      33.016  21.758  26.898  1.00  0.00    -0.497 OA
ATOM     26  C   UNL A   1      34.095  22.305  27.658  1.00  0.00     0.278 C 
ENDBRANCH  19  25
ENDBRANCH  13  18
ENDBRANCH   8  12
ENDBRANCH   4   7
ENDBRANCH   2   3
ENDBRANCH   1   2
BRANCH   1  27
ATOM     27  C   UNL A   1      33.107  30.007  27.788  1.00  0.00     0.023 C 
BRANCH  27  28
ATOM     28  C   UNL A   1      34.432  30.713  27.542  1.00  0.00     0.116 C 
BRANCH  28  29
ATOM     29  N   UNL A   1      34.999  31.415  28.679  1.00  0.00    -0.352 N 
ATOM     30  C   UNL A   1      36.042  31.018  29.509  1.00  0.00     0.251 C 
ATOM     31  H   UNL A   1      34.593  32.287  28.889  1.00  0.00     0.163 HD
ATOM     32  O   UNL A   1      36.341  31.653  30.498  1.00  0.00    -0.269 OA
BRANCH  30  33
ATOM     33  C   UNL A   1      36.890  29.867  29.081  1.00  0.00     0.039 A 
ATOM     34  C   UNL A   1      37.238  28.938  30.068  1.00  0.00     0.014 A 
ATOM     35  C   UNL A   1      37.519  29.834  27.839  1.00  0.00     0.014 A 
ATOM     36  C   UNL A   1      38.381  28.158  29.900  1.00  0.00     0.010 A 
ATOM     37  C   UNL A   1      38.705  29.132  27.707  1.00  0.00     0.010 A 
ATOM     38  C   UNL A   1      39.173  28.352  28.765  1.00  0.00    -0.014 A 
BRANCH  38  39
ATOM     39  C   UNL A   1      40.549  27.874  28.681  1.00  0.00     0.031 A 
ATOM     40  C   UNL A   1      40.835  26.490  28.247  1.00  0.00     0.074 A 
ATOM     41  C   UNL A   1      41.584  28.665  29.048  1.00  0.00     0.049 A 
ATOM     42  N   UNL A   1      41.733  25.738  28.792  1.00  0.00    -0.248 NA
ATOM     43  C   UNL A   1      40.106  25.843  27.162  1.00  0.00     0.031 C 
ATOM     44  C   UNL A   1      43.006  28.345  28.925  1.00  0.00     0.029 A 
ATOM     45  N   UNL A   1      41.579  29.837  29.805  1.00  0.00    -0.354 N 
ATOM     46  C   UNL A   1      41.903  24.655  27.962  1.00  0.00     0.074 A 
ATOM     47  C   UNL A   1      40.808  24.713  27.018  1.00  0.00     0.031 C 
ATOM     48  C   UNL A   1      43.685  29.070  29.830  1.00  0.00     0.029 A 
ATOM     49  C   UNL A   1      42.701  29.768  30.643  1.00  0.00     0.049 A 
ATOM     50  H   UNL A   1      40.920  30.567  29.759  1.00  0.00     0.167 HD
ATOM     51  C   UNL A   1      43.037  23.902  28.015  1.00  0.00     0.034 A 
ATOM     52  C   UNL A   1      42.660  29.767  32.007  1.00  0.00     0.034 A 
ATOM     53  C   UNL A   1      44.015  24.432  28.956  1.00  0.00     0.049 A 
ATOM     54  C   UNL A   1      43.392  28.596  32.635  1.00  0.00     0.074 A 
ATOM     55  C   UNL A   1      45.145  25.213  28.774  1.00  0.00     0.029 A 
ATOM     56  N   UNL A   1      43.758  24.423  30.320  1.00  0.00    -0.354 N 
ATOM     57  N   UNL A   1      43.729  27.516  31.987  1.00  0.00    -0.248 NA
ATOM     58  C   UNL A   1      43.742  28.525  34.051  1.00  0.00     0.031 C 
ATOM     59  C   UNL A   1      45.553  25.699  30.038  1.00  0.00     0.029 A 
ATOM     60  C   UNL A   1      44.684  25.199  30.992  1.00  0.00     0.049 A 
ATOM     61  H   UNL A   1      43.021  23.932  30.749  1.00  0.00     0.167 HD
ATOM     62  C   UNL A   1      44.276  26.604  32.858  1.00  0.00     0.074 A 
ATOM     63  C   UNL A   1      44.294  27.302  34.131  1.00  0.00     0.031 C 
ATOM     64  C   UNL A   1      44.633  25.350  32.442  1.00  0.00     0.034 A 
BRANCH  51  65
ATOM     65  C   UNL A   1      43.367  22.894  26.946  1.00  0.00     0.023 A 
ATOM     66  C   UNL A   1      42.808  21.603  26.996  1.00  0.00     0.031 A 
ATOM     67  C   UNL A   1      44.249  23.146  25.878  1.00  0.00     0.131 A 
ATOM     68  C   UNL A   1      43.200  20.602  26.090  1.00  0.00     0.055 A 
ATOM     69  C   UNL A   1      44.673  22.139  25.000  1.00  0.00     0.041 A 
ATOM     70  F   UNL A   1      44.730  24.380  25.654  1.00  0.00    -0.206 F 
ATOM     71  C   UNL A   1      44.159  20.853  25.113  1.00  0.00     0.022 A 
BRANCH  68  72
ATOM     72  S   UNL A   1      42.436  18.961  26.218  1.00  0.00     0.124 S 
ATOM     73  O   UNL A   1      43.315  18.145  25.387  1.00  0.00    -0.237 OA
ATOM     74  O   UNL A   1      42.489  18.707  27.654  1.00  0.00    -0.237 OA
ATOM     75  O   UNL A   1      41.094  19.169  25.677  1.00  0.00    -0.744 OA
ENDBRANCH  68  72
ENDBRANCH  51  65
BRANCH  52  76
ATOM     76  C   UNL A   1      41.447  30.395  32.598  1.00  0.00     0.023 A 
ATOM     77  C   UNL A   1      41.389  31.801  32.658  1.00  0.00     0.031 A 
ATOM     78  C   UNL A   1      40.254  29.674  32.749  1.00  0.00     0.131 A 
ATOM     79  C   UNL A   1      40.148  32.448  32.714  1.00  0.00     0.055 A 
ATOM     80  C   UNL A   1      39.021  30.325  32.847  1.00  0.00     0.041 A 
ATOM     81  F   UNL A   1      40.249  28.336  32.672  1.00  0.00    -0.206 F 
ATOM     82  C   UNL A   1      38.960  31.716  32.785  1.00  0.00     0.022 A 
BRANCH  79  83
ATOM     83  S   UNL A   1      40.053  34.242  32.446  1.00  0.00     0.124 S 
ATOM     84  O   UNL A   1      38.986  34.355  31.460  1.00  0.00    -0.237 OA
ATOM     85  O   UNL A   1      39.744  34.771  33.772  1.00  0.00    -0.237 OA
ATOM     86  O   UNL A   1      41.397  34.565  31.972  1.00  0.00    -0.744 OA
ENDBRANCH  79  83
ENDBRANCH  52  76
BRANCH  64  87
ATOM     87  C   UNL A   1      45.050  24.181  33.318  1.00  0.00     0.023 A 
ATOM     88  C   UNL A   1      46.320  24.050  33.896  1.00  0.00     0.031 A 
ATOM     89  C   UNL A   1      44.127  23.158  33.660  1.00  0.00     0.131 A 
ATOM     90  C   UNL A   1      46.659  22.935  34.687  1.00  0.00     0.055 A 
ATOM     91  C   UNL A   1      44.441  22.089  34.507  1.00  0.00     0.041 A 
ATOM     92  F   UNL A   1      42.868  23.152  33.196  1.00  0.00    -0.206 F 
ATOM     93  C   UNL A   1      45.722  21.961  35.014  1.00  0.00     0.022 A 
BRANCH  90  94
ATOM     94  S   UNL A   1      48.381  22.756  35.225  1.00  0.00     0.124 S 
ATOM     95  O   UNL A   1      48.280  23.039  36.654  1.00  0.00    -0.237 OA
ATOM     96  O   UNL A   1      48.675  21.371  34.873  1.00  0.00    -0.237 OA
ATOM     97  O   UNL A   1      49.094  23.763  34.443  1.00  0.00    -0.744 OA
ENDBRANCH  90  94
ENDBRANCH  64  87
ENDBRANCH  38  39
ENDBRANCH  30  33
ENDBRANCH  28  29
ENDBRANCH  27  28
ENDBRANCH   1  27
TORSDOF 17
ENDMDL
MODEL 2
REMARK VINA RESULT:     -12.4      4.097     10.687
REMARK SMILES COc1ccc(NC(=O)N[C@@H]2C=C[C@H](C(=O)NCCCCNC(=O)c3ccc(-c4c5nc(c(-c6cc(S(=O)(=O)[O-])ccc6F)c6ccc([nH]6)c(-c6cc(S(=O)(=O)[O-])ccc6F)c6nc(c(-c7cc(S(=O)(=O)[O-])ccc7F)c7ccc4[nH]7)C=C6)C=C5)cc3)C2)c(C)c1
REMARK SMILES IDX 19 1 18 2 17 3 15 4 16 5 14 7 11 8 12 9 88 10 13 11 10 12
REMARK SMILES IDX 7 13 8 14 9 16 6 18 3 19 4 20 91 21 5 22 89 23 90 24 2 25
REMARK SMILES IDX 1 26 20 27 21 28 22 29 23 30 24 32 25 33 26 34 87 35 27 36
REMARK SMILES IDX 86 37 28 38 29 39 30 40 80 41 31 42 85 43 79 44 81 45 32 46
REMARK SMILES IDX 84 47 78 48 77 49 33 51 65 52 45 53 64 54 46 55 49 56 63 57
REMARK SMILES IDX 82 58 47 59 48 60 62 62 83 63 50 64 34 65 35 66 43 67 36 68
REMARK SMILES IDX 42 69 44 70 41 71 37 72 38 73 39 74 40 75 66 76 67 77 75 78
REMARK SMILES IDX 68 79 74 80 76 81 73 82 69 83 70 84 71 85 72 86 51 87 52 88
REMARK SMILES IDX 60 89 53 90 59 91 61 92 58 93 54 94 55 95 56 96 57 97
REMARK H PARENT 17 6 7 15 10 17 22 31 81 50 49 61
REMARK Flexibility Score: inf
ROOT
ATOM      1  C   UNL A   1      39.502  21.938  25.824  1.00  0.00     0.023 C 
ENDROOT
BRANCH   1   2
ATOM      2  C   UNL A   1      38.055  22.441  25.762  1.00  0.00     0.116 C 
BRANCH   2   3
ATOM      3  N   UNL A   1      37.116  21.378  25.431  1.00  0.00    -0.356 N 
ATOM      4  C   UNL A   1      35.781  21.442  25.186  1.00  0.00     0.227 C 
ATOM      5  O   UNL A   1      35.180  20.386  24.969  1.00  0.00    -0.274 OA
ATOM      6  H   UNL A   1      37.509  20.476  25.377  1.00  0.00     0.163 HD
BRANCH   4   7
ATOM      7  C   UNL A   1      35.090  22.803  25.193  1.00  0.00     0.103 C 
ATOM      8  C   UNL A   1      33.047  23.851  26.015  1.00  0.00     0.107 C 
ATOM      9  C   UNL A   1      32.892  23.364  24.607  1.00  0.00    -0.006 C 
ATOM     10  C   UNL A   1      34.270  23.044  26.475  1.00  0.00     0.047 C 
ATOM     11  C   UNL A   1      34.027  22.850  24.133  1.00  0.00    -0.016 C 
BRANCH   8  12
ATOM     12  N   UNL A   1      31.811  23.590  26.704  1.00  0.00    -0.332 N 
ATOM     13  N   UNL A   1      30.189  25.291  26.145  1.00  0.00    -0.308 N 
ATOM     14  C   UNL A   1      30.595  24.145  26.718  1.00  0.00     0.319 C 
ATOM     15  H   UNL A   1      29.250  25.476  26.381  1.00  0.00     0.171 HD
ATOM     16  O   UNL A   1      29.745  23.561  27.407  1.00  0.00    -0.248 OA
ATOM     17  H   UNL A   1      31.878  22.819  27.312  1.00  0.00     0.165 HD
BRANCH  13  18
ATOM     18  C   UNL A   1      30.690  26.311  25.311  1.00  0.00     0.046 A 
ATOM     19  C   UNL A   1      32.044  28.123  23.597  1.00  0.00     0.119 A 
ATOM     20  C   UNL A   1      31.151  27.204  23.083  1.00  0.00     0.048 A 
ATOM     21  C   UNL A   1      32.133  28.247  24.983  1.00  0.00     0.052 A 
ATOM     22  C   UNL A   1      30.455  26.358  23.947  1.00  0.00     0.030 A 
ATOM     23  C   UNL A   1      31.445  27.369  25.855  1.00  0.00    -0.024 A 
ATOM     24  C   UNL A   1      31.486  27.705  27.323  1.00  0.00     0.047 C 
BRANCH  19  25
ATOM     25  O   UNL A   1      32.811  28.978  22.858  1.00  0.00    -0.497 OA
ATOM     26  C   UNL A   1      34.024  28.429  22.340  1.00  0.00     0.278 C 
ENDBRANCH  19  25
ENDBRANCH  13  18
ENDBRANCH   8  12
ENDBRANCH   4   7
ENDBRANCH   2   3
ENDBRANCH   1   2
BRANCH   1  27
ATOM     27  C   UNL A   1      40.077  21.734  27.226  1.00  0.00     0.023 C 
BRANCH  27  28
ATOM     28  C   UNL A   1      41.019  22.825  27.714  1.00  0.00     0.116 C 
BRANCH  28  29
ATOM     29  N   UNL A   1      41.889  23.411  26.711  1.00  0.00    -0.352 N 
ATOM     30  C   UNL A   1      41.826  24.680  26.146  1.00  0.00     0.251 C 
ATOM     31  H   UNL A   1      42.619  22.835  26.389  1.00  0.00     0.163 HD
ATOM     32  O   UNL A   1      42.551  25.003  25.230  1.00  0.00    -0.269 OA
BRANCH  30  33
ATOM     33  C   UNL A   1      40.943  25.698  26.788  1.00  0.00     0.039 A 
ATOM     34  C   UNL A   1      40.894  26.961  26.185  1.00  0.00     0.014 A 
ATOM     35  C   UNL A   1      40.391  25.507  28.052  1.00  0.00     0.014 A 
ATOM     36  C   UNL A   1      40.530  28.070  26.948  1.00  0.00     0.010 A 
ATOM     37  C   UNL A   1      40.121  26.613  28.839  1.00  0.00     0.010 A 
ATOM     38  C   UNL A   1      40.261  27.896  28.308  1.00  0.00    -0.014 A 
BRANCH  38  39
ATOM     39  C   UNL A   1      40.245  29.012  29.249  1.00  0.00     0.031 A 
ATOM     40  C   UNL A   1      39.136  29.989  29.232  1.00  0.00     0.074 A 
ATOM     41  C   UNL A   1      41.265  29.204  30.118  1.00  0.00     0.049 A 
ATOM     42  N   UNL A   1      39.299  31.263  29.373  1.00  0.00    -0.248 NA
ATOM     43  C   UNL A   1      37.745  29.593  29.036  1.00  0.00     0.031 C 
ATOM     44  C   UNL A   1      41.329  30.219  31.169  1.00  0.00     0.029 A 
ATOM     45  N   UNL A   1      42.553  28.667  30.104  1.00  0.00    -0.354 N 
ATOM     46  C   UNL A   1      38.053  31.804  29.582  1.00  0.00     0.074 A 
ATOM     47  C   UNL A   1      37.114  30.750  29.269  1.00  0.00     0.031 C 
ATOM     48  C   UNL A   1      42.621  30.459  31.450  1.00  0.00     0.029 A 
ATOM     49  C   UNL A   1      43.413  29.705  30.492  1.00  0.00     0.049 A 
ATOM     50  H   UNL A   1      42.807  27.746  29.871  1.00  0.00     0.167 HD
ATOM     51  C   UNL A   1      37.909  33.025  30.170  1.00  0.00     0.034 A 
ATOM     52  C   UNL A   1      44.419  30.215  29.724  1.00  0.00     0.034 A 
ATOM     53  C   UNL A   1      39.181  33.593  30.595  1.00  0.00     0.049 A 
ATOM     54  C   UNL A   1      44.344  31.720  29.549  1.00  0.00     0.074 A 
ATOM     55  C   UNL A   1      39.810  33.634  31.830  1.00  0.00     0.029 A 
ATOM     56  N   UNL A   1      40.128  33.982  29.658  1.00  0.00    -0.354 N 
ATOM     57  N   UNL A   1      43.278  32.429  29.790  1.00  0.00    -0.248 NA
ATOM     58  C   UNL A   1      45.443  32.531  29.030  1.00  0.00     0.031 C 
ATOM     59  C   UNL A   1      41.154  34.024  31.626  1.00  0.00     0.029 A 
ATOM     60  C   UNL A   1      41.340  34.241  30.272  1.00  0.00     0.049 A 
ATOM     61  H   UNL A   1      39.961  34.064  28.691  1.00  0.00     0.167 HD
ATOM     62  C   UNL A   1      43.498  33.737  29.430  1.00  0.00     0.074 A 
ATOM     63  C   UNL A   1      44.883  33.752  28.995  1.00  0.00     0.031 C 
ATOM     64  C   UNL A   1      42.500  34.672  29.502  1.00  0.00     0.034 A 
BRANCH  51  65
ATOM     65  C   UNL A   1      36.571  33.514  30.657  1.00  0.00     0.023 A 
ATOM     66  C   UNL A   1      35.686  34.154  29.768  1.00  0.00     0.031 A 
ATOM     67  C   UNL A   1      36.135  33.402  31.991  1.00  0.00     0.131 A 
ATOM     68  C   UNL A   1      34.491  34.737  30.222  1.00  0.00     0.055 A 
ATOM     69  C   UNL A   1      34.965  34.019  32.454  1.00  0.00     0.041 A 
ATOM     70  F   UNL A   1      36.834  32.690  32.890  1.00  0.00    -0.206 F 
ATOM     71  C   UNL A   1      34.142  34.705  31.569  1.00  0.00     0.022 A 
BRANCH  68  72
ATOM     72  S   UNL A   1      33.401  35.545  29.016  1.00  0.00     0.124 S 
ATOM     73  O   UNL A   1      32.595  36.418  29.864  1.00  0.00    -0.237 OA
ATOM     74  O   UNL A   1      34.356  36.207  28.133  1.00  0.00    -0.237 OA
ATOM     75  O   UNL A   1      32.675  34.428  28.414  1.00  0.00    -0.744 OA
ENDBRANCH  68  72
ENDBRANCH  51  65
BRANCH  52  76
ATOM     76  C   UNL A   1      44.947  29.289  28.686  1.00  0.00     0.023 A 
ATOM     77  C   UNL A   1      45.910  28.337  29.071  1.00  0.00     0.031 A 
ATOM     78  C   UNL A   1      44.272  29.096  27.472  1.00  0.00     0.131 A 
ATOM     79  C   UNL A   1      46.067  27.159  28.329  1.00  0.00     0.055 A 
ATOM     80  C   UNL A   1      44.464  27.939  26.711  1.00  0.00     0.041 A 
ATOM     81  F   UNL A   1      43.327  29.957  27.070  1.00  0.00    -0.206 F 
ATOM     82  C   UNL A   1      45.330  26.944  27.162  1.00  0.00     0.022 A 
BRANCH  79  83
ATOM     83  S   UNL A   1      47.049  25.790  29.007  1.00  0.00     0.124 S 
ATOM     84  O   UNL A   1      47.846  25.379  27.858  1.00  0.00    -0.237 OA
ATOM     85  O   UNL A   1      47.792  26.410  30.101  1.00  0.00    -0.237 OA
ATOM     86  O   UNL A   1      46.021  24.846  29.442  1.00  0.00    -0.744 OA
ENDBRANCH  79  83
ENDBRANCH  52  76
BRANCH  64  87
ATOM     87  C   UNL A   1      42.534  36.087  28.951  1.00  0.00     0.023 A 
ATOM     88  C   UNL A   1      43.217  37.149  29.561  1.00  0.00     0.031 A 
ATOM     89  C   UNL A   1      41.907  36.406  27.718  1.00  0.00     0.131 A 
ATOM     90  C   UNL A   1      43.199  38.447  29.015  1.00  0.00     0.055 A 
ATOM     91  C   UNL A   1      41.953  37.680  27.138  1.00  0.00     0.041 A 
ATOM     92  F   UNL A   1      41.227  35.494  27.008  1.00  0.00    -0.206 F 
ATOM     93  C   UNL A   1      42.589  38.717  27.796  1.00  0.00     0.022 A 
BRANCH  90  94
ATOM     94  S   UNL A   1      43.943  39.791  29.977  1.00  0.00     0.124 S 
ATOM     95  O   UNL A   1      43.213  39.697  31.239  1.00  0.00    -0.237 OA
ATOM     96  O   UNL A   1      45.347  39.399  30.028  1.00  0.00    -0.237 OA
ATOM     97  O   UNL A   1      43.657  40.985  29.184  1.00  0.00    -0.744 OA
ENDBRANCH  90  94
ENDBRANCH  64  87
ENDBRANCH  38  39
ENDBRANCH  30  33
ENDBRANCH  28  29
ENDBRANCH  27  28
ENDBRANCH   1  27
TORSDOF 17
ENDMDL
MODEL 3
REMARK VINA RESULT:     -12.3      2.253      3.903
REMARK SMILES COc1ccc(NC(=O)N[C@@H]2C=C[C@H](C(=O)NCCCCNC(=O)c3ccc(-c4c5nc(c(-c6cc(S(=O)(=O)[O-])ccc6F)c6ccc([nH]6)c(-c6cc(S(=O)(=O)[O-])ccc6F)c6nc(c(-c7cc(S(=O)(=O)[O-])ccc7F)c7ccc4[nH]7)C=C6)C=C5)cc3)C2)c(C)c1
REMARK SMILES IDX 19 1 18 2 17 3 15 4 16 5 14 7 11 8 12 9 88 10 13 11 10 12
REMARK SMILES IDX 7 13 8 14 9 16 6 18 3 19 4 20 91 21 5 22 89 23 90 24 2 25
REMARK SMILES IDX 1 26 20 27 21 28 22 29 23 30 24 32 25 33 26 34 87 35 27 36
REMARK SMILES IDX 86 37 28 38 29 39 30 40 80 41 31 42 85 43 79 44 81 45 32 46
REMARK SMILES IDX 84 47 78 48 77 49 33 51 65 52 45 53 64 54 46 55 49 56 63 57
REMARK SMILES IDX 82 58 47 59 48 60 62 62 83 63 50 64 34 65 35 66 43 67 36 68
REMARK SMILES IDX 42 69 44 70 41 71 37 72 38 73 39 74 40 75 66 76 67 77 75 78
REMARK SMILES IDX 68 79 74 80 76 81 73 82 69 83 70 84 71 85 72 86 51 87 52 88
REMARK SMILES IDX 60 89 53 90 59 91 61 92 58 93 54 94 55 95 56 96 57 97
REMARK H PARENT 17 6 7 15 10 17 22 31 81 50 49 61
REMARK Flexibility Score: inf
ROOT
ATOM      1  C   UNL A   1      34.681  33.473  29.027  1.00  0.00     0.023 C 
ENDROOT
BRANCH   1   2
ATOM      2  C   UNL A   1      34.042  32.539  27.992  1.00  0.00     0.116 C 
BRANCH   2   3
ATOM      3  N   UNL A   1      34.562  31.181  28.082  1.00  0.00    -0.356 N 
ATOM      4  C   UNL A   1      34.072  30.026  27.560  1.00  0.00     0.227 C 
ATOM      5  O   UNL A   1      34.670  28.977  27.811  1.00  0.00    -0.274 OA
ATOM      6  H   UNL A   1      35.395  31.086  28.599  1.00  0.00     0.163 HD
BRANCH   4   7
ATOM      7  C   UNL A   1      32.814  30.078  26.696  1.00  0.00     0.103 C 
ATOM      8  C   UNL A   1      31.206  28.568  25.654  1.00  0.00     0.107 C 
ATOM      9  C   UNL A   1      32.315  28.930  24.715  1.00  0.00    -0.006 C 
ATOM     10  C   UNL A   1      31.833  28.930  27.008  1.00  0.00     0.047 C 
ATOM     11  C   UNL A   1      33.160  29.806  25.260  1.00  0.00    -0.016 C 
BRANCH   8  12
ATOM     12  N   UNL A   1      30.893  27.180  25.444  1.00  0.00    -0.332 N 
ATOM     13  N   UNL A   1      29.434  26.951  23.532  1.00  0.00    -0.308 N 
ATOM     14  C   UNL A   1      30.210  26.488  24.528  1.00  0.00     0.319 C 
ATOM     15  H   UNL A   1      29.007  26.202  23.056  1.00  0.00     0.171 HD
ATOM     16  O   UNL A   1      30.237  25.254  24.653  1.00  0.00    -0.248 OA
ATOM     17  H   UNL A   1      31.272  26.601  26.145  1.00  0.00     0.165 HD
BRANCH  13  18
ATOM     18  C   UNL A   1      29.045  28.177  22.957  1.00  0.00     0.046 A 
ATOM     19  C   UNL A   1      28.408  30.824  22.153  1.00  0.00     0.119 A 
ATOM     20  C   UNL A   1      29.593  30.236  21.757  1.00  0.00     0.048 A 
ATOM     21  C   UNL A   1      27.468  30.030  22.809  1.00  0.00     0.052 A 
ATOM     22  C   UNL A   1      29.864  28.915  22.118  1.00  0.00     0.030 A 
ATOM     23  C   UNL A   1      27.757  28.699  23.196  1.00  0.00    -0.024 A 
ATOM     24  C   UNL A   1      26.612  27.890  23.745  1.00  0.00     0.047 C 
BRANCH  19  25
ATOM     25  O   UNL A   1      28.043  32.115  21.897  1.00  0.00    -0.497 OA
ATOM     26  C   UNL A   1      27.887  32.452  20.518  1.00  0.00     0.278 C 
ENDBRANCH  19  25
ENDBRANCH  13  18
ENDBRANCH   8  12
ENDBRANCH   4   7
ENDBRANCH   2   3
ENDBRANCH   1   2
BRANCH   1  27
ATOM     27  C   UNL A   1      36.163  33.784  28.818  1.00  0.00     0.023 C 
BRANCH  27  28
ATOM     28  C   UNL A   1      37.131  32.978  29.671  1.00  0.00     0.116 C 
BRANCH  28  29
ATOM     29  N   UNL A   1      36.559  32.319  30.831  1.00  0.00    -0.352 N 
ATOM     30  C   UNL A   1      36.492  30.957  31.106  1.00  0.00     0.251 C 
ATOM     31  H   UNL A   1      36.170  32.913  31.512  1.00  0.00     0.163 HD
ATOM     32  O   UNL A   1      35.881  30.534  32.065  1.00  0.00    -0.269 OA
BRANCH  30  33
ATOM     33  C   UNL A   1      37.311  30.025  30.278  1.00  0.00     0.039 A 
ATOM     34  C   UNL A   1      37.466  28.720  30.762  1.00  0.00     0.014 A 
ATOM     35  C   UNL A   1      38.093  30.472  29.216  1.00  0.00     0.014 A 
ATOM     36  C   UNL A   1      38.568  27.967  30.359  1.00  0.00     0.010 A 
ATOM     37  C   UNL A   1      39.237  29.768  28.883  1.00  0.00     0.010 A 
ATOM     38  C   UNL A   1      39.512  28.551  29.509  1.00  0.00    -0.014 A 
BRANCH  38  39
ATOM     39  C   UNL A   1      40.853  28.001  29.337  1.00  0.00     0.031 A 
ATOM     40  C   UNL A   1      41.039  26.634  28.807  1.00  0.00     0.074 A 
ATOM     41  C   UNL A   1      41.947  28.708  29.706  1.00  0.00     0.049 A 
ATOM     42  N   UNL A   1      41.912  25.799  29.265  1.00  0.00    -0.248 NA
ATOM     43  C   UNL A   1      40.230  26.099  27.717  1.00  0.00     0.031 C 
ATOM     44  C   UNL A   1      43.341  28.316  29.503  1.00  0.00     0.029 A 
ATOM     45  N   UNL A   1      42.040  29.828  30.533  1.00  0.00    -0.354 N 
ATOM     46  C   UNL A   1      41.985  24.763  28.364  1.00  0.00     0.074 A 
ATOM     47  C   UNL A   1      40.858  24.943  27.474  1.00  0.00     0.031 C 
ATOM     48  C   UNL A   1      44.097  28.943  30.420  1.00  0.00     0.029 A 
ATOM     49  C   UNL A   1      43.189  29.642  31.316  1.00  0.00     0.049 A 
ATOM     50  H   UNL A   1      41.425  30.595  30.561  1.00  0.00     0.167 HD
ATOM     51  C   UNL A   1      43.074  23.945  28.322  1.00  0.00     0.034 A 
ATOM     52  C   UNL A   1      43.202  29.557  32.678  1.00  0.00     0.034 A 
ATOM     53  C   UNL A   1      44.117  24.358  29.250  1.00  0.00     0.049 A 
ATOM     54  C   UNL A   1      43.887  28.309  33.201  1.00  0.00     0.074 A 
ATOM     55  C   UNL A   1      45.284  25.085  29.068  1.00  0.00     0.029 A 
ATOM     56  N   UNL A   1      43.914  24.277  30.622  1.00  0.00    -0.354 N 
ATOM     57  N   UNL A   1      44.134  27.255  32.474  1.00  0.00    -0.248 NA
ATOM     58  C   UNL A   1      44.289  28.128  34.594  1.00  0.00     0.031 C 
ATOM     59  C   UNL A   1      45.769  25.466  30.341  1.00  0.00     0.029 A 
ATOM     60  C   UNL A   1      44.911  24.956  31.299  1.00  0.00     0.049 A 
ATOM     61  H   UNL A   1      43.167  23.802  31.051  1.00  0.00     0.167 HD
ATOM     62  C   UNL A   1      44.661  26.260  33.263  1.00  0.00     0.074 A 
ATOM     63  C   UNL A   1      44.770  26.873  34.575  1.00  0.00     0.031 C 
ATOM     64  C   UNL A   1      44.926  25.016  32.756  1.00  0.00     0.034 A 
BRANCH  51  65
ATOM     65  C   UNL A   1      43.301  22.990  27.180  1.00  0.00     0.023 A 
ATOM     66  C   UNL A   1      42.728  21.705  27.210  1.00  0.00     0.031 A 
ATOM     67  C   UNL A   1      44.098  23.287  26.059  1.00  0.00     0.131 A 
ATOM     68  C   UNL A   1      43.030  20.748  26.226  1.00  0.00     0.055 A 
ATOM     69  C   UNL A   1      44.434  22.322  25.099  1.00  0.00     0.041 A 
ATOM     70  F   UNL A   1      44.578  24.526  25.859  1.00  0.00    -0.206 F 
ATOM     71  C   UNL A   1      43.911  21.038  25.188  1.00  0.00     0.022 A 
BRANCH  68  72
ATOM     72  S   UNL A   1      42.253  19.111  26.332  1.00  0.00     0.124 S 
ATOM     73  O   UNL A   1      40.901  19.378  25.852  1.00  0.00    -0.237 OA
ATOM     74  O   UNL A   1      43.102  18.310  25.456  1.00  0.00    -0.237 OA
ATOM     75  O   UNL A   1      42.349  18.783  27.754  1.00  0.00    -0.744 OA
ENDBRANCH  68  72
ENDBRANCH  51  65
BRANCH  52  76
ATOM     76  C   UNL A   1      42.053  30.214  33.358  1.00  0.00     0.023 A 
ATOM     77  C   UNL A   1      42.130  31.598  33.607  1.00  0.00     0.031 A 
ATOM     78  C   UNL A   1      40.795  29.597  33.421  1.00  0.00     0.131 A 
ATOM     79  C   UNL A   1      40.957  32.348  33.759  1.00  0.00     0.055 A 
ATOM     80  C   UNL A   1      39.630  30.344  33.616  1.00  0.00     0.041 A 
ATOM     81  F   UNL A   1      40.661  28.288  33.166  1.00  0.00    -0.206 F 
ATOM     82  C   UNL A   1      39.703  31.731  33.741  1.00  0.00     0.022 A 
BRANCH  79  83
ATOM     83  S   UNL A   1      41.037  34.162  33.735  1.00  0.00     0.124 S 
ATOM     84  O   UNL A   1      41.750  34.460  34.970  1.00  0.00    -0.237 OA
ATOM     85  O   UNL A   1      41.763  34.457  32.502  1.00  0.00    -0.237 OA
ATOM     86  O   UNL A   1      39.627  34.543  33.704  1.00  0.00    -0.744 OA
ENDBRANCH  79  83
ENDBRANCH  52  76
BRANCH  64  87
ATOM     87  C   UNL A   1      45.307  23.773  33.541  1.00  0.00     0.023 A 
ATOM     88  C   UNL A   1      46.613  23.481  33.959  1.00  0.00     0.031 A 
ATOM     89  C   UNL A   1      44.321  22.842  33.960  1.00  0.00     0.131 A 
ATOM     90  C   UNL A   1      46.913  22.302  34.669  1.00  0.00     0.055 A 
ATOM     91  C   UNL A   1      44.609  21.709  34.730  1.00  0.00     0.041 A 
ATOM     92  F   UNL A   1      43.024  22.992  33.649  1.00  0.00    -0.206 F 
ATOM     93  C   UNL A   1      45.917  21.422  35.076  1.00  0.00     0.022 A 
BRANCH  90  94
ATOM     94  S   UNL A   1      48.655  21.915  34.992  1.00  0.00     0.124 S 
ATOM     95  O   UNL A   1      48.672  21.798  36.448  1.00  0.00    -0.237 OA
ATOM     96  O   UNL A   1      48.839  20.670  34.254  1.00  0.00    -0.237 OA
ATOM     97  O   UNL A   1      49.371  23.070  34.455  1.00  0.00    -0.744 OA
ENDBRANCH  90  94
ENDBRANCH  64  87
ENDBRANCH  38  39
ENDBRANCH  30  33
ENDBRANCH  28  29
ENDBRANCH  27  28
ENDBRANCH   1  27
TORSDOF 17
ENDMDL
