MODEL 1
REMARK VINA RESULT:     -12.8      0.000      0.000
REMARK SMILES O=C(NCCCCNC(=O)[C@@H](NC(=O)c1ccc(C[NH+]2CCCCC2)cc1)c1ccccc1F)c1ccc(-c2c3nc(c(-c4cc(S(=O)(=O)[O-])ccc4F)c4ccc([nH]4)c(-c4cc(S(=O)(=O)[O-])ccc4F)c4nc(c(-c5cc(S(=O)(=O)[O-])ccc5F)c5ccc2[nH]5)C=C4)C=C3)cc1
REMARK SMILES IDX 6 1 5 2 4 3 3 4 1 5 2 6 35 8 36 9 97 10 37 11 96 12 38 13
REMARK SMILES IDX 39 14 40 15 90 16 41 17 95 18 89 19 91 20 42 21 94 22 88 23
REMARK SMILES IDX 87 24 43 26 75 27 55 28 74 29 56 30 59 31 73 32 92 33 57 34
REMARK SMILES IDX 58 35 72 37 93 38 60 39 44 40 45 41 53 42 46 43 52 44 54 45
REMARK SMILES IDX 51 46 47 47 48 48 49 49 50 50 76 51 77 52 85 53 78 54 84 55
REMARK SMILES IDX 86 56 83 57 79 58 80 59 81 60 82 61 61 62 62 63 70 64 63 65
REMARK SMILES IDX 69 66 71 67 68 68 64 69 65 70 66 71 67 72 7 73 8 74 9 75
REMARK SMILES IDX 10 77 11 78 12 79 13 80 14 82 15 83 16 84 27 85 17 86 26 87
REMARK SMILES IDX 18 88 19 89 20 90 21 91 25 92 22 94 24 95 23 96 28 97 29 98
REMARK SMILES IDX 33 99 30 100 32 101 34 102 31 103
REMARK H PARENT 3 7 91 25 59 36 8 76 12 81 20 93
REMARK Flexibility Score: inf
ROOT
ATOM      1  C   UNL A   1      31.844  30.417  26.507  1.00  0.00     0.023 C 
ENDROOT
BRANCH   1   2
ATOM      2  C   UNL A   1      31.799  31.942  26.592  1.00  0.00     0.023 C 
BRANCH   2   3
ATOM      3  C   UNL A   1      32.872  32.575  27.470  1.00  0.00     0.116 C 
BRANCH   3   4
ATOM      4  N   UNL A   1      32.626  33.980  27.770  1.00  0.00    -0.352 N 
ATOM      5  O   UNL A   1      32.903  35.904  28.937  1.00  0.00    -0.269 OA
ATOM      6  C   UNL A   1      33.269  34.756  28.708  1.00  0.00     0.251 C 
ATOM      7  H   UNL A   1      31.921  34.423  27.245  1.00  0.00     0.163 HD
BRANCH   6   8
ATOM      8  C   UNL A   1      34.395  34.157  29.450  1.00  0.00     0.039 A 
ATOM      9  C   UNL A   1      35.705  34.411  29.036  1.00  0.00     0.014 A 
ATOM     10  C   UNL A   1      34.136  33.275  30.501  1.00  0.00     0.014 A 
ATOM     11  C   UNL A   1      36.750  33.688  29.594  1.00  0.00     0.010 A 
ATOM     12  C   UNL A   1      35.200  32.607  31.114  1.00  0.00     0.010 A 
ATOM     13  C   UNL A   1      36.511  32.792  30.650  1.00  0.00    -0.014 A 
BRANCH  13  14
ATOM     14  C   UNL A   1      37.666  32.130  31.308  1.00  0.00     0.031 A 
ATOM     15  C   UNL A   1      38.441  31.040  30.621  1.00  0.00     0.074 A 
ATOM     16  C   UNL A   1      38.017  32.550  32.540  1.00  0.00     0.049 A 
ATOM     17  N   UNL A   1      39.466  30.359  31.063  1.00  0.00    -0.248 NA
ATOM     18  C   UNL A   1      38.007  30.661  29.268  1.00  0.00     0.031 C 
ATOM     19  C   UNL A   1      37.326  33.601  33.295  1.00  0.00     0.029 A 
ATOM     20  N   UNL A   1      39.037  32.166  33.368  1.00  0.00    -0.354 N 
ATOM     21  C   UNL A   1      39.792  29.456  30.057  1.00  0.00     0.074 A 
ATOM     22  C   UNL A   1      38.840  29.666  28.986  1.00  0.00     0.031 C 
ATOM     23  C   UNL A   1      37.965  33.802  34.455  1.00  0.00     0.029 A 
ATOM     24  C   UNL A   1      39.061  32.848  34.562  1.00  0.00     0.049 A 
ATOM     25  H   UNL A   1      39.691  31.469  33.132  1.00  0.00     0.167 HD
ATOM     26  C   UNL A   1      40.793  28.542  30.036  1.00  0.00     0.034 A 
ATOM     27  C   UNL A   1      39.855  32.703  35.639  1.00  0.00     0.034 A 
ATOM     28  C   UNL A   1      41.737  28.359  31.115  1.00  0.00     0.049 A 
ATOM     29  C   UNL A   1      40.935  31.657  35.596  1.00  0.00     0.074 A 
ATOM     30  C   UNL A   1      42.818  27.495  31.176  1.00  0.00     0.029 A 
ATOM     31  N   UNL A   1      41.709  29.040  32.325  1.00  0.00    -0.354 N 
ATOM     32  N   UNL A   1      41.244  30.831  34.624  1.00  0.00    -0.248 NA
ATOM     33  C   UNL A   1      41.773  31.526  36.793  1.00  0.00     0.031 C 
ATOM     34  C   UNL A   1      43.400  27.606  32.444  1.00  0.00     0.029 A 
ATOM     35  C   UNL A   1      42.729  28.590  33.150  1.00  0.00     0.049 A 
ATOM     36  H   UNL A   1      41.060  29.741  32.562  1.00  0.00     0.167 HD
ATOM     37  C   UNL A   1      42.325  30.090  35.089  1.00  0.00     0.074 A 
ATOM     38  C   UNL A   1      42.631  30.590  36.415  1.00  0.00     0.031 C 
ATOM     39  C   UNL A   1      43.004  29.086  34.478  1.00  0.00     0.034 A 
BRANCH  26  40
ATOM     40  C   UNL A   1      40.897  27.633  28.835  1.00  0.00     0.023 A 
ATOM     41  C   UNL A   1      41.895  27.796  27.859  1.00  0.00     0.031 A 
ATOM     42  C   UNL A   1      39.993  26.565  28.681  1.00  0.00     0.131 A 
ATOM     43  C   UNL A   1      41.941  26.931  26.753  1.00  0.00     0.055 A 
ATOM     44  C   UNL A   1      40.083  25.671  27.613  1.00  0.00     0.041 A 
ATOM     45  F   UNL A   1      39.008  26.372  29.572  1.00  0.00    -0.206 F 
ATOM     46  C   UNL A   1      41.057  25.856  26.636  1.00  0.00     0.022 A 
BRANCH  43  47
ATOM     47  S   UNL A   1      43.118  27.282  25.419  1.00  0.00     0.124 S 
ATOM     48  O   UNL A   1      43.380  25.943  24.895  1.00  0.00    -0.237 OA
ATOM     49  O   UNL A   1      42.355  28.169  24.548  1.00  0.00    -0.237 OA
ATOM     50  O   UNL A   1      44.245  27.906  26.110  1.00  0.00    -0.744 OA
ENDBRANCH  43  47
ENDBRANCH  26  40
BRANCH  27  51
ATOM     51  C   UNL A   1      39.629  33.528  36.858  1.00  0.00     0.023 A 
ATOM     52  C   UNL A   1      40.409  34.663  37.123  1.00  0.00     0.031 A 
ATOM     53  C   UNL A   1      38.648  33.167  37.802  1.00  0.00     0.131 A 
ATOM     54  C   UNL A   1      40.229  35.369  38.321  1.00  0.00     0.055 A 
ATOM     55  C   UNL A   1      38.432  33.908  38.963  1.00  0.00     0.041 A 
ATOM     56  F   UNL A   1      37.871  32.091  37.596  1.00  0.00    -0.206 F 
ATOM     57  C   UNL A   1      39.237  35.009  39.236  1.00  0.00     0.022 A 
BRANCH  54  58
ATOM     58  S   UNL A   1      41.384  36.710  38.718  1.00  0.00     0.124 S 
ATOM     59  O   UNL A   1      42.204  36.100  39.758  1.00  0.00    -0.237 OA
ATOM     60  O   UNL A   1      42.039  36.933  37.434  1.00  0.00    -0.237 OA
ATOM     61  O   UNL A   1      40.508  37.791  39.166  1.00  0.00    -0.744 OA
ENDBRANCH  54  58
ENDBRANCH  27  51
BRANCH  39  62
ATOM     62  C   UNL A   1      44.159  28.493  35.244  1.00  0.00     0.023 A 
ATOM     63  C   UNL A   1      43.966  27.459  36.178  1.00  0.00     0.031 A 
ATOM     64  C   UNL A   1      45.459  28.995  35.068  1.00  0.00     0.131 A 
ATOM     65  C   UNL A   1      45.047  27.003  36.945  1.00  0.00     0.055 A 
ATOM     66  C   UNL A   1      46.542  28.495  35.791  1.00  0.00     0.041 A 
ATOM     67  F   UNL A   1      45.697  29.985  34.192  1.00  0.00    -0.206 F 
ATOM     68  C   UNL A   1      46.337  27.504  36.748  1.00  0.00     0.022 A 
BRANCH  65  69
ATOM     69  S   UNL A   1      44.727  25.814  38.277  1.00  0.00     0.124 S 
ATOM     70  O   UNL A   1      44.411  24.601  37.532  1.00  0.00    -0.237 OA
ATOM     71  O   UNL A   1      45.994  25.807  39.001  1.00  0.00    -0.237 OA
ATOM     72  O   UNL A   1      43.604  26.407  39.003  1.00  0.00    -0.744 OA
ENDBRANCH  65  69
ENDBRANCH  39  62
ENDBRANCH  13  14
ENDBRANCH   6   8
ENDBRANCH   3   4
ENDBRANCH   2   3
ENDBRANCH   1   2
BRANCH   1  73
ATOM     73  C   UNL A   1      31.783  29.885  25.086  1.00  0.00     0.116 C 
BRANCH  73  74
ATOM     74  N   UNL A   1      33.066  29.487  24.556  1.00  0.00    -0.354 N 
ATOM     75  C   UNL A   1      33.321  28.487  23.657  1.00  0.00     0.247 C 
ATOM     76  H   UNL A   1      33.847  29.993  24.878  1.00  0.00     0.163 HD
ATOM     77  O   UNL A   1      34.388  28.537  23.035  1.00  0.00    -0.272 OA
BRANCH  75  78
ATOM     78  C   UNL A   1      32.307  27.338  23.387  1.00  0.00     0.205 C 
BRANCH  78  79
ATOM     79  N   UNL A   1      32.389  26.855  21.984  1.00  0.00    -0.336 N 
ATOM     80  C   UNL A   1      32.853  25.730  21.360  1.00  0.00     0.252 C 
ATOM     81  H   UNL A   1      32.017  27.506  21.346  1.00  0.00     0.165 HD
ATOM     82  O   UNL A   1      33.122  25.752  20.162  1.00  0.00    -0.269 OA
BRANCH  80  83
ATOM     83  C   UNL A   1      32.993  24.469  22.091  1.00  0.00     0.039 A 
ATOM     84  C   UNL A   1      34.242  24.047  22.546  1.00  0.00     0.014 A 
ATOM     85  C   UNL A   1      31.858  23.692  22.303  1.00  0.00     0.014 A 
ATOM     86  C   UNL A   1      34.330  22.921  23.363  1.00  0.00     0.010 A 
ATOM     87  C   UNL A   1      31.947  22.570  23.120  1.00  0.00     0.010 A 
ATOM     88  C   UNL A   1      33.174  22.193  23.686  1.00  0.00     0.006 A 
BRANCH  88  89
ATOM     89  C   UNL A   1      33.245  21.009  24.629  1.00  0.00     0.299 C 
BRANCH  89  90
ATOM     90  N   UNL A   1      33.563  19.710  24.015  1.00  0.00    -0.331 N 
ATOM     91  C   UNL A   1      34.318  18.829  24.912  1.00  0.00     0.262 C 
ATOM     92  C   UNL A   1      32.377  19.054  23.458  1.00  0.00     0.262 C 
ATOM     93  H   UNL A   1      34.184  19.911  23.230  1.00  0.00     0.348 HD
ATOM     94  C   UNL A   1      34.740  17.539  24.210  1.00  0.00     0.062 C 
ATOM     95  C   UNL A   1      32.749  17.767  22.721  1.00  0.00     0.062 C 
ATOM     96  C   UNL A   1      33.527  16.823  23.630  1.00  0.00     0.012 C 
ENDBRANCH  89  90
ENDBRANCH  88  89
ENDBRANCH  80  83
ENDBRANCH  78  79
BRANCH  78  97
ATOM     97  C   UNL A   1      32.100  26.352  24.523  1.00  0.00     0.020 A 
ATOM     98  C   UNL A   1      33.202  25.939  25.297  1.00  0.00     0.009 A 
ATOM     99  C   UNL A   1      30.862  25.777  24.838  1.00  0.00     0.129 A 
ATOM    100  C   UNL A   1      33.049  25.054  26.374  1.00  0.00     0.001 A 
ATOM    101  C   UNL A   1      30.700  24.897  25.909  1.00  0.00     0.039 A 
ATOM    102  F   UNL A   1      29.775  26.028  24.105  1.00  0.00    -0.207 F 
ATOM    103  C   UNL A   1      31.793  24.544  26.689  1.00  0.00     0.003 A 
ENDBRANCH  78  97
ENDBRANCH  75  78
ENDBRANCH  73  74
ENDBRANCH   1  73
TORSDOF 19
ENDMDL
MODEL 2
REMARK VINA RESULT:     -12.7      1.238      1.676
REMARK SMILES O=C(NCCCCNC(=O)[C@@H](NC(=O)c1ccc(C[NH+]2CCCCC2)cc1)c1ccccc1F)c1ccc(-c2c3nc(c(-c4cc(S(=O)(=O)[O-])ccc4F)c4ccc([nH]4)c(-c4cc(S(=O)(=O)[O-])ccc4F)c4nc(c(-c5cc(S(=O)(=O)[O-])ccc5F)c5ccc2[nH]5)C=C4)C=C3)cc1
REMARK SMILES IDX 6 1 5 2 4 3 3 4 1 5 2 6 35 8 36 9 97 10 37 11 96 12 38 13
REMARK SMILES IDX 39 14 40 15 90 16 41 17 95 18 89 19 91 20 42 21 94 22 88 23
REMARK SMILES IDX 87 24 43 26 75 27 55 28 74 29 56 30 59 31 73 32 92 33 57 34
REMARK SMILES IDX 58 35 72 37 93 38 60 39 44 40 45 41 53 42 46 43 52 44 54 45
REMARK SMILES IDX 51 46 47 47 48 48 49 49 50 50 76 51 77 52 85 53 78 54 84 55
REMARK SMILES IDX 86 56 83 57 79 58 80 59 81 60 82 61 61 62 62 63 70 64 63 65
REMARK SMILES IDX 69 66 71 67 68 68 64 69 65 70 66 71 67 72 7 73 8 74 9 75
REMARK SMILES IDX 10 77 11 78 12 79 13 80 14 82 15 83 16 84 27 85 17 86 26 87
REMARK SMILES IDX 18 88 19 89 20 90 21 91 25 92 22 94 24 95 23 96 28 97 29 98
REMARK SMILES IDX 33 99 30 100 32 101 34 102 31 103
REMARK H PARENT 3 7 91 25 59 36 8 76 12 81 20 93
REMARK Flexibility Score: inf
ROOT
ATOM      1  C   UNL A   1      31.557  30.511  26.507  1.00  0.00     0.023 C 
ENDROOT
BRANCH   1   2
ATOM      2  C   UNL A   1      31.515  32.037  26.554  1.00  0.00     0.023 C 
BRANCH   2   3
ATOM      3  C   UNL A   1      32.760  32.703  27.131  1.00  0.00     0.116 C 
BRANCH   3   4
ATOM      4  N   UNL A   1      32.505  34.021  27.699  1.00  0.00    -0.352 N 
ATOM      5  O   UNL A   1      32.808  35.701  29.190  1.00  0.00    -0.269 OA
ATOM      6  C   UNL A   1      33.181  34.626  28.734  1.00  0.00     0.251 C 
ATOM      7  H   UNL A   1      31.767  34.535  27.299  1.00  0.00     0.163 HD
BRANCH   6   8
ATOM      8  C   UNL A   1      34.354  33.929  29.297  1.00  0.00     0.039 A 
ATOM      9  C   UNL A   1      34.165  32.907  30.230  1.00  0.00     0.014 A 
ATOM     10  C   UNL A   1      35.639  34.359  28.957  1.00  0.00     0.014 A 
ATOM     11  C   UNL A   1      35.260  32.397  30.916  1.00  0.00     0.010 A 
ATOM     12  C   UNL A   1      36.744  33.786  29.593  1.00  0.00     0.010 A 
ATOM     13  C   UNL A   1      36.561  32.818  30.593  1.00  0.00    -0.014 A 
BRANCH  13  14
ATOM     14  C   UNL A   1      37.715  32.162  31.256  1.00  0.00     0.031 A 
ATOM     15  C   UNL A   1      38.471  31.045  30.590  1.00  0.00     0.074 A 
ATOM     16  C   UNL A   1      38.085  32.612  32.471  1.00  0.00     0.049 A 
ATOM     17  N   UNL A   1      39.494  30.365  31.040  1.00  0.00    -0.248 NA
ATOM     18  C   UNL A   1      38.017  30.632  29.254  1.00  0.00     0.031 C 
ATOM     19  C   UNL A   1      37.414  33.691  33.205  1.00  0.00     0.029 A 
ATOM     20  N   UNL A   1      39.111  32.241  33.298  1.00  0.00    -0.354 N 
ATOM     21  C   UNL A   1      39.800  29.432  30.056  1.00  0.00     0.074 A 
ATOM     22  C   UNL A   1      38.837  29.622  28.990  1.00  0.00     0.031 C 
ATOM     23  C   UNL A   1      38.068  33.918  34.351  1.00  0.00     0.029 A 
ATOM     24  C   UNL A   1      39.156  32.956  34.472  1.00  0.00     0.049 A 
ATOM     25  H   UNL A   1      39.756  31.531  33.074  1.00  0.00     0.167 HD
ATOM     26  C   UNL A   1      40.791  28.506  30.050  1.00  0.00     0.034 A 
ATOM     27  C   UNL A   1      39.961  32.833  35.544  1.00  0.00     0.034 A 
ATOM     28  C   UNL A   1      41.745  28.343  31.123  1.00  0.00     0.049 A 
ATOM     29  C   UNL A   1      41.030  31.775  35.518  1.00  0.00     0.074 A 
ATOM     30  C   UNL A   1      42.817  27.470  31.195  1.00  0.00     0.029 A 
ATOM     31  N   UNL A   1      41.738  29.059  32.313  1.00  0.00    -0.354 N 
ATOM     32  N   UNL A   1      41.319  30.919  34.565  1.00  0.00    -0.248 NA
ATOM     33  C   UNL A   1      41.881  31.668  36.708  1.00  0.00     0.031 C 
ATOM     34  C   UNL A   1      43.415  27.610  32.453  1.00  0.00     0.029 A 
ATOM     35  C   UNL A   1      42.763  28.622  33.139  1.00  0.00     0.049 A 
ATOM     36  H   UNL A   1      41.099  29.773  32.538  1.00  0.00     0.167 HD
ATOM     37  C   UNL A   1      42.398  30.179  35.039  1.00  0.00     0.074 A 
ATOM     38  C   UNL A   1      42.724  30.713  36.347  1.00  0.00     0.031 C 
ATOM     39  C   UNL A   1      43.059  29.151  34.449  1.00  0.00     0.034 A 
BRANCH  26  40
ATOM     40  C   UNL A   1      40.871  27.563  28.874  1.00  0.00     0.023 A 
ATOM     41  C   UNL A   1      41.827  27.719  27.855  1.00  0.00     0.031 A 
ATOM     42  C   UNL A   1      39.989  26.470  28.788  1.00  0.00     0.131 A 
ATOM     43  C   UNL A   1      41.852  26.821  26.775  1.00  0.00     0.055 A 
ATOM     44  C   UNL A   1      40.060  25.546  27.744  1.00  0.00     0.041 A 
ATOM     45  F   UNL A   1      39.044  26.282  29.722  1.00  0.00    -0.206 F 
ATOM     46  C   UNL A   1      40.990  25.722  26.725  1.00  0.00     0.022 A 
BRANCH  43  47
ATOM     47  S   UNL A   1      42.968  27.158  25.386  1.00  0.00     0.124 S 
ATOM     48  O   UNL A   1      42.258  28.229  24.689  1.00  0.00    -0.237 OA
ATOM     49  O   UNL A   1      44.203  27.545  26.058  1.00  0.00    -0.237 OA
ATOM     50  O   UNL A   1      43.020  25.885  24.670  1.00  0.00    -0.744 OA
ENDBRANCH  43  47
ENDBRANCH  26  40
BRANCH  27  51
ATOM     51  C   UNL A   1      39.758  33.694  36.742  1.00  0.00     0.023 A 
ATOM     52  C   UNL A   1      39.215  33.175  37.926  1.00  0.00     0.031 A 
ATOM     53  C   UNL A   1      40.069  35.066  36.704  1.00  0.00     0.131 A 
ATOM     54  C   UNL A   1      38.956  34.030  39.008  1.00  0.00     0.055 A 
ATOM     55  C   UNL A   1      39.867  35.900  37.804  1.00  0.00     0.041 A 
ATOM     56  F   UNL A   1      40.594  35.614  35.596  1.00  0.00    -0.206 F 
ATOM     57  C   UNL A   1      39.291  35.385  38.960  1.00  0.00     0.022 A 
BRANCH  54  58
ATOM     58  S   UNL A   1      38.077  33.363  40.447  1.00  0.00     0.124 S 
ATOM     59  O   UNL A   1      36.728  33.192  39.919  1.00  0.00    -0.237 OA
ATOM     60  O   UNL A   1      38.820  32.137  40.714  1.00  0.00    -0.237 OA
ATOM     61  O   UNL A   1      38.226  34.413  41.452  1.00  0.00    -0.744 OA
ENDBRANCH  54  58
ENDBRANCH  27  51
BRANCH  39  62
ATOM     62  C   UNL A   1      44.216  28.567  35.219  1.00  0.00     0.023 A 
ATOM     63  C   UNL A   1      44.027  27.543  36.164  1.00  0.00     0.031 A 
ATOM     64  C   UNL A   1      45.516  29.069  35.033  1.00  0.00     0.131 A 
ATOM     65  C   UNL A   1      45.111  27.097  36.933  1.00  0.00     0.055 A 
ATOM     66  C   UNL A   1      46.601  28.578  35.758  1.00  0.00     0.041 A 
ATOM     67  F   UNL A   1      45.750  30.049  34.145  1.00  0.00    -0.206 F 
ATOM     68  C   UNL A   1      46.400  27.597  36.726  1.00  0.00     0.022 A 
BRANCH  65  69
ATOM     69  S   UNL A   1      44.795  25.923  38.279  1.00  0.00     0.124 S 
ATOM     70  O   UNL A   1      43.657  26.536  38.955  1.00  0.00    -0.237 OA
ATOM     71  O   UNL A   1      44.518  24.686  37.557  1.00  0.00    -0.237 OA
ATOM     72  O   UNL A   1      46.045  25.929  39.039  1.00  0.00    -0.744 OA
ENDBRANCH  65  69
ENDBRANCH  39  62
ENDBRANCH  13  14
ENDBRANCH   6   8
ENDBRANCH   3   4
ENDBRANCH   2   3
ENDBRANCH   1   2
BRANCH   1  73
ATOM     73  C   UNL A   1      31.417  29.942  25.105  1.00  0.00     0.116 C 
BRANCH  73  74
ATOM     74  N   UNL A   1      32.679  29.698  24.446  1.00  0.00    -0.354 N 
ATOM     75  C   UNL A   1      32.947  28.765  23.482  1.00  0.00     0.247 C 
ATOM     76  H   UNL A   1      33.432  30.270  24.721  1.00  0.00     0.163 HD
ATOM     77  O   UNL A   1      33.941  28.949  22.770  1.00  0.00    -0.272 OA
BRANCH  75  78
ATOM     78  C   UNL A   1      32.031  27.528  23.248  1.00  0.00     0.205 C 
BRANCH  78  79
ATOM     79  N   UNL A   1      32.296  26.892  21.932  1.00  0.00    -0.336 N 
ATOM     80  C   UNL A   1      32.713  25.662  21.503  1.00  0.00     0.252 C 
ATOM     81  H   UNL A   1      32.129  27.508  21.183  1.00  0.00     0.165 HD
ATOM     82  O   UNL A   1      33.190  25.526  20.380  1.00  0.00    -0.269 OA
BRANCH  80  83
ATOM     83  C   UNL A   1      32.558  24.479  22.352  1.00  0.00     0.039 A 
ATOM     84  C   UNL A   1      31.289  24.019  22.704  1.00  0.00     0.014 A 
ATOM     85  C   UNL A   1      33.702  23.838  22.819  1.00  0.00     0.014 A 
ATOM     86  C   UNL A   1      31.163  22.812  23.390  1.00  0.00     0.010 A 
ATOM     87  C   UNL A   1      33.574  22.634  23.500  1.00  0.00     0.010 A 
ATOM     88  C   UNL A   1      32.307  22.090  23.763  1.00  0.00     0.006 A 
BRANCH  88  89
ATOM     89  C   UNL A   1      32.183  20.744  24.447  1.00  0.00     0.299 C 
BRANCH  89  90
ATOM     90  N   UNL A   1      33.026  19.664  23.911  1.00  0.00    -0.331 N 
ATOM     91  C   UNL A   1      33.933  19.101  24.915  1.00  0.00     0.262 C 
ATOM     92  C   UNL A   1      32.239  18.632  23.229  1.00  0.00     0.262 C 
ATOM     93  H   UNL A   1      33.622  20.095  23.203  1.00  0.00     0.348 HD
ATOM     94  C   UNL A   1      34.880  18.070  24.305  1.00  0.00     0.062 C 
ATOM     95  C   UNL A   1      33.144  17.585  22.578  1.00  0.00     0.062 C 
ATOM     96  C   UNL A   1      34.094  16.972  23.600  1.00  0.00     0.012 C 
ENDBRANCH  89  90
ENDBRANCH  88  89
ENDBRANCH  80  83
ENDBRANCH  78  79
BRANCH  78  97
ATOM     97  C   UNL A   1      31.749  26.670  24.468  1.00  0.00     0.020 A 
ATOM     98  C   UNL A   1      32.822  26.163  25.227  1.00  0.00     0.009 A 
ATOM     99  C   UNL A   1      30.462  26.301  24.879  1.00  0.00     0.129 A 
ATOM    100  C   UNL A   1      32.604  25.392  26.378  1.00  0.00     0.001 A 
ATOM    101  C   UNL A   1      30.236  25.535  26.024  1.00  0.00     0.039 A 
ATOM    102  F   UNL A   1      29.383  26.649  24.173  1.00  0.00    -0.207 F 
ATOM    103  C   UNL A   1      31.309  25.090  26.785  1.00  0.00     0.003 A 
ENDBRANCH  78  97
ENDBRANCH  75  78
ENDBRANCH  73  74
ENDBRANCH   1  73
TORSDOF 19
ENDMDL
MODEL 3
REMARK VINA RESULT:     -12.6      1.334      1.682
REMARK SMILES O=C(NCCCCNC(=O)[C@@H](NC(=O)c1ccc(C[NH+]2CCCCC2)cc1)c1ccccc1F)c1ccc(-c2c3nc(c(-c4cc(S(=O)(=O)[O-])ccc4F)c4ccc([nH]4)c(-c4cc(S(=O)(=O)[O-])ccc4F)c4nc(c(-c5cc(S(=O)(=O)[O-])ccc5F)c5ccc2[nH]5)C=C4)C=C3)cc1
REMARK SMILES IDX 6 1 5 2 4 3 3 4 1 5 2 6 35 8 36 9 97 10 37 11 96 12 38 13
REMARK SMILES IDX 39 14 40 15 90 16 41 17 95 18 89 19 91 20 42 21 94 22 88 23
REMARK SMILES IDX 87 24 43 26 75 27 55 28 74 29 56 30 59 31 73 32 92 33 57 34
REMARK SMILES IDX 58 35 72 37 93 38 60 39 44 40 45 41 53 42 46 43 52 44 54 45
REMARK SMILES IDX 51 46 47 47 48 48 49 49 50 50 76 51 77 52 85 53 78 54 84 55
REMARK SMILES IDX 86 56 83 57 79 58 80 59 81 60 82 61 61 62 62 63 70 64 63 65
REMARK SMILES IDX 69 66 71 67 68 68 64 69 65 70 66 71 67 72 7 73 8 74 9 75
REMARK SMILES IDX 10 77 11 78 12 79 13 80 14 82 15 83 16 84 27 85 17 86 26 87
REMARK SMILES IDX 18 88 19 89 20 90 21 91 25 92 22 94 24 95 23 96 28 97 29 98
REMARK SMILES IDX 33 99 30 100 32 101 34 102 31 103
REMARK H PARENT 3 7 91 25 59 36 8 76 12 81 20 93
REMARK Flexibility Score: inf
ROOT
ATOM      1  C   UNL A   1      31.629  30.256  26.376  1.00  0.00     0.023 C 
ENDROOT
BRANCH   1   2
ATOM      2  C   UNL A   1      31.477  31.768  26.525  1.00  0.00     0.023 C 
BRANCH   2   3
ATOM      3  C   UNL A   1      32.665  32.480  27.164  1.00  0.00     0.116 C 
BRANCH   3   4
ATOM      4  N   UNL A   1      32.396  33.872  27.502  1.00  0.00    -0.352 N 
ATOM      5  O   UNL A   1      32.647  35.769  28.717  1.00  0.00    -0.269 OA
ATOM      6  C   UNL A   1      33.031  34.634  28.456  1.00  0.00     0.251 C 
ATOM      7  H   UNL A   1      31.682  34.317  26.991  1.00  0.00     0.163 HD
BRANCH   6   8
ATOM      8  C   UNL A   1      34.171  34.035  29.176  1.00  0.00     0.039 A 
ATOM      9  C   UNL A   1      35.475  34.363  28.797  1.00  0.00     0.014 A 
ATOM     10  C   UNL A   1      33.934  33.082  30.169  1.00  0.00     0.014 A 
ATOM     11  C   UNL A   1      36.541  33.648  29.325  1.00  0.00     0.010 A 
ATOM     12  C   UNL A   1      35.016  32.420  30.756  1.00  0.00     0.010 A 
ATOM     13  C   UNL A   1      36.325  32.682  30.322  1.00  0.00    -0.014 A 
BRANCH  13  14
ATOM     14  C   UNL A   1      37.497  32.026  30.955  1.00  0.00     0.031 A 
ATOM     15  C   UNL A   1      38.326  31.016  30.212  1.00  0.00     0.074 A 
ATOM     16  C   UNL A   1      37.812  32.378  32.217  1.00  0.00     0.049 A 
ATOM     17  N   UNL A   1      39.373  30.349  30.627  1.00  0.00    -0.248 NA
ATOM     18  C   UNL A   1      37.928  30.708  28.831  1.00  0.00     0.031 C 
ATOM     19  C   UNL A   1      37.067  33.348  33.028  1.00  0.00     0.029 A 
ATOM     20  N   UNL A   1      38.836  31.983  33.036  1.00  0.00    -0.354 N 
ATOM     21  C   UNL A   1      39.751  29.529  29.570  1.00  0.00     0.074 A 
ATOM     22  C   UNL A   1      38.806  29.770  28.499  1.00  0.00     0.031 C 
ATOM     23  C   UNL A   1      37.680  33.500  34.209  1.00  0.00     0.029 A 
ATOM     24  C   UNL A   1      38.814  32.586  34.273  1.00  0.00     0.049 A 
ATOM     25  H   UNL A   1      39.522  31.331  32.767  1.00  0.00     0.167 HD
ATOM     26  C   UNL A   1      40.790  28.659  29.507  1.00  0.00     0.034 A 
ATOM     27  C   UNL A   1      39.598  32.403  35.351  1.00  0.00     0.034 A 
ATOM     28  C   UNL A   1      41.725  28.445  30.588  1.00  0.00     0.049 A 
ATOM     29  C   UNL A   1      40.721  31.408  35.259  1.00  0.00     0.074 A 
ATOM     30  C   UNL A   1      42.840  27.624  30.610  1.00  0.00     0.029 A 
ATOM     31  N   UNL A   1      41.651  29.044  31.838  1.00  0.00    -0.354 N 
ATOM     32  N   UNL A   1      41.079  30.660  34.240  1.00  0.00    -0.248 NA
ATOM     33  C   UNL A   1      41.547  31.233  36.458  1.00  0.00     0.031 C 
ATOM     34  C   UNL A   1      43.398  27.675  31.893  1.00  0.00     0.029 A 
ATOM     35  C   UNL A   1      42.677  28.583  32.650  1.00  0.00     0.049 A 
ATOM     36  H   UNL A   1      40.969  29.701  32.109  1.00  0.00     0.167 HD
ATOM     37  C   UNL A   1      42.183  29.935  34.674  1.00  0.00     0.074 A 
ATOM     38  C   UNL A   1      42.449  30.359  36.035  1.00  0.00     0.031 C 
ATOM     39  C   UNL A   1      42.912  29.002  34.011  1.00  0.00     0.034 A 
BRANCH  26  40
ATOM     40  C   UNL A   1      40.949  27.836  28.252  1.00  0.00     0.023 A 
ATOM     41  C   UNL A   1      40.407  26.545  28.131  1.00  0.00     0.031 A 
ATOM     42  C   UNL A   1      41.634  28.369  27.144  1.00  0.00     0.131 A 
ATOM     43  C   UNL A   1      40.594  25.815  26.946  1.00  0.00     0.055 A 
ATOM     44  C   UNL A   1      41.762  27.663  25.947  1.00  0.00     0.041 A 
ATOM     45  F   UNL A   1      42.188  29.590  27.208  1.00  0.00    -0.206 F 
ATOM     46  C   UNL A   1      41.247  26.374  25.845  1.00  0.00     0.022 A 
BRANCH  43  47
ATOM     47  S   UNL A   1      40.049  24.085  26.891  1.00  0.00     0.124 S 
ATOM     48  O   UNL A   1      39.880  23.783  28.310  1.00  0.00    -0.237 OA
ATOM     49  O   UNL A   1      38.822  24.165  26.106  1.00  0.00    -0.237 OA
ATOM     50  O   UNL A   1      41.162  23.395  26.241  1.00  0.00    -0.744 OA
ENDBRANCH  43  47
ENDBRANCH  26  40
BRANCH  27  51
ATOM     51  C   UNL A   1      39.320  33.137  36.617  1.00  0.00     0.023 A 
ATOM     52  C   UNL A   1      39.911  34.381  36.881  1.00  0.00     0.031 A 
ATOM     53  C   UNL A   1      38.484  32.581  37.604  1.00  0.00     0.131 A 
ATOM     54  C   UNL A   1      39.697  35.006  38.118  1.00  0.00     0.055 A 
ATOM     55  C   UNL A   1      38.227  33.236  38.808  1.00  0.00     0.041 A 
ATOM     56  F   UNL A   1      37.891  31.393  37.402  1.00  0.00    -0.206 F 
ATOM     57  C   UNL A   1      38.848  34.450  39.078  1.00  0.00     0.022 A 
BRANCH  54  58
ATOM     58  S   UNL A   1      40.631  36.514  38.498  1.00  0.00     0.124 S 
ATOM     59  O   UNL A   1      41.352  36.741  37.252  1.00  0.00    -0.237 OA
ATOM     60  O   UNL A   1      39.564  37.461  38.803  1.00  0.00    -0.237 OA
ATOM     61  O   UNL A   1      41.459  36.122  39.637  1.00  0.00    -0.744 OA
ENDBRANCH  54  58
ENDBRANCH  27  51
BRANCH  39  62
ATOM     62  C   UNL A   1      44.080  28.407  34.757  1.00  0.00     0.023 A 
ATOM     63  C   UNL A   1      43.905  27.360  35.680  1.00  0.00     0.031 A 
ATOM     64  C   UNL A   1      45.375  28.921  34.573  1.00  0.00     0.131 A 
ATOM     65  C   UNL A   1      44.998  26.903  36.429  1.00  0.00     0.055 A 
ATOM     66  C   UNL A   1      46.469  28.420  35.277  1.00  0.00     0.041 A 
ATOM     67  F   UNL A   1      45.595  29.924  33.707  1.00  0.00    -0.206 F 
ATOM     68  C   UNL A   1      46.282  27.415  36.223  1.00  0.00     0.022 A 
BRANCH  65  69
ATOM     69  S   UNL A   1      44.701  25.695  37.749  1.00  0.00     0.124 S 
ATOM     70  O   UNL A   1      43.747  26.401  38.597  1.00  0.00    -0.237 OA
ATOM     71  O   UNL A   1      44.175  24.550  37.013  1.00  0.00    -0.237 OA
ATOM     72  O   UNL A   1      46.026  25.498  38.337  1.00  0.00    -0.744 OA
ENDBRANCH  65  69
ENDBRANCH  39  62
ENDBRANCH  13  14
ENDBRANCH   6   8
ENDBRANCH   3   4
ENDBRANCH   2   3
ENDBRANCH   1   2
BRANCH   1  73
ATOM     73  C   UNL A   1      31.435  29.762  24.952  1.00  0.00     0.116 C 
BRANCH  73  74
ATOM     74  N   UNL A   1      32.671  29.517  24.246  1.00  0.00    -0.354 N 
ATOM     75  C   UNL A   1      32.914  28.553  23.305  1.00  0.00     0.247 C 
ATOM     76  H   UNL A   1      33.424  30.111  24.466  1.00  0.00     0.163 HD
ATOM     77  O   UNL A   1      33.872  28.728  22.543  1.00  0.00    -0.272 OA
BRANCH  75  78
ATOM     78  C   UNL A   1      32.013  27.293  23.158  1.00  0.00     0.205 C 
BRANCH  78  79
ATOM     79  N   UNL A   1      32.157  26.672  21.815  1.00  0.00    -0.336 N 
ATOM     80  C   UNL A   1      32.770  25.558  21.311  1.00  0.00     0.252 C 
ATOM     81  H   UNL A   1      31.696  27.189  21.117  1.00  0.00     0.165 HD
ATOM     82  O   UNL A   1      33.030  25.483  20.114  1.00  0.00    -0.269 OA
BRANCH  80  83
ATOM     83  C   UNL A   1      33.086  24.419  22.175  1.00  0.00     0.039 A 
ATOM     84  C   UNL A   1      34.388  24.217  22.636  1.00  0.00     0.014 A 
ATOM     85  C   UNL A   1      32.068  23.531  22.507  1.00  0.00     0.014 A 
ATOM     86  C   UNL A   1      34.635  23.213  23.571  1.00  0.00     0.010 A 
ATOM     87  C   UNL A   1      32.316  22.532  23.441  1.00  0.00     0.010 A 
ATOM     88  C   UNL A   1      33.591  22.384  24.009  1.00  0.00     0.006 A 
BRANCH  88  89
ATOM     89  C   UNL A   1      33.832  21.336  25.076  1.00  0.00     0.299 C 
BRANCH  89  90
ATOM     90  N   UNL A   1      33.723  19.934  24.644  1.00  0.00    -0.331 N 
ATOM     91  C   UNL A   1      34.978  19.193  24.800  1.00  0.00     0.262 C 
ATOM     92  C   UNL A   1      32.588  19.247  25.270  1.00  0.00     0.262 C 
ATOM     93  H   UNL A   1      33.533  19.960  23.641  1.00  0.00     0.348 HD
ATOM     94  C   UNL A   1      34.871  17.779  24.231  1.00  0.00     0.062 C 
ATOM     95  C   UNL A   1      32.423  17.832  24.715  1.00  0.00     0.062 C 
ATOM     96  C   UNL A   1      33.710  17.030  24.871  1.00  0.00     0.012 C 
ENDBRANCH  89  90
ENDBRANCH  88  89
ENDBRANCH  80  83
ENDBRANCH  78  79
BRANCH  78  97
ATOM     97  C   UNL A   1      31.882  26.420  24.393  1.00  0.00     0.020 A 
ATOM     98  C   UNL A   1      30.613  25.949  24.782  1.00  0.00     0.009 A 
ATOM     99  C   UNL A   1      32.958  26.075  25.219  1.00  0.00     0.129 A 
ATOM    100  C   UNL A   1      30.453  25.115  25.898  1.00  0.00     0.001 A 
ATOM    101  C   UNL A   1      32.809  25.245  26.331  1.00  0.00     0.039 A 
ATOM    102  F   UNL A   1      34.186  26.550  24.992  1.00  0.00    -0.207 F 
ATOM    103  C   UNL A   1      31.555  24.750  26.665  1.00  0.00     0.003 A 
ENDBRANCH  78  97
ENDBRANCH  75  78
ENDBRANCH  73  74
ENDBRANCH   1  73
TORSDOF 19
ENDMDL
