MODEL 1
REMARK VINA RESULT:     -12.7      0.000      0.000
REMARK SMILES O=C(Cn1nc(C(=O)NCCCCNC(=O)c2ccc(-c3c4nc(c(-c5cc(S(=O)(=O)[O-])ccc5F)c5ccc([nH]5)c(-c5cc(S(=O)(=O)[O-])ccc5F)c5nc(c(-c6cc(S(=O)(=O)[O-])ccc6F)c6ccc3[nH]6)C=C5)C=C4)cc2)c2ccccc2c1=O)Nc1ccc2c(c1)C(=O)c1ccccc1C2=O
REMARK SMILES IDX 11 1 10 2 9 3 7 4 8 5 6 7 4 8 5 9 86 10 85 11 87 12 80 13
REMARK SMILES IDX 84 14 81 15 83 16 82 17 3 18 2 19 1 20 88 21 89 23 90 24
REMARK SMILES IDX 94 25 91 26 93 27 92 28 95 29 103 30 96 31 97 32 102 33
REMARK SMILES IDX 104 34 98 35 101 36 99 37 100 38 12 39 13 40 14 41 15 42
REMARK SMILES IDX 16 44 17 45 18 46 79 47 19 48 78 49 20 50 21 51 22 52 72 53
REMARK SMILES IDX 23 54 77 55 71 56 73 57 24 58 76 59 70 60 69 61 25 63 57 64
REMARK SMILES IDX 37 65 56 66 38 67 41 68 55 69 74 70 39 71 40 72 54 74 75 75
REMARK SMILES IDX 42 76 26 77 27 78 35 79 28 80 34 81 36 82 33 83 29 84 30 85
REMARK SMILES IDX 31 86 32 87 58 88 59 89 67 90 60 91 66 92 68 93 65 94 61 95
REMARK SMILES IDX 62 96 63 97 64 98 43 99 44 100 52 101 45 102 51 103 53 104
REMARK SMILES IDX 50 105 46 106 47 107 48 108 49 109
REMARK H PARENT 9 6 88 22 14 43 73 62 41 73
REMARK Flexibility Score: inf
ROOT
ATOM      1  C   UNL A   1      39.578  28.754  28.528  1.00  0.00     0.023 C 
ENDROOT
BRANCH   1   2
ATOM      2  C   UNL A   1      39.629  27.309  28.034  1.00  0.00     0.116 C 
BRANCH   2   3
ATOM      3  N   UNL A   1      40.372  27.186  26.795  1.00  0.00    -0.351 N 
ATOM      4  C   UNL A   1      40.907  26.091  26.158  1.00  0.00     0.272 C 
ATOM      5  O   UNL A   1      41.500  26.292  25.103  1.00  0.00    -0.267 OA
ATOM      6  H   UNL A   1      40.520  28.040  26.326  1.00  0.00     0.163 HD
BRANCH   4   7
ATOM      7  C   UNL A   1      40.734  24.654  26.707  1.00  0.00     0.156 A 
ATOM      8  N   UNL A   1      39.628  22.619  26.549  1.00  0.00    -0.219 N 
ATOM      9  N   UNL A   1      39.768  23.937  26.208  1.00  0.00    -0.163 NA
ATOM     10  C   UNL A   1      40.557  21.921  27.309  1.00  0.00     0.275 A 
ATOM     11  C   UNL A   1      41.584  22.734  27.986  1.00  0.00     0.051 A 
ATOM     12  O   UNL A   1      40.545  20.700  27.456  1.00  0.00    -0.267 OA
ATOM     13  C   UNL A   1      41.669  24.102  27.730  1.00  0.00     0.020 A 
ATOM     14  C   UNL A   1      42.443  22.117  28.913  1.00  0.00     0.014 A 
ATOM     15  C   UNL A   1      42.609  24.854  28.450  1.00  0.00     0.011 A 
ATOM     16  C   UNL A   1      43.386  22.874  29.604  1.00  0.00     0.001 A 
ATOM     17  C   UNL A   1      43.462  24.243  29.377  1.00  0.00     0.001 A 
BRANCH   8  18
ATOM     18  C   UNL A   1      38.524  21.894  25.915  1.00  0.00     0.248 C 
BRANCH  18  19
ATOM     19  C   UNL A   1      37.420  22.887  25.538  1.00  0.00     0.246 C 
ATOM     20  O   UNL A   1      37.016  23.753  26.310  1.00  0.00    -0.273 OA
ATOM     21  N   UNL A   1      36.862  22.623  24.291  1.00  0.00    -0.324 N 
ATOM     22  H   UNL A   1      37.469  22.516  23.524  1.00  0.00     0.169 HD
BRANCH  21  23
ATOM     23  C   UNL A   1      35.474  22.499  24.067  1.00  0.00     0.042 A 
ATOM     24  C   UNL A   1      34.700  21.937  25.094  1.00  0.00     0.027 A 
ATOM     25  C   UNL A   1      34.842  23.133  22.995  1.00  0.00     0.039 A 
ATOM     26  C   UNL A   1      33.320  22.150  25.137  1.00  0.00     0.015 A 
ATOM     27  C   UNL A   1      33.477  23.399  23.075  1.00  0.00     0.036 A 
ATOM     28  C   UNL A   1      32.729  22.957  24.163  1.00  0.00     0.034 A 
ATOM     29  C   UNL A   1      32.883  24.345  22.115  1.00  0.00     0.194 C 
ATOM     30  C   UNL A   1      31.377  23.514  24.385  1.00  0.00     0.194 C 
ATOM     31  O   UNL A   1      33.301  24.461  20.975  1.00  0.00    -0.289 OA
ATOM     32  C   UNL A   1      31.815  25.218  22.630  1.00  0.00     0.034 A 
ATOM     33  C   UNL A   1      31.079  24.816  23.745  1.00  0.00     0.034 A 
ATOM     34  O   UNL A   1      30.582  22.980  25.147  1.00  0.00    -0.289 OA
ATOM     35  C   UNL A   1      31.619  26.480  22.064  1.00  0.00     0.013 A 
ATOM     36  C   UNL A   1      30.139  25.681  24.307  1.00  0.00     0.013 A 
ATOM     37  C   UNL A   1      30.702  27.354  22.643  1.00  0.00     0.001 A 
ATOM     38  C   UNL A   1      29.965  26.957  23.763  1.00  0.00     0.001 A 
ENDBRANCH  21  23
ENDBRANCH  18  19
ENDBRANCH   8  18
ENDBRANCH   4   7
ENDBRANCH   2   3
ENDBRANCH   1   2
BRANCH   1  39
ATOM     39  C   UNL A   1      38.173  29.373  28.543  1.00  0.00     0.023 C 
BRANCH  39  40
ATOM     40  C   UNL A   1      38.052  30.728  29.235  1.00  0.00     0.116 C 
BRANCH  40  41
ATOM     41  N   UNL A   1      37.123  30.730  30.353  1.00  0.00    -0.352 N 
ATOM     42  C   UNL A   1      37.344  30.294  31.640  1.00  0.00     0.251 C 
ATOM     43  H   UNL A   1      36.224  31.086  30.167  1.00  0.00     0.163 HD
ATOM     44  O   UNL A   1      36.428  30.285  32.456  1.00  0.00    -0.269 OA
BRANCH  42  45
ATOM     45  C   UNL A   1      38.682  29.786  32.004  1.00  0.00     0.039 A 
ATOM     46  C   UNL A   1      39.754  30.665  32.184  1.00  0.00     0.014 A 
ATOM     47  C   UNL A   1      38.871  28.405  32.111  1.00  0.00     0.014 A 
ATOM     48  C   UNL A   1      41.040  30.156  32.340  1.00  0.00     0.010 A 
ATOM     49  C   UNL A   1      40.156  27.898  32.312  1.00  0.00     0.010 A 
ATOM     50  C   UNL A   1      41.255  28.769  32.381  1.00  0.00    -0.014 A 
BRANCH  50  51
ATOM     51  C   UNL A   1      42.639  28.241  32.463  1.00  0.00     0.031 A 
ATOM     52  C   UNL A   1      43.237  27.894  33.798  1.00  0.00     0.074 A 
ATOM     53  C   UNL A   1      43.332  28.022  31.332  1.00  0.00     0.049 A 
ATOM     54  N   UNL A   1      44.416  27.398  34.066  1.00  0.00    -0.248 NA
ATOM     55  C   UNL A   1      42.401  28.132  34.986  1.00  0.00     0.031 C 
ATOM     56  C   UNL A   1      42.835  28.294  29.983  1.00  0.00     0.029 A 
ATOM     57  N   UNL A   1      44.587  27.503  31.131  1.00  0.00    -0.354 N 
ATOM     58  C   UNL A   1      44.468  27.265  35.449  1.00  0.00     0.074 A 
ATOM     59  C   UNL A   1      43.212  27.760  35.968  1.00  0.00     0.031 C 
ATOM     60  C   UNL A   1      43.757  27.899  29.092  1.00  0.00     0.029 A 
ATOM     61  C   UNL A   1      44.929  27.393  29.804  1.00  0.00     0.049 A 
ATOM     62  H   UNL A   1      45.183  27.236  31.866  1.00  0.00     0.167 HD
ATOM     63  C   UNL A   1      45.466  26.762  36.214  1.00  0.00     0.034 A 
ATOM     64  C   UNL A   1      46.059  26.937  29.226  1.00  0.00     0.034 A 
ATOM     65  C   UNL A   1      46.712  26.269  35.690  1.00  0.00     0.049 A 
ATOM     66  C   UNL A   1      47.174  26.430  30.102  1.00  0.00     0.074 A 
ATOM     67  C   UNL A   1      47.793  25.757  36.388  1.00  0.00     0.029 A 
ATOM     68  N   UNL A   1      47.043  26.215  34.344  1.00  0.00    -0.354 N 
ATOM     69  N   UNL A   1      47.203  26.304  31.407  1.00  0.00    -0.248 NA
ATOM     70  C   UNL A   1      48.414  26.011  29.433  1.00  0.00     0.031 C 
ATOM     71  C   UNL A   1      48.785  25.416  35.465  1.00  0.00     0.029 A 
ATOM     72  C   UNL A   1      48.313  25.687  34.191  1.00  0.00     0.049 A 
ATOM     73  H   UNL A   1      46.460  26.509  33.607  1.00  0.00     0.167 HD
ATOM     74  C   UNL A   1      48.454  25.780  31.714  1.00  0.00     0.074 A 
ATOM     75  C   UNL A   1      49.146  25.591  30.456  1.00  0.00     0.031 C 
ATOM     76  C   UNL A   1      48.984  25.491  32.929  1.00  0.00     0.034 A 
BRANCH  63  77
ATOM     77  C   UNL A   1      45.256  26.704  37.701  1.00  0.00     0.023 A 
ATOM     78  C   UNL A   1      45.541  27.822  38.504  1.00  0.00     0.031 A 
ATOM     79  C   UNL A   1      44.861  25.510  38.329  1.00  0.00     0.131 A 
ATOM     80  C   UNL A   1      45.440  27.718  39.897  1.00  0.00     0.055 A 
ATOM     81  C   UNL A   1      44.743  25.417  39.716  1.00  0.00     0.041 A 
ATOM     82  F   UNL A   1      44.569  24.421  37.599  1.00  0.00    -0.206 F 
ATOM     83  C   UNL A   1      45.041  26.523  40.507  1.00  0.00     0.022 A 
BRANCH  80  84
ATOM     84  S   UNL A   1      45.845  29.119  40.975  1.00  0.00     0.124 S 
ATOM     85  O   UNL A   1      46.399  28.443  42.147  1.00  0.00    -0.237 OA
ATOM     86  O   UNL A   1      46.811  29.857  40.167  1.00  0.00    -0.237 OA
ATOM     87  O   UNL A   1      44.563  29.780  41.189  1.00  0.00    -0.744 OA
ENDBRANCH  80  84
ENDBRANCH  63  77
BRANCH  64  88
ATOM     88  C   UNL A   1      46.147  26.896  27.739  1.00  0.00     0.023 A 
ATOM     89  C   UNL A   1      45.967  25.695  27.032  1.00  0.00     0.031 A 
ATOM     90  C   UNL A   1      46.523  28.042  27.017  1.00  0.00     0.131 A 
ATOM     91  C   UNL A   1      46.227  25.652  25.655  1.00  0.00     0.055 A 
ATOM     92  C   UNL A   1      46.726  28.008  25.638  1.00  0.00     0.041 A 
ATOM     93  F   UNL A   1      46.716  29.207  27.654  1.00  0.00    -0.206 F 
ATOM     94  C   UNL A   1      46.596  26.803  24.953  1.00  0.00     0.022 A 
BRANCH  91  95
ATOM     95  S   UNL A   1      46.239  24.070  24.765  1.00  0.00     0.124 S 
ATOM     96  O   UNL A   1      47.251  24.307  23.743  1.00  0.00    -0.237 OA
ATOM     97  O   UNL A   1      46.614  23.130  25.821  1.00  0.00    -0.237 OA
ATOM     98  O   UNL A   1      44.868  23.939  24.283  1.00  0.00    -0.744 OA
ENDBRANCH  91  95
ENDBRANCH  64  88
BRANCH  76  99
ATOM     99  C   UNL A   1      50.386  24.945  32.982  1.00  0.00     0.023 A 
ATOM    100  C   UNL A   1      50.607  23.556  32.931  1.00  0.00     0.031 A 
ATOM    101  C   UNL A   1      51.481  25.792  33.219  1.00  0.00     0.131 A 
ATOM    102  C   UNL A   1      51.897  23.053  33.139  1.00  0.00     0.055 A 
ATOM    103  C   UNL A   1      52.770  25.286  33.399  1.00  0.00     0.041 A 
ATOM    104  F   UNL A   1      51.312  27.122  33.281  1.00  0.00    -0.206 F 
ATOM    105  C   UNL A   1      52.979  23.910  33.370  1.00  0.00     0.022 A 
BRANCH 102 106
ATOM    106  S   UNL A   1      52.211  21.267  33.177  1.00  0.00     0.124 S 
ATOM    107  O   UNL A   1      50.879  20.721  32.927  1.00  0.00    -0.237 OA
ATOM    108  O   UNL A   1      53.169  21.100  32.087  1.00  0.00    -0.237 OA
ATOM    109  O   UNL A   1      52.738  21.030  34.517  1.00  0.00    -0.744 OA
ENDBRANCH 102 106
ENDBRANCH  76  99
ENDBRANCH  50  51
ENDBRANCH  42  45
ENDBRANCH  40  41
ENDBRANCH  39  40
ENDBRANCH   1  39
TORSDOF 17
ENDMDL
MODEL 2
REMARK VINA RESULT:     -12.5     10.312     14.802
REMARK SMILES O=C(Cn1nc(C(=O)NCCCCNC(=O)c2ccc(-c3c4nc(c(-c5cc(S(=O)(=O)[O-])ccc5F)c5ccc([nH]5)c(-c5cc(S(=O)(=O)[O-])ccc5F)c5nc(c(-c6cc(S(=O)(=O)[O-])ccc6F)c6ccc3[nH]6)C=C5)C=C4)cc2)c2ccccc2c1=O)Nc1ccc2c(c1)C(=O)c1ccccc1C2=O
REMARK SMILES IDX 11 1 10 2 9 3 7 4 8 5 6 7 4 8 5 9 86 10 85 11 87 12 80 13
REMARK SMILES IDX 84 14 81 15 83 16 82 17 3 18 2 19 1 20 88 21 89 23 90 24
REMARK SMILES IDX 94 25 91 26 93 27 92 28 95 29 103 30 96 31 97 32 102 33
REMARK SMILES IDX 104 34 98 35 101 36 99 37 100 38 12 39 13 40 14 41 15 42
REMARK SMILES IDX 16 44 17 45 18 46 79 47 19 48 78 49 20 50 21 51 22 52 72 53
REMARK SMILES IDX 23 54 77 55 71 56 73 57 24 58 76 59 70 60 69 61 25 63 57 64
REMARK SMILES IDX 37 65 56 66 38 67 41 68 55 69 74 70 39 71 40 72 54 74 75 75
REMARK SMILES IDX 42 76 26 77 27 78 35 79 28 80 34 81 36 82 33 83 29 84 30 85
REMARK SMILES IDX 31 86 32 87 58 88 59 89 67 90 60 91 66 92 68 93 65 94 61 95
REMARK SMILES IDX 62 96 63 97 64 98 43 99 44 100 52 101 45 102 51 103 53 104
REMARK SMILES IDX 50 105 46 106 47 107 48 108 49 109
REMARK H PARENT 9 6 88 22 14 43 73 62 41 73
REMARK Flexibility Score: inf
ROOT
ATOM      1  C   UNL A   1      47.813  39.773  28.472  1.00  0.00     0.023 C 
ENDROOT
BRANCH   1   2
ATOM      2  C   UNL A   1      47.527  40.859  27.436  1.00  0.00     0.116 C 
BRANCH   2   3
ATOM      3  N   UNL A   1      47.583  40.344  26.082  1.00  0.00    -0.351 N 
ATOM      4  C   UNL A   1      46.613  40.221  25.113  1.00  0.00     0.272 C 
ATOM      5  O   UNL A   1      46.955  39.735  24.040  1.00  0.00    -0.267 OA
ATOM      6  H   UNL A   1      48.473  40.027  25.806  1.00  0.00     0.163 HD
BRANCH   4   7
ATOM      7  C   UNL A   1      45.163  40.713  25.334  1.00  0.00     0.156 A 
ATOM      8  N   UNL A   1      43.532  42.285  24.825  1.00  0.00    -0.219 N 
ATOM      9  N   UNL A   1      44.827  41.844  24.782  1.00  0.00    -0.163 NA
ATOM     10  C   UNL A   1      42.478  41.522  25.310  1.00  0.00     0.275 A 
ATOM     11  C   UNL A   1      42.847  40.300  26.049  1.00  0.00     0.051 A 
ATOM     12  O   UNL A   1      41.293  41.822  25.174  1.00  0.00    -0.267 OA
ATOM     13  C   UNL A   1      44.181  39.898  26.106  1.00  0.00     0.020 A 
ATOM     14  C   UNL A   1      41.844  39.578  26.720  1.00  0.00     0.014 A 
ATOM     15  C   UNL A   1      44.501  38.774  26.882  1.00  0.00     0.011 A 
ATOM     16  C   UNL A   1      42.176  38.452  27.469  1.00  0.00     0.001 A 
ATOM     17  C   UNL A   1      43.506  38.056  27.555  1.00  0.00     0.001 A 
BRANCH   8  18
ATOM     18  C   UNL A   1      43.253  43.557  24.155  1.00  0.00     0.248 C 
BRANCH  18  19
ATOM     19  C   UNL A   1      44.161  43.690  22.929  1.00  0.00     0.246 C 
ATOM     20  O   UNL A   1      44.917  44.645  22.765  1.00  0.00    -0.273 OA
ATOM     21  N   UNL A   1      43.948  42.687  21.990  1.00  0.00    -0.324 N 
ATOM     22  H   UNL A   1      43.964  41.751  22.296  1.00  0.00     0.169 HD
BRANCH  21  23
ATOM     23  C   UNL A   1      43.708  42.936  20.620  1.00  0.00     0.042 A 
ATOM     24  C   UNL A   1      42.413  42.694  20.136  1.00  0.00     0.027 A 
ATOM     25  C   UNL A   1      44.622  43.633  19.828  1.00  0.00     0.039 A 
ATOM     26  C   UNL A   1      41.982  43.285  18.945  1.00  0.00     0.015 A 
ATOM     27  C   UNL A   1      44.170  44.274  18.677  1.00  0.00     0.036 A 
ATOM     28  C   UNL A   1      42.846  44.144  18.265  1.00  0.00     0.034 A 
ATOM     29  C   UNL A   1      45.043  45.268  18.030  1.00  0.00     0.194 C 
ATOM     30  C   UNL A   1      42.314  45.071  17.242  1.00  0.00     0.194 C 
ATOM     31  O   UNL A   1      46.259  45.172  18.047  1.00  0.00    -0.289 OA
ATOM     32  C   UNL A   1      44.377  46.441  17.441  1.00  0.00     0.034 A 
ATOM     33  C   UNL A   1      43.039  46.349  17.058  1.00  0.00     0.034 A 
ATOM     34  O   UNL A   1      41.266  44.840  16.654  1.00  0.00    -0.289 OA
ATOM     35  C   UNL A   1      45.058  47.659  17.366  1.00  0.00     0.013 A 
ATOM     36  C   UNL A   1      42.367  47.483  16.599  1.00  0.00     0.013 A 
ATOM     37  C   UNL A   1      44.377  48.797  16.935  1.00  0.00     0.001 A 
ATOM     38  C   UNL A   1      43.035  48.709  16.555  1.00  0.00     0.001 A 
ENDBRANCH  21  23
ENDBRANCH  18  19
ENDBRANCH   8  18
ENDBRANCH   4   7
ENDBRANCH   2   3
ENDBRANCH   1   2
BRANCH   1  39
ATOM     39  C   UNL A   1      48.088  38.384  27.878  1.00  0.00     0.023 C 
BRANCH  39  40
ATOM     40  C   UNL A   1      47.588  37.200  28.702  1.00  0.00     0.116 C 
BRANCH  40  41
ATOM     41  N   UNL A   1      46.835  37.590  29.883  1.00  0.00    -0.352 N 
ATOM     42  C   UNL A   1      45.887  36.859  30.564  1.00  0.00     0.251 C 
ATOM     43  H   UNL A   1      47.025  38.488  30.240  1.00  0.00     0.163 HD
ATOM     44  O   UNL A   1      45.276  37.361  31.502  1.00  0.00    -0.269 OA
BRANCH  42  45
ATOM     45  C   UNL A   1      45.580  35.488  30.112  1.00  0.00     0.039 A 
ATOM     46  C   UNL A   1      44.856  35.269  28.936  1.00  0.00     0.014 A 
ATOM     47  C   UNL A   1      45.977  34.412  30.911  1.00  0.00     0.014 A 
ATOM     48  C   UNL A   1      44.417  33.984  28.629  1.00  0.00     0.010 A 
ATOM     49  C   UNL A   1      45.572  33.117  30.577  1.00  0.00     0.010 A 
ATOM     50  C   UNL A   1      44.751  32.902  29.459  1.00  0.00    -0.014 A 
BRANCH  50  51
ATOM     51  C   UNL A   1      44.205  31.554  29.166  1.00  0.00     0.031 A 
ATOM     52  C   UNL A   1      42.818  31.187  29.613  1.00  0.00     0.074 A 
ATOM     53  C   UNL A   1      44.940  30.685  28.449  1.00  0.00     0.049 A 
ATOM     54  N   UNL A   1      42.162  30.072  29.426  1.00  0.00    -0.248 NA
ATOM     55  C   UNL A   1      42.067  32.206  30.363  1.00  0.00     0.031 C 
ATOM     56  C   UNL A   1      46.285  30.950  27.941  1.00  0.00     0.029 A 
ATOM     57  N   UNL A   1      44.655  29.417  28.007  1.00  0.00    -0.354 N 
ATOM     58  C   UNL A   1      40.925  30.250  30.035  1.00  0.00     0.074 A 
ATOM     59  C   UNL A   1      40.931  31.571  30.623  1.00  0.00     0.031 C 
ATOM     60  C   UNL A   1      46.692  29.896  27.217  1.00  0.00     0.029 A 
ATOM     61  C   UNL A   1      45.661  28.861  27.252  1.00  0.00     0.049 A 
ATOM     62  H   UNL A   1      43.812  28.952  28.210  1.00  0.00     0.167 HD
ATOM     63  C   UNL A   1      39.876  29.395  30.086  1.00  0.00     0.034 A 
ATOM     64  C   UNL A   1      45.744  27.654  26.656  1.00  0.00     0.034 A 
ATOM     65  C   UNL A   1      39.877  28.083  29.497  1.00  0.00     0.049 A 
ATOM     66  C   UNL A   1      44.582  26.702  26.771  1.00  0.00     0.074 A 
ATOM     67  C   UNL A   1      38.868  27.135  29.511  1.00  0.00     0.029 A 
ATOM     68  N   UNL A   1      40.930  27.535  28.779  1.00  0.00    -0.354 N 
ATOM     69  N   UNL A   1      43.417  26.890  27.343  1.00  0.00    -0.248 NA
ATOM     70  C   UNL A   1      44.745  25.371  26.169  1.00  0.00     0.031 C 
ATOM     71  C   UNL A   1      39.319  26.006  28.823  1.00  0.00     0.029 A 
ATOM     72  C   UNL A   1      40.599  26.259  28.354  1.00  0.00     0.049 A 
ATOM     73  H   UNL A   1      41.786  27.986  28.599  1.00  0.00     0.167 HD
ATOM     74  C   UNL A   1      42.704  25.710  27.160  1.00  0.00     0.074 A 
ATOM     75  C   UNL A   1      43.560  24.820  26.402  1.00  0.00     0.031 C 
ATOM     76  C   UNL A   1      41.457  25.390  27.588  1.00  0.00     0.034 A 
BRANCH  63  77
ATOM     77  C   UNL A   1      38.628  29.848  30.791  1.00  0.00     0.023 A 
ATOM     78  C   UNL A   1      37.701  30.676  30.134  1.00  0.00     0.031 A 
ATOM     79  C   UNL A   1      38.406  29.533  32.142  1.00  0.00     0.131 A 
ATOM     80  C   UNL A   1      36.597  31.174  30.838  1.00  0.00     0.055 A 
ATOM     81  C   UNL A   1      37.296  30.016  32.834  1.00  0.00     0.041 A 
ATOM     82  F   UNL A   1      39.262  28.736  32.804  1.00  0.00    -0.206 F 
ATOM     83  C   UNL A   1      36.389  30.847  32.183  1.00  0.00     0.022 A 
BRANCH  80  84
ATOM     84  S   UNL A   1      35.402  32.285  30.047  1.00  0.00     0.124 S 
ATOM     85  O   UNL A   1      36.248  33.418  29.676  1.00  0.00    -0.237 OA
ATOM     86  O   UNL A   1      34.923  31.473  28.931  1.00  0.00    -0.237 OA
ATOM     87  O   UNL A   1      34.427  32.556  31.096  1.00  0.00    -0.744 OA
ENDBRANCH  80  84
ENDBRANCH  63  77
BRANCH  64  88
ATOM     88  C   UNL A   1      46.956  27.321  25.857  1.00  0.00     0.023 A 
ATOM     89  C   UNL A   1      47.111  27.787  24.541  1.00  0.00     0.031 A 
ATOM     90  C   UNL A   1      47.923  26.439  26.367  1.00  0.00     0.131 A 
ATOM     91  C   UNL A   1      48.173  27.317  23.756  1.00  0.00     0.055 A 
ATOM     92  C   UNL A   1      49.011  26.018  25.602  1.00  0.00     0.041 A 
ATOM     93  F   UNL A   1      47.809  25.961  27.617  1.00  0.00    -0.206 F 
ATOM     94  C   UNL A   1      49.128  26.444  24.282  1.00  0.00     0.022 A 
BRANCH  91  95
ATOM     95  S   UNL A   1      48.260  27.711  21.986  1.00  0.00     0.124 S 
ATOM     96  O   UNL A   1      49.414  28.601  21.933  1.00  0.00    -0.237 OA
ATOM     97  O   UNL A   1      48.452  26.390  21.390  1.00  0.00    -0.237 OA
ATOM     98  O   UNL A   1      46.968  28.330  21.709  1.00  0.00    -0.744 OA
ENDBRANCH  91  95
ENDBRANCH  64  88
BRANCH  76  99
ATOM     99  C   UNL A   1      40.925  24.019  27.265  1.00  0.00     0.023 A 
ATOM    100  C   UNL A   1      39.780  23.877  26.459  1.00  0.00     0.031 A 
ATOM    101  C   UNL A   1      41.471  22.874  27.867  1.00  0.00     0.131 A 
ATOM    102  C   UNL A   1      39.203  22.611  26.296  1.00  0.00     0.055 A 
ATOM    103  C   UNL A   1      40.907  21.611  27.679  1.00  0.00     0.041 A 
ATOM    104  F   UNL A   1      42.558  22.968  28.648  1.00  0.00    -0.206 F 
ATOM    105  C   UNL A   1      39.761  21.478  26.898  1.00  0.00     0.022 A 
BRANCH 102 106
ATOM    106  S   UNL A   1      37.674  22.395  25.345  1.00  0.00     0.124 S 
ATOM    107  O   UNL A   1      36.669  22.315  26.402  1.00  0.00    -0.237 OA
ATOM    108  O   UNL A   1      37.637  23.614  24.540  1.00  0.00    -0.237 OA
ATOM    109  O   UNL A   1      37.892  21.160  24.601  1.00  0.00    -0.744 OA
ENDBRANCH 102 106
ENDBRANCH  76  99
ENDBRANCH  50  51
ENDBRANCH  42  45
ENDBRANCH  40  41
ENDBRANCH  39  40
ENDBRANCH   1  39
TORSDOF 17
ENDMDL
MODEL 3
REMARK VINA RESULT:     -12.4     10.781     15.232
REMARK SMILES O=C(Cn1nc(C(=O)NCCCCNC(=O)c2ccc(-c3c4nc(c(-c5cc(S(=O)(=O)[O-])ccc5F)c5ccc([nH]5)c(-c5cc(S(=O)(=O)[O-])ccc5F)c5nc(c(-c6cc(S(=O)(=O)[O-])ccc6F)c6ccc3[nH]6)C=C5)C=C4)cc2)c2ccccc2c1=O)Nc1ccc2c(c1)C(=O)c1ccccc1C2=O
REMARK SMILES IDX 11 1 10 2 9 3 7 4 8 5 6 7 4 8 5 9 86 10 85 11 87 12 80 13
REMARK SMILES IDX 84 14 81 15 83 16 82 17 3 18 2 19 1 20 88 21 89 23 90 24
REMARK SMILES IDX 94 25 91 26 93 27 92 28 95 29 103 30 96 31 97 32 102 33
REMARK SMILES IDX 104 34 98 35 101 36 99 37 100 38 12 39 13 40 14 41 15 42
REMARK SMILES IDX 16 44 17 45 18 46 79 47 19 48 78 49 20 50 21 51 22 52 72 53
REMARK SMILES IDX 23 54 77 55 71 56 73 57 24 58 76 59 70 60 69 61 25 63 57 64
REMARK SMILES IDX 37 65 56 66 38 67 41 68 55 69 74 70 39 71 40 72 54 74 75 75
REMARK SMILES IDX 42 76 26 77 27 78 35 79 28 80 34 81 36 82 33 83 29 84 30 85
REMARK SMILES IDX 31 86 32 87 58 88 59 89 67 90 60 91 66 92 68 93 65 94 61 95
REMARK SMILES IDX 62 96 63 97 64 98 43 99 44 100 52 101 45 102 51 103 53 104
REMARK SMILES IDX 50 105 46 106 47 107 48 108 49 109
REMARK H PARENT 9 6 88 22 14 43 73 62 41 73
REMARK Flexibility Score: inf
ROOT
ATOM      1  C   UNL A   1      45.222  39.446  28.387  1.00  0.00     0.023 C 
ENDROOT
BRANCH   1   2
ATOM      2  C   UNL A   1      45.013  39.113  26.910  1.00  0.00     0.116 C 
BRANCH   2   3
ATOM      3  N   UNL A   1      43.774  39.668  26.400  1.00  0.00    -0.351 N 
ATOM      4  C   UNL A   1      43.480  40.901  25.866  1.00  0.00     0.272 C 
ATOM      5  O   UNL A   1      42.321  41.097  25.516  1.00  0.00    -0.267 OA
ATOM      6  H   UNL A   1      43.006  39.052  26.443  1.00  0.00     0.163 HD
BRANCH   4   7
ATOM      7  C   UNL A   1      44.563  41.989  25.663  1.00  0.00     0.156 A 
ATOM      8  N   UNL A   1      46.010  43.058  24.197  1.00  0.00    -0.219 N 
ATOM      9  N   UNL A   1      45.136  42.048  24.495  1.00  0.00    -0.163 NA
ATOM     10  C   UNL A   1      46.235  44.148  25.027  1.00  0.00     0.275 A 
ATOM     11  C   UNL A   1      45.700  44.041  26.397  1.00  0.00     0.051 A 
ATOM     12  O   UNL A   1      46.860  45.151  24.689  1.00  0.00    -0.267 OA
ATOM     13  C   UNL A   1      44.895  42.958  26.747  1.00  0.00     0.020 A 
ATOM     14  C   UNL A   1      46.044  45.023  27.344  1.00  0.00     0.014 A 
ATOM     15  C   UNL A   1      44.468  42.853  28.079  1.00  0.00     0.011 A 
ATOM     16  C   UNL A   1      45.594  44.915  28.657  1.00  0.00     0.001 A 
ATOM     17  C   UNL A   1      44.813  43.826  29.025  1.00  0.00     0.001 A 
BRANCH   8  18
ATOM     18  C   UNL A   1      46.583  43.048  22.849  1.00  0.00     0.248 C 
BRANCH  18  19
ATOM     19  C   UNL A   1      45.664  42.254  21.916  1.00  0.00     0.246 C 
ATOM     20  O   UNL A   1      45.997  41.184  21.411  1.00  0.00    -0.273 OA
ATOM     21  N   UNL A   1      44.483  42.927  21.623  1.00  0.00    -0.324 N 
ATOM     22  H   UNL A   1      43.949  43.277  22.372  1.00  0.00     0.169 HD
BRANCH  21  23
ATOM     23  C   UNL A   1      44.008  43.137  20.309  1.00  0.00     0.042 A 
ATOM     24  C   UNL A   1      42.665  42.823  20.049  1.00  0.00     0.027 A 
ATOM     25  C   UNL A   1      44.742  43.862  19.369  1.00  0.00     0.039 A 
ATOM     26  C   UNL A   1      42.014  43.369  18.940  1.00  0.00     0.015 A 
ATOM     27  C   UNL A   1      44.074  44.457  18.301  1.00  0.00     0.036 A 
ATOM     28  C   UNL A   1      42.708  44.256  18.116  1.00  0.00     0.034 A 
ATOM     29  C   UNL A   1      44.776  45.480  17.507  1.00  0.00     0.194 C 
ATOM     30  C   UNL A   1      41.968  45.135  17.186  1.00  0.00     0.194 C 
ATOM     31  O   UNL A   1      45.982  45.444  17.324  1.00  0.00    -0.289 OA
ATOM     32  C   UNL A   1      43.962  46.608  17.024  1.00  0.00     0.034 A 
ATOM     33  C   UNL A   1      42.586  46.443  16.869  1.00  0.00     0.034 A 
ATOM     34  O   UNL A   1      40.850  44.842  16.782  1.00  0.00    -0.289 OA
ATOM     35  C   UNL A   1      44.559  47.855  16.823  1.00  0.00     0.013 A 
ATOM     36  C   UNL A   1      41.790  47.534  16.516  1.00  0.00     0.013 A 
ATOM     37  C   UNL A   1      43.759  48.950  16.499  1.00  0.00     0.001 A 
ATOM     38  C   UNL A   1      42.379  48.790  16.347  1.00  0.00     0.001 A 
ENDBRANCH  21  23
ENDBRANCH  18  19
ENDBRANCH   8  18
ENDBRANCH   4   7
ENDBRANCH   2   3
ENDBRANCH   1   2
BRANCH   1  39
ATOM     39  C   UNL A   1      44.248  38.742  29.342  1.00  0.00     0.023 C 
BRANCH  39  40
ATOM     40  C   UNL A   1      44.890  37.918  30.455  1.00  0.00     0.116 C 
BRANCH  40  41
ATOM     41  N   UNL A   1      46.313  37.689  30.262  1.00  0.00    -0.352 N 
ATOM     42  C   UNL A   1      46.950  36.501  29.982  1.00  0.00     0.251 C 
ATOM     43  H   UNL A   1      46.893  38.481  30.341  1.00  0.00     0.163 HD
ATOM     44  O   UNL A   1      48.174  36.454  29.927  1.00  0.00    -0.269 OA
BRANCH  42  45
ATOM     45  C   UNL A   1      46.140  35.278  29.807  1.00  0.00     0.039 A 
ATOM     46  C   UNL A   1      46.105  34.297  30.801  1.00  0.00     0.014 A 
ATOM     47  C   UNL A   1      45.454  35.093  28.603  1.00  0.00     0.014 A 
ATOM     48  C   UNL A   1      45.492  33.075  30.539  1.00  0.00     0.010 A 
ATOM     49  C   UNL A   1      44.801  33.883  28.359  1.00  0.00     0.010 A 
ATOM     50  C   UNL A   1      44.856  32.849  29.307  1.00  0.00    -0.014 A 
BRANCH  50  51
ATOM     51  C   UNL A   1      44.281  31.515  29.009  1.00  0.00     0.031 A 
ATOM     52  C   UNL A   1      42.905  31.158  29.500  1.00  0.00     0.074 A 
ATOM     53  C   UNL A   1      44.976  30.649  28.250  1.00  0.00     0.049 A 
ATOM     54  N   UNL A   1      42.227  30.056  29.318  1.00  0.00    -0.248 NA
ATOM     55  C   UNL A   1      42.197  32.174  30.297  1.00  0.00     0.031 C 
ATOM     56  C   UNL A   1      46.305  30.904  27.697  1.00  0.00     0.029 A 
ATOM     57  N   UNL A   1      44.657  29.394  27.796  1.00  0.00    -0.354 N 
ATOM     58  C   UNL A   1      41.016  30.241  29.975  1.00  0.00     0.074 A 
ATOM     59  C   UNL A   1      41.063  31.550  30.586  1.00  0.00     0.031 C 
ATOM     60  C   UNL A   1      46.670  29.858  26.940  1.00  0.00     0.029 A 
ATOM     61  C   UNL A   1      45.626  28.838  26.994  1.00  0.00     0.049 A 
ATOM     62  H   UNL A   1      43.815  28.937  28.021  1.00  0.00     0.167 HD
ATOM     63  C   UNL A   1      39.958  29.399  30.049  1.00  0.00     0.034 A 
ATOM     64  C   UNL A   1      45.669  27.641  26.374  1.00  0.00     0.034 A 
ATOM     65  C   UNL A   1      39.918  28.099  29.436  1.00  0.00     0.049 A 
ATOM     66  C   UNL A   1      44.499  26.703  26.515  1.00  0.00     0.074 A 
ATOM     67  C   UNL A   1      38.896  27.165  29.471  1.00  0.00     0.029 A 
ATOM     68  N   UNL A   1      40.935  27.549  28.670  1.00  0.00    -0.354 N 
ATOM     69  N   UNL A   1      43.358  26.897  27.133  1.00  0.00    -0.248 NA
ATOM     70  C   UNL A   1      44.620  25.382  25.882  1.00  0.00     0.031 C 
ATOM     71  C   UNL A   1      39.305  26.042  28.746  1.00  0.00     0.029 A 
ATOM     72  C   UNL A   1      40.570  26.286  28.235  1.00  0.00     0.049 A 
ATOM     73  H   UNL A   1      41.791  27.992  28.467  1.00  0.00     0.167 HD
ATOM     74  C   UNL A   1      42.622  25.731  26.954  1.00  0.00     0.074 A 
ATOM     75  C   UNL A   1      43.437  24.843  26.150  1.00  0.00     0.031 C 
ATOM     76  C   UNL A   1      41.387  25.420  27.422  1.00  0.00     0.034 A 
BRANCH  63  77
ATOM     77  C   UNL A   1      38.743  29.857  30.808  1.00  0.00     0.023 A 
ATOM     78  C   UNL A   1      37.795  30.695  30.194  1.00  0.00     0.031 A 
ATOM     79  C   UNL A   1      38.575  29.534  32.165  1.00  0.00     0.131 A 
ATOM     80  C   UNL A   1      36.725  31.196  30.947  1.00  0.00     0.055 A 
ATOM     81  C   UNL A   1      37.497  30.020  32.905  1.00  0.00     0.041 A 
ATOM     82  F   UNL A   1      39.452  28.727  32.787  1.00  0.00    -0.206 F 
ATOM     83  C   UNL A   1      36.570  30.862  32.297  1.00  0.00     0.022 A 
BRANCH  80  84
ATOM     84  S   UNL A   1      35.507  32.320  30.212  1.00  0.00     0.124 S 
ATOM     85  O   UNL A   1      36.310  33.517  29.974  1.00  0.00    -0.237 OA
ATOM     86  O   UNL A   1      35.103  31.591  29.013  1.00  0.00    -0.237 OA
ATOM     87  O   UNL A   1      34.485  32.454  31.244  1.00  0.00    -0.744 OA
ENDBRANCH  80  84
ENDBRANCH  63  77
BRANCH  64  88
ATOM     88  C   UNL A   1      46.846  27.306  25.525  1.00  0.00     0.023 A 
ATOM     89  C   UNL A   1      46.991  27.846  24.236  1.00  0.00     0.031 A 
ATOM     90  C   UNL A   1      47.785  26.353  25.955  1.00  0.00     0.131 A 
ATOM     91  C   UNL A   1      48.013  27.381  23.396  1.00  0.00     0.055 A 
ATOM     92  C   UNL A   1      48.834  25.934  25.137  1.00  0.00     0.041 A 
ATOM     93  F   UNL A   1      47.679  25.804  27.175  1.00  0.00    -0.206 F 
ATOM     94  C   UNL A   1      48.940  26.435  23.843  1.00  0.00     0.022 A 
BRANCH  91  95
ATOM     95  S   UNL A   1      48.076  27.879  21.652  1.00  0.00     0.124 S 
ATOM     96  O   UNL A   1      48.405  26.622  20.992  1.00  0.00    -0.237 OA
ATOM     97  O   UNL A   1      46.719  28.374  21.428  1.00  0.00    -0.237 OA
ATOM     98  O   UNL A   1      49.117  28.901  21.627  1.00  0.00    -0.744 OA
ENDBRANCH  91  95
ENDBRANCH  64  88
BRANCH  76  99
ATOM     99  C   UNL A   1      40.823  24.063  27.094  1.00  0.00     0.023 A 
ATOM    100  C   UNL A   1      39.652  23.951  26.322  1.00  0.00     0.031 A 
ATOM    101  C   UNL A   1      41.370  22.900  27.660  1.00  0.00     0.131 A 
ATOM    102  C   UNL A   1      39.049  22.698  26.158  1.00  0.00     0.055 A 
ATOM    103  C   UNL A   1      40.780  21.649  27.470  1.00  0.00     0.041 A 
ATOM    104  F   UNL A   1      42.482  22.964  28.408  1.00  0.00    -0.206 F 
ATOM    105  C   UNL A   1      39.609  21.547  26.724  1.00  0.00     0.022 A 
BRANCH 102 106
ATOM    106  S   UNL A   1      37.488  22.521  25.252  1.00  0.00     0.124 S 
ATOM    107  O   UNL A   1      37.577  23.609  24.281  1.00  0.00    -0.237 OA
ATOM    108  O   UNL A   1      37.607  21.176  24.695  1.00  0.00    -0.237 OA
ATOM    109  O   UNL A   1      36.464  22.686  26.278  1.00  0.00    -0.744 OA
ENDBRANCH 102 106
ENDBRANCH  76  99
ENDBRANCH  50  51
ENDBRANCH  42  45
ENDBRANCH  40  41
ENDBRANCH  39  40
ENDBRANCH   1  39
TORSDOF 17
ENDMDL
