MODEL 1
REMARK VINA RESULT:     -11.5      0.000      0.000
REMARK SMILES CC(=O)N[C@H]1[C@@H](O[C@H](C)C(=O)NCCCCNC(=O)c2ccc(-c3c4nc(c(-c5cc(S(=O)(=O)[O-])ccc5F)c5ccc([nH]5)c(-c5cc(S(=O)(=O)[O-])ccc5F)c5nc(c(-c6cc(S(=O)(=O)[O-])ccc6F)c6ccc3[nH]6)C=C5)C=C4)cc2)[C@H]2OC(C)(C)OC[C@@H]2O[C@H]1Sc1ccc(Cl)cc1
REMARK SMILES IDX 14 1 13 2 12 3 10 4 11 5 8 7 9 8 7 9 6 10 5 11 92 12 83 13
REMARK SMILES IDX 91 14 84 15 90 16 85 17 89 18 86 19 87 20 88 21 4 22 1 23
REMARK SMILES IDX 2 24 3 25 93 27 94 28 95 29 100 30 96 31 99 32 97 33 98 34
REMARK SMILES IDX 15 35 16 36 17 37 18 38 19 40 20 41 21 42 82 43 22 44 81 45
REMARK SMILES IDX 23 46 24 47 25 48 75 49 26 50 80 51 74 52 76 53 27 54 79 55
REMARK SMILES IDX 73 56 72 57 28 59 60 60 40 61 59 62 41 63 44 64 58 65 77 66
REMARK SMILES IDX 42 67 43 68 57 70 78 71 45 72 29 73 30 74 38 75 31 76 37 77
REMARK SMILES IDX 39 78 36 79 32 80 33 81 34 82 35 83 61 84 62 85 70 86 63 87
REMARK SMILES IDX 69 88 71 89 68 90 64 91 65 92 66 93 67 94 46 95 47 96 55 97
REMARK SMILES IDX 48 98 54 99 56 100 53 101 49 102 50 103 51 104 52 105
REMARK H PARENT 12 6 4 26 17 39 76 58 44 69
REMARK Flexibility Score: inf
ROOT
ATOM      1  C   UNL A   1      39.909  21.822  26.100  1.00  0.00     0.023 C 
ENDROOT
BRANCH   1   2
ATOM      2  C   UNL A   1      38.388  21.982  26.198  1.00  0.00     0.116 C 
BRANCH   2   3
ATOM      3  N   UNL A   1      37.763  22.715  25.084  1.00  0.00    -0.354 N 
ATOM      4  C   UNL A   1      36.847  23.700  25.375  1.00  0.00     0.248 C 
ATOM      5  O   UNL A   1      37.039  24.336  26.417  1.00  0.00    -0.272 OA
ATOM      6  H   UNL A   1      37.995  22.504  24.151  1.00  0.00     0.163 HD
BRANCH   4   7
ATOM      7  C   UNL A   1      35.537  24.009  24.472  1.00  0.00     0.204 C 
ATOM      8  C   UNL A   1      35.698  23.380  23.086  1.00  0.00     0.049 C 
BRANCH   7   9
ATOM      9  O   UNL A   1      34.190  23.704  24.959  1.00  0.00    -0.360 OA
BRANCH   9  10
ATOM     10  C   UNL A   1      33.362  24.759  25.528  1.00  0.00     0.177 C 
ATOM     11  C   UNL A   1      32.056  24.185  26.078  1.00  0.00     0.153 C 
ATOM     12  C   UNL A   1      31.283  23.560  24.853  1.00  0.00     0.206 C 
ATOM     13  C   UNL A   1      32.800  25.951  24.532  1.00  0.00     0.184 C 
ATOM     14  O   UNL A   1      30.613  24.724  24.300  1.00  0.00    -0.356 OA
ATOM     15  O   UNL A   1      33.764  26.639  23.723  1.00  0.00    -0.342 OA
ATOM     16  C   UNL A   1      31.604  25.500  23.652  1.00  0.00     0.177 C 
ATOM     17  C   UNL A   1      33.192  27.614  22.807  1.00  0.00     0.163 C 
ATOM     18  C   UNL A   1      31.025  26.618  22.825  1.00  0.00     0.198 C 
ATOM     19  C   UNL A   1      34.279  27.928  21.772  1.00  0.00     0.075 C 
ATOM     20  C   UNL A   1      32.765  28.924  23.475  1.00  0.00     0.075 C 
ATOM     21  O   UNL A   1      32.089  27.129  22.032  1.00  0.00    -0.348 OA
BRANCH  11  22
ATOM     22  N   UNL A   1      32.152  23.480  27.359  1.00  0.00    -0.347 N 
ATOM     23  C   UNL A   1      34.094  22.000  26.999  1.00  0.00     0.114 C 
ATOM     24  C   UNL A   1      32.881  22.408  27.773  1.00  0.00     0.217 C 
ATOM     25  O   UNL A   1      32.542  21.808  28.793  1.00  0.00    -0.275 OA
ATOM     26  H   UNL A   1      31.574  23.858  28.061  1.00  0.00     0.163 HD
ENDBRANCH  11  22
BRANCH  12  27
ATOM     27  S   UNL A   1      31.888  22.461  23.249  1.00  0.00    -0.092 SA
BRANCH  27  28
ATOM     28  C   UNL A   1      32.444  20.744  23.500  1.00  0.00     0.010 A 
ATOM     29  C   UNL A   1      33.351  20.235  24.440  1.00  0.00     0.016 A 
ATOM     30  C   UNL A   1      32.061  19.824  22.509  1.00  0.00     0.016 A 
ATOM     31  C   UNL A   1      33.705  18.870  24.490  1.00  0.00     0.021 A 
ATOM     32  C   UNL A   1      32.416  18.466  22.527  1.00  0.00     0.021 A 
ATOM     33  C   UNL A   1      33.221  17.986  23.541  1.00  0.00     0.041 A 
ATOM     34  Cl  UNL A   1      33.653  16.324  23.596  1.00  0.00    -0.084 Cl
ENDBRANCH  27  28
ENDBRANCH  12  27
ENDBRANCH   9  10
ENDBRANCH   7   9
ENDBRANCH   4   7
ENDBRANCH   2   3
ENDBRANCH   1   2
BRANCH   1  35
ATOM     35  C   UNL A   1      40.400  20.364  26.074  1.00  0.00     0.023 C 
BRANCH  35  36
ATOM     36  C   UNL A   1      41.776  20.048  26.674  1.00  0.00     0.116 C 
BRANCH  36  37
ATOM     37  N   UNL A   1      42.878  20.051  25.721  1.00  0.00    -0.352 N 
ATOM     38  C   UNL A   1      43.654  21.124  25.302  1.00  0.00     0.251 C 
ATOM     39  H   UNL A   1      43.102  19.179  25.323  1.00  0.00     0.163 HD
ATOM     40  O   UNL A   1      44.512  20.987  24.457  1.00  0.00    -0.269 OA
BRANCH  38  41
ATOM     41  C   UNL A   1      43.376  22.462  25.882  1.00  0.00     0.039 A 
ATOM     42  C   UNL A   1      43.553  22.654  27.253  1.00  0.00     0.014 A 
ATOM     43  C   UNL A   1      43.042  23.537  25.054  1.00  0.00     0.014 A 
ATOM     44  C   UNL A   1      43.508  23.950  27.778  1.00  0.00     0.010 A 
ATOM     45  C   UNL A   1      43.068  24.833  25.569  1.00  0.00     0.010 A 
ATOM     46  C   UNL A   1      43.328  25.058  26.932  1.00  0.00    -0.014 A 
BRANCH  46  47
ATOM     47  C   UNL A   1      43.463  26.450  27.447  1.00  0.00     0.031 A 
ATOM     48  C   UNL A   1      44.814  27.110  27.529  1.00  0.00     0.074 A 
ATOM     49  C   UNL A   1      42.376  27.094  27.924  1.00  0.00     0.049 A 
ATOM     50  N   UNL A   1      45.134  28.286  28.007  1.00  0.00    -0.248 NA
ATOM     51  C   UNL A   1      45.956  26.326  27.041  1.00  0.00     0.031 C 
ATOM     52  C   UNL A   1      41.020  26.540  27.971  1.00  0.00     0.029 A 
ATOM     53  N   UNL A   1      42.236  28.346  28.473  1.00  0.00    -0.354 N 
ATOM     54  C   UNL A   1      46.519  28.375  27.897  1.00  0.00     0.074 A 
ATOM     55  C   UNL A   1      46.975  27.108  27.365  1.00  0.00     0.031 C 
ATOM     56  C   UNL A   1      40.187  27.452  28.495  1.00  0.00     0.029 A 
ATOM     57  C   UNL A   1      40.949  28.642  28.862  1.00  0.00     0.049 A 
ATOM     58  H   UNL A   1      42.987  28.974  28.577  1.00  0.00     0.167 HD
ATOM     59  C   UNL A   1      47.330  29.423  28.192  1.00  0.00     0.034 A 
ATOM     60  C   UNL A   1      40.437  29.739  29.456  1.00  0.00     0.034 A 
ATOM     61  C   UNL A   1      46.856  30.686  28.707  1.00  0.00     0.049 A 
ATOM     62  C   UNL A   1      41.352  30.898  29.761  1.00  0.00     0.074 A 
ATOM     63  C   UNL A   1      47.579  31.841  28.958  1.00  0.00     0.029 A 
ATOM     64  N   UNL A   1      45.542  30.960  29.063  1.00  0.00    -0.354 N 
ATOM     65  N   UNL A   1      42.648  30.998  29.572  1.00  0.00    -0.248 NA
ATOM     66  C   UNL A   1      40.735  32.096  30.343  1.00  0.00     0.031 C 
ATOM     67  C   UNL A   1      46.718  32.783  29.532  1.00  0.00     0.029 A 
ATOM     68  C   UNL A   1      45.440  32.250  29.565  1.00  0.00     0.049 A 
ATOM     69  H   UNL A   1      44.791  30.329  28.972  1.00  0.00     0.167 HD
ATOM     70  C   UNL A   1      42.994  32.280  29.992  1.00  0.00     0.074 A 
ATOM     71  C   UNL A   1      41.769  32.920  30.423  1.00  0.00     0.031 C 
ATOM     72  C   UNL A   1      44.216  32.874  30.012  1.00  0.00     0.034 A 
BRANCH  59  73
ATOM     73  C   UNL A   1      48.816  29.228  27.987  1.00  0.00     0.023 A 
ATOM     74  C   UNL A   1      49.402  29.291  26.710  1.00  0.00     0.031 A 
ATOM     75  C   UNL A   1      49.654  28.934  29.077  1.00  0.00     0.131 A 
ATOM     76  C   UNL A   1      50.758  28.970  26.543  1.00  0.00     0.055 A 
ATOM     77  C   UNL A   1      51.023  28.706  28.916  1.00  0.00     0.041 A 
ATOM     78  F   UNL A   1      49.154  28.843  30.320  1.00  0.00    -0.206 F 
ATOM     79  C   UNL A   1      51.579  28.703  27.641  1.00  0.00     0.022 A 
BRANCH  76  80
ATOM     80  S   UNL A   1      51.390  28.741  24.857  1.00  0.00     0.124 S 
ATOM     81  O   UNL A   1      50.223  28.184  24.179  1.00  0.00    -0.237 OA
ATOM     82  O   UNL A   1      51.765  30.097  24.475  1.00  0.00    -0.237 OA
ATOM     83  O   UNL A   1      52.503  27.810  25.032  1.00  0.00    -0.744 OA
ENDBRANCH  76  80
ENDBRANCH  59  73
BRANCH  60  84
ATOM     84  C   UNL A   1      38.990  29.795  29.816  1.00  0.00     0.023 A 
ATOM     85  C   UNL A   1      38.062  30.464  29.000  1.00  0.00     0.031 A 
ATOM     86  C   UNL A   1      38.518  29.199  30.999  1.00  0.00     0.131 A 
ATOM     87  C   UNL A   1      36.718  30.555  29.399  1.00  0.00     0.055 A 
ATOM     88  C   UNL A   1      37.172  29.250  31.365  1.00  0.00     0.041 A 
ATOM     89  F   UNL A   1      39.361  28.541  31.810  1.00  0.00    -0.206 F 
ATOM     90  C   UNL A   1      36.265  29.940  30.569  1.00  0.00     0.022 A 
BRANCH  87  91
ATOM     91  S   UNL A   1      35.577  31.546  28.395  1.00  0.00     0.124 S 
ATOM     92  O   UNL A   1      36.460  32.585  27.879  1.00  0.00    -0.237 OA
ATOM     93  O   UNL A   1      35.099  30.568  27.424  1.00  0.00    -0.237 OA
ATOM     94  O   UNL A   1      34.578  31.998  29.362  1.00  0.00    -0.744 OA
ENDBRANCH  87  91
ENDBRANCH  60  84
BRANCH  72  95
ATOM     95  C   UNL A   1      44.274  34.307  30.485  1.00  0.00     0.023 A 
ATOM     96  C   UNL A   1      44.116  35.388  29.599  1.00  0.00     0.031 A 
ATOM     97  C   UNL A   1      44.503  34.594  31.843  1.00  0.00     0.131 A 
ATOM     98  C   UNL A   1      44.243  36.704  30.071  1.00  0.00     0.055 A 
ATOM     99  C   UNL A   1      44.567  35.906  32.317  1.00  0.00     0.041 A 
ATOM    100  F   UNL A   1      44.665  33.604  32.734  1.00  0.00    -0.206 F 
ATOM    101  C   UNL A   1      44.451  36.969  31.426  1.00  0.00     0.022 A 
BRANCH  98 102
ATOM    102  S   UNL A   1      44.231  38.065  28.872  1.00  0.00     0.124 S 
ATOM    103  O   UNL A   1      42.848  38.525  28.948  1.00  0.00    -0.237 OA
ATOM    104  O   UNL A   1      45.236  38.971  29.418  1.00  0.00    -0.237 OA
ATOM    105  O   UNL A   1      44.600  37.417  27.613  1.00  0.00    -0.744 OA
ENDBRANCH  98 102
ENDBRANCH  72  95
ENDBRANCH  46  47
ENDBRANCH  38  41
ENDBRANCH  36  37
ENDBRANCH  35  36
ENDBRANCH   1  35
TORSDOF 19
ENDMDL
MODEL 2
REMARK VINA RESULT:     -11.4      1.805      2.256
REMARK SMILES CC(=O)N[C@H]1[C@@H](O[C@H](C)C(=O)NCCCCNC(=O)c2ccc(-c3c4nc(c(-c5cc(S(=O)(=O)[O-])ccc5F)c5ccc([nH]5)c(-c5cc(S(=O)(=O)[O-])ccc5F)c5nc(c(-c6cc(S(=O)(=O)[O-])ccc6F)c6ccc3[nH]6)C=C5)C=C4)cc2)[C@H]2OC(C)(C)OC[C@@H]2O[C@H]1Sc1ccc(Cl)cc1
REMARK SMILES IDX 14 1 13 2 12 3 10 4 11 5 8 7 9 8 7 9 6 10 5 11 92 12 83 13
REMARK SMILES IDX 91 14 84 15 90 16 85 17 89 18 86 19 87 20 88 21 4 22 1 23
REMARK SMILES IDX 2 24 3 25 93 27 94 28 95 29 100 30 96 31 99 32 97 33 98 34
REMARK SMILES IDX 15 35 16 36 17 37 18 38 19 40 20 41 21 42 82 43 22 44 81 45
REMARK SMILES IDX 23 46 24 47 25 48 75 49 26 50 80 51 74 52 76 53 27 54 79 55
REMARK SMILES IDX 73 56 72 57 28 59 60 60 40 61 59 62 41 63 44 64 58 65 77 66
REMARK SMILES IDX 42 67 43 68 57 70 78 71 45 72 29 73 30 74 38 75 31 76 37 77
REMARK SMILES IDX 39 78 36 79 32 80 33 81 34 82 35 83 61 84 62 85 70 86 63 87
REMARK SMILES IDX 69 88 71 89 68 90 64 91 65 92 66 93 67 94 46 95 47 96 55 97
REMARK SMILES IDX 48 98 54 99 56 100 53 101 49 102 50 103 51 104 52 105
REMARK H PARENT 12 6 4 26 17 39 76 58 44 69
REMARK Flexibility Score: inf
ROOT
ATOM      1  C   UNL A   1      39.626  22.440  26.526  1.00  0.00     0.023 C 
ENDROOT
BRANCH   1   2
ATOM      2  C   UNL A   1      38.424  21.843  25.786  1.00  0.00     0.116 C 
BRANCH   2   3
ATOM      3  N   UNL A   1      37.762  22.750  24.834  1.00  0.00    -0.354 N 
ATOM      4  C   UNL A   1      36.803  23.616  25.309  1.00  0.00     0.248 C 
ATOM      5  O   UNL A   1      36.970  24.044  26.455  1.00  0.00    -0.272 OA
ATOM      6  H   UNL A   1      38.000  22.737  23.879  1.00  0.00     0.163 HD
BRANCH   4   7
ATOM      7  C   UNL A   1      35.476  24.036  24.477  1.00  0.00     0.204 C 
ATOM      8  C   UNL A   1      35.590  23.545  23.031  1.00  0.00     0.049 C 
BRANCH   7   9
ATOM      9  O   UNL A   1      34.137  23.707  24.968  1.00  0.00    -0.360 OA
BRANCH   9  10
ATOM     10  C   UNL A   1      33.288  24.750  25.529  1.00  0.00     0.177 C 
ATOM     11  C   UNL A   1      31.966  24.162  26.026  1.00  0.00     0.153 C 
ATOM     12  C   UNL A   1      31.235  23.559  24.766  1.00  0.00     0.206 C 
ATOM     13  C   UNL A   1      32.755  25.959  24.538  1.00  0.00     0.184 C 
ATOM     14  O   UNL A   1      30.580  24.732  24.213  1.00  0.00    -0.356 OA
ATOM     15  O   UNL A   1      33.743  26.664  23.773  1.00  0.00    -0.342 OA
ATOM     16  C   UNL A   1      31.589  25.522  23.612  1.00  0.00     0.177 C 
ATOM     17  C   UNL A   1      33.198  27.655  22.858  1.00  0.00     0.163 C 
ATOM     18  C   UNL A   1      31.035  26.654  22.787  1.00  0.00     0.198 C 
ATOM     19  C   UNL A   1      34.317  27.990  21.865  1.00  0.00     0.075 C 
ATOM     20  C   UNL A   1      32.746  28.951  23.536  1.00  0.00     0.075 C 
ATOM     21  O   UNL A   1      32.122  27.182  22.038  1.00  0.00    -0.348 OA
BRANCH  11  22
ATOM     22  N   UNL A   1      32.023  23.434  27.296  1.00  0.00    -0.347 N 
ATOM     23  C   UNL A   1      34.082  22.097  27.043  1.00  0.00     0.114 C 
ATOM     24  C   UNL A   1      32.793  22.404  27.738  1.00  0.00     0.217 C 
ATOM     25  O   UNL A   1      32.428  21.757  28.720  1.00  0.00    -0.275 OA
ATOM     26  H   UNL A   1      31.374  23.755  27.964  1.00  0.00     0.163 HD
ENDBRANCH  11  22
BRANCH  12  27
ATOM     27  S   UNL A   1      31.895  22.492  23.162  1.00  0.00    -0.092 SA
BRANCH  27  28
ATOM     28  C   UNL A   1      32.235  20.711  23.352  1.00  0.00     0.010 A 
ATOM     29  C   UNL A   1      32.132  19.683  22.405  1.00  0.00     0.016 A 
ATOM     30  C   UNL A   1      32.454  20.266  24.667  1.00  0.00     0.016 A 
ATOM     31  C   UNL A   1      32.405  18.335  22.716  1.00  0.00     0.021 A 
ATOM     32  C   UNL A   1      32.710  18.928  25.004  1.00  0.00     0.021 A 
ATOM     33  C   UNL A   1      32.711  17.965  24.014  1.00  0.00     0.041 A 
ATOM     34  Cl  UNL A   1      33.040  16.323  24.399  1.00  0.00    -0.084 Cl
ENDBRANCH  27  28
ENDBRANCH  12  27
ENDBRANCH   9  10
ENDBRANCH   7   9
ENDBRANCH   4   7
ENDBRANCH   2   3
ENDBRANCH   1   2
BRANCH   1  35
ATOM     35  C   UNL A   1      40.994  21.906  26.064  1.00  0.00     0.023 C 
BRANCH  35  36
ATOM     36  C   UNL A   1      41.467  20.550  26.603  1.00  0.00     0.116 C 
BRANCH  36  37
ATOM     37  N   UNL A   1      42.304  19.783  25.691  1.00  0.00    -0.352 N 
ATOM     38  C   UNL A   1      43.500  20.160  25.093  1.00  0.00     0.251 C 
ATOM     39  H   UNL A   1      41.980  18.880  25.469  1.00  0.00     0.163 HD
ATOM     40  O   UNL A   1      44.067  19.432  24.308  1.00  0.00    -0.269 OA
BRANCH  38  41
ATOM     41  C   UNL A   1      44.049  21.504  25.405  1.00  0.00     0.039 A 
ATOM     42  C   UNL A   1      43.891  22.531  24.472  1.00  0.00     0.014 A 
ATOM     43  C   UNL A   1      44.623  21.763  26.652  1.00  0.00     0.014 A 
ATOM     44  C   UNL A   1      44.205  23.844  24.836  1.00  0.00     0.010 A 
ATOM     45  C   UNL A   1      44.868  23.082  27.034  1.00  0.00     0.010 A 
ATOM     46  C   UNL A   1      44.636  24.142  26.140  1.00  0.00    -0.014 A 
BRANCH  46  47
ATOM     47  C   UNL A   1      44.795  25.552  26.596  1.00  0.00     0.031 A 
ATOM     48  C   UNL A   1      46.147  26.214  26.580  1.00  0.00     0.074 A 
ATOM     49  C   UNL A   1      43.735  26.212  27.106  1.00  0.00     0.049 A 
ATOM     50  N   UNL A   1      46.491  27.407  26.997  1.00  0.00    -0.248 NA
ATOM     51  C   UNL A   1      47.263  25.414  26.060  1.00  0.00     0.031 C 
ATOM     52  C   UNL A   1      42.384  25.661  27.247  1.00  0.00     0.029 A 
ATOM     53  N   UNL A   1      43.622  27.484  27.616  1.00  0.00    -0.354 N 
ATOM     54  C   UNL A   1      47.867  27.492  26.810  1.00  0.00     0.074 A 
ATOM     55  C   UNL A   1      48.296  26.207  26.300  1.00  0.00     0.031 C 
ATOM     56  C   UNL A   1      41.579  26.592  27.781  1.00  0.00     0.029 A 
ATOM     57  C   UNL A   1      42.357  27.794  28.063  1.00  0.00     0.049 A 
ATOM     58  H   UNL A   1      44.376  28.116  27.656  1.00  0.00     0.167 HD
ATOM     59  C   UNL A   1      48.691  28.550  27.022  1.00  0.00     0.034 A 
ATOM     60  C   UNL A   1      41.876  28.912  28.644  1.00  0.00     0.034 A 
ATOM     61  C   UNL A   1      48.243  29.832  27.515  1.00  0.00     0.049 A 
ATOM     62  C   UNL A   1      42.804  30.081  28.856  1.00  0.00     0.074 A 
ATOM     63  C   UNL A   1      48.976  30.995  27.684  1.00  0.00     0.029 A 
ATOM     64  N   UNL A   1      46.949  30.118  27.931  1.00  0.00    -0.354 N 
ATOM     65  N   UNL A   1      44.087  30.175  28.594  1.00  0.00    -0.248 NA
ATOM     66  C   UNL A   1      42.216  31.300  29.426  1.00  0.00     0.031 C 
ATOM     67  C   UNL A   1      48.145  31.957  28.268  1.00  0.00     0.029 A 
ATOM     68  C   UNL A   1      46.872  31.426  28.390  1.00  0.00     0.049 A 
ATOM     69  H   UNL A   1      46.195  29.484  27.904  1.00  0.00     0.167 HD
ATOM     70  C   UNL A   1      44.453  31.471  28.947  1.00  0.00     0.074 A 
ATOM     71  C   UNL A   1      43.251  32.127  29.420  1.00  0.00     0.031 C 
ATOM     72  C   UNL A   1      45.672  32.066  28.879  1.00  0.00     0.034 A 
BRANCH  59  73
ATOM     73  C   UNL A   1      50.164  28.349  26.744  1.00  0.00     0.023 A 
ATOM     74  C   UNL A   1      50.692  28.437  25.443  1.00  0.00     0.031 A 
ATOM     75  C   UNL A   1      51.048  28.022  27.788  1.00  0.00     0.131 A 
ATOM     76  C   UNL A   1      52.035  28.109  25.206  1.00  0.00     0.055 A 
ATOM     77  C   UNL A   1      52.406  27.786  27.559  1.00  0.00     0.041 A 
ATOM     78  F   UNL A   1      50.605  27.905  29.049  1.00  0.00    -0.206 F 
ATOM     79  C   UNL A   1      52.903  27.809  26.259  1.00  0.00     0.022 A 
BRANCH  76  80
ATOM     80  S   UNL A   1      52.588  27.916  23.489  1.00  0.00     0.124 S 
ATOM     81  O   UNL A   1      53.569  26.842  23.615  1.00  0.00    -0.237 OA
ATOM     82  O   UNL A   1      51.351  27.574  22.797  1.00  0.00    -0.237 OA
ATOM     83  O   UNL A   1      53.148  29.225  23.159  1.00  0.00    -0.744 OA
ENDBRANCH  76  80
ENDBRANCH  59  73
BRANCH  60  84
ATOM     84  C   UNL A   1      40.450  28.981  29.078  1.00  0.00     0.023 A 
ATOM     85  C   UNL A   1      40.092  28.839  30.429  1.00  0.00     0.031 A 
ATOM     86  C   UNL A   1      39.419  29.165  28.139  1.00  0.00     0.131 A 
ATOM     87  C   UNL A   1      38.736  28.844  30.797  1.00  0.00     0.055 A 
ATOM     88  C   UNL A   1      38.076  29.218  28.517  1.00  0.00     0.041 A 
ATOM     89  F   UNL A   1      39.707  29.314  26.836  1.00  0.00    -0.206 F 
ATOM     90  C   UNL A   1      37.727  29.046  29.853  1.00  0.00     0.022 A 
BRANCH  87  91
ATOM     91  S   UNL A   1      38.303  28.516  32.529  1.00  0.00     0.124 S 
ATOM     92  O   UNL A   1      36.940  29.028  32.597  1.00  0.00    -0.237 OA
ATOM     93  O   UNL A   1      38.451  27.067  32.609  1.00  0.00    -0.237 OA
ATOM     94  O   UNL A   1      39.297  29.282  33.278  1.00  0.00    -0.744 OA
ENDBRANCH  87  91
ENDBRANCH  60  84
BRANCH  72  95
ATOM     95  C   UNL A   1      45.753  33.515  29.296  1.00  0.00     0.023 A 
ATOM     96  C   UNL A   1      45.745  34.559  28.354  1.00  0.00     0.031 A 
ATOM     97  C   UNL A   1      45.852  33.855  30.657  1.00  0.00     0.131 A 
ATOM     98  C   UNL A   1      45.888  35.888  28.781  1.00  0.00     0.055 A 
ATOM     99  C   UNL A   1      45.932  35.183  31.080  1.00  0.00     0.041 A 
ATOM    100  F   UNL A   1      45.868  32.900  31.601  1.00  0.00    -0.206 F 
ATOM    101  C   UNL A   1      45.964  36.207  30.139  1.00  0.00     0.022 A 
BRANCH  98 102
ATOM    102  S   UNL A   1      46.072  37.191  27.532  1.00  0.00     0.124 S 
ATOM    103  O   UNL A   1      44.837  37.951  27.701  1.00  0.00    -0.237 OA
ATOM    104  O   UNL A   1      47.297  37.860  27.957  1.00  0.00    -0.237 OA
ATOM    105  O   UNL A   1      46.176  36.450  26.276  1.00  0.00    -0.744 OA
ENDBRANCH  98 102
ENDBRANCH  72  95
ENDBRANCH  46  47
ENDBRANCH  38  41
ENDBRANCH  36  37
ENDBRANCH  35  36
ENDBRANCH   1  35
TORSDOF 19
ENDMDL
MODEL 3
REMARK VINA RESULT:     -11.3      6.099     12.868
REMARK SMILES CC(=O)N[C@H]1[C@@H](O[C@H](C)C(=O)NCCCCNC(=O)c2ccc(-c3c4nc(c(-c5cc(S(=O)(=O)[O-])ccc5F)c5ccc([nH]5)c(-c5cc(S(=O)(=O)[O-])ccc5F)c5nc(c(-c6cc(S(=O)(=O)[O-])ccc6F)c6ccc3[nH]6)C=C5)C=C4)cc2)[C@H]2OC(C)(C)OC[C@@H]2O[C@H]1Sc1ccc(Cl)cc1
REMARK SMILES IDX 14 1 13 2 12 3 10 4 11 5 8 7 9 8 7 9 6 10 5 11 92 12 83 13
REMARK SMILES IDX 91 14 84 15 90 16 85 17 89 18 86 19 87 20 88 21 4 22 1 23
REMARK SMILES IDX 2 24 3 25 93 27 94 28 95 29 100 30 96 31 99 32 97 33 98 34
REMARK SMILES IDX 15 35 16 36 17 37 18 38 19 40 20 41 21 42 82 43 22 44 81 45
REMARK SMILES IDX 23 46 24 47 25 48 75 49 26 50 80 51 74 52 76 53 27 54 79 55
REMARK SMILES IDX 73 56 72 57 28 59 60 60 40 61 59 62 41 63 44 64 58 65 77 66
REMARK SMILES IDX 42 67 43 68 57 70 78 71 45 72 29 73 30 74 38 75 31 76 37 77
REMARK SMILES IDX 39 78 36 79 32 80 33 81 34 82 35 83 61 84 62 85 70 86 63 87
REMARK SMILES IDX 69 88 71 89 68 90 64 91 65 92 66 93 67 94 46 95 47 96 55 97
REMARK SMILES IDX 48 98 54 99 56 100 53 101 49 102 50 103 51 104 52 105
REMARK H PARENT 12 6 4 26 17 39 76 58 44 69
REMARK Flexibility Score: inf
ROOT
ATOM      1  C   UNL A   1      46.663  35.371  26.772  1.00  0.00     0.023 C 
ENDROOT
BRANCH   1   2
ATOM      2  C   UNL A   1      45.718  34.401  26.054  1.00  0.00     0.116 C 
BRANCH   2   3
ATOM      3  N   UNL A   1      46.001  32.973  26.276  1.00  0.00    -0.354 N 
ATOM      4  C   UNL A   1      44.976  32.067  26.120  1.00  0.00     0.248 C 
ATOM      5  O   UNL A   1      44.132  32.337  25.259  1.00  0.00    -0.272 OA
ATOM      6  H   UNL A   1      46.903  32.673  26.530  1.00  0.00     0.163 HD
BRANCH   4   7
ATOM      7  C   UNL A   1      44.802  30.738  27.031  1.00  0.00     0.204 C 
ATOM      8  C   UNL A   1      43.871  31.031  28.210  1.00  0.00     0.049 C 
BRANCH   7   9
ATOM      9  O   UNL A   1      44.400  29.460  26.439  1.00  0.00    -0.360 OA
BRANCH   9  10
ATOM     10  C   UNL A   1      45.212  28.269  26.653  1.00  0.00     0.177 C 
ATOM     11  C   UNL A   1      45.189  27.370  25.416  1.00  0.00     0.153 C 
ATOM     12  C   UNL A   1      43.694  26.914  25.213  1.00  0.00     0.206 C 
ATOM     13  C   UNL A   1      44.767  27.207  27.837  1.00  0.00     0.184 C 
ATOM     14  O   UNL A   1      43.602  25.782  26.118  1.00  0.00    -0.356 OA
ATOM     15  O   UNL A   1      44.548  27.741  29.150  1.00  0.00    -0.342 OA
ATOM     16  C   UNL A   1      43.569  26.306  27.432  1.00  0.00     0.177 C 
ATOM     17  C   UNL A   1      44.074  26.769  30.123  1.00  0.00     0.163 C 
ATOM     18  C   UNL A   1      43.235  25.267  28.470  1.00  0.00     0.198 C 
ATOM     19  C   UNL A   1      43.515  27.571  31.302  1.00  0.00     0.075 C 
ATOM     20  C   UNL A   1      45.162  25.828  30.647  1.00  0.00     0.075 C 
ATOM     21  O   UNL A   1      42.971  25.970  29.678  1.00  0.00    -0.348 OA
BRANCH  11  22
ATOM     22  N   UNL A   1      46.013  27.808  24.287  1.00  0.00    -0.347 N 
ATOM     23  C   UNL A   1      47.865  26.178  24.325  1.00  0.00     0.114 C 
ATOM     24  C   UNL A   1      47.259  27.464  23.863  1.00  0.00     0.217 C 
ATOM     25  O   UNL A   1      47.856  28.208  23.084  1.00  0.00    -0.275 OA
ATOM     26  H   UNL A   1      45.578  28.486  23.721  1.00  0.00     0.163 HD
ENDBRANCH  11  22
BRANCH  12  27
ATOM     27  S   UNL A   1      41.914  27.892  25.376  1.00  0.00    -0.092 SA
BRANCH  27  28
ATOM     28  C   UNL A   1      40.957  27.754  26.921  1.00  0.00     0.010 A 
ATOM     29  C   UNL A   1      40.088  26.737  27.338  1.00  0.00     0.016 A 
ATOM     30  C   UNL A   1      40.936  28.902  27.733  1.00  0.00     0.016 A 
ATOM     31  C   UNL A   1      39.391  26.790  28.563  1.00  0.00     0.021 A 
ATOM     32  C   UNL A   1      40.236  28.985  28.947  1.00  0.00     0.021 A 
ATOM     33  C   UNL A   1      39.481  27.909  29.372  1.00  0.00     0.041 A 
ATOM     34  Cl  UNL A   1      38.631  27.979  30.863  1.00  0.00    -0.084 Cl
ENDBRANCH  27  28
ENDBRANCH  12  27
ENDBRANCH   9  10
ENDBRANCH   7   9
ENDBRANCH   4   7
ENDBRANCH   2   3
ENDBRANCH   1   2
BRANCH   1  35
ATOM     35  C   UNL A   1      46.714  36.785  26.165  1.00  0.00     0.023 C 
BRANCH  35  36
ATOM     36  C   UNL A   1      46.295  37.970  27.044  1.00  0.00     0.116 C 
BRANCH  36  37
ATOM     37  N   UNL A   1      45.151  38.726  26.552  1.00  0.00    -0.352 N 
ATOM     38  C   UNL A   1      43.810  38.568  26.875  1.00  0.00     0.251 C 
ATOM     39  H   UNL A   1      45.356  39.442  25.908  1.00  0.00     0.163 HD
ATOM     40  O   UNL A   1      42.952  39.240  26.345  1.00  0.00    -0.269 OA
BRANCH  38  41
ATOM     41  C   UNL A   1      43.441  37.515  27.856  1.00  0.00     0.039 A 
ATOM     42  C   UNL A   1      42.963  36.291  27.386  1.00  0.00     0.014 A 
ATOM     43  C   UNL A   1      43.665  37.711  29.221  1.00  0.00     0.014 A 
ATOM     44  C   UNL A   1      42.819  35.222  28.276  1.00  0.00     0.010 A 
ATOM     45  C   UNL A   1      43.587  36.624  30.091  1.00  0.00     0.010 A 
ATOM     46  C   UNL A   1      43.190  35.359  29.625  1.00  0.00    -0.014 A 
BRANCH  46  47
ATOM     47  C   UNL A   1      43.218  34.182  30.539  1.00  0.00     0.031 A 
ATOM     48  C   UNL A   1      42.018  33.838  31.382  1.00  0.00     0.074 A 
ATOM     49  C   UNL A   1      44.356  33.470  30.676  1.00  0.00     0.049 A 
ATOM     50  N   UNL A   1      41.879  32.896  32.280  1.00  0.00    -0.248 NA
ATOM     51  C   UNL A   1      40.835  34.692  31.217  1.00  0.00     0.031 C 
ATOM     52  C   UNL A   1      45.612  33.743  29.972  1.00  0.00     0.029 A 
ATOM     53  N   UNL A   1      44.651  32.380  31.461  1.00  0.00    -0.354 N 
ATOM     54  C   UNL A   1      40.600  33.056  32.803  1.00  0.00     0.074 A 
ATOM     55  C   UNL A   1      40.034  34.224  32.163  1.00  0.00     0.031 C 
ATOM     56  C   UNL A   1      46.531  32.835  30.338  1.00  0.00     0.029 A 
ATOM     57  C   UNL A   1      45.949  31.939  31.333  1.00  0.00     0.049 A 
ATOM     58  H   UNL A   1      43.995  31.955  32.058  1.00  0.00     0.167 HD
ATOM     59  C   UNL A   1      39.950  32.287  33.714  1.00  0.00     0.034 A 
ATOM     60  C   UNL A   1      46.604  30.936  31.952  1.00  0.00     0.034 A 
ATOM     61  C   UNL A   1      40.524  31.114  34.331  1.00  0.00     0.049 A 
ATOM     62  C   UNL A   1      45.861  30.084  32.950  1.00  0.00     0.074 A 
ATOM     63  C   UNL A   1      39.926  30.216  35.200  1.00  0.00     0.029 A 
ATOM     64  N   UNL A   1      41.832  30.680  34.157  1.00  0.00    -0.354 N 
ATOM     65  N   UNL A   1      44.622  30.198  33.371  1.00  0.00    -0.248 NA
ATOM     66  C   UNL A   1      46.597  28.961  33.542  1.00  0.00     0.031 C 
ATOM     67  C   UNL A   1      40.890  29.287  35.605  1.00  0.00     0.029 A 
ATOM     68  C   UNL A   1      42.070  29.551  34.929  1.00  0.00     0.049 A 
ATOM     69  H   UNL A   1      42.495  31.112  33.570  1.00  0.00     0.167 HD
ATOM     70  C   UNL A   1      44.426  29.145  34.260  1.00  0.00     0.074 A 
ATOM     71  C   UNL A   1      45.666  28.398  34.299  1.00  0.00     0.031 C 
ATOM     72  C   UNL A   1      43.317  28.824  34.976  1.00  0.00     0.034 A 
BRANCH  59  73
ATOM     73  C   UNL A   1      38.556  32.715  34.114  1.00  0.00     0.023 A 
ATOM     74  C   UNL A   1      37.447  32.506  33.273  1.00  0.00     0.031 A 
ATOM     75  C   UNL A   1      38.335  33.378  35.335  1.00  0.00     0.131 A 
ATOM     76  C   UNL A   1      36.195  33.038  33.617  1.00  0.00     0.055 A 
ATOM     77  C   UNL A   1      37.067  33.825  35.714  1.00  0.00     0.041 A 
ATOM     78  F   UNL A   1      39.354  33.623  36.174  1.00  0.00    -0.206 F 
ATOM     79  C   UNL A   1      35.991  33.674  34.844  1.00  0.00     0.022 A 
BRANCH  76  80
ATOM     80  S   UNL A   1      34.882  33.036  32.365  1.00  0.00     0.124 S 
ATOM     81  O   UNL A   1      33.683  33.076  33.196  1.00  0.00    -0.237 OA
ATOM     82  O   UNL A   1      35.173  34.244  31.602  1.00  0.00    -0.237 OA
ATOM     83  O   UNL A   1      35.093  31.779  31.650  1.00  0.00    -0.744 OA
ENDBRANCH  76  80
ENDBRANCH  59  73
BRANCH  60  84
ATOM     84  C   UNL A   1      48.046  30.684  31.659  1.00  0.00     0.023 A 
ATOM     85  C   UNL A   1      48.438  29.799  30.641  1.00  0.00     0.031 A 
ATOM     86  C   UNL A   1      49.054  31.309  32.413  1.00  0.00     0.131 A 
ATOM     87  C   UNL A   1      49.802  29.534  30.433  1.00  0.00     0.055 A 
ATOM     88  C   UNL A   1      50.409  31.079  32.170  1.00  0.00     0.041 A 
ATOM     89  F   UNL A   1      48.734  32.170  33.393  1.00  0.00    -0.206 F 
ATOM     90  C   UNL A   1      50.790  30.178  31.181  1.00  0.00     0.022 A 
BRANCH  87  91
ATOM     91  S   UNL A   1      50.268  28.279  29.207  1.00  0.00     0.124 S 
ATOM     92  O   UNL A   1      51.515  27.767  29.763  1.00  0.00    -0.237 OA
ATOM     93  O   UNL A   1      49.125  27.374  29.250  1.00  0.00    -0.237 OA
ATOM     94  O   UNL A   1      50.404  29.047  27.970  1.00  0.00    -0.744 OA
ENDBRANCH  87  91
ENDBRANCH  60  84
BRANCH  72  95
ATOM     95  C   UNL A   1      43.391  27.583  35.835  1.00  0.00     0.023 A 
ATOM     96  C   UNL A   1      44.012  27.591  37.097  1.00  0.00     0.031 A 
ATOM     97  C   UNL A   1      42.841  26.373  35.377  1.00  0.00     0.131 A 
ATOM     98  C   UNL A   1      44.115  26.400  37.832  1.00  0.00     0.055 A 
ATOM     99  C   UNL A   1      42.892  25.205  36.140  1.00  0.00     0.041 A 
ATOM    100  F   UNL A   1      42.239  26.305  34.179  1.00  0.00    -0.206 F 
ATOM    101  C   UNL A   1      43.545  25.212  37.369  1.00  0.00     0.022 A 
BRANCH  98 102
ATOM    102  S   UNL A   1      45.093  26.401  39.361  1.00  0.00     0.124 S 
ATOM    103  O   UNL A   1      44.082  26.707  40.368  1.00  0.00    -0.237 OA
ATOM    104  O   UNL A   1      45.631  25.045  39.388  1.00  0.00    -0.237 OA
ATOM    105  O   UNL A   1      46.081  27.455  39.135  1.00  0.00    -0.744 OA
ENDBRANCH  98 102
ENDBRANCH  72  95
ENDBRANCH  46  47
ENDBRANCH  38  41
ENDBRANCH  36  37
ENDBRANCH  35  36
ENDBRANCH   1  35
TORSDOF 19
ENDMDL
