MODEL 1
REMARK VINA RESULT:     -13.0      0.000      0.000
REMARK SMILES C[C@]12CCC[C@](C)(C(=O)NCCCCNC(=O)c3ccc(-c4c5nc(c(-c6cc(S(=O)(=O)[O-])ccc6F)c6ccc([nH]6)c(-c6cc(S(=O)(=O)[O-])ccc6F)c6nc(c(-c7cc(S(=O)(=O)[O-])ccc7F)c7ccc4[nH]7)C=C6)C=C5)cc3)[C@@H]1CC[C@]13C=C(CO)[C@H](CC[C@H]12)C3
REMARK SMILES IDX 13 1 12 2 11 3 10 4 8 5 9 6 6 8 1 9 2 10 3 11 81 12 92 13
REMARK SMILES IDX 4 14 82 15 84 16 91 17 5 18 7 19 83 20 85 21 93 22 90 23
REMARK SMILES IDX 86 24 89 25 87 26 88 27 14 29 15 30 16 31 17 33 18 34 19 35
REMARK SMILES IDX 80 36 20 37 79 38 21 39 22 40 23 41 73 42 24 43 78 44 72 45
REMARK SMILES IDX 74 46 25 47 77 48 71 49 70 50 26 52 58 53 38 54 57 55 39 56
REMARK SMILES IDX 42 57 56 58 75 59 40 60 41 61 55 63 76 64 43 65 27 66 28 67
REMARK SMILES IDX 36 68 29 69 35 70 37 71 34 72 30 73 31 74 32 75 33 76 59 77
REMARK SMILES IDX 60 78 68 79 61 80 67 81 69 82 66 83 62 84 63 85 64 86 65 87
REMARK SMILES IDX 44 88 45 89 53 90 46 91 52 92 54 93 51 94 47 95 48 96 49 97
REMARK SMILES IDX 50 98
REMARK H PARENT 10 7 88 28 15 32 74 51 42 62
REMARK Flexibility Score: inf
ROOT
ATOM      1  C   UNL A   1      31.591  31.509  26.952  1.00  0.00     0.023 C 
ENDROOT
BRANCH   1   2
ATOM      2  C   UNL A   1      31.584  30.757  25.614  1.00  0.00     0.023 C 
BRANCH   2   3
ATOM      3  C   UNL A   1      32.518  29.548  25.528  1.00  0.00     0.116 C 
BRANCH   3   4
ATOM      4  N   UNL A   1      32.054  28.458  26.365  1.00  0.00    -0.356 N 
ATOM      5  C   UNL A   1      31.493  27.246  26.171  1.00  0.00     0.226 C 
ATOM      6  O   UNL A   1      31.245  26.667  27.239  1.00  0.00    -0.274 OA
ATOM      7  H   UNL A   1      32.181  28.652  27.321  1.00  0.00     0.163 HD
BRANCH   5   8
ATOM      8  C   UNL A   1      31.135  26.548  24.819  1.00  0.00     0.050 C 
ATOM      9  C   UNL A   1      34.171  26.420  25.190  1.00  0.00     0.012 C 
ATOM     10  C   UNL A   1      33.445  25.481  24.167  1.00  0.00    -0.025 C 
ATOM     11  C   UNL A   1      33.390  26.204  22.802  1.00  0.00     0.007 C 
ATOM     12  C   UNL A   1      31.968  25.205  24.609  1.00  0.00     0.010 C 
ATOM     13  C   UNL A   1      34.340  24.198  24.102  1.00  0.00     0.005 C 
ATOM     14  C   UNL A   1      32.566  27.492  22.827  1.00  0.00     0.002 C 
ATOM     15  C   UNL A   1      31.851  24.177  25.753  1.00  0.00     0.006 C 
ATOM     16  C   UNL A   1      34.037  23.058  25.157  1.00  0.00    -0.008 C 
ATOM     17  C   UNL A   1      34.921  23.579  22.825  1.00  0.00     0.006 C 
ATOM     18  C   UNL A   1      31.198  27.345  23.492  1.00  0.00     0.017 C 
ATOM     19  C   UNL A   1      29.625  26.202  25.008  1.00  0.00     0.022 C 
ATOM     20  C   UNL A   1      32.559  22.866  25.435  1.00  0.00     0.012 C 
ATOM     21  C   UNL A   1      34.953  23.394  26.303  1.00  0.00    -0.018 C 
ATOM     22  C   UNL A   1      34.711  21.713  24.791  1.00  0.00     0.019 C 
ATOM     23  C   UNL A   1      36.255  22.863  23.260  1.00  0.00     0.008 C 
ATOM     24  C   UNL A   1      36.207  23.076  25.915  1.00  0.00    -0.045 C 
ATOM     25  C   UNL A   1      36.163  22.177  24.662  1.00  0.00     0.018 C 
BRANCH  24  26
ATOM     26  C   UNL A   1      37.475  23.608  26.494  1.00  0.00     0.187 C 
BRANCH  26  27
ATOM     27  O   UNL A   1      38.577  23.344  25.632  1.00  0.00    -0.392 OA
ATOM     28  H   UNL A   1      38.299  22.738  24.928  1.00  0.00     0.211 HD
ENDBRANCH  26  27
ENDBRANCH  24  26
ENDBRANCH   5   8
ENDBRANCH   3   4
ENDBRANCH   2   3
ENDBRANCH   1   2
BRANCH   1  29
ATOM     29  C   UNL A   1      32.865  32.295  27.268  1.00  0.00     0.116 C 
BRANCH  29  30
ATOM     30  N   UNL A   1      32.600  33.701  27.540  1.00  0.00    -0.352 N 
ATOM     31  C   UNL A   1      33.138  34.540  28.488  1.00  0.00     0.251 C 
ATOM     32  H   UNL A   1      31.929  34.117  26.952  1.00  0.00     0.163 HD
ATOM     33  O   UNL A   1      32.624  35.637  28.683  1.00  0.00    -0.269 OA
BRANCH  31  34
ATOM     34  C   UNL A   1      34.312  34.116  29.282  1.00  0.00     0.039 A 
ATOM     35  C   UNL A   1      34.106  33.465  30.502  1.00  0.00     0.014 A 
ATOM     36  C   UNL A   1      35.610  34.370  28.834  1.00  0.00     0.014 A 
ATOM     37  C   UNL A   1      35.202  32.991  31.228  1.00  0.00     0.010 A 
ATOM     38  C   UNL A   1      36.699  33.843  29.527  1.00  0.00     0.010 A 
ATOM     39  C   UNL A   1      36.505  33.135  30.724  1.00  0.00    -0.014 A 
BRANCH  39  40
ATOM     40  C   UNL A   1      37.671  32.519  31.411  1.00  0.00     0.031 A 
ATOM     41  C   UNL A   1      38.410  31.372  30.779  1.00  0.00     0.074 A 
ATOM     42  C   UNL A   1      38.011  32.947  32.643  1.00  0.00     0.049 A 
ATOM     43  N   UNL A   1      39.391  30.653  31.262  1.00  0.00    -0.248 NA
ATOM     44  C   UNL A   1      37.967  30.963  29.439  1.00  0.00     0.031 C 
ATOM     45  C   UNL A   1      37.339  34.022  33.379  1.00  0.00     0.029 A 
ATOM     46  N   UNL A   1      38.994  32.525  33.503  1.00  0.00    -0.354 N 
ATOM     47  C   UNL A   1      39.677  29.699  30.292  1.00  0.00     0.074 A 
ATOM     48  C   UNL A   1      38.727  29.900  29.217  1.00  0.00     0.031 C 
ATOM     49  C   UNL A   1      37.938  34.183  34.569  1.00  0.00     0.029 A 
ATOM     50  C   UNL A   1      39.007  33.199  34.703  1.00  0.00     0.049 A 
ATOM     51  H   UNL A   1      39.630  31.807  33.282  1.00  0.00     0.167 HD
ATOM     52  C   UNL A   1      40.651  28.755  30.291  1.00  0.00     0.034 A 
ATOM     53  C   UNL A   1      39.779  33.033  35.795  1.00  0.00     0.034 A 
ATOM     54  C   UNL A   1      41.595  28.574  31.367  1.00  0.00     0.049 A 
ATOM     55  C   UNL A   1      40.843  31.965  35.777  1.00  0.00     0.074 A 
ATOM     56  C   UNL A   1      42.662  27.694  31.441  1.00  0.00     0.029 A 
ATOM     57  N   UNL A   1      41.581  29.277  32.565  1.00  0.00    -0.354 N 
ATOM     58  N   UNL A   1      41.138  31.109  34.826  1.00  0.00    -0.248 NA
ATOM     59  C   UNL A   1      41.682  31.848  36.976  1.00  0.00     0.031 C 
ATOM     60  C   UNL A   1      43.251  27.821  32.704  1.00  0.00     0.029 A 
ATOM     61  C   UNL A   1      42.598  28.829  33.396  1.00  0.00     0.049 A 
ATOM     62  H   UNL A   1      40.942  29.991  32.793  1.00  0.00     0.167 HD
ATOM     63  C   UNL A   1      42.214  30.368  35.305  1.00  0.00     0.074 A 
ATOM     64  C   UNL A   1      42.526  30.891  36.619  1.00  0.00     0.031 C 
ATOM     65  C   UNL A   1      42.886  29.348  34.712  1.00  0.00     0.034 A 
BRANCH  52  66
ATOM     66  C   UNL A   1      40.724  27.833  29.097  1.00  0.00     0.023 A 
ATOM     67  C   UNL A   1      41.667  28.025  28.072  1.00  0.00     0.031 A 
ATOM     68  C   UNL A   1      39.825  26.760  28.969  1.00  0.00     0.131 A 
ATOM     69  C   UNL A   1      41.643  27.207  26.933  1.00  0.00     0.055 A 
ATOM     70  C   UNL A   1      39.856  25.899  27.869  1.00  0.00     0.041 A 
ATOM     71  F   UNL A   1      38.890  26.535  29.906  1.00  0.00    -0.206 F 
ATOM     72  C   UNL A   1      40.760  26.130  26.835  1.00  0.00     0.022 A 
BRANCH  69  73
ATOM     73  S   UNL A   1      42.690  27.655  25.521  1.00  0.00     0.124 S 
ATOM     74  O   UNL A   1      42.008  28.843  25.013  1.00  0.00    -0.237 OA
ATOM     75  O   UNL A   1      43.987  27.883  26.150  1.00  0.00    -0.237 OA
ATOM     76  O   UNL A   1      42.615  26.482  24.653  1.00  0.00    -0.744 OA
ENDBRANCH  69  73
ENDBRANCH  52  66
BRANCH  53  77
ATOM     77  C   UNL A   1      39.574  33.882  37.003  1.00  0.00     0.023 A 
ATOM     78  C   UNL A   1      38.951  33.367  38.150  1.00  0.00     0.031 A 
ATOM     79  C   UNL A   1      39.960  35.233  37.011  1.00  0.00     0.131 A 
ATOM     80  C   UNL A   1      38.691  34.208  39.243  1.00  0.00     0.055 A 
ATOM     81  C   UNL A   1      39.744  36.054  38.119  1.00  0.00     0.041 A 
ATOM     82  F   UNL A   1      40.566  35.773  35.942  1.00  0.00    -0.206 F 
ATOM     83  C   UNL A   1      39.094  35.546  39.239  1.00  0.00     0.022 A 
BRANCH  80  84
ATOM     84  S   UNL A   1      37.744  33.548  40.641  1.00  0.00     0.124 S 
ATOM     85  O   UNL A   1      37.509  34.748  41.436  1.00  0.00    -0.237 OA
ATOM     86  O   UNL A   1      36.576  32.982  39.973  1.00  0.00    -0.237 OA
ATOM     87  O   UNL A   1      38.652  32.570  41.237  1.00  0.00    -0.744 OA
ENDBRANCH  80  84
ENDBRANCH  53  77
BRANCH  65  88
ATOM     88  C   UNL A   1      44.047  28.763  35.476  1.00  0.00     0.023 A 
ATOM     89  C   UNL A   1      43.882  27.671  36.345  1.00  0.00     0.031 A 
ATOM     90  C   UNL A   1      45.332  29.320  35.348  1.00  0.00     0.131 A 
ATOM     91  C   UNL A   1      44.973  27.204  37.094  1.00  0.00     0.055 A 
ATOM     92  C   UNL A   1      46.424  28.815  36.052  1.00  0.00     0.041 A 
ATOM     93  F   UNL A   1      45.544  30.366  34.533  1.00  0.00    -0.206 F 
ATOM     94  C   UNL A   1      46.246  27.759  36.941  1.00  0.00     0.022 A 
BRANCH  91  95
ATOM     95  S   UNL A   1      44.688  25.915  38.339  1.00  0.00     0.124 S 
ATOM     96  O   UNL A   1      43.836  24.976  37.614  1.00  0.00    -0.237 OA
ATOM     97  O   UNL A   1      46.041  25.456  38.629  1.00  0.00    -0.237 OA
ATOM     98  O   UNL A   1      44.030  26.632  39.430  1.00  0.00    -0.744 OA
ENDBRANCH  91  95
ENDBRANCH  65  88
ENDBRANCH  39  40
ENDBRANCH  31  34
ENDBRANCH  29  30
ENDBRANCH   1  29
TORSDOF 16
ENDMDL
MODEL 2
REMARK VINA RESULT:     -13.0      5.513      9.017
REMARK SMILES C[C@]12CCC[C@](C)(C(=O)NCCCCNC(=O)c3ccc(-c4c5nc(c(-c6cc(S(=O)(=O)[O-])ccc6F)c6ccc([nH]6)c(-c6cc(S(=O)(=O)[O-])ccc6F)c6nc(c(-c7cc(S(=O)(=O)[O-])ccc7F)c7ccc4[nH]7)C=C6)C=C5)cc3)[C@@H]1CC[C@]13C=C(CO)[C@H](CC[C@H]12)C3
REMARK SMILES IDX 13 1 12 2 11 3 10 4 8 5 9 6 6 8 1 9 2 10 3 11 81 12 92 13
REMARK SMILES IDX 4 14 82 15 84 16 91 17 5 18 7 19 83 20 85 21 93 22 90 23
REMARK SMILES IDX 86 24 89 25 87 26 88 27 14 29 15 30 16 31 17 33 18 34 19 35
REMARK SMILES IDX 80 36 20 37 79 38 21 39 22 40 23 41 73 42 24 43 78 44 72 45
REMARK SMILES IDX 74 46 25 47 77 48 71 49 70 50 26 52 58 53 38 54 57 55 39 56
REMARK SMILES IDX 42 57 56 58 75 59 40 60 41 61 55 63 76 64 43 65 27 66 28 67
REMARK SMILES IDX 36 68 29 69 35 70 37 71 34 72 30 73 31 74 32 75 33 76 59 77
REMARK SMILES IDX 60 78 68 79 61 80 67 81 69 82 66 83 62 84 63 85 64 86 65 87
REMARK SMILES IDX 44 88 45 89 53 90 46 91 52 92 54 93 51 94 47 95 48 96 49 97
REMARK SMILES IDX 50 98
REMARK H PARENT 10 7 88 28 15 32 74 51 42 62
REMARK Flexibility Score: inf
ROOT
ATOM      1  C   UNL A   1      37.491  19.869  24.732  1.00  0.00     0.023 C 
ENDROOT
BRANCH   1   2
ATOM      2  C   UNL A   1      35.995  20.107  24.975  1.00  0.00     0.023 C 
BRANCH   2   3
ATOM      3  C   UNL A   1      35.616  21.510  25.453  1.00  0.00     0.116 C 
BRANCH   3   4
ATOM      4  N   UNL A   1      35.689  22.477  24.375  1.00  0.00    -0.356 N 
ATOM      5  C   UNL A   1      34.810  23.166  23.618  1.00  0.00     0.226 C 
ATOM      6  O   UNL A   1      35.374  23.881  22.776  1.00  0.00    -0.274 OA
ATOM      7  H   UNL A   1      36.619  22.684  24.132  1.00  0.00     0.163 HD
BRANCH   5   8
ATOM      8  C   UNL A   1      33.248  23.144  23.681  1.00  0.00     0.050 C 
ATOM      9  C   UNL A   1      34.281  24.814  26.030  1.00  0.00     0.012 C 
ATOM     10  C   UNL A   1      32.789  24.918  25.564  1.00  0.00    -0.025 C 
ATOM     11  C   UNL A   1      31.965  23.871  26.346  1.00  0.00     0.007 C 
ATOM     12  C   UNL A   1      32.652  24.579  24.041  1.00  0.00     0.010 C 
ATOM     13  C   UNL A   1      32.360  26.378  25.931  1.00  0.00     0.005 C 
ATOM     14  C   UNL A   1      32.381  22.428  26.057  1.00  0.00     0.002 C 
ATOM     15  C   UNL A   1      33.102  25.725  23.113  1.00  0.00     0.006 C 
ATOM     16  C   UNL A   1      32.634  27.500  24.850  1.00  0.00    -0.008 C 
ATOM     17  C   UNL A   1      31.141  26.763  26.777  1.00  0.00     0.006 C 
ATOM     18  C   UNL A   1      32.521  22.104  24.570  1.00  0.00     0.017 C 
ATOM     19  C   UNL A   1      32.856  22.768  22.219  1.00  0.00     0.022 C 
ATOM     20  C   UNL A   1      32.398  27.040  23.425  1.00  0.00     0.012 C 
ATOM     21  C   UNL A   1      33.995  28.021  25.228  1.00  0.00    -0.018 C 
ATOM     22  C   UNL A   1      31.865  28.811  25.143  1.00  0.00     0.019 C 
ATOM     23  C   UNL A   1      31.513  28.124  27.479  1.00  0.00     0.008 C 
ATOM     24  C   UNL A   1      33.841  28.758  26.349  1.00  0.00    -0.045 C 
ATOM     25  C   UNL A   1      32.348  29.083  26.569  1.00  0.00     0.018 C 
BRANCH  24  26
ATOM     26  C   UNL A   1      34.906  29.108  27.333  1.00  0.00     0.187 C 
BRANCH  26  27
ATOM     27  O   UNL A   1      35.790  30.087  26.799  1.00  0.00    -0.392 OA
ATOM     28  H   UNL A   1      35.435  30.420  25.959  1.00  0.00     0.211 HD
ENDBRANCH  26  27
ENDBRANCH  24  26
ENDBRANCH   5   8
ENDBRANCH   3   4
ENDBRANCH   2   3
ENDBRANCH   1   2
BRANCH   1  29
ATOM     29  C   UNL A   1      38.446  20.738  25.554  1.00  0.00     0.116 C 
BRANCH  29  30
ATOM     30  N   UNL A   1      39.515  19.964  26.169  1.00  0.00    -0.352 N 
ATOM     31  C   UNL A   1      40.673  20.380  26.782  1.00  0.00     0.251 C 
ATOM     32  H   UNL A   1      39.387  18.989  26.143  1.00  0.00     0.163 HD
ATOM     33  O   UNL A   1      41.542  19.556  27.052  1.00  0.00    -0.269 OA
BRANCH  31  34
ATOM     34  C   UNL A   1      40.883  21.811  27.095  1.00  0.00     0.039 A 
ATOM     35  C   UNL A   1      41.648  22.155  28.213  1.00  0.00     0.014 A 
ATOM     36  C   UNL A   1      40.318  22.809  26.298  1.00  0.00     0.014 A 
ATOM     37  C   UNL A   1      41.920  23.500  28.480  1.00  0.00     0.010 A 
ATOM     38  C   UNL A   1      40.640  24.146  26.529  1.00  0.00     0.010 A 
ATOM     39  C   UNL A   1      41.457  24.504  27.613  1.00  0.00    -0.014 A 
BRANCH  39  40
ATOM     40  C   UNL A   1      41.848  25.926  27.801  1.00  0.00     0.031 A 
ATOM     41  C   UNL A   1      43.180  26.422  27.309  1.00  0.00     0.074 A 
ATOM     42  C   UNL A   1      41.029  26.749  28.487  1.00  0.00     0.049 A 
ATOM     43  N   UNL A   1      43.729  27.600  27.457  1.00  0.00    -0.248 NA
ATOM     44  C   UNL A   1      44.013  25.456  26.580  1.00  0.00     0.031 C 
ATOM     45  C   UNL A   1      39.732  26.370  29.054  1.00  0.00     0.029 A 
ATOM     46  N   UNL A   1      41.170  28.068  28.840  1.00  0.00    -0.354 N 
ATOM     47  C   UNL A   1      44.978  27.516  26.850  1.00  0.00     0.074 A 
ATOM     48  C   UNL A   1      45.122  26.153  26.381  1.00  0.00     0.031 C 
ATOM     49  C   UNL A   1      39.191  27.434  29.668  1.00  0.00     0.029 A 
ATOM     50  C   UNL A   1      40.117  28.558  29.579  1.00  0.00     0.049 A 
ATOM     51  H   UNL A   1      41.950  28.612  28.588  1.00  0.00     0.167 HD
ATOM     52  C   UNL A   1      45.908  28.489  26.685  1.00  0.00     0.034 A 
ATOM     53  C   UNL A   1      39.925  29.770  30.137  1.00  0.00     0.034 A 
ATOM     54  C   UNL A   1      45.745  29.845  27.152  1.00  0.00     0.049 A 
ATOM     55  C   UNL A   1      40.982  30.829  29.956  1.00  0.00     0.074 A 
ATOM     56  C   UNL A   1      46.594  30.925  26.981  1.00  0.00     0.029 A 
ATOM     57  N   UNL A   1      44.664  30.307  27.893  1.00  0.00    -0.354 N 
ATOM     58  N   UNL A   1      42.133  30.749  29.327  1.00  0.00    -0.248 NA
ATOM     59  C   UNL A   1      40.710  32.143  30.550  1.00  0.00     0.031 C 
ATOM     60  C   UNL A   1      46.059  32.020  27.669  1.00  0.00     0.029 A 
ATOM     61  C   UNL A   1      44.840  31.645  28.213  1.00  0.00     0.049 A 
ATOM     62  H   UNL A   1      43.885  29.764  28.153  1.00  0.00     0.167 HD
ATOM     63  C   UNL A   1      42.709  32.011  29.433  1.00  0.00     0.074 A 
ATOM     64  C   UNL A   1      41.772  32.836  30.167  1.00  0.00     0.031 C 
ATOM     65  C   UNL A   1      43.905  32.450  28.963  1.00  0.00     0.034 A 
BRANCH  52  66
ATOM     66  C   UNL A   1      47.194  28.109  25.991  1.00  0.00     0.023 A 
ATOM     67  C   UNL A   1      47.325  28.170  24.592  1.00  0.00     0.031 A 
ATOM     68  C   UNL A   1      48.300  27.658  26.735  1.00  0.00     0.131 A 
ATOM     69  C   UNL A   1      48.502  27.719  23.976  1.00  0.00     0.055 A 
ATOM     70  C   UNL A   1      49.498  27.285  26.121  1.00  0.00     0.041 A 
ATOM     71  F   UNL A   1      48.231  27.562  28.072  1.00  0.00    -0.206 F 
ATOM     72  C   UNL A   1      49.599  27.299  24.733  1.00  0.00     0.022 A 
BRANCH  69  73
ATOM     73  S   UNL A   1      48.529  27.559  22.170  1.00  0.00     0.124 S 
ATOM     74  O   UNL A   1      49.749  28.285  21.827  1.00  0.00    -0.237 OA
ATOM     75  O   UNL A   1      48.573  26.112  21.983  1.00  0.00    -0.237 OA
ATOM     76  O   UNL A   1      47.288  28.204  21.750  1.00  0.00    -0.744 OA
ENDBRANCH  69  73
ENDBRANCH  52  66
BRANCH  53  77
ATOM     77  C   UNL A   1      38.695  30.051  30.931  1.00  0.00     0.023 A 
ATOM     78  C   UNL A   1      37.670  30.858  30.414  1.00  0.00     0.031 A 
ATOM     79  C   UNL A   1      38.547  29.551  32.237  1.00  0.00     0.131 A 
ATOM     80  C   UNL A   1      36.561  31.178  31.213  1.00  0.00     0.055 A 
ATOM     81  C   UNL A   1      37.420  29.831  33.010  1.00  0.00     0.041 A 
ATOM     82  F   UNL A   1      39.496  28.768  32.776  1.00  0.00    -0.206 F 
ATOM     83  C   UNL A   1      36.424  30.661  32.503  1.00  0.00     0.022 A 
BRANCH  80  84
ATOM     84  S   UNL A   1      35.337  32.350  30.568  1.00  0.00     0.124 S 
ATOM     85  O   UNL A   1      36.119  33.578  30.474  1.00  0.00    -0.237 OA
ATOM     86  O   UNL A   1      34.963  31.729  29.302  1.00  0.00    -0.237 OA
ATOM     87  O   UNL A   1      34.294  32.350  31.592  1.00  0.00    -0.744 OA
ENDBRANCH  80  84
ENDBRANCH  53  77
BRANCH  65  88
ATOM     88  C   UNL A   1      44.240  33.901  29.205  1.00  0.00     0.023 A 
ATOM     89  C   UNL A   1      43.706  34.924  28.404  1.00  0.00     0.031 A 
ATOM     90  C   UNL A   1      45.121  34.260  30.240  1.00  0.00     0.131 A 
ATOM     91  C   UNL A   1      44.101  36.254  28.615  1.00  0.00     0.055 A 
ATOM     92  C   UNL A   1      45.466  35.590  30.481  1.00  0.00     0.041 A 
ATOM     93  F   UNL A   1      45.662  33.321  31.034  1.00  0.00    -0.206 F 
ATOM     94  C   UNL A   1      44.965  36.595  29.659  1.00  0.00     0.022 A 
BRANCH  91  95
ATOM     95  S   UNL A   1      43.538  37.526  27.451  1.00  0.00     0.124 S 
ATOM     96  O   UNL A   1      44.800  38.121  27.017  1.00  0.00    -0.237 OA
ATOM     97  O   UNL A   1      42.826  36.741  26.449  1.00  0.00    -0.237 OA
ATOM     98  O   UNL A   1      42.695  38.393  28.271  1.00  0.00    -0.744 OA
ENDBRANCH  91  95
ENDBRANCH  65  88
ENDBRANCH  39  40
ENDBRANCH  31  34
ENDBRANCH  29  30
ENDBRANCH   1  29
TORSDOF 16
ENDMDL
MODEL 3
REMARK VINA RESULT:     -12.9      1.170      1.831
REMARK SMILES C[C@]12CCC[C@](C)(C(=O)NCCCCNC(=O)c3ccc(-c4c5nc(c(-c6cc(S(=O)(=O)[O-])ccc6F)c6ccc([nH]6)c(-c6cc(S(=O)(=O)[O-])ccc6F)c6nc(c(-c7cc(S(=O)(=O)[O-])ccc7F)c7ccc4[nH]7)C=C6)C=C5)cc3)[C@@H]1CC[C@]13C=C(CO)[C@H](CC[C@H]12)C3
REMARK SMILES IDX 13 1 12 2 11 3 10 4 8 5 9 6 6 8 1 9 2 10 3 11 81 12 92 13
REMARK SMILES IDX 4 14 82 15 84 16 91 17 5 18 7 19 83 20 85 21 93 22 90 23
REMARK SMILES IDX 86 24 89 25 87 26 88 27 14 29 15 30 16 31 17 33 18 34 19 35
REMARK SMILES IDX 80 36 20 37 79 38 21 39 22 40 23 41 73 42 24 43 78 44 72 45
REMARK SMILES IDX 74 46 25 47 77 48 71 49 70 50 26 52 58 53 38 54 57 55 39 56
REMARK SMILES IDX 42 57 56 58 75 59 40 60 41 61 55 63 76 64 43 65 27 66 28 67
REMARK SMILES IDX 36 68 29 69 35 70 37 71 34 72 30 73 31 74 32 75 33 76 59 77
REMARK SMILES IDX 60 78 68 79 61 80 67 81 69 82 66 83 62 84 63 85 64 86 65 87
REMARK SMILES IDX 44 88 45 89 53 90 46 91 52 92 54 93 51 94 47 95 48 96 49 97
REMARK SMILES IDX 50 98
REMARK H PARENT 10 7 88 28 15 32 74 51 42 62
REMARK Flexibility Score: inf
ROOT
ATOM      1  C   UNL A   1      34.105  31.735  27.206  1.00  0.00     0.023 C 
ENDROOT
BRANCH   1   2
ATOM      2  C   UNL A   1      34.750  30.622  28.043  1.00  0.00     0.023 C 
BRANCH   2   3
ATOM      3  C   UNL A   1      34.636  29.209  27.468  1.00  0.00     0.116 C 
BRANCH   3   4
ATOM      4  N   UNL A   1      33.301  28.671  27.641  1.00  0.00    -0.356 N 
ATOM      5  C   UNL A   1      32.235  28.425  26.851  1.00  0.00     0.226 C 
ATOM      6  O   UNL A   1      31.275  27.964  27.486  1.00  0.00    -0.274 OA
ATOM      7  H   UNL A   1      33.126  28.421  28.576  1.00  0.00     0.163 HD
BRANCH   5   8
ATOM      8  C   UNL A   1      32.093  28.660  25.311  1.00  0.00     0.050 C 
ATOM      9  C   UNL A   1      33.560  26.008  25.746  1.00  0.00     0.012 C 
ATOM     10  C   UNL A   1      32.904  26.348  24.365  1.00  0.00    -0.025 C 
ATOM     11  C   UNL A   1      33.954  27.075  23.496  1.00  0.00     0.007 C 
ATOM     12  C   UNL A   1      31.690  27.321  24.544  1.00  0.00     0.010 C 
ATOM     13  C   UNL A   1      32.518  24.957  23.757  1.00  0.00     0.005 C 
ATOM     14  C   UNL A   1      34.399  28.418  24.074  1.00  0.00     0.002 C 
ATOM     15  C   UNL A   1      30.416  26.626  25.067  1.00  0.00     0.006 C 
ATOM     16  C   UNL A   1      31.096  24.376  24.138  1.00  0.00    -0.008 C 
ATOM     17  C   UNL A   1      32.932  24.442  22.374  1.00  0.00     0.006 C 
ATOM     18  C   UNL A   1      33.248  29.320  24.517  1.00  0.00     0.017 C 
ATOM     19  C   UNL A   1      30.917  29.681  25.233  1.00  0.00     0.022 C 
ATOM     20  C   UNL A   1      30.010  25.432  24.212  1.00  0.00     0.012 C 
ATOM     21  C   UNL A   1      31.379  23.540  25.357  1.00  0.00    -0.018 C 
ATOM     22  C   UNL A   1      30.667  23.203  23.224  1.00  0.00     0.019 C 
ATOM     23  C   UNL A   1      32.993  22.873  22.496  1.00  0.00     0.008 C 
ATOM     24  C   UNL A   1      32.020  22.428  24.936  1.00  0.00    -0.045 C 
ATOM     25  C   UNL A   1      31.871  22.277  23.407  1.00  0.00     0.018 C 
BRANCH  24  26
ATOM     26  C   UNL A   1      32.876  21.530  25.765  1.00  0.00     0.187 C 
BRANCH  26  27
ATOM     27  O   UNL A   1      32.740  21.834  27.149  1.00  0.00    -0.392 OA
ATOM     28  H   UNL A   1      33.533  22.299  27.458  1.00  0.00     0.211 HD
ENDBRANCH  26  27
ENDBRANCH  24  26
ENDBRANCH   5   8
ENDBRANCH   3   4
ENDBRANCH   2   3
ENDBRANCH   1   2
BRANCH   1  29
ATOM     29  C   UNL A   1      32.704  32.169  27.639  1.00  0.00     0.116 C 
BRANCH  29  30
ATOM     30  N   UNL A   1      32.576  33.615  27.751  1.00  0.00    -0.352 N 
ATOM     31  C   UNL A   1      33.226  34.503  28.574  1.00  0.00     0.251 C 
ATOM     32  H   UNL A   1      31.921  34.021  27.139  1.00  0.00     0.163 HD
ATOM     33  O   UNL A   1      32.822  35.659  28.654  1.00  0.00    -0.269 OA
BRANCH  31  34
ATOM     34  C   UNL A   1      34.391  34.067  29.375  1.00  0.00     0.039 A 
ATOM     35  C   UNL A   1      34.175  33.292  30.518  1.00  0.00     0.014 A 
ATOM     36  C   UNL A   1      35.689  34.429  29.009  1.00  0.00     0.014 A 
ATOM     37  C   UNL A   1      35.268  32.807  31.244  1.00  0.00     0.010 A 
ATOM     38  C   UNL A   1      36.779  33.895  29.697  1.00  0.00     0.010 A 
ATOM     39  C   UNL A   1      36.579  33.066  30.812  1.00  0.00    -0.014 A 
BRANCH  39  40
ATOM     40  C   UNL A   1      37.750  32.448  31.488  1.00  0.00     0.031 A 
ATOM     41  C   UNL A   1      38.484  31.302  30.847  1.00  0.00     0.074 A 
ATOM     42  C   UNL A   1      38.101  32.873  32.719  1.00  0.00     0.049 A 
ATOM     43  N   UNL A   1      39.468  30.582  31.320  1.00  0.00    -0.248 NA
ATOM     44  C   UNL A   1      38.029  30.896  29.510  1.00  0.00     0.031 C 
ATOM     45  C   UNL A   1      37.435  33.947  33.462  1.00  0.00     0.029 A 
ATOM     46  N   UNL A   1      39.091  32.448  33.569  1.00  0.00    -0.354 N 
ATOM     47  C   UNL A   1      39.745  29.629  30.346  1.00  0.00     0.074 A 
ATOM     48  C   UNL A   1      38.786  29.834  29.279  1.00  0.00     0.031 C 
ATOM     49  C   UNL A   1      38.045  34.105  34.648  1.00  0.00     0.029 A 
ATOM     50  C   UNL A   1      39.114  33.120  34.770  1.00  0.00     0.049 A 
ATOM     51  H   UNL A   1      39.724  31.731  33.341  1.00  0.00     0.167 HD
ATOM     52  C   UNL A   1      40.719  28.685  30.335  1.00  0.00     0.034 A 
ATOM     53  C   UNL A   1      39.895  32.951  35.855  1.00  0.00     0.034 A 
ATOM     54  C   UNL A   1      41.672  28.501  31.403  1.00  0.00     0.049 A 
ATOM     55  C   UNL A   1      40.958  31.883  35.827  1.00  0.00     0.074 A 
ATOM     56  C   UNL A   1      42.739  27.621  31.466  1.00  0.00     0.029 A 
ATOM     57  N   UNL A   1      41.668  29.201  32.603  1.00  0.00    -0.354 N 
ATOM     58  N   UNL A   1      41.245  31.028  34.871  1.00  0.00    -0.248 NA
ATOM     59  C   UNL A   1      41.807  31.763  37.018  1.00  0.00     0.031 C 
ATOM     60  C   UNL A   1      43.339  27.744  32.724  1.00  0.00     0.029 A 
ATOM     61  C   UNL A   1      42.692  28.752  33.423  1.00  0.00     0.049 A 
ATOM     62  H   UNL A   1      41.031  29.915  32.837  1.00  0.00     0.167 HD
ATOM     63  C   UNL A   1      42.324  30.286  35.340  1.00  0.00     0.074 A 
ATOM     64  C   UNL A   1      42.648  30.806  36.652  1.00  0.00     0.031 C 
ATOM     65  C   UNL A   1      42.991  29.267  34.739  1.00  0.00     0.034 A 
BRANCH  52  66
ATOM     66  C   UNL A   1      40.781  27.766  29.138  1.00  0.00     0.023 A 
ATOM     67  C   UNL A   1      41.710  27.965  28.101  1.00  0.00     0.031 A 
ATOM     68  C   UNL A   1      39.887  26.687  29.020  1.00  0.00     0.131 A 
ATOM     69  C   UNL A   1      41.676  27.149  26.961  1.00  0.00     0.055 A 
ATOM     70  C   UNL A   1      39.909  25.829  27.918  1.00  0.00     0.041 A 
ATOM     71  F   UNL A   1      38.966  26.455  29.969  1.00  0.00    -0.206 F 
ATOM     72  C   UNL A   1      40.797  26.067  26.873  1.00  0.00     0.022 A 
BRANCH  69  73
ATOM     73  S   UNL A   1      42.700  27.606  25.536  1.00  0.00     0.124 S 
ATOM     74  O   UNL A   1      43.981  27.899  26.175  1.00  0.00    -0.237 OA
ATOM     75  O   UNL A   1      42.657  26.399  24.717  1.00  0.00    -0.237 OA
ATOM     76  O   UNL A   1      42.011  28.765  24.975  1.00  0.00    -0.744 OA
ENDBRANCH  69  73
ENDBRANCH  52  66
BRANCH  53  77
ATOM     77  C   UNL A   1      39.700  33.797  37.067  1.00  0.00     0.023 A 
ATOM     78  C   UNL A   1      39.039  33.296  38.199  1.00  0.00     0.031 A 
ATOM     79  C   UNL A   1      40.135  35.134  37.094  1.00  0.00     0.131 A 
ATOM     80  C   UNL A   1      38.792  34.138  39.294  1.00  0.00     0.055 A 
ATOM     81  C   UNL A   1      39.931  35.953  38.205  1.00  0.00     0.041 A 
ATOM     82  F   UNL A   1      40.780  35.659  36.039  1.00  0.00    -0.206 F 
ATOM     83  C   UNL A   1      39.243  35.460  39.309  1.00  0.00     0.022 A 
BRANCH  80  84
ATOM     84  S   UNL A   1      37.796  33.503  40.670  1.00  0.00     0.124 S 
ATOM     85  O   UNL A   1      38.689  32.505  41.249  1.00  0.00    -0.237 OA
ATOM     86  O   UNL A   1      37.578  34.706  41.466  1.00  0.00    -0.237 OA
ATOM     87  O   UNL A   1      36.605  32.970  40.011  1.00  0.00    -0.744 OA
ENDBRANCH  80  84
ENDBRANCH  53  77
BRANCH  65  88
ATOM     88  C   UNL A   1      44.158  28.680  35.492  1.00  0.00     0.023 A 
ATOM     89  C   UNL A   1      43.989  27.629  36.410  1.00  0.00     0.031 A 
ATOM     90  C   UNL A   1      45.453  29.193  35.302  1.00  0.00     0.131 A 
ATOM     91  C   UNL A   1      45.089  27.161  37.145  1.00  0.00     0.055 A 
ATOM     92  C   UNL A   1      46.552  28.685  35.994  1.00  0.00     0.041 A 
ATOM     93  F   UNL A   1      45.670  30.198  34.439  1.00  0.00    -0.206 F 
ATOM     94  C   UNL A   1      46.371  27.671  36.932  1.00  0.00     0.022 A 
BRANCH  91  95
ATOM     95  S   UNL A   1      44.806  25.933  38.451  1.00  0.00     0.124 S 
ATOM     96  O   UNL A   1      44.219  24.825  37.703  1.00  0.00    -0.237 OA
ATOM     97  O   UNL A   1      46.151  25.712  38.968  1.00  0.00    -0.237 OA
ATOM     98  O   UNL A   1      43.894  26.612  39.368  1.00  0.00    -0.744 OA
ENDBRANCH  91  95
ENDBRANCH  65  88
ENDBRANCH  39  40
ENDBRANCH  31  34
ENDBRANCH  29  30
ENDBRANCH   1  29
TORSDOF 16
ENDMDL
