MODEL 1
REMARK VINA RESULT:     -14.0      0.000      0.000
REMARK SMILES CC1(C)OC(=O)C(=CNc2ccccc2C(=O)NCCCCNC(=O)c2ccc(-c3c4nc(c(-c5cc(S(=O)(=O)[O-])ccc5F)c5ccc([nH]5)c(-c5cc(S(=O)(=O)[O-])ccc5F)c5nc(c(-c6cc(S(=O)(=O)[O-])ccc6F)c6ccc3[nH]6)C=C5)C=C4)cc2)C(=O)O1
REMARK SMILES IDX 21 1 20 2 19 3 18 4 16 5 17 6 15 8 10 9 11 10 12 11 14 12
REMARK SMILES IDX 13 13 9 14 8 16 1 17 2 18 3 19 4 20 91 21 5 22 89 23 6 24
REMARK SMILES IDX 7 25 90 26 22 27 23 28 24 29 25 31 26 32 27 33 88 34 28 35
REMARK SMILES IDX 87 36 29 37 30 38 31 39 81 40 32 41 86 42 80 43 82 44 33 45
REMARK SMILES IDX 85 46 79 47 78 48 34 50 66 51 46 52 65 53 47 54 50 55 64 56
REMARK SMILES IDX 83 57 48 58 49 59 63 61 84 62 51 63 35 64 36 65 44 66 37 67
REMARK SMILES IDX 43 68 45 69 42 70 38 71 39 72 40 73 41 74 67 75 68 76 76 77
REMARK SMILES IDX 69 78 75 79 77 80 74 81 70 82 71 83 72 84 73 85 52 86 53 87
REMARK SMILES IDX 61 88 54 89 60 90 62 91 59 92 55 93 56 94 57 95 58 96
REMARK H PARENT 18 7 9 15 23 30 82 49 50 60
REMARK Flexibility Score: inf
ROOT
ATOM      1  C   UNL A   1      31.363  27.783  25.257  1.00  0.00     0.023 C 
ENDROOT
BRANCH   1   2
ATOM      2  C   UNL A   1      30.262  26.958  24.555  1.00  0.00     0.023 C 
BRANCH   2   3
ATOM      3  C   UNL A   1      30.303  25.431  24.487  1.00  0.00     0.116 C 
BRANCH   3   4
ATOM      4  N   UNL A   1      30.375  24.762  25.770  1.00  0.00    -0.352 N 
ATOM      5  C   UNL A   1      31.439  24.042  26.274  1.00  0.00     0.253 C 
ATOM      6  O   UNL A   1      31.319  23.438  27.343  1.00  0.00    -0.269 OA
ATOM      7  H   UNL A   1      29.578  24.828  26.344  1.00  0.00     0.163 HD
BRANCH   5   8
ATOM      8  C   UNL A   1      32.684  23.875  25.473  1.00  0.00     0.063 A 
ATOM      9  C   UNL A   1      32.894  22.879  24.490  1.00  0.00     0.051 A 
ATOM     10  C   UNL A   1      34.179  22.794  23.897  1.00  0.00     0.027 A 
ATOM     11  C   UNL A   1      35.210  23.681  24.240  1.00  0.00     0.002 A 
ATOM     12  C   UNL A   1      33.717  24.779  25.800  1.00  0.00     0.016 A 
ATOM     13  C   UNL A   1      34.976  24.680  25.185  1.00  0.00     0.001 A 
BRANCH   9  14
ATOM     14  N   UNL A   1      31.931  21.937  24.059  1.00  0.00    -0.360 N 
ATOM     15  H   UNL A   1      30.998  22.101  24.327  1.00  0.00     0.166 HD
BRANCH  14  16
ATOM     16  C   UNL A   1      32.171  20.815  23.303  1.00  0.00     0.106 C 
ATOM     17  C   UNL A   1      32.507  15.081  25.391  1.00  0.00     0.106 C 
ATOM     18  C   UNL A   1      33.439  16.260  24.981  1.00  0.00     0.252 C 
ATOM     19  C   UNL A   1      34.873  15.727  25.238  1.00  0.00     0.106 C 
ATOM     20  O   UNL A   1      33.141  16.622  23.200  1.00  0.00    -0.419 OA
ATOM     21  O   UNL A   1      33.275  17.751  26.078  1.00  0.00    -0.419 OA
ATOM     22  C   UNL A   1      32.726  18.174  22.550  1.00  0.00     0.350 C 
ATOM     23  C   UNL A   1      32.959  19.380  25.557  1.00  0.00     0.350 C 
ATOM     24  O   UNL A   1      32.307  18.255  21.400  1.00  0.00    -0.246 OA
ATOM     25  C   UNL A   1      32.694  19.654  23.726  1.00  0.00     0.161 C 
ATOM     26  O   UNL A   1      32.939  20.280  26.394  1.00  0.00    -0.246 OA
ENDBRANCH  14  16
ENDBRANCH   9  14
ENDBRANCH   5   8
ENDBRANCH   3   4
ENDBRANCH   2   3
ENDBRANCH   1   2
BRANCH   1  27
ATOM     27  C   UNL A   1      31.473  29.440  25.287  1.00  0.00     0.116 C 
BRANCH  27  28
ATOM     28  N   UNL A   1      32.281  30.714  26.678  1.00  0.00    -0.352 N 
ATOM     29  C   UNL A   1      33.332  31.515  27.272  1.00  0.00     0.251 C 
ATOM     30  H   UNL A   1      31.524  30.869  27.287  1.00  0.00     0.163 HD
ATOM     31  O   UNL A   1      32.916  32.502  27.889  1.00  0.00    -0.269 OA
BRANCH  29  32
ATOM     32  C   UNL A   1      34.754  31.111  27.552  1.00  0.00     0.039 A 
ATOM     33  C   UNL A   1      35.655  32.167  27.789  1.00  0.00     0.014 A 
ATOM     34  C   UNL A   1      35.251  29.812  27.599  1.00  0.00     0.014 A 
ATOM     35  C   UNL A   1      36.937  31.926  28.301  1.00  0.00     0.010 A 
ATOM     36  C   UNL A   1      36.518  29.560  28.146  1.00  0.00     0.010 A 
ATOM     37  C   UNL A   1      37.341  30.615  28.563  1.00  0.00    -0.014 A 
BRANCH  37  38
ATOM     38  C   UNL A   1      38.571  30.319  29.336  1.00  0.00     0.031 A 
ATOM     39  C   UNL A   1      39.579  29.341  28.821  1.00  0.00     0.074 A 
ATOM     40  C   UNL A   1      38.718  30.859  30.563  1.00  0.00     0.049 A 
ATOM     41  N   UNL A   1      40.588  28.790  29.445  1.00  0.00    -0.248 NA
ATOM     42  C   UNL A   1      39.415  28.914  27.425  1.00  0.00     0.031 C 
ATOM     43  C   UNL A   1      37.791  31.803  31.191  1.00  0.00     0.029 A 
ATOM     44  N   UNL A   1      39.685  30.659  31.516  1.00  0.00    -0.354 N 
ATOM     45  C   UNL A   1      41.162  27.916  28.531  1.00  0.00     0.074 A 
ATOM     46  C   UNL A   1      40.389  28.023  27.307  1.00  0.00     0.031 C 
ATOM     47  C   UNL A   1      38.222  32.085  32.431  1.00  0.00     0.029 A 
ATOM     48  C   UNL A   1      39.432  31.315  32.697  1.00  0.00     0.049 A 
ATOM     49  H   UNL A   1      40.482  30.099  31.368  1.00  0.00     0.167 HD
ATOM     50  C   UNL A   1      42.225  27.090  28.701  1.00  0.00     0.034 A 
ATOM     51  C   UNL A   1      40.075  31.267  33.878  1.00  0.00     0.034 A 
ATOM     52  C   UNL A   1      42.995  26.993  29.917  1.00  0.00     0.049 A 
ATOM     53  C   UNL A   1      41.267  30.371  34.035  1.00  0.00     0.074 A 
ATOM     54  C   UNL A   1      44.095  26.197  30.187  1.00  0.00     0.029 A 
ATOM     55  N   UNL A   1      42.741  27.720  31.071  1.00  0.00    -0.354 N 
ATOM     56  N   UNL A   1      41.774  29.521  33.176  1.00  0.00    -0.248 NA
ATOM     57  C   UNL A   1      41.964  30.422  35.328  1.00  0.00     0.031 C 
ATOM     58  C   UNL A   1      44.496  26.431  31.510  1.00  0.00     0.029 A 
ATOM     59  C   UNL A   1      43.661  27.392  32.055  1.00  0.00     0.049 A 
ATOM     60  H   UNL A   1      42.014  28.375  31.176  1.00  0.00     0.167 HD
ATOM     61  C   UNL A   1      42.848  28.928  33.827  1.00  0.00     0.074 A 
ATOM     62  C   UNL A   1      42.918  29.519  35.149  1.00  0.00     0.031 C 
ATOM     63  C   UNL A   1      43.701  27.978  33.369  1.00  0.00     0.034 A 
BRANCH  50  64
ATOM     64  C   UNL A   1      42.560  26.189  27.548  1.00  0.00     0.023 A 
ATOM     65  C   UNL A   1      42.018  24.894  27.447  1.00  0.00     0.031 A 
ATOM     66  C   UNL A   1      43.493  26.601  26.581  1.00  0.00     0.131 A 
ATOM     67  C   UNL A   1      42.461  24.031  26.430  1.00  0.00     0.055 A 
ATOM     68  C   UNL A   1      43.890  25.757  25.542  1.00  0.00     0.041 A 
ATOM     69  F   UNL A   1      44.057  27.821  26.651  1.00  0.00    -0.206 F 
ATOM     70  C   UNL A   1      43.384  24.457  25.471  1.00  0.00     0.022 A 
BRANCH  67  71
ATOM     71  S   UNL A   1      41.921  22.292  26.465  1.00  0.00     0.124 S 
ATOM     72  O   UNL A   1      40.467  22.416  26.299  1.00  0.00    -0.237 OA
ATOM     73  O   UNL A   1      42.653  21.711  25.336  1.00  0.00    -0.237 OA
ATOM     74  O   UNL A   1      42.348  21.833  27.787  1.00  0.00    -0.744 OA
ENDBRANCH  67  71
ENDBRANCH  50  64
BRANCH  51  75
ATOM     75  C   UNL A   1      39.552  32.033  35.033  1.00  0.00     0.023 A 
ATOM     76  C   UNL A   1      40.031  33.327  35.321  1.00  0.00     0.031 A 
ATOM     77  C   UNL A   1      38.560  31.472  35.861  1.00  0.00     0.131 A 
ATOM     78  C   UNL A   1      39.520  34.020  36.432  1.00  0.00     0.055 A 
ATOM     79  C   UNL A   1      38.049  32.170  36.957  1.00  0.00     0.041 A 
ATOM     80  F   UNL A   1      38.068  30.242  35.603  1.00  0.00    -0.206 F 
ATOM     81  C   UNL A   1      38.532  33.452  37.250  1.00  0.00     0.022 A 
BRANCH  78  82
ATOM     82  S   UNL A   1      40.163  35.693  36.790  1.00  0.00     0.124 S 
ATOM     83  O   UNL A   1      39.643  35.934  38.144  1.00  0.00    -0.237 OA
ATOM     84  O   UNL A   1      41.612  35.499  36.671  1.00  0.00    -0.237 OA
ATOM     85  O   UNL A   1      39.569  36.516  35.737  1.00  0.00    -0.744 OA
ENDBRANCH  78  82
ENDBRANCH  51  75
BRANCH  63  86
ATOM     86  C   UNL A   1      44.788  27.558  34.313  1.00  0.00     0.023 A 
ATOM     87  C   UNL A   1      44.599  26.494  35.212  1.00  0.00     0.031 A 
ATOM     88  C   UNL A   1      46.009  28.257  34.337  1.00  0.00     0.131 A 
ATOM     89  C   UNL A   1      45.615  26.174  36.126  1.00  0.00     0.055 A 
ATOM     90  C   UNL A   1      47.021  27.922  35.236  1.00  0.00     0.041 A 
ATOM     91  F   UNL A   1      46.222  29.288  33.501  1.00  0.00    -0.206 F 
ATOM     92  C   UNL A   1      46.825  26.878  36.141  1.00  0.00     0.022 A 
BRANCH  89  93
ATOM     93  S   UNL A   1      45.329  24.838  37.322  1.00  0.00     0.124 S 
ATOM     94  O   UNL A   1      46.375  25.085  38.311  1.00  0.00    -0.237 OA
ATOM     95  O   UNL A   1      43.958  25.092  37.762  1.00  0.00    -0.237 OA
ATOM     96  O   UNL A   1      45.505  23.623  36.526  1.00  0.00    -0.744 OA
ENDBRANCH  89  93
ENDBRANCH  63  86
ENDBRANCH  37  38
ENDBRANCH  29  32
ENDBRANCH  27  28
ENDBRANCH   1  27
TORSDOF 16
ENDMDL
MODEL 2
REMARK VINA RESULT:     -13.7      2.261      8.461
REMARK SMILES CC1(C)OC(=O)C(=CNc2ccccc2C(=O)NCCCCNC(=O)c2ccc(-c3c4nc(c(-c5cc(S(=O)(=O)[O-])ccc5F)c5ccc([nH]5)c(-c5cc(S(=O)(=O)[O-])ccc5F)c5nc(c(-c6cc(S(=O)(=O)[O-])ccc6F)c6ccc3[nH]6)C=C5)C=C4)cc2)C(=O)O1
REMARK SMILES IDX 21 1 20 2 19 3 18 4 16 5 17 6 15 8 10 9 11 10 12 11 14 12
REMARK SMILES IDX 13 13 9 14 8 16 1 17 2 18 3 19 4 20 91 21 5 22 89 23 6 24
REMARK SMILES IDX 7 25 90 26 22 27 23 28 24 29 25 31 26 32 27 33 88 34 28 35
REMARK SMILES IDX 87 36 29 37 30 38 31 39 81 40 32 41 86 42 80 43 82 44 33 45
REMARK SMILES IDX 85 46 79 47 78 48 34 50 66 51 46 52 65 53 47 54 50 55 64 56
REMARK SMILES IDX 83 57 48 58 49 59 63 61 84 62 51 63 35 64 36 65 44 66 37 67
REMARK SMILES IDX 43 68 45 69 42 70 38 71 39 72 40 73 41 74 67 75 68 76 76 77
REMARK SMILES IDX 69 78 75 79 77 80 74 81 70 82 71 83 72 84 73 85 52 86 53 87
REMARK SMILES IDX 61 88 54 89 60 90 62 91 59 92 55 93 56 94 57 95 58 96
REMARK H PARENT 18 7 9 15 23 30 82 49 50 60
REMARK Flexibility Score: inf
ROOT
ATOM      1  C   UNL A   1      31.037  31.385  26.212  1.00  0.00     0.023 C 
ENDROOT
BRANCH   1   2
ATOM      2  C   UNL A   1      31.958  30.211  26.609  1.00  0.00     0.023 C 
BRANCH   2   3
ATOM      3  C   UNL A   1      31.848  28.831  25.961  1.00  0.00     0.116 C 
BRANCH   3   4
ATOM      4  N   UNL A   1      32.430  28.726  24.639  1.00  0.00    -0.352 N 
ATOM      5  C   UNL A   1      31.758  28.716  23.433  1.00  0.00     0.253 C 
ATOM      6  O   UNL A   1      32.381  28.517  22.386  1.00  0.00    -0.269 OA
ATOM      7  H   UNL A   1      33.410  28.654  24.596  1.00  0.00     0.163 HD
BRANCH   5   8
ATOM      8  C   UNL A   1      30.272  28.806  23.396  1.00  0.00     0.063 A 
ATOM      9  C   UNL A   1      29.388  27.702  23.345  1.00  0.00     0.051 A 
ATOM     10  C   UNL A   1      28.002  27.968  23.205  1.00  0.00     0.027 A 
ATOM     11  C   UNL A   1      27.505  29.278  23.151  1.00  0.00     0.002 A 
ATOM     12  C   UNL A   1      29.766  30.122  23.363  1.00  0.00     0.016 A 
ATOM     13  C   UNL A   1      28.386  30.356  23.240  1.00  0.00     0.001 A 
BRANCH   9  14
ATOM     14  N   UNL A   1      29.773  26.342  23.398  1.00  0.00    -0.360 N 
ATOM     15  H   UNL A   1      29.704  25.828  22.561  1.00  0.00     0.166 HD
BRANCH  14  16
ATOM     16  C   UNL A   1      30.233  25.667  24.503  1.00  0.00     0.106 C 
ATOM     17  C   UNL A   1      36.021  24.005  25.547  1.00  0.00     0.106 C 
ATOM     18  C   UNL A   1      34.681  23.406  25.023  1.00  0.00     0.252 C 
ATOM     19  C   UNL A   1      35.029  21.939  24.659  1.00  0.00     0.106 C 
ATOM     20  O   UNL A   1      33.447  23.508  26.386  1.00  0.00    -0.419 OA
ATOM     21  O   UNL A   1      34.097  24.172  23.434  1.00  0.00    -0.419 OA
ATOM     22  C   UNL A   1      31.884  24.251  26.268  1.00  0.00     0.350 C 
ATOM     23  C   UNL A   1      32.528  24.864  23.143  1.00  0.00     0.350 C 
ATOM     24  O   UNL A   1      31.248  24.485  27.289  1.00  0.00    -0.246 OA
ATOM     25  C   UNL A   1      31.332  24.902  24.581  1.00  0.00     0.161 C 
ATOM     26  O   UNL A   1      32.259  25.279  22.018  1.00  0.00    -0.246 OA
ENDBRANCH  14  16
ENDBRANCH   9  14
ENDBRANCH   5   8
ENDBRANCH   3   4
ENDBRANCH   2   3
ENDBRANCH   1   2
BRANCH   1  27
ATOM     27  C   UNL A   1      31.319  32.994  26.515  1.00  0.00     0.116 C 
BRANCH  27  28
ATOM     28  N   UNL A   1      32.871  33.934  27.473  1.00  0.00    -0.352 N 
ATOM     29  C   UNL A   1      34.263  34.166  27.807  1.00  0.00     0.251 C 
ATOM     30  H   UNL A   1      32.407  34.616  28.009  1.00  0.00     0.163 HD
ATOM     31  O   UNL A   1      34.513  35.338  28.107  1.00  0.00    -0.269 OA
BRANCH  29  32
ATOM     32  C   UNL A   1      35.300  33.147  28.195  1.00  0.00     0.039 A 
ATOM     33  C   UNL A   1      36.617  33.631  28.316  1.00  0.00     0.014 A 
ATOM     34  C   UNL A   1      35.080  31.795  28.443  1.00  0.00     0.014 A 
ATOM     35  C   UNL A   1      37.623  32.854  28.906  1.00  0.00     0.010 A 
ATOM     36  C   UNL A   1      36.070  31.022  29.067  1.00  0.00     0.010 A 
ATOM     37  C   UNL A   1      37.325  31.568  29.363  1.00  0.00    -0.014 A 
BRANCH  37  38
ATOM     38  C   UNL A   1      38.270  30.809  30.217  1.00  0.00     0.031 A 
ATOM     39  C   UNL A   1      38.416  31.136  31.670  1.00  0.00     0.074 A 
ATOM     40  C   UNL A   1      39.077  29.892  29.646  1.00  0.00     0.049 A 
ATOM     41  N   UNL A   1      39.334  30.745  32.516  1.00  0.00    -0.248 NA
ATOM     42  C   UNL A   1      37.406  32.038  32.237  1.00  0.00     0.031 C 
ATOM     43  C   UNL A   1      39.054  29.504  28.234  1.00  0.00     0.029 A 
ATOM     44  N   UNL A   1      40.101  29.149  30.178  1.00  0.00    -0.354 N 
ATOM     45  C   UNL A   1      39.038  31.385  33.712  1.00  0.00     0.074 A 
ATOM     46  C   UNL A   1      37.847  32.181  33.479  1.00  0.00     0.031 C 
ATOM     47  C   UNL A   1      40.030  28.610  28.007  1.00  0.00     0.029 A 
ATOM     48  C   UNL A   1      40.769  28.392  29.245  1.00  0.00     0.049 A 
ATOM     49  H   UNL A   1      40.334  29.159  31.134  1.00  0.00     0.167 HD
ATOM     50  C   UNL A   1      39.707  31.326  34.891  1.00  0.00     0.034 A 
ATOM     51  C   UNL A   1      41.879  27.643  29.362  1.00  0.00     0.034 A 
ATOM     52  C   UNL A   1      40.885  30.527  35.122  1.00  0.00     0.049 A 
ATOM     53  C   UNL A   1      42.585  27.566  30.683  1.00  0.00     0.074 A 
ATOM     54  C   UNL A   1      41.628  30.389  36.281  1.00  0.00     0.029 A 
ATOM     55  N   UNL A   1      41.495  29.727  34.165  1.00  0.00    -0.354 N 
ATOM     56  N   UNL A   1      42.317  28.207  31.794  1.00  0.00    -0.248 NA
ATOM     57  C   UNL A   1      43.749  26.672  30.758  1.00  0.00     0.031 C 
ATOM     58  C   UNL A   1      42.697  29.520  36.021  1.00  0.00     0.029 A 
ATOM     59  C   UNL A   1      42.603  29.095  34.706  1.00  0.00     0.049 A 
ATOM     60  H   UNL A   1      41.184  29.623  33.237  1.00  0.00     0.167 HD
ATOM     61  C   UNL A   1      43.287  27.801  32.702  1.00  0.00     0.074 A 
ATOM     62  C   UNL A   1      44.143  26.856  32.010  1.00  0.00     0.031 C 
ATOM     63  C   UNL A   1      43.452  28.175  33.995  1.00  0.00     0.034 A 
BRANCH  50  64
ATOM     64  C   UNL A   1      39.193  32.207  35.993  1.00  0.00     0.023 A 
ATOM     65  C   UNL A   1      39.643  33.532  36.144  1.00  0.00     0.031 A 
ATOM     66  C   UNL A   1      38.302  31.690  36.950  1.00  0.00     0.131 A 
ATOM     67  C   UNL A   1      39.245  34.280  37.264  1.00  0.00     0.055 A 
ATOM     68  C   UNL A   1      37.870  32.457  38.035  1.00  0.00     0.041 A 
ATOM     69  F   UNL A   1      37.865  30.421  36.863  1.00  0.00    -0.206 F 
ATOM     70  C   UNL A   1      38.353  33.755  38.205  1.00  0.00     0.022 A 
BRANCH  67  71
ATOM     71  S   UNL A   1      40.026  35.900  37.554  1.00  0.00     0.124 S 
ATOM     72  O   UNL A   1      39.329  36.368  38.759  1.00  0.00    -0.237 OA
ATOM     73  O   UNL A   1      41.439  35.545  37.721  1.00  0.00    -0.237 OA
ATOM     74  O   UNL A   1      39.711  36.649  36.337  1.00  0.00    -0.744 OA
ENDBRANCH  67  71
ENDBRANCH  50  64
BRANCH  51  75
ATOM     75  C   UNL A   1      42.442  26.968  28.169  1.00  0.00     0.023 A 
ATOM     76  C   UNL A   1      42.126  25.625  27.880  1.00  0.00     0.031 A 
ATOM     77  C   UNL A   1      43.302  27.669  27.301  1.00  0.00     0.131 A 
ATOM     78  C   UNL A   1      42.687  25.013  26.745  1.00  0.00     0.055 A 
ATOM     79  C   UNL A   1      43.848  27.059  26.171  1.00  0.00     0.041 A 
ATOM     80  F   UNL A   1      43.611  28.961  27.540  1.00  0.00    -0.206 F 
ATOM     81  C   UNL A   1      43.543  25.721  25.888  1.00  0.00     0.022 A 
BRANCH  78  82
ATOM     82  S   UNL A   1      42.271  23.269  26.396  1.00  0.00     0.124 S 
ATOM     83  O   UNL A   1      42.822  23.090  25.045  1.00  0.00    -0.237 OA
ATOM     84  O   UNL A   1      42.960  22.563  27.481  1.00  0.00    -0.237 OA
ATOM     85  O   UNL A   1      40.810  23.245  26.484  1.00  0.00    -0.744 OA
ENDBRANCH  78  82
ENDBRANCH  51  75
BRANCH  63  86
ATOM     86  C   UNL A   1      44.589  27.530  34.729  1.00  0.00     0.023 A 
ATOM     87  C   UNL A   1      44.418  26.309  35.406  1.00  0.00     0.031 A 
ATOM     88  C   UNL A   1      45.843  28.165  34.783  1.00  0.00     0.131 A 
ATOM     89  C   UNL A   1      45.487  25.771  36.139  1.00  0.00     0.055 A 
ATOM     90  C   UNL A   1      46.906  27.616  35.499  1.00  0.00     0.041 A 
ATOM     91  F   UNL A   1      46.042  29.338  34.159  1.00  0.00    -0.206 F 
ATOM     92  C   UNL A   1      46.730  26.414  36.186  1.00  0.00     0.022 A 
BRANCH  89  93
ATOM     93  S   UNL A   1      45.229  24.227  37.058  1.00  0.00     0.124 S 
ATOM     94  O   UNL A   1      44.533  24.696  38.254  1.00  0.00    -0.237 OA
ATOM     95  O   UNL A   1      44.434  23.430  36.126  1.00  0.00    -0.237 OA
ATOM     96  O   UNL A   1      46.587  23.734  37.287  1.00  0.00    -0.744 OA
ENDBRANCH  89  93
ENDBRANCH  63  86
ENDBRANCH  37  38
ENDBRANCH  29  32
ENDBRANCH  27  28
ENDBRANCH   1  27
TORSDOF 16
ENDMDL
MODEL 3
REMARK VINA RESULT:     -13.6      2.650      3.958
REMARK SMILES CC1(C)OC(=O)C(=CNc2ccccc2C(=O)NCCCCNC(=O)c2ccc(-c3c4nc(c(-c5cc(S(=O)(=O)[O-])ccc5F)c5ccc([nH]5)c(-c5cc(S(=O)(=O)[O-])ccc5F)c5nc(c(-c6cc(S(=O)(=O)[O-])ccc6F)c6ccc3[nH]6)C=C5)C=C4)cc2)C(=O)O1
REMARK SMILES IDX 21 1 20 2 19 3 18 4 16 5 17 6 15 8 10 9 11 10 12 11 14 12
REMARK SMILES IDX 13 13 9 14 8 16 1 17 2 18 3 19 4 20 91 21 5 22 89 23 6 24
REMARK SMILES IDX 7 25 90 26 22 27 23 28 24 29 25 31 26 32 27 33 88 34 28 35
REMARK SMILES IDX 87 36 29 37 30 38 31 39 81 40 32 41 86 42 80 43 82 44 33 45
REMARK SMILES IDX 85 46 79 47 78 48 34 50 66 51 46 52 65 53 47 54 50 55 64 56
REMARK SMILES IDX 83 57 48 58 49 59 63 61 84 62 51 63 35 64 36 65 44 66 37 67
REMARK SMILES IDX 43 68 45 69 42 70 38 71 39 72 40 73 41 74 67 75 68 76 76 77
REMARK SMILES IDX 69 78 75 79 77 80 74 81 70 82 71 83 72 84 73 85 52 86 53 87
REMARK SMILES IDX 61 88 54 89 60 90 62 91 59 92 55 93 56 94 57 95 58 96
REMARK H PARENT 18 7 9 15 23 30 82 49 50 60
REMARK Flexibility Score: inf
ROOT
ATOM      1  C   UNL A   1      32.482  29.089  27.028  1.00  0.00     0.023 C 
ENDROOT
BRANCH   1   2
ATOM      2  C   UNL A   1      33.597  28.108  26.606  1.00  0.00     0.023 C 
BRANCH   2   3
ATOM      3  C   UNL A   1      33.295  26.766  25.940  1.00  0.00     0.116 C 
BRANCH   3   4
ATOM      4  N   UNL A   1      33.821  26.614  24.599  1.00  0.00    -0.352 N 
ATOM      5  C   UNL A   1      33.177  26.912  23.414  1.00  0.00     0.253 C 
ATOM      6  O   UNL A   1      33.714  26.635  22.338  1.00  0.00    -0.269 OA
ATOM      7  H   UNL A   1      34.736  26.262  24.524  1.00  0.00     0.163 HD
BRANCH   5   8
ATOM      8  C   UNL A   1      31.784  27.439  23.424  1.00  0.00     0.063 A 
ATOM      9  C   UNL A   1      30.612  26.646  23.427  1.00  0.00     0.051 A 
ATOM     10  C   UNL A   1      29.363  27.309  23.327  1.00  0.00     0.027 A 
ATOM     11  C   UNL A   1      29.274  28.707  23.259  1.00  0.00     0.002 A 
ATOM     12  C   UNL A   1      31.689  28.846  23.378  1.00  0.00     0.016 A 
ATOM     13  C   UNL A   1      30.437  29.477  23.295  1.00  0.00     0.001 A 
BRANCH   9  14
ATOM     14  N   UNL A   1      30.578  25.234  23.498  1.00  0.00    -0.360 N 
ATOM     15  H   UNL A   1      30.342  24.753  22.672  1.00  0.00     0.166 HD
BRANCH  14  16
ATOM     16  C   UNL A   1      30.842  24.467  24.608  1.00  0.00     0.106 C 
ATOM     17  C   UNL A   1      36.037  21.452  25.738  1.00  0.00     0.106 C 
ATOM     18  C   UNL A   1      34.601  21.196  25.190  1.00  0.00     0.252 C 
ATOM     19  C   UNL A   1      34.591  19.689  24.824  1.00  0.00     0.106 C 
ATOM     20  O   UNL A   1      33.405  21.593  26.532  1.00  0.00    -0.419 OA
ATOM     21  O   UNL A   1      34.248  22.081  23.595  1.00  0.00    -0.419 OA
ATOM     22  C   UNL A   1      32.071  22.691  26.392  1.00  0.00     0.350 C 
ATOM     23  C   UNL A   1      32.898  23.133  23.281  1.00  0.00     0.350 C 
ATOM     24  O   UNL A   1      31.494  23.072  27.404  1.00  0.00    -0.246 OA
ATOM     25  C   UNL A   1      31.722  23.458  24.700  1.00  0.00     0.161 C 
ATOM     26  O   UNL A   1      32.756  23.602  22.154  1.00  0.00    -0.246 OA
ENDBRANCH  14  16
ENDBRANCH   9  14
ENDBRANCH   5   8
ENDBRANCH   3   4
ENDBRANCH   2   3
ENDBRANCH   1   2
BRANCH   1  27
ATOM     27  C   UNL A   1      32.300  30.651  26.492  1.00  0.00     0.116 C 
BRANCH  27  28
ATOM     28  N   UNL A   1      32.451  32.443  27.479  1.00  0.00    -0.352 N 
ATOM     29  C   UNL A   1      33.155  33.568  28.063  1.00  0.00     0.251 C 
ATOM     30  H   UNL A   1      31.510  32.665  27.658  1.00  0.00     0.163 HD
ATOM     31  O   UNL A   1      32.506  34.619  28.055  1.00  0.00    -0.269 OA
BRANCH  29  32
ATOM     32  C   UNL A   1      34.350  33.534  28.977  1.00  0.00     0.039 A 
ATOM     33  C   UNL A   1      34.254  32.659  30.077  1.00  0.00     0.014 A 
ATOM     34  C   UNL A   1      35.521  34.272  28.836  1.00  0.00     0.014 A 
ATOM     35  C   UNL A   1      35.376  32.348  30.856  1.00  0.00     0.010 A 
ATOM     36  C   UNL A   1      36.658  33.941  29.587  1.00  0.00     0.010 A 
ATOM     37  C   UNL A   1      36.609  32.929  30.555  1.00  0.00    -0.014 A 
BRANCH  37  38
ATOM     38  C   UNL A   1      37.868  32.447  31.173  1.00  0.00     0.031 A 
ATOM     39  C   UNL A   1      38.631  31.315  30.562  1.00  0.00     0.074 A 
ATOM     40  C   UNL A   1      38.259  32.967  32.353  1.00  0.00     0.049 A 
ATOM     41  N   UNL A   1      39.614  30.614  31.066  1.00  0.00    -0.248 NA
ATOM     42  C   UNL A   1      38.219  30.907  29.212  1.00  0.00     0.031 C 
ATOM     43  C   UNL A   1      37.584  34.054  33.067  1.00  0.00     0.029 A 
ATOM     44  N   UNL A   1      39.300  32.623  33.179  1.00  0.00    -0.354 N 
ATOM     45  C   UNL A   1      39.916  29.651  30.113  1.00  0.00     0.074 A 
ATOM     46  C   UNL A   1      39.015  29.869  28.996  1.00  0.00     0.031 C 
ATOM     47  C   UNL A   1      38.215  34.275  34.232  1.00  0.00     0.029 A 
ATOM     48  C   UNL A   1      39.312  33.322  34.363  1.00  0.00     0.049 A 
ATOM     49  H   UNL A   1      39.971  31.941  32.947  1.00  0.00     0.167 HD
ATOM     50  C   UNL A   1      40.848  28.666  30.171  1.00  0.00     0.034 A 
ATOM     51  C   UNL A   1      40.089  33.182  35.452  1.00  0.00     0.034 A 
ATOM     52  C   UNL A   1      41.747  28.457  31.279  1.00  0.00     0.049 A 
ATOM     53  C   UNL A   1      41.134  32.107  35.482  1.00  0.00     0.074 A 
ATOM     54  C   UNL A   1      42.733  27.498  31.429  1.00  0.00     0.029 A 
ATOM     55  N   UNL A   1      41.766  29.227  32.434  1.00  0.00    -0.354 N 
ATOM     56  N   UNL A   1      41.383  31.179  34.590  1.00  0.00    -0.248 NA
ATOM     57  C   UNL A   1      41.995  32.058  36.672  1.00  0.00     0.031 C 
ATOM     58  C   UNL A   1      43.336  27.676  32.683  1.00  0.00     0.029 A 
ATOM     59  C   UNL A   1      42.744  28.764  33.301  1.00  0.00     0.049 A 
ATOM     60  H   UNL A   1      41.172  29.991  32.612  1.00  0.00     0.167 HD
ATOM     61  C   UNL A   1      42.425  30.427  35.115  1.00  0.00     0.074 A 
ATOM     62  C   UNL A   1      42.761  31.011  36.399  1.00  0.00     0.031 C 
ATOM     63  C   UNL A   1      43.049  29.348  34.581  1.00  0.00     0.034 A 
BRANCH  50  64
ATOM     64  C   UNL A   1      40.881  27.712  29.011  1.00  0.00     0.023 A 
ATOM     65  C   UNL A   1      41.845  27.829  27.992  1.00  0.00     0.031 A 
ATOM     66  C   UNL A   1      39.889  26.724  28.884  1.00  0.00     0.131 A 
ATOM     67  C   UNL A   1      41.760  27.007  26.856  1.00  0.00     0.055 A 
ATOM     68  C   UNL A   1      39.841  25.875  27.777  1.00  0.00     0.041 A 
ATOM     69  F   UNL A   1      38.932  26.592  29.820  1.00  0.00    -0.206 F 
ATOM     70  C   UNL A   1      40.772  26.023  26.747  1.00  0.00     0.022 A 
BRANCH  67  71
ATOM     71  S   UNL A   1      42.875  27.338  25.454  1.00  0.00     0.124 S 
ATOM     72  O   UNL A   1      42.169  28.414  24.746  1.00  0.00    -0.237 OA
ATOM     73  O   UNL A   1      44.123  27.715  26.124  1.00  0.00    -0.237 OA
ATOM     74  O   UNL A   1      42.911  26.059  24.743  1.00  0.00    -0.744 OA
ENDBRANCH  67  71
ENDBRANCH  50  64
BRANCH  51  75
ATOM     75  C   UNL A   1      39.851  34.033  36.641  1.00  0.00     0.023 A 
ATOM     76  C   UNL A   1      39.215  33.515  37.787  1.00  0.00     0.031 A 
ATOM     77  C   UNL A   1      40.265  35.380  36.639  1.00  0.00     0.131 A 
ATOM     78  C   UNL A   1      38.996  34.355  38.893  1.00  0.00     0.055 A 
ATOM     79  C   UNL A   1      40.054  36.206  37.744  1.00  0.00     0.041 A 
ATOM     80  F   UNL A   1      40.892  35.902  35.563  1.00  0.00    -0.206 F 
ATOM     81  C   UNL A   1      39.413  35.695  38.880  1.00  0.00     0.022 A 
BRANCH  78  82
ATOM     82  S   UNL A   1      38.162  33.664  40.365  1.00  0.00     0.124 S 
ATOM     83  O   UNL A   1      37.719  34.880  41.061  1.00  0.00    -0.237 OA
ATOM     84  O   UNL A   1      37.111  32.836  39.764  1.00  0.00    -0.237 OA
ATOM     85  O   UNL A   1      39.224  32.912  41.034  1.00  0.00    -0.744 OA
ENDBRANCH  78  82
ENDBRANCH  51  75
BRANCH  63  86
ATOM     86  C   UNL A   1      44.171  28.767  35.389  1.00  0.00     0.023 A 
ATOM     87  C   UNL A   1      43.945  27.716  36.295  1.00  0.00     0.031 A 
ATOM     88  C   UNL A   1      45.468  29.299  35.277  1.00  0.00     0.131 A 
ATOM     89  C   UNL A   1      45.006  27.245  37.083  1.00  0.00     0.055 A 
ATOM     90  C   UNL A   1      46.522  28.814  36.051  1.00  0.00     0.041 A 
ATOM     91  F   UNL A   1      45.720  30.312  34.430  1.00  0.00    -0.206 F 
ATOM     92  C   UNL A   1      46.294  27.783  36.963  1.00  0.00     0.022 A 
BRANCH  89  93
ATOM     93  S   UNL A   1      44.683  25.930  38.293  1.00  0.00     0.124 S 
ATOM     94  O   UNL A   1      43.896  26.633  39.304  1.00  0.00    -0.237 OA
ATOM     95  O   UNL A   1      43.963  24.936  37.499  1.00  0.00    -0.237 OA
ATOM     96  O   UNL A   1      46.020  25.524  38.723  1.00  0.00    -0.744 OA
ENDBRANCH  89  93
ENDBRANCH  63  86
ENDBRANCH  37  38
ENDBRANCH  29  32
ENDBRANCH  27  28
ENDBRANCH   1  27
TORSDOF 16
ENDMDL
