MODEL 1
REMARK VINA RESULT:     -11.6      0.000      0.000
REMARK SMILES C[C@H]1CN([C@@H](C(=O)NCCCCNC(=O)c2ccc(-c3c4nc(c(-c5cc(S(=O)(=O)[O-])ccc5F)c5ccc([nH]5)c(-c5cc(S(=O)(=O)[O-])ccc5F)c5nc(c(-c6cc(S(=O)(=O)[O-])ccc6F)c6ccc3[nH]6)C=C5)C=C4)cc2)C(C)(C)C)S(=O)(=O)C1
REMARK SMILES IDX 11 1 10 2 9 3 8 4 6 5 7 6 5 8 4 9 1 10 2 11 3 12 86 13 83 14
REMARK SMILES IDX 84 15 85 16 79 17 80 18 81 19 82 20 12 21 13 22 14 23 15 25
REMARK SMILES IDX 16 26 17 27 78 28 18 29 77 30 19 31 20 32 21 33 71 34 22 35
REMARK SMILES IDX 76 36 70 37 72 38 23 39 75 40 69 41 68 42 24 44 56 45 36 46
REMARK SMILES IDX 55 47 37 48 40 49 54 50 73 51 38 52 39 53 53 55 74 56 41 57
REMARK SMILES IDX 25 58 26 59 34 60 27 61 33 62 35 63 32 64 28 65 29 66 30 67
REMARK SMILES IDX 31 68 57 69 58 70 66 71 59 72 65 73 67 74 64 75 60 76 61 77
REMARK SMILES IDX 62 78 63 79 42 80 43 81 51 82 44 83 50 84 52 85 49 86 45 87
REMARK SMILES IDX 46 88 47 89 48 90
REMARK H PARENT 8 7 13 24 72 43 40 54
REMARK Flexibility Score: inf
ROOT
ATOM      1  C   UNL A   1      35.459  21.645  25.845  1.00  0.00     0.023 C 
ENDROOT
BRANCH   1   2
ATOM      2  C   UNL A   1      34.831  22.814  26.590  1.00  0.00     0.023 C 
BRANCH   2   3
ATOM      3  C   UNL A   1      33.864  23.687  25.777  1.00  0.00     0.116 C 
BRANCH   3   4
ATOM      4  N   UNL A   1      32.577  23.905  26.424  1.00  0.00    -0.355 N 
ATOM      5  C   UNL A   1      31.524  24.754  26.195  1.00  0.00     0.238 C 
ATOM      6  O   UNL A   1      30.549  24.588  26.929  1.00  0.00    -0.273 OA
ATOM      7  H   UNL A   1      32.432  23.312  27.197  1.00  0.00     0.163 HD
BRANCH   5   8
ATOM      8  C   UNL A   1      31.556  25.819  25.074  1.00  0.00     0.167 C 
BRANCH   8   9
ATOM      9  N   UNL A   1      31.286  27.229  25.520  1.00  0.00    -0.189 NA
ATOM     10  C   UNL A   1      33.363  29.097  24.042  1.00  0.00     0.010 C 
ATOM     11  C   UNL A   1      31.949  29.375  24.578  1.00  0.00     0.017 C 
ATOM     12  C   UNL A   1      30.924  28.221  24.492  1.00  0.00     0.107 C 
ATOM     13  C   UNL A   1      32.013  29.642  26.075  1.00  0.00     0.159 C 
ATOM     14  S   UNL A   1      32.079  28.010  26.803  1.00  0.00     0.215 S 
ATOM     15  O   UNL A   1      31.202  28.001  27.948  1.00  0.00    -0.212 OA
ATOM     16  O   UNL A   1      33.460  27.593  26.858  1.00  0.00    -0.212 OA
ENDBRANCH   8   9
BRANCH   8  17
ATOM     17  C   UNL A   1      30.750  25.400  23.774  1.00  0.00    -0.013 C 
ATOM     18  C   UNL A   1      29.315  25.969  23.858  1.00  0.00     0.013 C 
ATOM     19  C   UNL A   1      31.405  26.029  22.517  1.00  0.00     0.013 C 
ATOM     20  C   UNL A   1      30.650  23.887  23.497  1.00  0.00     0.013 C 
ENDBRANCH   8  17
ENDBRANCH   5   8
ENDBRANCH   3   4
ENDBRANCH   2   3
ENDBRANCH   1   2
BRANCH   1  21
ATOM     21  C   UNL A   1      36.857  21.943  25.353  1.00  0.00     0.116 C 
BRANCH  21  22
ATOM     22  N   UNL A   1      37.763  20.828  25.614  1.00  0.00    -0.352 N 
ATOM     23  C   UNL A   1      39.075  20.854  26.017  1.00  0.00     0.251 C 
ATOM     24  H   UNL A   1      37.378  19.930  25.483  1.00  0.00     0.163 HD
ATOM     25  O   UNL A   1      39.762  19.841  25.938  1.00  0.00    -0.269 OA
BRANCH  23  26
ATOM     26  C   UNL A   1      39.638  22.121  26.520  1.00  0.00     0.039 A 
ATOM     27  C   UNL A   1      40.692  22.094  27.434  1.00  0.00     0.014 A 
ATOM     28  C   UNL A   1      39.148  23.335  26.034  1.00  0.00     0.014 A 
ATOM     29  C   UNL A   1      41.300  23.293  27.804  1.00  0.00     0.010 A 
ATOM     30  C   UNL A   1      39.834  24.506  26.303  1.00  0.00     0.010 A 
ATOM     31  C   UNL A   1      40.905  24.502  27.206  1.00  0.00    -0.014 A 
BRANCH  31  32
ATOM     32  C   UNL A   1      41.569  25.786  27.529  1.00  0.00     0.031 A 
ATOM     33  C   UNL A   1      40.823  26.820  28.329  1.00  0.00     0.074 A 
ATOM     34  C   UNL A   1      42.800  26.041  27.044  1.00  0.00     0.049 A 
ATOM     35  N   UNL A   1      41.178  28.040  28.638  1.00  0.00    -0.248 NA
ATOM     36  C   UNL A   1      39.482  26.447  28.807  1.00  0.00     0.031 C 
ATOM     37  C   UNL A   1      43.589  25.125  26.217  1.00  0.00     0.029 A 
ATOM     38  N   UNL A   1      43.600  27.146  27.169  1.00  0.00    -0.354 N 
ATOM     39  C   UNL A   1      40.099  28.581  29.329  1.00  0.00     0.074 A 
ATOM     40  C   UNL A   1      39.051  27.587  29.323  1.00  0.00     0.031 C 
ATOM     41  C   UNL A   1      44.775  25.693  25.942  1.00  0.00     0.029 A 
ATOM     42  C   UNL A   1      44.808  27.030  26.520  1.00  0.00     0.049 A 
ATOM     43  H   UNL A   1      43.337  27.948  27.676  1.00  0.00     0.167 HD
ATOM     44  C   UNL A   1      40.007  29.786  29.941  1.00  0.00     0.034 A 
ATOM     45  C   UNL A   1      45.820  27.913  26.394  1.00  0.00     0.034 A 
ATOM     46  C   UNL A   1      41.075  30.753  29.947  1.00  0.00     0.049 A 
ATOM     47  C   UNL A   1      45.681  29.260  27.059  1.00  0.00     0.074 A 
ATOM     48  C   UNL A   1      41.121  31.981  30.579  1.00  0.00     0.029 A 
ATOM     49  N   UNL A   1      42.284  30.603  29.277  1.00  0.00    -0.354 N 
ATOM     50  N   UNL A   1      44.678  29.735  27.763  1.00  0.00    -0.248 NA
ATOM     51  C   UNL A   1      46.812  30.183  26.922  1.00  0.00     0.031 C 
ATOM     52  C   UNL A   1      42.320  32.609  30.226  1.00  0.00     0.029 A 
ATOM     53  C   UNL A   1      43.066  31.734  29.450  1.00  0.00     0.049 A 
ATOM     54  H   UNL A   1      42.547  29.810  28.756  1.00  0.00     0.167 HD
ATOM     55  C   UNL A   1      45.073  31.004  28.176  1.00  0.00     0.074 A 
ATOM     56  C   UNL A   1      46.413  31.207  27.661  1.00  0.00     0.031 C 
ATOM     57  C   UNL A   1      44.395  31.920  28.916  1.00  0.00     0.034 A 
BRANCH  44  58
ATOM     58  C   UNL A   1      38.703  30.122  30.626  1.00  0.00     0.023 A 
ATOM     59  C   UNL A   1      37.669  30.804  29.959  1.00  0.00     0.031 A 
ATOM     60  C   UNL A   1      38.500  29.784  31.976  1.00  0.00     0.131 A 
ATOM     61  C   UNL A   1      36.519  31.196  30.660  1.00  0.00     0.055 A 
ATOM     62  C   UNL A   1      37.314  30.097  32.643  1.00  0.00     0.041 A 
ATOM     63  F   UNL A   1      39.460  29.158  32.675  1.00  0.00    -0.206 F 
ATOM     64  C   UNL A   1      36.321  30.820  31.990  1.00  0.00     0.022 A 
BRANCH  61  65
ATOM     65  S   UNL A   1      35.360  32.333  29.854  1.00  0.00     0.124 S 
ATOM     66  O   UNL A   1      34.380  32.557  30.916  1.00  0.00    -0.237 OA
ATOM     67  O   UNL A   1      36.211  33.470  29.521  1.00  0.00    -0.237 OA
ATOM     68  O   UNL A   1      34.865  31.567  28.712  1.00  0.00    -0.744 OA
ENDBRANCH  61  65
ENDBRANCH  44  58
BRANCH  45  69
ATOM     69  C   UNL A   1      47.037  27.566  25.606  1.00  0.00     0.023 A 
ATOM     70  C   UNL A   1      47.147  27.918  24.252  1.00  0.00     0.031 A 
ATOM     71  C   UNL A   1      48.093  26.837  26.183  1.00  0.00     0.131 A 
ATOM     72  C   UNL A   1      48.259  27.495  23.505  1.00  0.00     0.055 A 
ATOM     73  C   UNL A   1      49.225  26.472  25.452  1.00  0.00     0.041 A 
ATOM     74  F   UNL A   1      48.044  26.476  27.475  1.00  0.00    -0.206 F 
ATOM     75  C   UNL A   1      49.306  26.788  24.100  1.00  0.00     0.022 A 
BRANCH  72  76
ATOM     76  S   UNL A   1      48.266  27.793  21.715  1.00  0.00     0.124 S 
ATOM     77  O   UNL A   1      46.940  28.362  21.504  1.00  0.00    -0.237 OA
ATOM     78  O   UNL A   1      49.391  28.711  21.568  1.00  0.00    -0.237 OA
ATOM     79  O   UNL A   1      48.473  26.462  21.150  1.00  0.00    -0.744 OA
ENDBRANCH  72  76
ENDBRANCH  45  69
BRANCH  57  80
ATOM     80  C   UNL A   1      45.116  33.204  29.245  1.00  0.00     0.023 A 
ATOM     81  C   UNL A   1      45.004  34.343  28.430  1.00  0.00     0.031 A 
ATOM     82  C   UNL A   1      45.929  33.286  30.389  1.00  0.00     0.131 A 
ATOM     83  C   UNL A   1      45.744  35.495  28.736  1.00  0.00     0.055 A 
ATOM     84  C   UNL A   1      46.605  34.457  30.729  1.00  0.00     0.041 A 
ATOM     85  F   UNL A   1      46.076  32.226  31.201  1.00  0.00    -0.206 F 
ATOM     86  C   UNL A   1      46.526  35.567  29.892  1.00  0.00     0.022 A 
BRANCH  83  87
ATOM     87  S   UNL A   1      45.756  36.862  27.545  1.00  0.00     0.124 S 
ATOM     88  O   UNL A   1      46.065  36.171  26.296  1.00  0.00    -0.237 OA
ATOM     89  O   UNL A   1      44.401  37.391  27.662  1.00  0.00    -0.237 OA
ATOM     90  O   UNL A   1      46.810  37.743  28.044  1.00  0.00    -0.744 OA
ENDBRANCH  83  87
ENDBRANCH  57  80
ENDBRANCH  31  32
ENDBRANCH  23  26
ENDBRANCH  21  22
ENDBRANCH   1  21
TORSDOF 16
ENDMDL
MODEL 2
REMARK VINA RESULT:     -11.4      4.786     10.082
REMARK SMILES C[C@H]1CN([C@@H](C(=O)NCCCCNC(=O)c2ccc(-c3c4nc(c(-c5cc(S(=O)(=O)[O-])ccc5F)c5ccc([nH]5)c(-c5cc(S(=O)(=O)[O-])ccc5F)c5nc(c(-c6cc(S(=O)(=O)[O-])ccc6F)c6ccc3[nH]6)C=C5)C=C4)cc2)C(C)(C)C)S(=O)(=O)C1
REMARK SMILES IDX 11 1 10 2 9 3 8 4 6 5 7 6 5 8 4 9 1 10 2 11 3 12 86 13 83 14
REMARK SMILES IDX 84 15 85 16 79 17 80 18 81 19 82 20 12 21 13 22 14 23 15 25
REMARK SMILES IDX 16 26 17 27 78 28 18 29 77 30 19 31 20 32 21 33 71 34 22 35
REMARK SMILES IDX 76 36 70 37 72 38 23 39 75 40 69 41 68 42 24 44 56 45 36 46
REMARK SMILES IDX 55 47 37 48 40 49 54 50 73 51 38 52 39 53 53 55 74 56 41 57
REMARK SMILES IDX 25 58 26 59 34 60 27 61 33 62 35 63 32 64 28 65 29 66 30 67
REMARK SMILES IDX 31 68 57 69 58 70 66 71 59 72 65 73 67 74 64 75 60 76 61 77
REMARK SMILES IDX 62 78 63 79 42 80 43 81 51 82 44 83 50 84 52 85 49 86 45 87
REMARK SMILES IDX 46 88 47 89 48 90
REMARK H PARENT 8 7 13 24 72 43 40 54
REMARK Flexibility Score: inf
ROOT
ATOM      1  C   UNL A   1      31.916  28.599  26.440  1.00  0.00     0.023 C 
ENDROOT
BRANCH   1   2
ATOM      2  C   UNL A   1      32.172  27.171  25.980  1.00  0.00     0.023 C 
BRANCH   2   3
ATOM      3  C   UNL A   1      33.615  26.846  25.566  1.00  0.00     0.116 C 
BRANCH   3   4
ATOM      4  N   UNL A   1      33.763  26.503  24.159  1.00  0.00    -0.355 N 
ATOM      5  C   UNL A   1      33.623  25.343  23.439  1.00  0.00     0.238 C 
ATOM      6  O   UNL A   1      33.762  25.464  22.220  1.00  0.00    -0.273 OA
ATOM      7  H   UNL A   1      34.021  27.273  23.601  1.00  0.00     0.163 HD
BRANCH   5   8
ATOM      8  C   UNL A   1      33.286  23.993  24.113  1.00  0.00     0.167 C 
BRANCH   8   9
ATOM      9  N   UNL A   1      34.324  22.916  23.947  1.00  0.00    -0.189 NA
ATOM     10  C   UNL A   1      34.911  21.728  26.815  1.00  0.00     0.010 C 
ATOM     11  C   UNL A   1      35.013  21.100  25.416  1.00  0.00     0.017 C 
ATOM     12  C   UNL A   1      33.971  21.548  24.365  1.00  0.00     0.107 C 
ATOM     13  C   UNL A   1      36.327  21.510  24.765  1.00  0.00     0.159 C 
ATOM     14  S   UNL A   1      35.997  23.146  24.120  1.00  0.00     0.215 S 
ATOM     15  O   UNL A   1      36.581  23.228  22.804  1.00  0.00    -0.212 OA
ATOM     16  O   UNL A   1      36.259  24.107  25.165  1.00  0.00    -0.212 OA
ENDBRANCH   8   9
BRANCH   8  17
ATOM     17  C   UNL A   1      31.806  23.494  23.837  1.00  0.00    -0.013 C 
ATOM     18  C   UNL A   1      31.185  22.985  25.157  1.00  0.00     0.013 C 
ATOM     19  C   UNL A   1      30.928  24.680  23.360  1.00  0.00     0.013 C 
ATOM     20  C   UNL A   1      31.652  22.388  22.775  1.00  0.00     0.013 C 
ENDBRANCH   8  17
ENDBRANCH   5   8
ENDBRANCH   3   4
ENDBRANCH   2   3
ENDBRANCH   1   2
BRANCH   1  21
ATOM     21  C   UNL A   1      32.787  29.611  25.729  1.00  0.00     0.116 C 
BRANCH  21  22
ATOM     22  N   UNL A   1      32.413  30.977  26.082  1.00  0.00    -0.352 N 
ATOM     23  C   UNL A   1      32.961  31.809  27.027  1.00  0.00     0.251 C 
ATOM     24  H   UNL A   1      31.661  31.356  25.569  1.00  0.00     0.163 HD
ATOM     25  O   UNL A   1      32.364  32.823  27.373  1.00  0.00    -0.269 OA
BRANCH  23  26
ATOM     26  C   UNL A   1      34.259  31.446  27.625  1.00  0.00     0.039 A 
ATOM     27  C   UNL A   1      35.225  32.431  27.831  1.00  0.00     0.014 A 
ATOM     28  C   UNL A   1      34.487  30.129  28.031  1.00  0.00     0.014 A 
ATOM     29  C   UNL A   1      36.396  32.101  28.513  1.00  0.00     0.010 A 
ATOM     30  C   UNL A   1      35.588  29.837  28.817  1.00  0.00     0.010 A 
ATOM     31  C   UNL A   1      36.564  30.814  29.050  1.00  0.00    -0.014 A 
BRANCH  31  32
ATOM     32  C   UNL A   1      37.767  30.447  29.832  1.00  0.00     0.031 A 
ATOM     33  C   UNL A   1      38.793  29.530  29.220  1.00  0.00     0.074 A 
ATOM     34  C   UNL A   1      37.894  30.876  31.103  1.00  0.00     0.049 A 
ATOM     35  N   UNL A   1      39.862  29.008  29.760  1.00  0.00    -0.248 NA
ATOM     36  C   UNL A   1      38.559  29.112  27.828  1.00  0.00     0.031 C 
ATOM     37  C   UNL A   1      36.931  31.727  31.808  1.00  0.00     0.029 A 
ATOM     38  N   UNL A   1      38.876  30.650  32.031  1.00  0.00    -0.354 N 
ATOM     39  C   UNL A   1      40.416  28.190  28.781  1.00  0.00     0.074 A 
ATOM     40  C   UNL A   1      39.523  28.223  27.647  1.00  0.00     0.031 C 
ATOM     41  C   UNL A   1      37.392  31.981  33.043  1.00  0.00     0.029 A 
ATOM     42  C   UNL A   1      38.648  31.267  33.239  1.00  0.00     0.049 A 
ATOM     43  H   UNL A   1      39.672  30.099  31.850  1.00  0.00     0.167 HD
ATOM     44  C   UNL A   1      41.582  27.502  28.817  1.00  0.00     0.034 A 
ATOM     45  C   UNL A   1      39.365  31.244  34.381  1.00  0.00     0.034 A 
ATOM     46  C   UNL A   1      42.464  27.500  29.956  1.00  0.00     0.049 A 
ATOM     47  C   UNL A   1      40.645  30.445  34.406  1.00  0.00     0.074 A 
ATOM     48  C   UNL A   1      43.697  26.889  30.090  1.00  0.00     0.029 A 
ATOM     49  N   UNL A   1      42.200  28.134  31.165  1.00  0.00    -0.354 N 
ATOM     50  N   UNL A   1      41.189  29.725  33.450  1.00  0.00    -0.248 NA
ATOM     51  C   UNL A   1      41.411  30.464  35.656  1.00  0.00     0.031 C 
ATOM     52  C   UNL A   1      44.141  27.084  31.402  1.00  0.00     0.029 A 
ATOM     53  C   UNL A   1      43.230  27.896  32.061  1.00  0.00     0.049 A 
ATOM     54  H   UNL A   1      41.400  28.674  31.356  1.00  0.00     0.167 HD
ATOM     55  C   UNL A   1      42.377  29.229  33.979  1.00  0.00     0.074 A 
ATOM     56  C   UNL A   1      42.478  29.753  35.327  1.00  0.00     0.031 C 
ATOM     57  C   UNL A   1      43.304  28.419  33.406  1.00  0.00     0.034 A 
BRANCH  44  58
ATOM     58  C   UNL A   1      41.946  26.683  27.601  1.00  0.00     0.023 A 
ATOM     59  C   UNL A   1      41.575  25.331  27.479  1.00  0.00     0.031 A 
ATOM     60  C   UNL A   1      42.702  27.251  26.560  1.00  0.00     0.131 A 
ATOM     61  C   UNL A   1      42.026  24.575  26.387  1.00  0.00     0.055 A 
ATOM     62  C   UNL A   1      43.070  26.517  25.431  1.00  0.00     0.041 A 
ATOM     63  F   UNL A   1      43.110  28.528  26.630  1.00  0.00    -0.206 F 
ATOM     64  C   UNL A   1      42.745  25.166  25.346  1.00  0.00     0.022 A 
BRANCH  61  65
ATOM     65  S   UNL A   1      41.791  22.777  26.423  1.00  0.00     0.124 S 
ATOM     66  O   UNL A   1      40.333  22.671  26.426  1.00  0.00    -0.237 OA
ATOM     67  O   UNL A   1      42.460  22.345  25.202  1.00  0.00    -0.237 OA
ATOM     68  O   UNL A   1      42.439  22.372  27.669  1.00  0.00    -0.744 OA
ENDBRANCH  61  65
ENDBRANCH  44  58
BRANCH  45  69
ATOM     69  C   UNL A   1      38.895  31.980  35.589  1.00  0.00     0.023 A 
ATOM     70  C   UNL A   1      38.314  31.300  36.671  1.00  0.00     0.031 A 
ATOM     71  C   UNL A   1      38.978  33.383  35.664  1.00  0.00     0.131 A 
ATOM     72  C   UNL A   1      37.790  32.023  37.754  1.00  0.00     0.055 A 
ATOM     73  C   UNL A   1      38.510  34.093  36.771  1.00  0.00     0.041 A 
ATOM     74  F   UNL A   1      39.526  34.086  34.660  1.00  0.00    -0.206 F 
ATOM     75  C   UNL A   1      37.898  33.414  37.819  1.00  0.00     0.022 A 
BRANCH  72  76
ATOM     76  S   UNL A   1      36.868  31.124  39.033  1.00  0.00     0.124 S 
ATOM     77  O   UNL A   1      35.669  31.942  39.164  1.00  0.00    -0.237 OA
ATOM     78  O   UNL A   1      36.689  29.816  38.411  1.00  0.00    -0.237 OA
ATOM     79  O   UNL A   1      37.771  31.147  40.182  1.00  0.00    -0.744 OA
ENDBRANCH  72  76
ENDBRANCH  45  69
BRANCH  57  80
ATOM     80  C   UNL A   1      44.526  28.088  34.226  1.00  0.00     0.023 A 
ATOM     81  C   UNL A   1      45.668  28.908  34.216  1.00  0.00     0.031 A 
ATOM     82  C   UNL A   1      44.549  26.932  35.026  1.00  0.00     0.131 A 
ATOM     83  C   UNL A   1      46.806  28.528  34.941  1.00  0.00     0.055 A 
ATOM     84  C   UNL A   1      45.658  26.598  35.803  1.00  0.00     0.041 A 
ATOM     85  F   UNL A   1      43.489  26.109  35.070  1.00  0.00    -0.206 F 
ATOM     86  C   UNL A   1      46.802  27.390  35.752  1.00  0.00     0.022 A 
BRANCH  83  87
ATOM     87  S   UNL A   1      48.332  29.483  34.725  1.00  0.00     0.124 S 
ATOM     88  O   UNL A   1      48.695  29.789  36.105  1.00  0.00    -0.237 OA
ATOM     89  O   UNL A   1      49.199  28.535  34.033  1.00  0.00    -0.237 OA
ATOM     90  O   UNL A   1      47.908  30.631  33.925  1.00  0.00    -0.744 OA
ENDBRANCH  83  87
ENDBRANCH  57  80
ENDBRANCH  31  32
ENDBRANCH  23  26
ENDBRANCH  21  22
ENDBRANCH   1  21
TORSDOF 16
ENDMDL
MODEL 3
REMARK VINA RESULT:     -11.4      5.111     10.087
REMARK SMILES C[C@H]1CN([C@@H](C(=O)NCCCCNC(=O)c2ccc(-c3c4nc(c(-c5cc(S(=O)(=O)[O-])ccc5F)c5ccc([nH]5)c(-c5cc(S(=O)(=O)[O-])ccc5F)c5nc(c(-c6cc(S(=O)(=O)[O-])ccc6F)c6ccc3[nH]6)C=C5)C=C4)cc2)C(C)(C)C)S(=O)(=O)C1
REMARK SMILES IDX 11 1 10 2 9 3 8 4 6 5 7 6 5 8 4 9 1 10 2 11 3 12 86 13 83 14
REMARK SMILES IDX 84 15 85 16 79 17 80 18 81 19 82 20 12 21 13 22 14 23 15 25
REMARK SMILES IDX 16 26 17 27 78 28 18 29 77 30 19 31 20 32 21 33 71 34 22 35
REMARK SMILES IDX 76 36 70 37 72 38 23 39 75 40 69 41 68 42 24 44 56 45 36 46
REMARK SMILES IDX 55 47 37 48 40 49 54 50 73 51 38 52 39 53 53 55 74 56 41 57
REMARK SMILES IDX 25 58 26 59 34 60 27 61 33 62 35 63 32 64 28 65 29 66 30 67
REMARK SMILES IDX 31 68 57 69 58 70 66 71 59 72 65 73 67 74 64 75 60 76 61 77
REMARK SMILES IDX 62 78 63 79 42 80 43 81 51 82 44 83 50 84 52 85 49 86 45 87
REMARK SMILES IDX 46 88 47 89 48 90
REMARK H PARENT 8 7 13 24 72 43 40 54
REMARK Flexibility Score: inf
ROOT
ATOM      1  C   UNL A   1      31.411  29.323  26.389  1.00  0.00     0.023 C 
ENDROOT
BRANCH   1   2
ATOM      2  C   UNL A   1      31.744  28.241  27.407  1.00  0.00     0.023 C 
BRANCH   2   3
ATOM      3  C   UNL A   1      32.367  26.956  26.842  1.00  0.00     0.116 C 
BRANCH   3   4
ATOM      4  N   UNL A   1      31.533  25.773  27.007  1.00  0.00    -0.355 N 
ATOM      5  C   UNL A   1      31.671  24.453  26.661  1.00  0.00     0.238 C 
ATOM      6  O   UNL A   1      30.763  23.713  27.046  1.00  0.00    -0.273 OA
ATOM      7  H   UNL A   1      30.685  25.963  27.470  1.00  0.00     0.163 HD
BRANCH   5   8
ATOM      8  C   UNL A   1      32.894  23.933  25.870  1.00  0.00     0.167 C 
BRANCH   8   9
ATOM      9  N   UNL A   1      32.753  23.969  24.373  1.00  0.00    -0.189 NA
ATOM     10  C   UNL A   1      33.377  26.923  23.441  1.00  0.00     0.010 C 
ATOM     11  C   UNL A   1      33.532  25.575  22.717  1.00  0.00     0.017 C 
ATOM     12  C   UNL A   1      33.932  24.355  23.579  1.00  0.00     0.107 C 
ATOM     13  C   UNL A   1      32.189  25.143  22.146  1.00  0.00     0.159 C 
ATOM     14  S   UNL A   1      31.341  24.413  23.542  1.00  0.00     0.215 S 
ATOM     15  O   UNL A   1      30.690  23.210  23.083  1.00  0.00    -0.212 OA
ATOM     16  O   UNL A   1      30.655  25.462  24.256  1.00  0.00    -0.212 OA
ENDBRANCH   8   9
BRANCH   8  17
ATOM     17  C   UNL A   1      33.472  22.563  26.420  1.00  0.00    -0.013 C 
ATOM     18  C   UNL A   1      32.873  21.392  25.607  1.00  0.00     0.013 C 
ATOM     19  C   UNL A   1      35.008  22.512  26.208  1.00  0.00     0.013 C 
ATOM     20  C   UNL A   1      33.234  22.279  27.916  1.00  0.00     0.013 C 
ENDBRANCH   8  17
ENDBRANCH   5   8
ENDBRANCH   3   4
ENDBRANCH   2   3
ENDBRANCH   1   2
BRANCH   1  21
ATOM     21  C   UNL A   1      32.593  30.206  26.059  1.00  0.00     0.116 C 
BRANCH  21  22
ATOM     22  N   UNL A   1      32.315  31.605  26.366  1.00  0.00    -0.352 N 
ATOM     23  C   UNL A   1      32.946  32.439  27.256  1.00  0.00     0.251 C 
ATOM     24  H   UNL A   1      31.571  32.009  25.863  1.00  0.00     0.163 HD
ATOM     25  O   UNL A   1      32.425  33.501  27.578  1.00  0.00    -0.269 OA
BRANCH  23  26
ATOM     26  C   UNL A   1      34.241  32.021  27.825  1.00  0.00     0.039 A 
ATOM     27  C   UNL A   1      35.258  32.961  27.993  1.00  0.00     0.014 A 
ATOM     28  C   UNL A   1      34.416  30.699  28.242  1.00  0.00     0.014 A 
ATOM     29  C   UNL A   1      36.429  32.583  28.649  1.00  0.00     0.010 A 
ATOM     30  C   UNL A   1      35.522  30.363  29.003  1.00  0.00     0.010 A 
ATOM     31  C   UNL A   1      36.550  31.295  29.198  1.00  0.00    -0.014 A 
BRANCH  31  32
ATOM     32  C   UNL A   1      37.754  30.879  29.954  1.00  0.00     0.031 A 
ATOM     33  C   UNL A   1      38.701  29.883  29.340  1.00  0.00     0.074 A 
ATOM     34  C   UNL A   1      37.949  31.339  31.206  1.00  0.00     0.049 A 
ATOM     35  N   UNL A   1      39.755  29.313  29.864  1.00  0.00    -0.248 NA
ATOM     36  C   UNL A   1      38.397  29.436  27.971  1.00  0.00     0.031 C 
ATOM     37  C   UNL A   1      37.064  32.269  31.912  1.00  0.00     0.029 A 
ATOM     38  N   UNL A   1      38.947  31.083  32.109  1.00  0.00    -0.354 N 
ATOM     39  C   UNL A   1      40.226  28.433  28.896  1.00  0.00     0.074 A 
ATOM     40  C   UNL A   1      39.298  28.485  27.789  1.00  0.00     0.031 C 
ATOM     41  C   UNL A   1      37.580  32.533  33.122  1.00  0.00     0.029 A 
ATOM     42  C   UNL A   1      38.796  31.750  33.303  1.00  0.00     0.049 A 
ATOM     43  H   UNL A   1      39.701  30.479  31.922  1.00  0.00     0.167 HD
ATOM     44  C   UNL A   1      41.349  27.675  28.918  1.00  0.00     0.034 A 
ATOM     45  C   UNL A   1      39.549  31.719  34.421  1.00  0.00     0.034 A 
ATOM     46  C   UNL A   1      42.266  27.655  30.028  1.00  0.00     0.049 A 
ATOM     47  C   UNL A   1      40.778  30.845  34.432  1.00  0.00     0.074 A 
ATOM     48  C   UNL A   1      43.464  26.974  30.143  1.00  0.00     0.029 A 
ATOM     49  N   UNL A   1      42.082  28.342  31.222  1.00  0.00    -0.354 N 
ATOM     50  N   UNL A   1      41.245  30.063  33.485  1.00  0.00    -0.248 NA
ATOM     51  C   UNL A   1      41.585  30.855  35.657  1.00  0.00     0.031 C 
ATOM     52  C   UNL A   1      43.962  27.182  31.434  1.00  0.00     0.029 A 
ATOM     53  C   UNL A   1      43.124  28.069  32.093  1.00  0.00     0.049 A 
ATOM     54  H   UNL A   1      41.322  28.936  31.421  1.00  0.00     0.167 HD
ATOM     55  C   UNL A   1      42.419  29.512  33.992  1.00  0.00     0.074 A 
ATOM     56  C   UNL A   1      42.596  30.070  35.318  1.00  0.00     0.031 C 
ATOM     57  C   UNL A   1      43.275  28.628  33.417  1.00  0.00     0.034 A 
BRANCH  44  58
ATOM     58  C   UNL A   1      41.622  26.798  27.719  1.00  0.00     0.023 A 
ATOM     59  C   UNL A   1      41.258  25.439  27.696  1.00  0.00     0.031 A 
ATOM     60  C   UNL A   1      42.282  27.318  26.592  1.00  0.00     0.131 A 
ATOM     61  C   UNL A   1      41.626  24.631  26.610  1.00  0.00     0.055 A 
ATOM     62  C   UNL A   1      42.566  26.529  25.475  1.00  0.00     0.041 A 
ATOM     63  F   UNL A   1      42.680  28.600  26.564  1.00  0.00    -0.206 F 
ATOM     64  C   UNL A   1      42.251  25.174  25.486  1.00  0.00     0.022 A 
BRANCH  61  65
ATOM     65  S   UNL A   1      41.417  22.836  26.757  1.00  0.00     0.124 S 
ATOM     66  O   UNL A   1      41.718  22.619  28.171  1.00  0.00    -0.237 OA
ATOM     67  O   UNL A   1      40.026  22.646  26.364  1.00  0.00    -0.237 OA
ATOM     68  O   UNL A   1      42.408  22.298  25.828  1.00  0.00    -0.744 OA
ENDBRANCH  61  65
ENDBRANCH  44  58
BRANCH  45  69
ATOM     69  C   UNL A   1      39.165  32.520  35.619  1.00  0.00     0.023 A 
ATOM     70  C   UNL A   1      39.602  33.845  35.773  1.00  0.00     0.031 A 
ATOM     71  C   UNL A   1      38.389  31.960  36.650  1.00  0.00     0.131 A 
ATOM     72  C   UNL A   1      39.310  34.547  36.954  1.00  0.00     0.055 A 
ATOM     73  C   UNL A   1      38.049  32.683  37.795  1.00  0.00     0.041 A 
ATOM     74  F   UNL A   1      37.941  30.698  36.555  1.00  0.00    -0.206 F 
ATOM     75  C   UNL A   1      38.524  33.980  37.959  1.00  0.00     0.022 A 
BRANCH  72  76
ATOM     76  S   UNL A   1      40.064  36.178  37.202  1.00  0.00     0.124 S 
ATOM     77  O   UNL A   1      39.874  36.795  35.895  1.00  0.00    -0.237 OA
ATOM     78  O   UNL A   1      39.257  36.720  38.291  1.00  0.00    -0.237 OA
ATOM     79  O   UNL A   1      41.448  35.864  37.552  1.00  0.00    -0.744 OA
ENDBRANCH  72  76
ENDBRANCH  45  69
BRANCH  57  80
ATOM     80  C   UNL A   1      44.502  28.249  34.209  1.00  0.00     0.023 A 
ATOM     81  C   UNL A   1      44.516  27.130  35.059  1.00  0.00     0.031 A 
ATOM     82  C   UNL A   1      45.672  29.023  34.113  1.00  0.00     0.131 A 
ATOM     83  C   UNL A   1      45.656  26.853  35.828  1.00  0.00     0.055 A 
ATOM     84  C   UNL A   1      46.827  28.699  34.824  1.00  0.00     0.041 A 
ATOM     85  F   UNL A   1      45.714  30.105  33.320  1.00  0.00    -0.206 F 
ATOM     86  C   UNL A   1      46.819  27.617  35.699  1.00  0.00     0.022 A 
BRANCH  83  87
ATOM     87  S   UNL A   1      45.563  25.544  37.079  1.00  0.00     0.124 S 
ATOM     88  O   UNL A   1      44.799  24.514  36.382  1.00  0.00    -0.237 OA
ATOM     89  O   UNL A   1      46.970  25.241  37.320  1.00  0.00    -0.237 OA
ATOM     90  O   UNL A   1      44.868  26.185  38.194  1.00  0.00    -0.744 OA
ENDBRANCH  83  87
ENDBRANCH  57  80
ENDBRANCH  31  32
ENDBRANCH  23  26
ENDBRANCH  21  22
ENDBRANCH   1  21
TORSDOF 16
ENDMDL
