MODEL 1
REMARK VINA RESULT:     -12.0      0.000      0.000
REMARK SMILES C[C@@H](NC(=O)c1cc(C(=O)NCCCCNC(=O)c2ccc(-c3c4nc(c(-c5cc(S(=O)(=O)[O-])ccc5F)c5ccc([nH]5)c(-c5cc(S(=O)(=O)[O-])ccc5F)c5nc(c(-c6cc(S(=O)(=O)[O-])ccc6F)c6ccc3[nH]6)C=C5)C=C4)cc2)n(C)n1)c1ccccc1
REMARK SMILES IDX 13 1 12 2 11 3 9 4 10 5 8 7 6 8 7 9 84 10 82 11 83 12 4 13
REMARK SMILES IDX 3 14 5 16 2 17 1 18 85 19 86 20 90 21 87 22 89 23 88 24
REMARK SMILES IDX 14 25 15 26 16 27 17 28 18 30 19 31 20 32 81 33 21 34 80 35
REMARK SMILES IDX 22 36 23 37 24 38 74 39 25 40 79 41 73 42 75 43 26 44 78 45
REMARK SMILES IDX 72 46 71 47 27 49 59 50 39 51 58 52 40 53 43 54 57 55 76 56
REMARK SMILES IDX 41 57 42 58 56 60 77 61 44 62 28 63 29 64 37 65 30 66 36 67
REMARK SMILES IDX 38 68 35 69 31 70 32 71 33 72 34 73 60 74 61 75 69 76 62 77
REMARK SMILES IDX 68 78 70 79 67 80 63 81 64 82 65 83 66 84 45 85 46 86 54 87
REMARK SMILES IDX 47 88 53 89 55 90 52 91 48 92 49 93 50 94 51 95
REMARK H PARENT 11 6 3 15 16 29 75 48 43 59
REMARK Flexibility Score: inf
ROOT
ATOM      1  C   UNL A   1      37.388  21.849  24.484  1.00  0.00     0.023 C 
ENDROOT
BRANCH   1   2
ATOM      2  C   UNL A   1      37.240  23.109  25.338  1.00  0.00     0.116 C 
BRANCH   2   3
ATOM      3  N   UNL A   1      36.171  22.984  26.296  1.00  0.00    -0.351 N 
ATOM      4  C   UNL A   1      34.808  23.028  26.252  1.00  0.00     0.269 C 
ATOM      5  O   UNL A   1      34.293  22.707  27.332  1.00  0.00    -0.268 OA
ATOM      6  H   UNL A   1      36.507  22.830  27.209  1.00  0.00     0.163 HD
BRANCH   4   7
ATOM      7  C   UNL A   1      33.959  23.400  25.130  1.00  0.00     0.126 A 
ATOM      8  C   UNL A   1      33.221  24.735  23.465  1.00  0.00     0.151 A 
ATOM      9  C   UNL A   1      33.892  24.730  24.697  1.00  0.00     0.069 A 
ATOM     10  N   UNL A   1      32.686  23.534  23.234  1.00  0.00    -0.167 NA
ATOM     11  N   UNL A   1      33.194  22.735  24.196  1.00  0.00    -0.262 N 
ATOM     12  C   UNL A   1      32.933  21.338  23.970  1.00  0.00     0.174 C 
BRANCH   8  13
ATOM     13  C   UNL A   1      33.083  25.800  22.483  1.00  0.00     0.272 C 
ATOM     14  N   UNL A   1      32.385  26.938  22.817  1.00  0.00    -0.344 N 
ATOM     15  H   UNL A   1      32.711  27.746  22.362  1.00  0.00     0.164 HD
ATOM     16  O   UNL A   1      33.659  25.777  21.393  1.00  0.00    -0.267 OA
BRANCH  14  17
ATOM     17  C   UNL A   1      31.256  27.186  23.715  1.00  0.00     0.109 C 
ATOM     18  C   UNL A   1      30.129  27.852  22.913  1.00  0.00     0.036 C 
BRANCH  17  19
ATOM     19  C   UNL A   1      31.484  27.981  24.983  1.00  0.00    -0.026 A 
ATOM     20  C   UNL A   1      31.757  27.376  26.217  1.00  0.00     0.006 A 
ATOM     21  C   UNL A   1      31.486  29.388  24.915  1.00  0.00     0.006 A 
ATOM     22  C   UNL A   1      32.003  28.156  27.353  1.00  0.00     0.000 A 
ATOM     23  C   UNL A   1      31.726  30.163  26.050  1.00  0.00     0.000 A 
ATOM     24  C   UNL A   1      31.985  29.547  27.269  1.00  0.00     0.000 A 
ENDBRANCH  17  19
ENDBRANCH  14  17
ENDBRANCH   8  13
ENDBRANCH   4   7
ENDBRANCH   2   3
ENDBRANCH   1   2
BRANCH   1  25
ATOM     25  C   UNL A   1      37.941  20.619  25.206  1.00  0.00     0.023 C 
BRANCH  25  26
ATOM     26  C   UNL A   1      39.266  20.827  25.930  1.00  0.00     0.116 C 
BRANCH  26  27
ATOM     27  N   UNL A   1      40.128  19.657  25.928  1.00  0.00    -0.352 N 
ATOM     28  C   UNL A   1      41.493  19.603  26.106  1.00  0.00     0.251 C 
ATOM     29  H   UNL A   1      39.679  18.792  25.782  1.00  0.00     0.163 HD
ATOM     30  O   UNL A   1      42.081  18.539  25.990  1.00  0.00    -0.269 OA
BRANCH  28  31
ATOM     31  C   UNL A   1      42.232  20.856  26.375  1.00  0.00     0.039 A 
ATOM     32  C   UNL A   1      42.577  21.674  25.297  1.00  0.00     0.014 A 
ATOM     33  C   UNL A   1      42.533  21.245  27.681  1.00  0.00     0.014 A 
ATOM     34  C   UNL A   1      43.154  22.923  25.536  1.00  0.00     0.010 A 
ATOM     35  C   UNL A   1      43.040  22.518  27.922  1.00  0.00     0.010 A 
ATOM     36  C   UNL A   1      43.351  23.370  26.852  1.00  0.00    -0.014 A 
BRANCH  36  37
ATOM     37  C   UNL A   1      43.878  24.729  27.134  1.00  0.00     0.031 A 
ATOM     38  C   UNL A   1      42.959  25.795  27.662  1.00  0.00     0.074 A 
ATOM     39  C   UNL A   1      45.159  25.020  26.836  1.00  0.00     0.049 A 
ATOM     40  N   UNL A   1      43.200  27.061  27.886  1.00  0.00    -0.248 NA
ATOM     41  C   UNL A   1      41.575  25.386  27.940  1.00  0.00     0.031 C 
ATOM     42  C   UNL A   1      46.130  24.082  26.270  1.00  0.00     0.029 A 
ATOM     43  N   UNL A   1      45.861  26.192  26.956  1.00  0.00    -0.354 N 
ATOM     44  C   UNL A   1      41.995  27.605  28.313  1.00  0.00     0.074 A 
ATOM     45  C   UNL A   1      41.012  26.543  28.253  1.00  0.00     0.031 C 
ATOM     46  C   UNL A   1      47.307  24.708  26.113  1.00  0.00     0.029 A 
ATOM     47  C   UNL A   1      47.166  26.100  26.527  1.00  0.00     0.049 A 
ATOM     48  H   UNL A   1      45.470  27.021  27.314  1.00  0.00     0.167 HD
ATOM     49  C   UNL A   1      41.736  28.867  28.741  1.00  0.00     0.034 A 
ATOM     50  C   UNL A   1      48.134  27.035  26.470  1.00  0.00     0.034 A 
ATOM     51  C   UNL A   1      42.733  29.907  28.807  1.00  0.00     0.049 A 
ATOM     52  C   UNL A   1      47.826  28.431  26.944  1.00  0.00     0.074 A 
ATOM     53  C   UNL A   1      42.602  31.202  29.280  1.00  0.00     0.029 A 
ATOM     54  N   UNL A   1      44.049  29.775  28.378  1.00  0.00    -0.354 N 
ATOM     55  N   UNL A   1      46.695  28.918  27.397  1.00  0.00    -0.248 NA
ATOM     56  C   UNL A   1      48.931  29.398  26.909  1.00  0.00     0.031 C 
ATOM     57  C   UNL A   1      43.818  31.867  29.085  1.00  0.00     0.029 A 
ATOM     58  C   UNL A   1      44.731  30.970  28.551  1.00  0.00     0.049 A 
ATOM     59  H   UNL A   1      44.440  28.952  28.007  1.00  0.00     0.167 HD
ATOM     60  C   UNL A   1      46.959  30.244  27.726  1.00  0.00     0.074 A 
ATOM     61  C   UNL A   1      48.359  30.475  27.429  1.00  0.00     0.031 C 
ATOM     62  C   UNL A   1      46.123  31.187  28.233  1.00  0.00     0.034 A 
BRANCH  49  63
ATOM     63  C   UNL A   1      40.314  29.179  29.142  1.00  0.00     0.023 A 
ATOM     64  C   UNL A   1      39.912  29.176  30.490  1.00  0.00     0.031 A 
ATOM     65  C   UNL A   1      39.333  29.426  28.166  1.00  0.00     0.131 A 
ATOM     66  C   UNL A   1      38.556  29.316  30.818  1.00  0.00     0.055 A 
ATOM     67  C   UNL A   1      37.997  29.655  28.506  1.00  0.00     0.041 A 
ATOM     68  F   UNL A   1      39.650  29.423  26.862  1.00  0.00    -0.206 F 
ATOM     69  C   UNL A   1      37.598  29.580  29.837  1.00  0.00     0.022 A 
BRANCH  66  70
ATOM     70  S   UNL A   1      38.042  28.976  32.524  1.00  0.00     0.124 S 
ATOM     71  O   UNL A   1      38.920  29.869  33.278  1.00  0.00    -0.237 OA
ATOM     72  O   UNL A   1      36.629  29.334  32.506  1.00  0.00    -0.237 OA
ATOM     73  O   UNL A   1      38.325  27.552  32.690  1.00  0.00    -0.744 OA
ENDBRANCH  66  70
ENDBRANCH  49  63
BRANCH  50  74
ATOM     74  C   UNL A   1      49.484  26.685  25.947  1.00  0.00     0.023 A 
ATOM     75  C   UNL A   1      49.891  27.099  24.670  1.00  0.00     0.031 A 
ATOM     76  C   UNL A   1      50.378  25.914  26.710  1.00  0.00     0.131 A 
ATOM     77  C   UNL A   1      51.145  26.709  24.175  1.00  0.00     0.055 A 
ATOM     78  C   UNL A   1      51.641  25.563  26.231  1.00  0.00     0.041 A 
ATOM     79  F   UNL A   1      50.040  25.504  27.943  1.00  0.00    -0.206 F 
ATOM     80  C   UNL A   1      52.026  25.952  24.951  1.00  0.00     0.022 A 
BRANCH  77  81
ATOM     81  S   UNL A   1      51.586  27.158  22.475  1.00  0.00     0.124 S 
ATOM     82  O   UNL A   1      52.088  28.516  22.646  1.00  0.00    -0.237 OA
ATOM     83  O   UNL A   1      52.580  26.142  22.142  1.00  0.00    -0.237 OA
ATOM     84  O   UNL A   1      50.320  27.045  21.755  1.00  0.00    -0.744 OA
ENDBRANCH  77  81
ENDBRANCH  50  74
BRANCH  62  85
ATOM     85  C   UNL A   1      46.722  32.537  28.531  1.00  0.00     0.023 A 
ATOM     86  C   UNL A   1      46.735  33.566  27.574  1.00  0.00     0.031 A 
ATOM     87  C   UNL A   1      47.301  32.791  29.787  1.00  0.00     0.131 A 
ATOM     88  C   UNL A   1      47.363  34.786  27.871  1.00  0.00     0.055 A 
ATOM     89  C   UNL A   1      47.876  34.023  30.095  1.00  0.00     0.041 A 
ATOM     90  F   UNL A   1      47.317  31.840  30.736  1.00  0.00    -0.206 F 
ATOM     91  C   UNL A   1      47.920  35.026  29.130  1.00  0.00     0.022 A 
BRANCH  88  92
ATOM     92  S   UNL A   1      47.517  36.028  26.557  1.00  0.00     0.124 S 
ATOM     93  O   UNL A   1      47.112  35.272  25.376  1.00  0.00    -0.237 OA
ATOM     94  O   UNL A   1      46.592  37.065  26.998  1.00  0.00    -0.237 OA
ATOM     95  O   UNL A   1      48.930  36.398  26.600  1.00  0.00    -0.744 OA
ENDBRANCH  88  92
ENDBRANCH  62  85
ENDBRANCH  36  37
ENDBRANCH  28  31
ENDBRANCH  26  27
ENDBRANCH  25  26
ENDBRANCH   1  25
TORSDOF 17
ENDMDL
MODEL 2
REMARK VINA RESULT:     -12.0      5.502      8.568
REMARK SMILES C[C@@H](NC(=O)c1cc(C(=O)NCCCCNC(=O)c2ccc(-c3c4nc(c(-c5cc(S(=O)(=O)[O-])ccc5F)c5ccc([nH]5)c(-c5cc(S(=O)(=O)[O-])ccc5F)c5nc(c(-c6cc(S(=O)(=O)[O-])ccc6F)c6ccc3[nH]6)C=C5)C=C4)cc2)n(C)n1)c1ccccc1
REMARK SMILES IDX 13 1 12 2 11 3 9 4 10 5 8 7 6 8 7 9 84 10 82 11 83 12 4 13
REMARK SMILES IDX 3 14 5 16 2 17 1 18 85 19 86 20 90 21 87 22 89 23 88 24
REMARK SMILES IDX 14 25 15 26 16 27 17 28 18 30 19 31 20 32 81 33 21 34 80 35
REMARK SMILES IDX 22 36 23 37 24 38 74 39 25 40 79 41 73 42 75 43 26 44 78 45
REMARK SMILES IDX 72 46 71 47 27 49 59 50 39 51 58 52 40 53 43 54 57 55 76 56
REMARK SMILES IDX 41 57 42 58 56 60 77 61 44 62 28 63 29 64 37 65 30 66 36 67
REMARK SMILES IDX 38 68 35 69 31 70 32 71 33 72 34 73 60 74 61 75 69 76 62 77
REMARK SMILES IDX 68 78 70 79 67 80 63 81 64 82 65 83 66 84 45 85 46 86 54 87
REMARK SMILES IDX 47 88 53 89 55 90 52 91 48 92 49 93 50 94 51 95
REMARK H PARENT 11 6 3 15 16 29 75 48 43 59
REMARK Flexibility Score: inf
ROOT
ATOM      1  C   UNL A   1      33.999  28.317  24.232  1.00  0.00     0.023 C 
ENDROOT
BRANCH   1   2
ATOM      2  C   UNL A   1      33.678  28.632  22.769  1.00  0.00     0.116 C 
BRANCH   2   3
ATOM      3  N   UNL A   1      33.664  27.444  21.956  1.00  0.00    -0.351 N 
ATOM      4  C   UNL A   1      33.054  26.224  22.016  1.00  0.00     0.269 C 
ATOM      5  O   UNL A   1      33.225  25.562  20.983  1.00  0.00    -0.268 OA
ATOM      6  H   UNL A   1      34.236  27.532  21.159  1.00  0.00     0.163 HD
BRANCH   4   7
ATOM      7  C   UNL A   1      32.278  25.664  23.112  1.00  0.00     0.126 A 
ATOM      8  C   UNL A   1      31.963  24.511  25.029  1.00  0.00     0.151 A 
ATOM      9  C   UNL A   1      32.816  24.657  23.924  1.00  0.00     0.069 A 
ATOM     10  N   UNL A   1      30.838  25.201  24.829  1.00  0.00    -0.167 NA
ATOM     11  N   UNL A   1      31.071  25.936  23.721  1.00  0.00    -0.262 N 
ATOM     12  C   UNL A   1      30.067  26.938  23.481  1.00  0.00     0.174 C 
BRANCH   8  13
ATOM     13  C   UNL A   1      32.164  23.783  26.272  1.00  0.00     0.272 C 
ATOM     14  N   UNL A   1      33.301  23.024  26.431  1.00  0.00    -0.344 N 
ATOM     15  H   UNL A   1      33.608  22.967  27.364  1.00  0.00     0.164 HD
ATOM     16  O   UNL A   1      31.412  23.902  27.241  1.00  0.00    -0.267 OA
BRANCH  14  17
ATOM     17  C   UNL A   1      34.144  22.284  25.490  1.00  0.00     0.109 C 
ATOM     18  C   UNL A   1      33.799  20.792  25.590  1.00  0.00     0.036 C 
BRANCH  17  19
ATOM     19  C   UNL A   1      35.648  22.440  25.571  1.00  0.00    -0.026 A 
ATOM     20  C   UNL A   1      36.264  23.634  25.970  1.00  0.00     0.006 A 
ATOM     21  C   UNL A   1      36.465  21.327  25.294  1.00  0.00     0.006 A 
ATOM     22  C   UNL A   1      37.658  23.717  26.069  1.00  0.00     0.000 A 
ATOM     23  C   UNL A   1      37.855  21.414  25.388  1.00  0.00     0.000 A 
ATOM     24  C   UNL A   1      38.451  22.608  25.776  1.00  0.00     0.000 A 
ENDBRANCH  17  19
ENDBRANCH  14  17
ENDBRANCH   8  13
ENDBRANCH   4   7
ENDBRANCH   2   3
ENDBRANCH   1   2
BRANCH   1  25
ATOM     25  C   UNL A   1      32.955  28.772  25.253  1.00  0.00     0.023 C 
BRANCH  25  26
ATOM     26  C   UNL A   1      33.488  29.046  26.654  1.00  0.00     0.116 C 
BRANCH  26  27
ATOM     27  N   UNL A   1      33.543  30.456  26.998  1.00  0.00    -0.352 N 
ATOM     28  C   UNL A   1      34.530  31.129  27.686  1.00  0.00     0.251 C 
ATOM     29  H   UNL A   1      32.778  31.002  26.702  1.00  0.00     0.163 HD
ATOM     30  O   UNL A   1      34.382  32.308  27.968  1.00  0.00    -0.269 OA
BRANCH  28  31
ATOM     31  C   UNL A   1      35.732  30.386  28.125  1.00  0.00     0.039 A 
ATOM     32  C   UNL A   1      36.847  30.361  27.284  1.00  0.00     0.014 A 
ATOM     33  C   UNL A   1      35.776  29.767  29.375  1.00  0.00     0.014 A 
ATOM     34  C   UNL A   1      38.036  29.783  27.733  1.00  0.00     0.010 A 
ATOM     35  C   UNL A   1      36.980  29.256  29.849  1.00  0.00     0.010 A 
ATOM     36  C   UNL A   1      38.122  29.264  29.035  1.00  0.00    -0.014 A 
BRANCH  36  37
ATOM     37  C   UNL A   1      39.399  28.725  29.567  1.00  0.00     0.031 A 
ATOM     38  C   UNL A   1      40.092  29.426  30.703  1.00  0.00     0.074 A 
ATOM     39  C   UNL A   1      39.970  27.659  28.974  1.00  0.00     0.049 A 
ATOM     40  N   UNL A   1      41.253  29.171  31.248  1.00  0.00    -0.248 NA
ATOM     41  C   UNL A   1      39.400  30.590  31.273  1.00  0.00     0.031 C 
ATOM     42  C   UNL A   1      39.416  26.929  27.831  1.00  0.00     0.029 A 
ATOM     43  N   UNL A   1      41.149  27.011  29.242  1.00  0.00    -0.354 N 
ATOM     44  C   UNL A   1      41.440  30.153  32.214  1.00  0.00     0.074 A 
ATOM     45  C   UNL A   1      40.301  31.044  32.130  1.00  0.00     0.031 C 
ATOM     46  C   UNL A   1      40.243  25.922  27.511  1.00  0.00     0.029 A 
ATOM     47  C   UNL A   1      41.403  25.956  28.396  1.00  0.00     0.049 A 
ATOM     48  H   UNL A   1      41.756  27.276  29.970  1.00  0.00     0.167 HD
ATOM     49  C   UNL A   1      42.454  30.285  33.106  1.00  0.00     0.034 A 
ATOM     50  C   UNL A   1      42.455  25.117  28.338  1.00  0.00     0.034 A 
ATOM     51  C   UNL A   1      43.573  29.379  33.183  1.00  0.00     0.049 A 
ATOM     52  C   UNL A   1      43.574  25.284  29.332  1.00  0.00     0.074 A 
ATOM     53  C   UNL A   1      44.625  29.378  34.082  1.00  0.00     0.029 A 
ATOM     54  N   UNL A   1      43.792  28.312  32.319  1.00  0.00    -0.354 N 
ATOM     55  N   UNL A   1      43.712  26.185  30.277  1.00  0.00    -0.248 NA
ATOM     56  C   UNL A   1      44.672  24.312  29.259  1.00  0.00     0.031 C 
ATOM     57  C   UNL A   1      45.507  28.349  33.728  1.00  0.00     0.029 A 
ATOM     58  C   UNL A   1      44.973  27.663  32.648  1.00  0.00     0.049 A 
ATOM     59  H   UNL A   1      43.194  28.052  31.581  1.00  0.00     0.167 HD
ATOM     60  C   UNL A   1      44.901  25.872  30.928  1.00  0.00     0.074 A 
ATOM     61  C   UNL A   1      45.434  24.693  30.275  1.00  0.00     0.031 C 
ATOM     62  C   UNL A   1      45.498  26.498  31.975  1.00  0.00     0.034 A 
BRANCH  49  63
ATOM     63  C   UNL A   1      42.396  31.469  34.042  1.00  0.00     0.023 A 
ATOM     64  C   UNL A   1      41.654  31.427  35.237  1.00  0.00     0.031 A 
ATOM     65  C   UNL A   1      43.041  32.674  33.713  1.00  0.00     0.131 A 
ATOM     66  C   UNL A   1      41.494  32.590  36.004  1.00  0.00     0.055 A 
ATOM     67  C   UNL A   1      42.951  33.805  34.530  1.00  0.00     0.041 A 
ATOM     68  F   UNL A   1      43.748  32.784  32.578  1.00  0.00    -0.206 F 
ATOM     69  C   UNL A   1      42.157  33.772  35.672  1.00  0.00     0.022 A 
BRANCH  66  70
ATOM     70  S   UNL A   1      40.269  32.577  37.342  1.00  0.00     0.124 S 
ATOM     71  O   UNL A   1      41.111  32.313  38.507  1.00  0.00    -0.237 OA
ATOM     72  O   UNL A   1      39.695  33.914  37.258  1.00  0.00    -0.237 OA
ATOM     73  O   UNL A   1      39.370  31.486  36.973  1.00  0.00    -0.744 OA
ENDBRANCH  66  70
ENDBRANCH  49  63
BRANCH  50  74
ATOM     74  C   UNL A   1      42.504  24.044  27.306  1.00  0.00     0.023 A 
ATOM     75  C   UNL A   1      41.949  22.780  27.555  1.00  0.00     0.031 A 
ATOM     76  C   UNL A   1      43.125  24.263  26.064  1.00  0.00     0.131 A 
ATOM     77  C   UNL A   1      42.058  21.767  26.589  1.00  0.00     0.055 A 
ATOM     78  C   UNL A   1      43.193  23.265  25.090  1.00  0.00     0.041 A 
ATOM     79  F   UNL A   1      43.659  25.459  25.773  1.00  0.00    -0.206 F 
ATOM     80  C   UNL A   1      42.668  22.004  25.356  1.00  0.00     0.022 A 
BRANCH  77  81
ATOM     81  S   UNL A   1      41.439  20.112  26.995  1.00  0.00     0.124 S 
ATOM     82  O   UNL A   1      40.411  20.413  27.986  1.00  0.00    -0.237 OA
ATOM     83  O   UNL A   1      40.963  19.641  25.699  1.00  0.00    -0.237 OA
ATOM     84  O   UNL A   1      42.621  19.424  27.509  1.00  0.00    -0.744 OA
ENDBRANCH  77  81
ENDBRANCH  50  74
BRANCH  62  85
ATOM     85  C   UNL A   1      46.773  25.888  32.495  1.00  0.00     0.023 A 
ATOM     86  C   UNL A   1      46.768  24.933  33.527  1.00  0.00     0.031 A 
ATOM     87  C   UNL A   1      48.013  26.279  31.960  1.00  0.00     0.131 A 
ATOM     88  C   UNL A   1      47.983  24.440  34.027  1.00  0.00     0.055 A 
ATOM     89  C   UNL A   1      49.215  25.745  32.425  1.00  0.00     0.041 A 
ATOM     90  F   UNL A   1      48.074  27.189  30.974  1.00  0.00    -0.206 F 
ATOM     91  C   UNL A   1      49.205  24.829  33.473  1.00  0.00     0.022 A 
BRANCH  88  92
ATOM     92  S   UNL A   1      47.948  23.345  35.473  1.00  0.00     0.124 S 
ATOM     93  O   UNL A   1      48.802  24.061  36.417  1.00  0.00    -0.237 OA
ATOM     94  O   UNL A   1      46.528  23.307  35.802  1.00  0.00    -0.237 OA
ATOM     95  O   UNL A   1      48.501  22.091  34.966  1.00  0.00    -0.744 OA
ENDBRANCH  88  92
ENDBRANCH  62  85
ENDBRANCH  36  37
ENDBRANCH  28  31
ENDBRANCH  26  27
ENDBRANCH  25  26
ENDBRANCH   1  25
TORSDOF 17
ENDMDL
MODEL 3
REMARK VINA RESULT:     -12.0      2.416      8.111
REMARK SMILES C[C@@H](NC(=O)c1cc(C(=O)NCCCCNC(=O)c2ccc(-c3c4nc(c(-c5cc(S(=O)(=O)[O-])ccc5F)c5ccc([nH]5)c(-c5cc(S(=O)(=O)[O-])ccc5F)c5nc(c(-c6cc(S(=O)(=O)[O-])ccc6F)c6ccc3[nH]6)C=C5)C=C4)cc2)n(C)n1)c1ccccc1
REMARK SMILES IDX 13 1 12 2 11 3 9 4 10 5 8 7 6 8 7 9 84 10 82 11 83 12 4 13
REMARK SMILES IDX 3 14 5 16 2 17 1 18 85 19 86 20 90 21 87 22 89 23 88 24
REMARK SMILES IDX 14 25 15 26 16 27 17 28 18 30 19 31 20 32 81 33 21 34 80 35
REMARK SMILES IDX 22 36 23 37 24 38 74 39 25 40 79 41 73 42 75 43 26 44 78 45
REMARK SMILES IDX 72 46 71 47 27 49 59 50 39 51 58 52 40 53 43 54 57 55 76 56
REMARK SMILES IDX 41 57 42 58 56 60 77 61 44 62 28 63 29 64 37 65 30 66 36 67
REMARK SMILES IDX 38 68 35 69 31 70 32 71 33 72 34 73 60 74 61 75 69 76 62 77
REMARK SMILES IDX 68 78 70 79 67 80 63 81 64 82 65 83 66 84 45 85 46 86 54 87
REMARK SMILES IDX 47 88 53 89 55 90 52 91 48 92 49 93 50 94 51 95
REMARK H PARENT 11 6 3 15 16 29 75 48 43 59
REMARK Flexibility Score: inf
ROOT
ATOM      1  C   UNL A   1      35.429  20.484  24.970  1.00  0.00     0.023 C 
ENDROOT
BRANCH   1   2
ATOM      2  C   UNL A   1      33.984  20.225  25.403  1.00  0.00     0.116 C 
BRANCH   2   3
ATOM      3  N   UNL A   1      33.065  20.345  24.301  1.00  0.00    -0.351 N 
ATOM      4  C   UNL A   1      32.645  21.352  23.482  1.00  0.00     0.269 C 
ATOM      5  O   UNL A   1      31.939  20.939  22.552  1.00  0.00    -0.268 OA
ATOM      6  H   UNL A   1      32.632  19.487  24.084  1.00  0.00     0.163 HD
BRANCH   4   7
ATOM      7  C   UNL A   1      32.925  22.776  23.598  1.00  0.00     0.126 A 
ATOM      8  C   UNL A   1      33.040  24.913  22.878  1.00  0.00     0.151 A 
ATOM      9  C   UNL A   1      33.035  23.576  22.453  1.00  0.00     0.069 A 
ATOM     10  N   UNL A   1      33.164  24.968  24.206  1.00  0.00    -0.167 NA
ATOM     11  N   UNL A   1      33.022  23.693  24.623  1.00  0.00    -0.262 N 
ATOM     12  C   UNL A   1      32.875  23.575  26.049  1.00  0.00     0.174 C 
BRANCH   8  13
ATOM     13  C   UNL A   1      32.904  26.138  22.103  1.00  0.00     0.272 C 
ATOM     14  N   UNL A   1      32.251  27.215  22.655  1.00  0.00    -0.344 N 
ATOM     15  H   UNL A   1      32.586  28.083  22.337  1.00  0.00     0.164 HD
ATOM     16  O   UNL A   1      33.447  26.294  21.007  1.00  0.00    -0.267 OA
BRANCH  14  17
ATOM     17  C   UNL A   1      31.155  27.328  23.620  1.00  0.00     0.109 C 
ATOM     18  C   UNL A   1      29.935  27.932  22.910  1.00  0.00     0.036 C 
BRANCH  17  19
ATOM     19  C   UNL A   1      31.388  28.083  24.912  1.00  0.00    -0.026 A 
ATOM     20  C   UNL A   1      31.527  27.440  26.149  1.00  0.00     0.006 A 
ATOM     21  C   UNL A   1      31.533  29.483  24.867  1.00  0.00     0.006 A 
ATOM     22  C   UNL A   1      31.783  28.180  27.310  1.00  0.00     0.000 A 
ATOM     23  C   UNL A   1      31.783  30.218  26.026  1.00  0.00     0.000 A 
ATOM     24  C   UNL A   1      31.907  29.566  27.247  1.00  0.00     0.000 A 
ENDBRANCH  17  19
ENDBRANCH  14  17
ENDBRANCH   8  13
ENDBRANCH   4   7
ENDBRANCH   2   3
ENDBRANCH   1   2
BRANCH   1  25
ATOM     25  C   UNL A   1      36.125  21.660  25.656  1.00  0.00     0.023 C 
BRANCH  25  26
ATOM     26  C   UNL A   1      37.561  21.917  25.214  1.00  0.00     0.116 C 
BRANCH  26  27
ATOM     27  N   UNL A   1      38.511  20.926  25.691  1.00  0.00    -0.352 N 
ATOM     28  C   UNL A   1      39.648  21.127  26.444  1.00  0.00     0.251 C 
ATOM     29  H   UNL A   1      38.317  19.992  25.447  1.00  0.00     0.163 HD
ATOM     30  O   UNL A   1      40.389  20.189  26.692  1.00  0.00    -0.269 OA
BRANCH  28  31
ATOM     31  C   UNL A   1      39.981  22.499  26.887  1.00  0.00     0.039 A 
ATOM     32  C   UNL A   1      40.973  22.666  27.856  1.00  0.00     0.014 A 
ATOM     33  C   UNL A   1      39.360  23.610  26.315  1.00  0.00     0.014 A 
ATOM     34  C   UNL A   1      41.398  23.953  28.193  1.00  0.00     0.010 A 
ATOM     35  C   UNL A   1      39.833  24.886  26.597  1.00  0.00     0.010 A 
ATOM     36  C   UNL A   1      40.860  25.070  27.534  1.00  0.00    -0.014 A 
BRANCH  36  37
ATOM     37  C   UNL A   1      41.359  26.441  27.809  1.00  0.00     0.031 A 
ATOM     38  C   UNL A   1      42.760  26.821  27.416  1.00  0.00     0.074 A 
ATOM     39  C   UNL A   1      40.580  27.309  28.481  1.00  0.00     0.049 A 
ATOM     40  N   UNL A   1      43.413  27.931  27.648  1.00  0.00    -0.248 NA
ATOM     41  C   UNL A   1      43.539  25.800  26.702  1.00  0.00     0.031 C 
ATOM     42  C   UNL A   1      39.224  27.035  28.959  1.00  0.00     0.029 A 
ATOM     43  N   UNL A   1      40.823  28.596  28.892  1.00  0.00    -0.354 N 
ATOM     44  C   UNL A   1      44.686  27.736  27.123  1.00  0.00     0.074 A 
ATOM     45  C   UNL A   1      44.728  26.377  26.622  1.00  0.00     0.031 C 
ATOM     46  C   UNL A   1      38.746  28.127  29.578  1.00  0.00     0.029 A 
ATOM     47  C   UNL A   1      39.773  29.163  29.577  1.00  0.00     0.049 A 
ATOM     48  H   UNL A   1      41.668  29.068  28.715  1.00  0.00     0.167 HD
ATOM     49  C   UNL A   1      45.715  28.616  27.043  1.00  0.00     0.034 A 
ATOM     50  C   UNL A   1      39.656  30.379  30.145  1.00  0.00     0.034 A 
ATOM     51  C   UNL A   1      45.648  29.970  27.535  1.00  0.00     0.049 A 
ATOM     52  C   UNL A   1      40.812  31.340  30.051  1.00  0.00     0.074 A 
ATOM     53  C   UNL A   1      46.604  30.968  27.454  1.00  0.00     0.029 A 
ATOM     54  N   UNL A   1      44.563  30.517  28.211  1.00  0.00    -0.354 N 
ATOM     55  N   UNL A   1      41.991  31.162  29.503  1.00  0.00    -0.248 NA
ATOM     56  C   UNL A   1      40.614  32.670  30.640  1.00  0.00     0.031 C 
ATOM     57  C   UNL A   1      46.121  32.096  28.129  1.00  0.00     0.029 A 
ATOM     58  C   UNL A   1      44.836  31.827  28.575  1.00  0.00     0.049 A 
ATOM     59  H   UNL A   1      43.722  30.043  28.403  1.00  0.00     0.167 HD
ATOM     60  C   UNL A   1      42.668  32.368  29.660  1.00  0.00     0.074 A 
ATOM     61  C   UNL A   1      41.760  33.267  30.343  1.00  0.00     0.031 C 
ATOM     62  C   UNL A   1      43.924  32.704  29.271  1.00  0.00     0.034 A 
BRANCH  49  63
ATOM     63  C   UNL A   1      46.998  28.119  26.421  1.00  0.00     0.023 A 
ATOM     64  C   UNL A   1      47.230  28.214  25.037  1.00  0.00     0.031 A 
ATOM     65  C   UNL A   1      47.978  27.489  27.208  1.00  0.00     0.131 A 
ATOM     66  C   UNL A   1      48.359  27.604  24.472  1.00  0.00     0.055 A 
ATOM     67  C   UNL A   1      49.146  26.963  26.649  1.00  0.00     0.041 A 
ATOM     68  F   UNL A   1      47.807  27.350  28.532  1.00  0.00    -0.206 F 
ATOM     69  C   UNL A   1      49.332  27.000  25.270  1.00  0.00     0.022 A 
BRANCH  66  70
ATOM     70  S   UNL A   1      48.449  27.462  22.665  1.00  0.00     0.124 S 
ATOM     71  O   UNL A   1      49.728  28.110  22.383  1.00  0.00    -0.237 OA
ATOM     72  O   UNL A   1      48.403  26.020  22.458  1.00  0.00    -0.237 OA
ATOM     73  O   UNL A   1      47.273  28.198  22.205  1.00  0.00    -0.744 OA
ENDBRANCH  66  70
ENDBRANCH  49  63
BRANCH  50  74
ATOM     74  C   UNL A   1      38.401  30.760  30.851  1.00  0.00     0.023 A 
ATOM     75  C   UNL A   1      37.375  31.439  30.179  1.00  0.00     0.031 A 
ATOM     76  C   UNL A   1      38.221  30.468  32.215  1.00  0.00     0.131 A 
ATOM     77  C   UNL A   1      36.226  31.839  30.880  1.00  0.00     0.055 A 
ATOM     78  C   UNL A   1      37.059  30.830  32.897  1.00  0.00     0.041 A 
ATOM     79  F   UNL A   1      39.169  29.809  32.899  1.00  0.00    -0.206 F 
ATOM     80  C   UNL A   1      36.057  31.531  32.231  1.00  0.00     0.022 A 
BRANCH  77  81
ATOM     81  S   UNL A   1      34.976  32.823  30.009  1.00  0.00     0.124 S 
ATOM     82  O   UNL A   1      34.519  31.886  28.988  1.00  0.00    -0.237 OA
ATOM     83  O   UNL A   1      34.028  33.122  31.077  1.00  0.00    -0.237 OA
ATOM     84  O   UNL A   1      35.732  33.970  29.511  1.00  0.00    -0.744 OA
ENDBRANCH  77  81
ENDBRANCH  50  74
BRANCH  62  85
ATOM     85  C   UNL A   1      44.364  34.119  29.545  1.00  0.00     0.023 A 
ATOM     86  C   UNL A   1      44.060  35.171  28.664  1.00  0.00     0.031 A 
ATOM     87  C   UNL A   1      45.113  34.415  30.698  1.00  0.00     0.131 A 
ATOM     88  C   UNL A   1      44.547  36.461  28.923  1.00  0.00     0.055 A 
ATOM     89  C   UNL A   1      45.549  35.710  30.978  1.00  0.00     0.041 A 
ATOM     90  F   UNL A   1      45.433  33.446  31.571  1.00  0.00    -0.206 F 
ATOM     91  C   UNL A   1      45.276  36.741  30.082  1.00  0.00     0.022 A 
BRANCH  88  92
ATOM     92  S   UNL A   1      44.285  37.757  27.680  1.00  0.00     0.124 S 
ATOM     93  O   UNL A   1      45.587  37.814  27.023  1.00  0.00    -0.237 OA
ATOM     94  O   UNL A   1      43.193  37.209  26.884  1.00  0.00    -0.237 OA
ATOM     95  O   UNL A   1      43.942  38.932  28.478  1.00  0.00    -0.744 OA
ENDBRANCH  88  92
ENDBRANCH  62  85
ENDBRANCH  36  37
ENDBRANCH  28  31
ENDBRANCH  26  27
ENDBRANCH  25  26
ENDBRANCH   1  25
TORSDOF 17
ENDMDL
