MODEL 1
REMARK VINA RESULT:     -12.3      0.000      0.000
REMARK SMILES Cc1cccc(-c2ncc(C[NH+]3CCC4(CC3)NC(=O)C[C@H]4C(=O)NCCCCNC(=O)c3ccc(-c4c5nc(c(-c6cc(S(=O)(=O)[O-])ccc6F)c6ccc([nH]6)c(-c6cc(S(=O)(=O)[O-])ccc6F)c6nc(c(-c7cc(S(=O)(=O)[O-])ccc7F)c7ccc4[nH]7)C=C6)C=C5)cc3)cn2)c1
REMARK SMILES IDX 27 1 26 2 25 3 23 4 24 5 22 7 12 8 13 9 17 10 14 12 16 13
REMARK SMILES IDX 15 14 18 15 19 16 21 18 20 19 11 20 10 21 7 22 8 23 97 24
REMARK SMILES IDX 9 25 96 26 6 27 1 28 2 29 3 30 98 31 4 32 5 33 28 34 29 35
REMARK SMILES IDX 30 36 31 37 32 39 33 40 34 41 95 42 35 43 94 44 36 45 37 46
REMARK SMILES IDX 38 47 88 48 39 49 93 50 87 51 89 52 40 53 92 54 86 55 85 56
REMARK SMILES IDX 41 58 73 59 53 60 72 61 54 62 57 63 71 64 90 65 55 66 56 67
REMARK SMILES IDX 70 69 91 70 58 71 42 72 43 73 51 74 44 75 50 76 52 77 49 78
REMARK SMILES IDX 45 79 46 80 47 81 48 82 74 83 75 84 83 85 76 86 82 87 84 88
REMARK SMILES IDX 81 89 77 90 78 91 79 92 80 93 59 94 60 95 68 96 61 97 67 98
REMARK SMILES IDX 69 99 66 100 62 101 63 102 64 103 65 104
REMARK H PARENT 25 6 12 11 18 17 30 38 89 57 57 68
REMARK Flexibility Score: inf
ROOT
ATOM      1  C   UNL A   1      34.869  31.123  27.755  1.00  0.00     0.023 C 
ENDROOT
BRANCH   1   2
ATOM      2  C   UNL A   1      34.135  30.083  26.868  1.00  0.00     0.116 C 
BRANCH   2   3
ATOM      3  N   UNL A   1      32.773  30.422  26.401  1.00  0.00    -0.356 N 
ATOM      4  C   UNL A   1      31.964  30.035  25.371  1.00  0.00     0.226 C 
ATOM      5  O   UNL A   1      30.827  30.529  25.353  1.00  0.00    -0.275 OA
ATOM      6  H   UNL A   1      32.343  31.096  26.975  1.00  0.00     0.163 HD
BRANCH   4   7
ATOM      7  C   UNL A   1      32.353  29.107  24.200  1.00  0.00     0.114 C 
ATOM      8  N   UNL A   1      33.664  25.542  25.897  1.00  0.00    -0.331 N 
ATOM      9  C   UNL A   1      33.989  25.811  24.500  1.00  0.00     0.264 C 
ATOM     10  C   UNL A   1      33.169  26.747  26.533  1.00  0.00     0.264 C 
ATOM     11  H   UNL A   1      34.562  25.281  26.302  1.00  0.00     0.348 HD
ATOM     12  C   UNL A   1      32.958  26.584  23.656  1.00  0.00     0.091 C 
ATOM     13  C   UNL A   1      31.910  27.247  25.862  1.00  0.00     0.091 C 
ATOM     14  C   UNL A   1      32.036  27.612  24.386  1.00  0.00     0.063 C 
ATOM     15  N   UNL A   1      30.778  27.531  23.659  1.00  0.00    -0.349 N 
ATOM     16  C   UNL A   1      30.633  28.495  22.689  1.00  0.00     0.221 C 
ATOM     17  H   UNL A   1      30.094  26.848  23.844  1.00  0.00     0.164 HD
ATOM     18  C   UNL A   1      31.672  29.548  22.903  1.00  0.00     0.116 C 
ATOM     19  O   UNL A   1      29.816  28.470  21.773  1.00  0.00    -0.275 OA
BRANCH   8  20
ATOM     20  C   UNL A   1      32.963  24.294  26.270  1.00  0.00     0.302 C 
BRANCH  20  21
ATOM     21  C   UNL A   1      33.257  23.044  25.490  1.00  0.00     0.043 A 
ATOM     22  C   UNL A   1      33.570  20.513  24.538  1.00  0.00     0.159 A 
ATOM     23  N   UNL A   1      32.380  21.122  24.358  1.00  0.00    -0.236 NA
ATOM     24  N   UNL A   1      34.661  21.126  25.037  1.00  0.00    -0.236 NA
ATOM     25  C   UNL A   1      32.267  22.382  24.806  1.00  0.00     0.124 A 
ATOM     26  C   UNL A   1      34.477  22.382  25.507  1.00  0.00     0.124 A 
BRANCH  22  27
ATOM     27  C   UNL A   1      33.613  19.083  24.210  1.00  0.00     0.019 A 
ATOM     28  C   UNL A   1      35.498  15.939  25.332  1.00  0.00     0.044 C 
ATOM     29  C   UNL A   1      34.463  16.826  24.697  1.00  0.00    -0.050 A 
ATOM     30  C   UNL A   1      33.544  16.301  23.790  1.00  0.00     0.003 A 
ATOM     31  C   UNL A   1      34.454  18.205  24.930  1.00  0.00     0.015 A 
ATOM     32  C   UNL A   1      32.749  17.151  23.021  1.00  0.00     0.001 A 
ATOM     33  C   UNL A   1      32.802  18.534  23.210  1.00  0.00     0.012 A 
ENDBRANCH  22  27
ENDBRANCH  20  21
ENDBRANCH   8  20
ENDBRANCH   4   7
ENDBRANCH   2   3
ENDBRANCH   1   2
BRANCH   1  34
ATOM     34  C   UNL A   1      35.596  30.614  28.997  1.00  0.00     0.023 C 
BRANCH  34  35
ATOM     35  C   UNL A   1      35.124  31.286  30.273  1.00  0.00     0.116 C 
BRANCH  35  36
ATOM     36  N   UNL A   1      34.401  32.548  30.141  1.00  0.00    -0.352 N 
ATOM     37  C   UNL A   1      34.844  33.833  30.457  1.00  0.00     0.251 C 
ATOM     38  H   UNL A   1      33.485  32.484  29.785  1.00  0.00     0.163 HD
ATOM     39  O   UNL A   1      34.087  34.799  30.496  1.00  0.00    -0.269 OA
BRANCH  37  40
ATOM     40  C   UNL A   1      36.308  34.068  30.553  1.00  0.00     0.039 A 
ATOM     41  C   UNL A   1      37.021  34.191  29.351  1.00  0.00     0.014 A 
ATOM     42  C   UNL A   1      36.971  33.759  31.728  1.00  0.00     0.014 A 
ATOM     43  C   UNL A   1      38.311  33.688  29.282  1.00  0.00     0.010 A 
ATOM     44  C   UNL A   1      38.133  33.048  31.616  1.00  0.00     0.010 A 
ATOM     45  C   UNL A   1      38.772  32.979  30.380  1.00  0.00    -0.014 A 
BRANCH  45  46
ATOM     46  C   UNL A   1      40.027  32.271  30.444  1.00  0.00     0.031 A 
ATOM     47  C   UNL A   1      39.984  30.894  29.946  1.00  0.00     0.074 A 
ATOM     48  C   UNL A   1      41.141  32.985  30.714  1.00  0.00     0.049 A 
ATOM     49  N   UNL A   1      40.853  29.991  30.197  1.00  0.00    -0.248 NA
ATOM     50  C   UNL A   1      38.861  30.395  29.146  1.00  0.00     0.031 C 
ATOM     51  C   UNL A   1      42.544  32.647  30.511  1.00  0.00     0.029 A 
ATOM     52  N   UNL A   1      41.184  34.135  31.498  1.00  0.00    -0.354 N 
ATOM     53  C   UNL A   1      40.618  28.959  29.312  1.00  0.00     0.074 A 
ATOM     54  C   UNL A   1      39.290  29.179  28.813  1.00  0.00     0.031 C 
ATOM     55  C   UNL A   1      43.288  33.360  31.381  1.00  0.00     0.029 A 
ATOM     56  C   UNL A   1      42.356  34.036  32.272  1.00  0.00     0.049 A 
ATOM     57  H   UNL A   1      40.528  34.869  31.509  1.00  0.00     0.167 HD
ATOM     58  C   UNL A   1      41.668  28.166  28.970  1.00  0.00     0.034 A 
ATOM     59  C   UNL A   1      42.239  33.799  33.619  1.00  0.00     0.034 A 
ATOM     60  C   UNL A   1      42.840  28.555  29.756  1.00  0.00     0.049 A 
ATOM     61  C   UNL A   1      42.834  32.464  34.001  1.00  0.00     0.074 A 
ATOM     62  C   UNL A   1      43.929  29.365  29.480  1.00  0.00     0.029 A 
ATOM     63  N   UNL A   1      42.785  28.420  31.135  1.00  0.00    -0.354 N 
ATOM     64  N   UNL A   1      42.922  31.444  33.189  1.00  0.00    -0.248 NA
ATOM     65  C   UNL A   1      43.424  32.198  35.307  1.00  0.00     0.031 C 
ATOM     66  C   UNL A   1      44.472  29.794  30.724  1.00  0.00     0.029 A 
ATOM     67  C   UNL A   1      43.731  29.218  31.744  1.00  0.00     0.049 A 
ATOM     68  H   UNL A   1      42.154  27.836  31.615  1.00  0.00     0.167 HD
ATOM     69  C   UNL A   1      43.583  30.420  33.812  1.00  0.00     0.074 A 
ATOM     70  C   UNL A   1      43.880  30.946  35.136  1.00  0.00     0.031 C 
ATOM     71  C   UNL A   1      43.829  29.225  33.193  1.00  0.00     0.034 A 
BRANCH  58  72
ATOM     72  C   UNL A   1      41.759  27.262  27.765  1.00  0.00     0.023 A 
ATOM     73  C   UNL A   1      41.870  25.878  28.004  1.00  0.00     0.031 A 
ATOM     74  C   UNL A   1      41.791  27.638  26.407  1.00  0.00     0.131 A 
ATOM     75  C   UNL A   1      42.056  24.956  26.962  1.00  0.00     0.055 A 
ATOM     76  C   UNL A   1      41.991  26.722  25.365  1.00  0.00     0.041 A 
ATOM     77  F   UNL A   1      41.599  28.894  26.000  1.00  0.00    -0.206 F 
ATOM     78  C   UNL A   1      42.129  25.372  25.638  1.00  0.00     0.022 A 
BRANCH  75  79
ATOM     79  S   UNL A   1      42.203  23.201  27.376  1.00  0.00     0.124 S 
ATOM     80  O   UNL A   1      42.348  23.240  28.828  1.00  0.00    -0.237 OA
ATOM     81  O   UNL A   1      40.950  22.656  26.864  1.00  0.00    -0.237 OA
ATOM     82  O   UNL A   1      43.400  22.782  26.647  1.00  0.00    -0.744 OA
ENDBRANCH  75  79
ENDBRANCH  58  72
BRANCH  59  83
ATOM     83  C   UNL A   1      40.979  34.386  34.189  1.00  0.00     0.023 A 
ATOM     84  C   UNL A   1      39.969  33.468  34.544  1.00  0.00     0.031 A 
ATOM     85  C   UNL A   1      40.948  35.651  34.794  1.00  0.00     0.131 A 
ATOM     86  C   UNL A   1      39.175  33.718  35.670  1.00  0.00     0.055 A 
ATOM     87  C   UNL A   1      40.046  35.941  35.829  1.00  0.00     0.041 A 
ATOM     88  F   UNL A   1      41.861  36.582  34.487  1.00  0.00    -0.206 F 
ATOM     89  C   UNL A   1      39.204  34.946  36.320  1.00  0.00     0.022 A 
BRANCH  86  90
ATOM     90  S   UNL A   1      38.219  32.374  36.393  1.00  0.00     0.124 S 
ATOM     91  O   UNL A   1      37.504  33.124  37.414  1.00  0.00    -0.237 OA
ATOM     92  O   UNL A   1      37.452  31.867  35.258  1.00  0.00    -0.237 OA
ATOM     93  O   UNL A   1      39.225  31.437  36.887  1.00  0.00    -0.744 OA
ENDBRANCH  86  90
ENDBRANCH  59  83
BRANCH  71  94
ATOM     94  C   UNL A   1      44.211  27.938  33.889  1.00  0.00     0.023 A 
ATOM     95  C   UNL A   1      43.265  27.020  34.353  1.00  0.00     0.031 A 
ATOM     96  C   UNL A   1      45.566  27.530  34.006  1.00  0.00     0.131 A 
ATOM     97  C   UNL A   1      43.656  25.829  34.980  1.00  0.00     0.055 A 
ATOM     98  C   UNL A   1      45.947  26.288  34.516  1.00  0.00     0.041 A 
ATOM     99  F   UNL A   1      46.583  28.312  33.618  1.00  0.00    -0.206 F 
ATOM    100  C   UNL A   1      44.989  25.434  35.032  1.00  0.00     0.022 A 
BRANCH  97 101
ATOM    101  S   UNL A   1      42.375  24.873  35.824  1.00  0.00     0.124 S 
ATOM    102  O   UNL A   1      42.554  23.551  35.231  1.00  0.00    -0.237 OA
ATOM    103  O   UNL A   1      42.763  24.994  37.225  1.00  0.00    -0.237 OA
ATOM    104  O   UNL A   1      41.137  25.557  35.456  1.00  0.00    -0.744 OA
ENDBRANCH  97 101
ENDBRANCH  71  94
ENDBRANCH  45  46
ENDBRANCH  37  40
ENDBRANCH  35  36
ENDBRANCH  34  35
ENDBRANCH   1  34
TORSDOF 17
ENDMDL
MODEL 2
REMARK VINA RESULT:     -11.7      2.487      3.150
REMARK SMILES Cc1cccc(-c2ncc(C[NH+]3CCC4(CC3)NC(=O)C[C@H]4C(=O)NCCCCNC(=O)c3ccc(-c4c5nc(c(-c6cc(S(=O)(=O)[O-])ccc6F)c6ccc([nH]6)c(-c6cc(S(=O)(=O)[O-])ccc6F)c6nc(c(-c7cc(S(=O)(=O)[O-])ccc7F)c7ccc4[nH]7)C=C6)C=C5)cc3)cn2)c1
REMARK SMILES IDX 27 1 26 2 25 3 23 4 24 5 22 7 12 8 13 9 17 10 14 12 16 13
REMARK SMILES IDX 15 14 18 15 19 16 21 18 20 19 11 20 10 21 7 22 8 23 97 24
REMARK SMILES IDX 9 25 96 26 6 27 1 28 2 29 3 30 98 31 4 32 5 33 28 34 29 35
REMARK SMILES IDX 30 36 31 37 32 39 33 40 34 41 95 42 35 43 94 44 36 45 37 46
REMARK SMILES IDX 38 47 88 48 39 49 93 50 87 51 89 52 40 53 92 54 86 55 85 56
REMARK SMILES IDX 41 58 73 59 53 60 72 61 54 62 57 63 71 64 90 65 55 66 56 67
REMARK SMILES IDX 70 69 91 70 58 71 42 72 43 73 51 74 44 75 50 76 52 77 49 78
REMARK SMILES IDX 45 79 46 80 47 81 48 82 74 83 75 84 83 85 76 86 82 87 84 88
REMARK SMILES IDX 81 89 77 90 78 91 79 92 80 93 59 94 60 95 68 96 61 97 67 98
REMARK SMILES IDX 69 99 66 100 62 101 63 102 64 103 65 104
REMARK H PARENT 25 6 12 11 18 17 30 38 89 57 57 68
REMARK Flexibility Score: inf
ROOT
ATOM      1  C   UNL A   1      35.241  30.199  27.595  1.00  0.00     0.023 C 
ENDROOT
BRANCH   1   2
ATOM      2  C   UNL A   1      34.441  29.534  26.443  1.00  0.00     0.116 C 
BRANCH   2   3
ATOM      3  N   UNL A   1      33.077  30.043  26.175  1.00  0.00    -0.356 N 
ATOM      4  C   UNL A   1      32.090  29.774  25.270  1.00  0.00     0.226 C 
ATOM      5  O   UNL A   1      31.030  30.401  25.415  1.00  0.00    -0.275 OA
ATOM      6  H   UNL A   1      32.818  30.752  26.806  1.00  0.00     0.163 HD
BRANCH   4   7
ATOM      7  C   UNL A   1      32.195  28.829  24.055  1.00  0.00     0.114 C 
ATOM      8  N   UNL A   1      33.273  25.097  25.545  1.00  0.00    -0.331 N 
ATOM      9  C   UNL A   1      33.433  25.351  24.116  1.00  0.00     0.264 C 
ATOM     10  C   UNL A   1      33.025  26.341  26.245  1.00  0.00     0.264 C 
ATOM     11  H   UNL A   1      34.179  24.720  25.820  1.00  0.00     0.348 HD
ATOM     12  C   UNL A   1      32.399  26.262  23.426  1.00  0.00     0.091 C 
ATOM     13  C   UNL A   1      31.757  27.005  25.759  1.00  0.00     0.091 C 
ATOM     14  C   UNL A   1      31.723  27.381  24.280  1.00  0.00     0.063 C 
ATOM     15  N   UNL A   1      30.376  27.469  23.735  1.00  0.00    -0.349 N 
ATOM     16  C   UNL A   1      30.220  28.463  22.798  1.00  0.00     0.221 C 
ATOM     17  H   UNL A   1      29.645  26.872  24.013  1.00  0.00     0.164 HD
ATOM     18  C   UNL A   1      31.401  29.376  22.866  1.00  0.00     0.116 C 
ATOM     19  O   UNL A   1      29.287  28.556  22.004  1.00  0.00    -0.275 OA
BRANCH   8  20
ATOM     20  C   UNL A   1      32.480  23.938  26.010  1.00  0.00     0.302 C 
BRANCH  20  21
ATOM     21  C   UNL A   1      32.777  22.584  25.428  1.00  0.00     0.043 A 
ATOM     22  C   UNL A   1      33.297  19.960  24.924  1.00  0.00     0.159 A 
ATOM     23  N   UNL A   1      32.010  20.348  25.032  1.00  0.00    -0.236 NA
ATOM     24  N   UNL A   1      34.342  20.812  24.912  1.00  0.00    -0.236 NA
ATOM     25  C   UNL A   1      31.784  21.654  25.244  1.00  0.00     0.124 A 
ATOM     26  C   UNL A   1      34.056  22.110  25.170  1.00  0.00     0.124 A 
BRANCH  22  27
ATOM     27  C   UNL A   1      33.527  18.512  24.878  1.00  0.00     0.019 A 
ATOM     28  C   UNL A   1      31.837  15.299  26.111  1.00  0.00     0.044 C 
ATOM     29  C   UNL A   1      32.738  16.229  25.345  1.00  0.00    -0.050 A 
ATOM     30  C   UNL A   1      33.797  15.724  24.594  1.00  0.00     0.003 A 
ATOM     31  C   UNL A   1      32.589  17.616  25.439  1.00  0.00     0.015 A 
ATOM     32  C   UNL A   1      34.772  16.584  24.086  1.00  0.00     0.001 A 
ATOM     33  C   UNL A   1      34.652  17.966  24.250  1.00  0.00     0.012 A 
ENDBRANCH  22  27
ENDBRANCH  20  21
ENDBRANCH   8  20
ENDBRANCH   4   7
ENDBRANCH   2   3
ENDBRANCH   1   2
BRANCH   1  34
ATOM     34  C   UNL A   1      36.370  29.395  28.234  1.00  0.00     0.023 C 
BRANCH  34  35
ATOM     35  C   UNL A   1      36.545  29.694  29.711  1.00  0.00     0.116 C 
BRANCH  35  36
ATOM     36  N   UNL A   1      35.734  30.767  30.280  1.00  0.00    -0.352 N 
ATOM     37  C   UNL A   1      35.939  31.461  31.473  1.00  0.00     0.251 C 
ATOM     38  H   UNL A   1      34.943  31.033  29.758  1.00  0.00     0.163 HD
ATOM     39  O   UNL A   1      35.088  32.204  31.956  1.00  0.00    -0.269 OA
BRANCH  37  40
ATOM     40  C   UNL A   1      37.299  31.452  32.069  1.00  0.00     0.039 A 
ATOM     41  C   UNL A   1      38.261  32.294  31.489  1.00  0.00     0.014 A 
ATOM     42  C   UNL A   1      37.692  30.381  32.853  1.00  0.00     0.014 A 
ATOM     43  C   UNL A   1      39.579  31.867  31.432  1.00  0.00     0.010 A 
ATOM     44  C   UNL A   1      38.920  29.840  32.594  1.00  0.00     0.010 A 
ATOM     45  C   UNL A   1      39.841  30.569  31.844  1.00  0.00    -0.014 A 
BRANCH  45  46
ATOM     46  C   UNL A   1      41.116  29.905  31.735  1.00  0.00     0.031 A 
ATOM     47  C   UNL A   1      41.132  28.747  30.836  1.00  0.00     0.074 A 
ATOM     48  C   UNL A   1      42.197  30.525  32.252  1.00  0.00     0.049 A 
ATOM     49  N   UNL A   1      42.023  27.831  30.829  1.00  0.00    -0.248 NA
ATOM     50  C   UNL A   1      40.049  28.494  29.879  1.00  0.00     0.031 C 
ATOM     51  C   UNL A   1      43.616  30.297  32.007  1.00  0.00     0.029 A 
ATOM     52  N   UNL A   1      42.181  31.378  33.353  1.00  0.00    -0.354 N 
ATOM     53  C   UNL A   1      41.847  27.117  29.662  1.00  0.00     0.074 A 
ATOM     54  C   UNL A   1      40.528  27.450  29.205  1.00  0.00     0.031 C 
ATOM     55  C   UNL A   1      44.311  30.724  33.081  1.00  0.00     0.029 A 
ATOM     56  C   UNL A   1      43.333  31.071  34.102  1.00  0.00     0.049 A 
ATOM     57  H   UNL A   1      41.501  32.058  33.564  1.00  0.00     0.167 HD
ATOM     58  C   UNL A   1      42.932  26.492  29.132  1.00  0.00     0.034 A 
ATOM     59  C   UNL A   1      43.185  30.428  35.305  1.00  0.00     0.034 A 
ATOM     60  C   UNL A   1      44.068  26.645  30.043  1.00  0.00     0.049 A 
ATOM     61  C   UNL A   1      43.812  29.054  35.280  1.00  0.00     0.074 A 
ATOM     62  C   UNL A   1      45.137  27.525  30.070  1.00  0.00     0.029 A 
ATOM     63  N   UNL A   1      43.977  26.091  31.310  1.00  0.00    -0.354 N 
ATOM     64  N   UNL A   1      43.957  28.336  34.199  1.00  0.00    -0.248 NA
ATOM     65  C   UNL A   1      44.372  28.411  36.462  1.00  0.00     0.031 C 
ATOM     66  C   UNL A   1      45.629  27.561  31.405  1.00  0.00     0.029 A 
ATOM     67  C   UNL A   1      44.879  26.682  32.170  1.00  0.00     0.049 A 
ATOM     68  H   UNL A   1      43.352  25.373  31.564  1.00  0.00     0.167 HD
ATOM     69  C   UNL A   1      44.633  27.185  34.501  1.00  0.00     0.074 A 
ATOM     70  C   UNL A   1      44.874  27.283  35.932  1.00  0.00     0.031 C 
ATOM     71  C   UNL A   1      44.935  26.245  33.554  1.00  0.00     0.034 A 
BRANCH  58  72
ATOM     72  C   UNL A   1      43.086  26.006  27.712  1.00  0.00     0.023 A 
ATOM     73  C   UNL A   1      43.306  24.626  27.522  1.00  0.00     0.031 A 
ATOM     74  C   UNL A   1      43.082  26.776  26.532  1.00  0.00     0.131 A 
ATOM     75  C   UNL A   1      43.557  24.081  26.254  1.00  0.00     0.055 A 
ATOM     76  C   UNL A   1      43.348  26.238  25.266  1.00  0.00     0.041 A 
ATOM     77  F   UNL A   1      42.792  28.079  26.521  1.00  0.00    -0.206 F 
ATOM     78  C   UNL A   1      43.592  24.883  25.119  1.00  0.00     0.022 A 
BRANCH  75  79
ATOM     79  S   UNL A   1      43.842  22.299  26.120  1.00  0.00     0.124 S 
ATOM     80  O   UNL A   1      45.287  22.205  26.298  1.00  0.00    -0.237 OA
ATOM     81  O   UNL A   1      43.018  21.772  27.202  1.00  0.00    -0.237 OA
ATOM     82  O   UNL A   1      43.364  21.982  24.773  1.00  0.00    -0.744 OA
ENDBRANCH  75  79
ENDBRANCH  58  72
BRANCH  59  83
ATOM     83  C   UNL A   1      41.891  30.782  35.981  1.00  0.00     0.023 A 
ATOM     84  C   UNL A   1      41.799  32.089  36.503  1.00  0.00     0.031 A 
ATOM     85  C   UNL A   1      40.693  30.106  35.709  1.00  0.00     0.131 A 
ATOM     86  C   UNL A   1      40.575  32.767  36.452  1.00  0.00     0.055 A 
ATOM     87  C   UNL A   1      39.453  30.757  35.800  1.00  0.00     0.041 A 
ATOM     88  F   UNL A   1      40.703  28.853  35.234  1.00  0.00    -0.206 F 
ATOM     89  C   UNL A   1      39.398  32.115  36.102  1.00  0.00     0.022 A 
BRANCH  86  90
ATOM     90  S   UNL A   1      40.544  34.553  36.680  1.00  0.00     0.124 S 
ATOM     91  O   UNL A   1      41.902  34.862  36.261  1.00  0.00    -0.237 OA
ATOM     92  O   UNL A   1      39.450  34.978  35.810  1.00  0.00    -0.237 OA
ATOM     93  O   UNL A   1      40.265  34.734  38.102  1.00  0.00    -0.744 OA
ENDBRANCH  86  90
ENDBRANCH  59  83
BRANCH  71  94
ATOM     94  C   UNL A   1      45.339  24.815  33.834  1.00  0.00     0.023 A 
ATOM     95  C   UNL A   1      46.624  24.461  34.251  1.00  0.00     0.031 A 
ATOM     96  C   UNL A   1      44.394  23.756  33.803  1.00  0.00     0.131 A 
ATOM     97  C   UNL A   1      46.960  23.126  34.517  1.00  0.00     0.055 A 
ATOM     98  C   UNL A   1      44.699  22.450  34.190  1.00  0.00     0.041 A 
ATOM     99  F   UNL A   1      43.126  23.941  33.409  1.00  0.00    -0.206 F 
ATOM    100  C   UNL A   1      45.999  22.120  34.528  1.00  0.00     0.022 A 
BRANCH  97 101
ATOM    101  S   UNL A   1      48.711  22.735  34.734  1.00  0.00     0.124 S 
ATOM    102  O   UNL A   1      48.821  22.667  36.189  1.00  0.00    -0.237 OA
ATOM    103  O   UNL A   1      48.840  21.463  34.032  1.00  0.00    -0.237 OA
ATOM    104  O   UNL A   1      49.395  23.866  34.111  1.00  0.00    -0.744 OA
ENDBRANCH  97 101
ENDBRANCH  71  94
ENDBRANCH  45  46
ENDBRANCH  37  40
ENDBRANCH  35  36
ENDBRANCH  34  35
ENDBRANCH   1  34
TORSDOF 17
ENDMDL
MODEL 3
REMARK VINA RESULT:     -11.5      4.229      9.929
REMARK SMILES Cc1cccc(-c2ncc(C[NH+]3CCC4(CC3)NC(=O)C[C@H]4C(=O)NCCCCNC(=O)c3ccc(-c4c5nc(c(-c6cc(S(=O)(=O)[O-])ccc6F)c6ccc([nH]6)c(-c6cc(S(=O)(=O)[O-])ccc6F)c6nc(c(-c7cc(S(=O)(=O)[O-])ccc7F)c7ccc4[nH]7)C=C6)C=C5)cc3)cn2)c1
REMARK SMILES IDX 27 1 26 2 25 3 23 4 24 5 22 7 12 8 13 9 17 10 14 12 16 13
REMARK SMILES IDX 15 14 18 15 19 16 21 18 20 19 11 20 10 21 7 22 8 23 97 24
REMARK SMILES IDX 9 25 96 26 6 27 1 28 2 29 3 30 98 31 4 32 5 33 28 34 29 35
REMARK SMILES IDX 30 36 31 37 32 39 33 40 34 41 95 42 35 43 94 44 36 45 37 46
REMARK SMILES IDX 38 47 88 48 39 49 93 50 87 51 89 52 40 53 92 54 86 55 85 56
REMARK SMILES IDX 41 58 73 59 53 60 72 61 54 62 57 63 71 64 90 65 55 66 56 67
REMARK SMILES IDX 70 69 91 70 58 71 42 72 43 73 51 74 44 75 50 76 52 77 49 78
REMARK SMILES IDX 45 79 46 80 47 81 48 82 74 83 75 84 83 85 76 86 82 87 84 88
REMARK SMILES IDX 81 89 77 90 78 91 79 92 80 93 59 94 60 95 68 96 61 97 67 98
REMARK SMILES IDX 69 99 66 100 62 101 63 102 64 103 65 104
REMARK H PARENT 25 6 12 11 18 17 30 38 89 57 57 68
REMARK Flexibility Score: inf
ROOT
ATOM      1  C   UNL A   1      44.319  23.423  28.778  1.00  0.00     0.023 C 
ENDROOT
BRANCH   1   2
ATOM      2  C   UNL A   1      45.530  24.023  28.015  1.00  0.00     0.116 C 
BRANCH   2   3
ATOM      3  N   UNL A   1      45.567  23.850  26.546  1.00  0.00    -0.356 N 
ATOM      4  C   UNL A   1      45.280  22.842  25.670  1.00  0.00     0.226 C 
ATOM      5  O   UNL A   1      45.391  23.117  24.465  1.00  0.00    -0.275 OA
ATOM      6  H   UNL A   1      45.876  24.663  26.086  1.00  0.00     0.163 HD
BRANCH   4   7
ATOM      7  C   UNL A   1      44.907  21.390  26.034  1.00  0.00     0.114 C 
ATOM      8  N   UNL A   1      40.787  21.333  26.609  1.00  0.00    -0.331 N 
ATOM      9  C   UNL A   1      41.578  20.216  27.115  1.00  0.00     0.264 C 
ATOM     10  C   UNL A   1      41.658  22.430  26.238  1.00  0.00     0.264 C 
ATOM     11  H   UNL A   1      40.217  21.600  27.411  1.00  0.00     0.348 HD
ATOM     12  C   UNL A   1      42.816  19.784  26.306  1.00  0.00     0.091 C 
ATOM     13  C   UNL A   1      42.621  22.024  25.145  1.00  0.00     0.091 C 
ATOM     14  C   UNL A   1      43.567  20.875  25.479  1.00  0.00     0.063 C 
ATOM     15  N   UNL A   1      44.043  20.156  24.305  1.00  0.00    -0.349 N 
ATOM     16  C   UNL A   1      45.343  19.722  24.409  1.00  0.00     0.221 C 
ATOM     17  H   UNL A   1      43.485  19.997  23.511  1.00  0.00     0.164 HD
ATOM     18  C   UNL A   1      45.988  20.413  25.566  1.00  0.00     0.116 C 
ATOM     19  O   UNL A   1      45.872  18.871  23.698  1.00  0.00    -0.275 OA
BRANCH   8  20
ATOM     20  C   UNL A   1      39.652  21.086  25.693  1.00  0.00     0.302 C 
BRANCH  20  21
ATOM     21  C   UNL A   1      38.396  21.891  25.872  1.00  0.00     0.043 A 
ATOM     22  C   UNL A   1      36.153  23.414  25.625  1.00  0.00     0.159 A 
ATOM     23  N   UNL A   1      36.046  22.082  25.439  1.00  0.00    -0.236 NA
ATOM     24  N   UNL A   1      37.272  24.025  26.060  1.00  0.00    -0.236 NA
ATOM     25  C   UNL A   1      37.161  21.353  25.604  1.00  0.00     0.124 A 
ATOM     26  C   UNL A   1      38.373  23.246  26.170  1.00  0.00     0.124 A 
BRANCH  22  27
ATOM     27  C   UNL A   1      34.973  24.207  25.261  1.00  0.00     0.019 A 
ATOM     28  C   UNL A   1      33.440  25.796  22.127  1.00  0.00     0.044 C 
ATOM     29  C   UNL A   1      33.583  25.255  23.523  1.00  0.00    -0.050 A 
ATOM     30  C   UNL A   1      32.602  25.508  24.480  1.00  0.00     0.003 A 
ATOM     31  C   UNL A   1      34.735  24.567  23.915  1.00  0.00     0.015 A 
ATOM     32  C   UNL A   1      32.841  25.221  25.825  1.00  0.00     0.001 A 
ATOM     33  C   UNL A   1      34.029  24.600  26.216  1.00  0.00     0.012 A 
ENDBRANCH  22  27
ENDBRANCH  20  21
ENDBRANCH   8  20
ENDBRANCH   4   7
ENDBRANCH   2   3
ENDBRANCH   1   2
BRANCH   1  34
ATOM     34  C   UNL A   1      43.089  24.305  28.971  1.00  0.00     0.023 C 
BRANCH  34  35
ATOM     35  C   UNL A   1      43.171  25.609  28.199  1.00  0.00     0.116 C 
BRANCH  35  36
ATOM     36  N   UNL A   1      42.959  25.551  26.756  1.00  0.00    -0.352 N 
ATOM     37  C   UNL A   1      41.861  26.011  26.027  1.00  0.00     0.251 C 
ATOM     38  H   UNL A   1      43.679  25.134  26.230  1.00  0.00     0.163 HD
ATOM     39  O   UNL A   1      41.694  25.733  24.843  1.00  0.00    -0.269 OA
BRANCH  37  40
ATOM     40  C   UNL A   1      40.977  27.028  26.653  1.00  0.00     0.039 A 
ATOM     41  C   UNL A   1      41.411  28.363  26.624  1.00  0.00     0.014 A 
ATOM     42  C   UNL A   1      40.017  26.627  27.566  1.00  0.00     0.014 A 
ATOM     43  C   UNL A   1      41.125  29.184  27.704  1.00  0.00     0.010 A 
ATOM     44  C   UNL A   1      39.935  27.335  28.731  1.00  0.00     0.010 A 
ATOM     45  C   UNL A   1      40.531  28.592  28.808  1.00  0.00    -0.014 A 
BRANCH  45  46
ATOM     46  C   UNL A   1      40.280  29.248  30.068  1.00  0.00     0.031 A 
ATOM     47  C   UNL A   1      39.458  30.458  29.978  1.00  0.00     0.074 A 
ATOM     48  C   UNL A   1      40.601  28.586  31.199  1.00  0.00     0.049 A 
ATOM     49  N   UNL A   1      39.378  31.364  30.877  1.00  0.00    -0.248 NA
ATOM     50  C   UNL A   1      38.682  30.780  28.776  1.00  0.00     0.031 C 
ATOM     51  C   UNL A   1      40.170  28.813  32.572  1.00  0.00     0.029 A 
ATOM     52  N   UNL A   1      41.641  27.667  31.321  1.00  0.00    -0.354 N 
ATOM     53  C   UNL A   1      38.292  32.149  30.551  1.00  0.00     0.074 A 
ATOM     54  C   UNL A   1      38.009  31.858  29.174  1.00  0.00     0.031 C 
ATOM     55  C   UNL A   1      41.107  28.314  33.404  1.00  0.00     0.029 A 
ATOM     56  C   UNL A   1      42.235  27.916  32.574  1.00  0.00     0.049 A 
ATOM     57  H   UNL A   1      41.906  26.983  30.665  1.00  0.00     0.167 HD
ATOM     58  C   UNL A   1      37.650  32.793  31.562  1.00  0.00     0.034 A 
ATOM     59  C   UNL A   1      43.482  28.486  32.611  1.00  0.00     0.034 A 
ATOM     60  C   UNL A   1      38.379  32.573  32.812  1.00  0.00     0.049 A 
ATOM     61  C   UNL A   1      43.449  29.853  33.254  1.00  0.00     0.074 A 
ATOM     62  C   UNL A   1      38.202  31.681  33.857  1.00  0.00     0.029 A 
ATOM     63  N   UNL A   1      39.677  33.050  32.913  1.00  0.00    -0.354 N 
ATOM     64  N   UNL A   1      42.402  30.633  33.258  1.00  0.00    -0.248 NA
ATOM     65  C   UNL A   1      44.575  30.416  33.989  1.00  0.00     0.031 C 
ATOM     66  C   UNL A   1      39.449  31.558  34.533  1.00  0.00     0.029 A 
ATOM     67  C   UNL A   1      40.363  32.397  33.916  1.00  0.00     0.049 A 
ATOM     68  H   UNL A   1      40.059  33.758  32.345  1.00  0.00     0.167 HD
ATOM     69  C   UNL A   1      42.671  31.756  33.993  1.00  0.00     0.074 A 
ATOM     70  C   UNL A   1      44.045  31.568  34.432  1.00  0.00     0.031 C 
ATOM     71  C   UNL A   1      41.748  32.749  34.176  1.00  0.00     0.034 A 
BRANCH  58  72
ATOM     72  C   UNL A   1      36.254  33.363  31.523  1.00  0.00     0.023 A 
ATOM     73  C   UNL A   1      35.754  33.761  30.267  1.00  0.00     0.031 A 
ATOM     74  C   UNL A   1      35.387  33.593  32.610  1.00  0.00     0.131 A 
ATOM     75  C   UNL A   1      34.507  34.391  30.129  1.00  0.00     0.055 A 
ATOM     76  C   UNL A   1      34.147  34.235  32.478  1.00  0.00     0.041 A 
ATOM     77  F   UNL A   1      35.661  33.187  33.852  1.00  0.00    -0.206 F 
ATOM     78  C   UNL A   1      33.701  34.642  31.232  1.00  0.00     0.022 A 
BRANCH  75  79
ATOM     79  S   UNL A   1      33.963  34.877  28.472  1.00  0.00     0.124 S 
ATOM     80  O   UNL A   1      34.276  36.302  28.453  1.00  0.00    -0.237 OA
ATOM     81  O   UNL A   1      34.778  34.022  27.616  1.00  0.00    -0.237 OA
ATOM     82  O   UNL A   1      32.535  34.558  28.480  1.00  0.00    -0.744 OA
ENDBRANCH  75  79
ENDBRANCH  58  72
BRANCH  59  83
ATOM     83  C   UNL A   1      44.314  28.105  31.419  1.00  0.00     0.023 A 
ATOM     84  C   UNL A   1      44.654  29.152  30.537  1.00  0.00     0.031 A 
ATOM     85  C   UNL A   1      45.115  26.954  31.399  1.00  0.00     0.131 A 
ATOM     86  C   UNL A   1      45.907  29.146  29.911  1.00  0.00     0.055 A 
ATOM     87  C   UNL A   1      46.301  26.905  30.652  1.00  0.00     0.041 A 
ATOM     88  F   UNL A   1      44.837  25.911  32.193  1.00  0.00    -0.206 F 
ATOM     89  C   UNL A   1      46.738  28.033  29.961  1.00  0.00     0.022 A 
BRANCH  86  90
ATOM     90  S   UNL A   1      46.530  30.663  29.167  1.00  0.00     0.124 S 
ATOM     91  O   UNL A   1      45.279  31.399  29.065  1.00  0.00    -0.237 OA
ATOM     92  O   UNL A   1      47.515  31.128  30.140  1.00  0.00    -0.237 OA
ATOM     93  O   UNL A   1      47.115  30.233  27.900  1.00  0.00    -0.744 OA
ENDBRANCH  86  90
ENDBRANCH  59  83
BRANCH  71  94
ATOM     94  C   UNL A   1      42.051  34.155  34.644  1.00  0.00     0.023 A 
ATOM     95  C   UNL A   1      42.548  35.143  33.791  1.00  0.00     0.031 A 
ATOM     96  C   UNL A   1      41.735  34.585  35.958  1.00  0.00     0.131 A 
ATOM     97  C   UNL A   1      42.804  36.441  34.255  1.00  0.00     0.055 A 
ATOM     98  C   UNL A   1      41.871  35.908  36.382  1.00  0.00     0.041 A 
ATOM     99  F   UNL A   1      41.264  33.745  36.891  1.00  0.00    -0.206 F 
ATOM    100  C   UNL A   1      42.433  36.846  35.534  1.00  0.00     0.022 A 
BRANCH  97 101
ATOM    101  S   UNL A   1      43.738  37.545  33.171  1.00  0.00     0.124 S 
ATOM    102  O   UNL A   1      43.583  36.887  31.875  1.00  0.00    -0.237 OA
ATOM    103  O   UNL A   1      43.030  38.811  33.324  1.00  0.00    -0.237 OA
ATOM    104  O   UNL A   1      45.089  37.510  33.727  1.00  0.00    -0.744 OA
ENDBRANCH  97 101
ENDBRANCH  71  94
ENDBRANCH  45  46
ENDBRANCH  37  40
ENDBRANCH  35  36
ENDBRANCH  34  35
ENDBRANCH   1  34
TORSDOF 17
ENDMDL
