MODEL 1
REMARK VINA RESULT:     -12.2      0.000      0.000
REMARK SMILES Cc1c[nH]c(C[N@@H+](C)[C@@H](C(=O)NCCCCNC(=O)c2ccc(-c3c4nc(c(-c5cc(S(=O)(=O)[O-])ccc5F)c5ccc([nH]5)c(-c5cc(S(=O)(=O)[O-])ccc5F)c5nc(c(-c6cc(S(=O)(=O)[O-])ccc6F)c6ccc3[nH]6)C=C5)C=C4)cc2)c2ccc(NC(=O)N3CCCC3)cc2)n1
REMARK SMILES IDX 14 1 13 2 12 3 10 4 11 5 9 7 7 8 8 9 6 11 5 12 1 13 2 14
REMARK SMILES IDX 3 15 97 16 4 17 83 19 84 20 96 21 85 22 95 23 86 24 87 25
REMARK SMILES IDX 88 26 89 28 90 29 91 30 94 31 92 32 93 33 15 34 16 35 17 36
REMARK SMILES IDX 18 37 19 39 20 40 21 41 82 42 22 43 81 44 23 45 24 46 25 47
REMARK SMILES IDX 75 48 26 49 80 50 74 51 76 52 27 53 79 54 73 55 72 56 28 58
REMARK SMILES IDX 60 59 40 60 59 61 41 62 44 63 58 64 77 65 42 66 43 67 57 69
REMARK SMILES IDX 78 70 45 71 29 72 30 73 38 74 31 75 37 76 39 77 36 78 32 79
REMARK SMILES IDX 33 80 34 81 35 82 61 83 62 84 70 85 63 86 69 87 71 88 68 89
REMARK SMILES IDX 64 90 65 91 66 92 67 93 46 94 47 95 55 96 48 97 54 98 56 99
REMARK SMILES IDX 53 100 49 101 50 102 51 103 52 104
REMARK H PARENT 12 6 7 10 4 18 87 27 17 38 76 57 44 68
REMARK Flexibility Score: inf
ROOT
ATOM      1  C   UNL A   1      37.526  20.057  24.949  1.00  0.00     0.023 C 
ENDROOT
BRANCH   1   2
ATOM      2  C   UNL A   1      37.635  21.519  25.384  1.00  0.00     0.116 C 
BRANCH   2   3
ATOM      3  N   UNL A   1      37.256  22.387  24.289  1.00  0.00    -0.351 N 
ATOM      4  C   UNL A   1      35.998  22.732  23.880  1.00  0.00     0.283 C 
ATOM      5  O   UNL A   1      35.882  23.115  22.708  1.00  0.00    -0.268 OA
ATOM      6  H   UNL A   1      37.999  22.775  23.773  1.00  0.00     0.163 HD
BRANCH   4   7
ATOM      7  C   UNL A   1      34.791  22.661  24.876  1.00  0.00     0.305 C 
BRANCH   7   8
ATOM      8  N   UNL A   1      33.887  21.524  24.555  1.00  0.00    -0.317 N 
ATOM      9  C   UNL A   1      32.917  21.753  23.506  1.00  0.00     0.334 C 
ATOM     10  H   UNL A   1      34.583  20.898  24.148  1.00  0.00     0.349 HD
BRANCH   8  11
ATOM     11  C   UNL A   1      33.346  20.737  25.671  1.00  0.00     0.339 C 
BRANCH  11  12
ATOM     12  C   UNL A   1      33.299  19.270  25.381  1.00  0.00     0.161 A 
ATOM     13  C   UNL A   1      34.053  16.332  23.533  1.00  0.00     0.068 C 
ATOM     14  C   UNL A   1      33.542  17.320  24.506  1.00  0.00     0.056 A 
ATOM     15  C   UNL A   1      32.923  17.114  25.719  1.00  0.00     0.107 A 
ATOM     16  N   UNL A   1      33.702  18.664  24.278  1.00  0.00    -0.233 NA
ATOM     17  N   UNL A   1      32.808  18.357  26.280  1.00  0.00    -0.344 N 
ATOM     18  H   UNL A   1      32.441  18.559  27.171  1.00  0.00     0.167 HD
ENDBRANCH  11  12
ENDBRANCH   8  11
ENDBRANCH   7   8
BRANCH   7  19
ATOM     19  C   UNL A   1      34.022  23.992  24.948  1.00  0.00     0.019 A 
ATOM     20  C   UNL A   1      33.101  24.268  25.967  1.00  0.00     0.012 A 
ATOM     21  C   UNL A   1      34.242  24.996  23.992  1.00  0.00     0.012 A 
ATOM     22  C   UNL A   1      32.651  25.573  26.178  1.00  0.00     0.027 A 
ATOM     23  C   UNL A   1      33.810  26.304  24.216  1.00  0.00     0.027 A 
ATOM     24  C   UNL A   1      33.133  26.615  25.391  1.00  0.00     0.042 A 
BRANCH  24  25
ATOM     25  N   UNL A   1      33.001  27.969  25.738  1.00  0.00    -0.308 N 
ATOM     26  C   UNL A   1      32.298  28.976  25.146  1.00  0.00     0.321 C 
ATOM     27  H   UNL A   1      33.498  28.236  26.544  1.00  0.00     0.171 HD
ATOM     28  O   UNL A   1      32.671  30.137  25.334  1.00  0.00    -0.248 OA
ATOM     29  N   UNL A   1      31.200  28.695  24.385  1.00  0.00    -0.325 N 
ATOM     30  C   UNL A   1      30.164  27.712  24.647  1.00  0.00     0.121 C 
ATOM     31  C   UNL A   1      30.734  29.624  23.381  1.00  0.00     0.121 C 
ATOM     32  C   UNL A   1      29.539  27.500  23.281  1.00  0.00     0.023 C 
ATOM     33  C   UNL A   1      29.649  28.870  22.611  1.00  0.00     0.023 C 
ENDBRANCH  24  25
ENDBRANCH   7  19
ENDBRANCH   4   7
ENDBRANCH   2   3
ENDBRANCH   1   2
BRANCH   1  34
ATOM     34  C   UNL A   1      38.734  19.194  25.306  1.00  0.00     0.023 C 
BRANCH  34  35
ATOM     35  C   UNL A   1      39.769  19.878  26.185  1.00  0.00     0.116 C 
BRANCH  35  36
ATOM     36  N   UNL A   1      41.103  19.318  26.033  1.00  0.00    -0.352 N 
ATOM     37  C   UNL A   1      42.315  19.965  26.109  1.00  0.00     0.251 C 
ATOM     38  H   UNL A   1      41.145  18.352  25.850  1.00  0.00     0.163 HD
ATOM     39  O   UNL A   1      43.349  19.371  25.820  1.00  0.00    -0.269 OA
BRANCH  37  40
ATOM     40  C   UNL A   1      42.341  21.388  26.501  1.00  0.00     0.039 A 
ATOM     41  C   UNL A   1      42.486  21.720  27.849  1.00  0.00     0.014 A 
ATOM     42  C   UNL A   1      42.292  22.388  25.526  1.00  0.00     0.014 A 
ATOM     43  C   UNL A   1      42.658  23.056  28.213  1.00  0.00     0.010 A 
ATOM     44  C   UNL A   1      42.553  23.706  25.880  1.00  0.00     0.010 A 
ATOM     45  C   UNL A   1      42.734  24.054  27.228  1.00  0.00    -0.014 A 
BRANCH  45  46
ATOM     46  C   UNL A   1      42.985  25.476  27.580  1.00  0.00     0.031 A 
ATOM     47  C   UNL A   1      44.370  26.044  27.436  1.00  0.00     0.074 A 
ATOM     48  C   UNL A   1      41.990  26.223  28.098  1.00  0.00     0.049 A 
ATOM     49  N   UNL A   1      44.821  27.224  27.776  1.00  0.00    -0.248 NA
ATOM     50  C   UNL A   1      45.391  25.148  26.877  1.00  0.00     0.031 C 
ATOM     51  C   UNL A   1      40.619  25.764  28.333  1.00  0.00     0.029 A 
ATOM     52  N   UNL A   1      41.982  27.525  28.529  1.00  0.00    -0.354 N 
ATOM     53  C   UNL A   1      46.182  27.203  27.490  1.00  0.00     0.074 A 
ATOM     54  C   UNL A   1      46.491  25.869  27.023  1.00  0.00     0.031 C 
ATOM     55  C   UNL A   1      39.897  26.777  28.838  1.00  0.00     0.029 A 
ATOM     56  C   UNL A   1      40.759  27.942  29.003  1.00  0.00     0.049 A 
ATOM     57  H   UNL A   1      42.776  28.107  28.503  1.00  0.00     0.167 HD
ATOM     58  C   UNL A   1      47.085  28.212  27.580  1.00  0.00     0.034 A 
ATOM     59  C   UNL A   1      40.380  29.129  29.518  1.00  0.00     0.034 A 
ATOM     60  C   UNL A   1      46.750  29.541  28.029  1.00  0.00     0.049 A 
ATOM     61  C   UNL A   1      41.398  30.236  29.616  1.00  0.00     0.074 A 
ATOM     62  C   UNL A   1      47.563  30.659  28.099  1.00  0.00     0.029 A 
ATOM     63  N   UNL A   1      45.498  29.932  28.489  1.00  0.00    -0.354 N 
ATOM     64  N   UNL A   1      42.671  30.219  29.289  1.00  0.00    -0.248 NA
ATOM     65  C   UNL A   1      40.926  31.522  30.141  1.00  0.00     0.031 C 
ATOM     66  C   UNL A   1      46.821  31.706  28.661  1.00  0.00     0.029 A 
ATOM     67  C   UNL A   1      45.525  31.264  28.873  1.00  0.00     0.049 A 
ATOM     68  H   UNL A   1      44.707  29.347  28.536  1.00  0.00     0.167 HD
ATOM     69  C   UNL A   1      43.143  31.503  29.543  1.00  0.00     0.074 A 
ATOM     70  C   UNL A   1      42.017  32.269  30.037  1.00  0.00     0.031 C 
ATOM     71  C   UNL A   1      44.394  32.007  29.378  1.00  0.00     0.034 A 
BRANCH  58  72
ATOM     72  C   UNL A   1      48.514  27.893  27.208  1.00  0.00     0.023 A 
ATOM     73  C   UNL A   1      48.998  28.089  25.902  1.00  0.00     0.031 A 
ATOM     74  C   UNL A   1      49.391  27.331  28.153  1.00  0.00     0.131 A 
ATOM     75  C   UNL A   1      50.278  27.634  25.550  1.00  0.00     0.055 A 
ATOM     76  C   UNL A   1      50.698  26.969  27.821  1.00  0.00     0.041 A 
ATOM     77  F   UNL A   1      48.985  27.101  29.411  1.00  0.00    -0.206 F 
ATOM     78  C   UNL A   1      51.142  27.099  26.508  1.00  0.00     0.022 A 
BRANCH  75  79
ATOM     79  S   UNL A   1      50.724  27.589  23.793  1.00  0.00     0.124 S 
ATOM     80  O   UNL A   1      49.506  27.047  23.195  1.00  0.00    -0.237 OA
ATOM     81  O   UNL A   1      51.010  28.990  23.504  1.00  0.00    -0.237 OA
ATOM     82  O   UNL A   1      51.879  26.694  23.756  1.00  0.00    -0.744 OA
ENDBRANCH  75  79
ENDBRANCH  58  72
BRANCH  59  83
ATOM     83  C   UNL A   1      38.976  29.338  29.974  1.00  0.00     0.023 A 
ATOM     84  C   UNL A   1      38.011  29.879  29.111  1.00  0.00     0.031 A 
ATOM     85  C   UNL A   1      38.587  29.023  31.288  1.00  0.00     0.131 A 
ATOM     86  C   UNL A   1      36.711  30.126  29.582  1.00  0.00     0.055 A 
ATOM     87  C   UNL A   1      37.280  29.226  31.738  1.00  0.00     0.041 A 
ATOM     88  F   UNL A   1      39.470  28.493  32.150  1.00  0.00    -0.206 F 
ATOM     89  C   UNL A   1      36.337  29.791  30.886  1.00  0.00     0.022 A 
BRANCH  86  90
ATOM     90  S   UNL A   1      35.531  30.951  28.480  1.00  0.00     0.124 S 
ATOM     91  O   UNL A   1      34.714  31.701  29.427  1.00  0.00    -0.237 OA
ATOM     92  O   UNL A   1      36.415  31.740  27.627  1.00  0.00    -0.237 OA
ATOM     93  O   UNL A   1      34.855  29.840  27.814  1.00  0.00    -0.744 OA
ENDBRANCH  86  90
ENDBRANCH  59  83
BRANCH  71  94
ATOM     94  C   UNL A   1      44.588  33.468  29.701  1.00  0.00     0.023 A 
ATOM     95  C   UNL A   1      44.489  34.463  28.713  1.00  0.00     0.031 A 
ATOM     96  C   UNL A   1      44.887  33.866  31.016  1.00  0.00     0.131 A 
ATOM     97  C   UNL A   1      44.741  35.803  29.045  1.00  0.00     0.055 A 
ATOM     98  C   UNL A   1      45.078  35.206  31.352  1.00  0.00     0.041 A 
ATOM     99  F   UNL A   1      44.995  32.956  31.997  1.00  0.00    -0.206 F 
ATOM    100  C   UNL A   1      45.018  36.183  30.361  1.00  0.00     0.022 A 
BRANCH  97 101
ATOM    101  S   UNL A   1      44.791  37.035  27.715  1.00  0.00     0.124 S 
ATOM    102  O   UNL A   1      45.190  38.241  28.433  1.00  0.00    -0.237 OA
ATOM    103  O   UNL A   1      45.788  36.474  26.808  1.00  0.00    -0.237 OA
ATOM    104  O   UNL A   1      43.421  37.042  27.203  1.00  0.00    -0.744 OA
ENDBRANCH  97 101
ENDBRANCH  71  94
ENDBRANCH  45  46
ENDBRANCH  37  40
ENDBRANCH  35  36
ENDBRANCH  34  35
ENDBRANCH   1  34
TORSDOF 19
ENDMDL
MODEL 2
REMARK VINA RESULT:     -12.1      1.805      7.517
REMARK SMILES Cc1c[nH]c(C[N@@H+](C)[C@@H](C(=O)NCCCCNC(=O)c2ccc(-c3c4nc(c(-c5cc(S(=O)(=O)[O-])ccc5F)c5ccc([nH]5)c(-c5cc(S(=O)(=O)[O-])ccc5F)c5nc(c(-c6cc(S(=O)(=O)[O-])ccc6F)c6ccc3[nH]6)C=C5)C=C4)cc2)c2ccc(NC(=O)N3CCCC3)cc2)n1
REMARK SMILES IDX 14 1 13 2 12 3 10 4 11 5 9 7 7 8 8 9 6 11 5 12 1 13 2 14
REMARK SMILES IDX 3 15 97 16 4 17 83 19 84 20 96 21 85 22 95 23 86 24 87 25
REMARK SMILES IDX 88 26 89 28 90 29 91 30 94 31 92 32 93 33 15 34 16 35 17 36
REMARK SMILES IDX 18 37 19 39 20 40 21 41 82 42 22 43 81 44 23 45 24 46 25 47
REMARK SMILES IDX 75 48 26 49 80 50 74 51 76 52 27 53 79 54 73 55 72 56 28 58
REMARK SMILES IDX 60 59 40 60 59 61 41 62 44 63 58 64 77 65 42 66 43 67 57 69
REMARK SMILES IDX 78 70 45 71 29 72 30 73 38 74 31 75 37 76 39 77 36 78 32 79
REMARK SMILES IDX 33 80 34 81 35 82 61 83 62 84 70 85 63 86 69 87 71 88 68 89
REMARK SMILES IDX 64 90 65 91 66 92 67 93 46 94 47 95 55 96 48 97 54 98 56 99
REMARK SMILES IDX 53 100 49 101 50 102 51 103 52 104
REMARK H PARENT 12 6 7 10 4 18 87 27 17 38 76 57 44 68
REMARK Flexibility Score: inf
ROOT
ATOM      1  C   UNL A   1      36.578  21.407  25.694  1.00  0.00     0.023 C 
ENDROOT
BRANCH   1   2
ATOM      2  C   UNL A   1      36.689  22.930  25.603  1.00  0.00     0.116 C 
BRANCH   2   3
ATOM      3  N   UNL A   1      36.352  23.367  24.264  1.00  0.00    -0.351 N 
ATOM      4  C   UNL A   1      35.153  23.260  23.616  1.00  0.00     0.283 C 
ATOM      5  O   UNL A   1      35.187  23.295  22.378  1.00  0.00    -0.268 OA
ATOM      6  H   UNL A   1      37.080  23.794  23.757  1.00  0.00     0.163 HD
BRANCH   4   7
ATOM      7  C   UNL A   1      33.820  23.129  24.428  1.00  0.00     0.305 C 
BRANCH   7   8
ATOM      8  N   UNL A   1      33.228  21.771  24.286  1.00  0.00    -0.317 N 
ATOM      9  C   UNL A   1      32.147  21.640  23.333  1.00  0.00     0.334 C 
ATOM     10  H   UNL A   1      34.029  21.310  23.853  1.00  0.00     0.349 HD
BRANCH   8  11
ATOM     11  C   UNL A   1      33.012  20.982  25.507  1.00  0.00     0.339 C 
BRANCH  11  12
ATOM     12  C   UNL A   1      33.081  19.507  25.266  1.00  0.00     0.161 A 
ATOM     13  C   UNL A   1      34.031  16.579  23.494  1.00  0.00     0.068 C 
ATOM     14  C   UNL A   1      33.465  17.554  24.449  1.00  0.00     0.056 A 
ATOM     15  C   UNL A   1      32.899  17.340  25.686  1.00  0.00     0.107 A 
ATOM     16  N   UNL A   1      33.505  18.898  24.172  1.00  0.00    -0.233 NA
ATOM     17  N   UNL A   1      32.694  18.588  26.209  1.00  0.00    -0.344 N 
ATOM     18  H   UNL A   1      32.335  18.790  27.103  1.00  0.00     0.167 HD
ENDBRANCH  11  12
ENDBRANCH   8  11
ENDBRANCH   7   8
BRANCH   7  19
ATOM     19  C   UNL A   1      32.808  24.229  24.060  1.00  0.00     0.019 A 
ATOM     20  C   UNL A   1      31.797  24.637  24.939  1.00  0.00     0.012 A 
ATOM     21  C   UNL A   1      32.884  24.882  22.820  1.00  0.00     0.012 A 
ATOM     22  C   UNL A   1      31.096  25.822  24.707  1.00  0.00     0.027 A 
ATOM     23  C   UNL A   1      32.199  26.077  22.598  1.00  0.00     0.027 A 
ATOM     24  C   UNL A   1      31.411  26.618  23.609  1.00  0.00     0.042 A 
BRANCH  24  25
ATOM     25  N   UNL A   1      31.004  27.957  23.484  1.00  0.00    -0.308 N 
ATOM     26  C   UNL A   1      31.170  29.020  24.320  1.00  0.00     0.321 C 
ATOM     27  H   UNL A   1      30.518  28.161  22.654  1.00  0.00     0.171 HD
ATOM     28  O   UNL A   1      30.371  29.956  24.240  1.00  0.00    -0.248 OA
ATOM     29  N   UNL A   1      32.211  29.046  25.204  1.00  0.00    -0.325 N 
ATOM     30  C   UNL A   1      33.580  28.617  24.979  1.00  0.00     0.121 C 
ATOM     31  C   UNL A   1      32.157  29.866  26.392  1.00  0.00     0.121 C 
ATOM     32  C   UNL A   1      34.107  28.401  26.384  1.00  0.00     0.023 C 
ATOM     33  C   UNL A   1      33.380  29.460  27.215  1.00  0.00     0.023 C 
ENDBRANCH  24  25
ENDBRANCH   7  19
ENDBRANCH   4   7
ENDBRANCH   2   3
ENDBRANCH   1   2
BRANCH   1  34
ATOM     34  C   UNL A   1      37.789  20.647  25.158  1.00  0.00     0.023 C 
BRANCH  34  35
ATOM     35  C   UNL A   1      39.094  20.932  25.884  1.00  0.00     0.116 C 
BRANCH  35  36
ATOM     36  N   UNL A   1      39.969  19.772  25.956  1.00  0.00    -0.352 N 
ATOM     37  C   UNL A   1      41.334  19.741  26.127  1.00  0.00     0.251 C 
ATOM     38  H   UNL A   1      39.529  18.896  25.870  1.00  0.00     0.163 HD
ATOM     39  O   UNL A   1      41.942  18.680  26.029  1.00  0.00    -0.269 OA
BRANCH  37  40
ATOM     40  C   UNL A   1      42.049  21.006  26.387  1.00  0.00     0.039 A 
ATOM     41  C   UNL A   1      42.424  21.809  25.307  1.00  0.00     0.014 A 
ATOM     42  C   UNL A   1      42.283  21.427  27.698  1.00  0.00     0.014 A 
ATOM     43  C   UNL A   1      42.969  23.071  25.548  1.00  0.00     0.010 A 
ATOM     44  C   UNL A   1      42.740  22.717  27.935  1.00  0.00     0.010 A 
ATOM     45  C   UNL A   1      43.092  23.551  26.862  1.00  0.00    -0.014 A 
BRANCH  45  46
ATOM     46  C   UNL A   1      43.604  24.917  27.145  1.00  0.00     0.031 A 
ATOM     47  C   UNL A   1      42.669  25.966  27.681  1.00  0.00     0.074 A 
ATOM     48  C   UNL A   1      44.881  25.229  26.849  1.00  0.00     0.049 A 
ATOM     49  N   UNL A   1      42.887  27.235  27.905  1.00  0.00    -0.248 NA
ATOM     50  C   UNL A   1      41.291  25.534  27.959  1.00  0.00     0.031 C 
ATOM     51  C   UNL A   1      45.867  24.309  26.275  1.00  0.00     0.029 A 
ATOM     52  N   UNL A   1      45.567  26.409  26.979  1.00  0.00    -0.354 N 
ATOM     53  C   UNL A   1      41.670  27.758  28.329  1.00  0.00     0.074 A 
ATOM     54  C   UNL A   1      40.705  26.682  28.257  1.00  0.00     0.031 C 
ATOM     55  C   UNL A   1      47.037  24.952  26.132  1.00  0.00     0.029 A 
ATOM     56  C   UNL A   1      46.876  26.337  26.560  1.00  0.00     0.049 A 
ATOM     57  H   UNL A   1      45.161  27.232  27.338  1.00  0.00     0.167 HD
ATOM     58  C   UNL A   1      41.390  29.011  28.768  1.00  0.00     0.034 A 
ATOM     59  C   UNL A   1      47.834  27.284  26.521  1.00  0.00     0.034 A 
ATOM     60  C   UNL A   1      42.373  30.063  28.852  1.00  0.00     0.049 A 
ATOM     61  C   UNL A   1      47.502  28.672  27.007  1.00  0.00     0.074 A 
ATOM     62  C   UNL A   1      42.223  31.348  29.342  1.00  0.00     0.029 A 
ATOM     63  N   UNL A   1      43.694  29.950  28.431  1.00  0.00    -0.354 N 
ATOM     64  N   UNL A   1      46.361  29.138  27.460  1.00  0.00    -0.248 NA
ATOM     65  C   UNL A   1      48.591  29.656  26.986  1.00  0.00     0.031 C 
ATOM     66  C   UNL A   1      43.432  32.032  29.157  1.00  0.00     0.029 A 
ATOM     67  C   UNL A   1      44.359  31.152  28.622  1.00  0.00     0.049 A 
ATOM     68  H   UNL A   1      44.098  29.136  28.053  1.00  0.00     0.167 HD
ATOM     69  C   UNL A   1      46.604  30.464  27.805  1.00  0.00     0.074 A 
ATOM     70  C   UNL A   1      48.002  30.717  27.520  1.00  0.00     0.031 C 
ATOM     71  C   UNL A   1      45.751  31.389  28.317  1.00  0.00     0.034 A 
BRANCH  58  72
ATOM     72  C   UNL A   1      39.960  29.301  29.161  1.00  0.00     0.023 A 
ATOM     73  C   UNL A   1      39.570  29.396  30.509  1.00  0.00     0.031 A 
ATOM     74  C   UNL A   1      38.960  29.424  28.180  1.00  0.00     0.131 A 
ATOM     75  C   UNL A   1      38.211  29.505  30.842  1.00  0.00     0.055 A 
ATOM     76  C   UNL A   1      37.620  29.629  28.516  1.00  0.00     0.041 A 
ATOM     77  F   UNL A   1      39.264  29.323  26.877  1.00  0.00    -0.206 F 
ATOM     78  C   UNL A   1      37.235  29.649  29.853  1.00  0.00     0.022 A 
BRANCH  75  79
ATOM     79  S   UNL A   1      37.727  29.276  32.574  1.00  0.00     0.124 S 
ATOM     80  O   UNL A   1      38.744  30.061  33.270  1.00  0.00    -0.237 OA
ATOM     81  O   UNL A   1      36.373  29.817  32.598  1.00  0.00    -0.237 OA
ATOM     82  O   UNL A   1      37.827  27.830  32.769  1.00  0.00    -0.744 OA
ENDBRANCH  75  79
ENDBRANCH  58  72
BRANCH  59  83
ATOM     83  C   UNL A   1      49.196  26.957  26.012  1.00  0.00     0.023 A 
ATOM     84  C   UNL A   1      49.597  27.346  24.725  1.00  0.00     0.031 A 
ATOM     85  C   UNL A   1      50.108  26.230  26.797  1.00  0.00     0.131 A 
ATOM     86  C   UNL A   1      50.862  26.973  24.243  1.00  0.00     0.055 A 
ATOM     87  C   UNL A   1      51.383  25.901  26.331  1.00  0.00     0.041 A 
ATOM     88  F   UNL A   1      49.777  25.843  28.040  1.00  0.00    -0.206 F 
ATOM     89  C   UNL A   1      51.762  26.264  25.043  1.00  0.00     0.022 A 
BRANCH  86  90
ATOM     90  S   UNL A   1      51.292  27.375  22.528  1.00  0.00     0.124 S 
ATOM     91  O   UNL A   1      52.501  26.584  22.331  1.00  0.00    -0.237 OA
ATOM     92  O   UNL A   1      50.105  26.926  21.806  1.00  0.00    -0.237 OA
ATOM     93  O   UNL A   1      51.490  28.822  22.558  1.00  0.00    -0.744 OA
ENDBRANCH  86  90
ENDBRANCH  59  83
BRANCH  71  94
ATOM     94  C   UNL A   1      46.328  32.747  28.636  1.00  0.00     0.023 A 
ATOM     95  C   UNL A   1      46.219  33.825  27.741  1.00  0.00     0.031 A 
ATOM     96  C   UNL A   1      47.005  32.958  29.850  1.00  0.00     0.131 A 
ATOM     97  C   UNL A   1      46.826  35.052  28.050  1.00  0.00     0.055 A 
ATOM     98  C   UNL A   1      47.555  34.196  30.178  1.00  0.00     0.041 A 
ATOM     99  F   UNL A   1      47.140  31.961  30.740  1.00  0.00    -0.206 F 
ATOM    100  C   UNL A   1      47.479  35.249  29.270  1.00  0.00     0.022 A 
BRANCH  97 101
ATOM    101  S   UNL A   1      46.829  36.362  26.796  1.00  0.00     0.124 S 
ATOM    102  O   UNL A   1      47.887  37.242  27.279  1.00  0.00    -0.237 OA
ATOM    103  O   UNL A   1      47.124  35.622  25.573  1.00  0.00    -0.237 OA
ATOM    104  O   UNL A   1      45.478  36.915  26.875  1.00  0.00    -0.744 OA
ENDBRANCH  97 101
ENDBRANCH  71  94
ENDBRANCH  45  46
ENDBRANCH  37  40
ENDBRANCH  35  36
ENDBRANCH  34  35
ENDBRANCH   1  34
TORSDOF 19
ENDMDL
MODEL 3
REMARK VINA RESULT:     -11.6      2.030      2.561
REMARK SMILES Cc1c[nH]c(C[N@@H+](C)[C@@H](C(=O)NCCCCNC(=O)c2ccc(-c3c4nc(c(-c5cc(S(=O)(=O)[O-])ccc5F)c5ccc([nH]5)c(-c5cc(S(=O)(=O)[O-])ccc5F)c5nc(c(-c6cc(S(=O)(=O)[O-])ccc6F)c6ccc3[nH]6)C=C5)C=C4)cc2)c2ccc(NC(=O)N3CCCC3)cc2)n1
REMARK SMILES IDX 14 1 13 2 12 3 10 4 11 5 9 7 7 8 8 9 6 11 5 12 1 13 2 14
REMARK SMILES IDX 3 15 97 16 4 17 83 19 84 20 96 21 85 22 95 23 86 24 87 25
REMARK SMILES IDX 88 26 89 28 90 29 91 30 94 31 92 32 93 33 15 34 16 35 17 36
REMARK SMILES IDX 18 37 19 39 20 40 21 41 82 42 22 43 81 44 23 45 24 46 25 47
REMARK SMILES IDX 75 48 26 49 80 50 74 51 76 52 27 53 79 54 73 55 72 56 28 58
REMARK SMILES IDX 60 59 40 60 59 61 41 62 44 63 58 64 77 65 42 66 43 67 57 69
REMARK SMILES IDX 78 70 45 71 29 72 30 73 38 74 31 75 37 76 39 77 36 78 32 79
REMARK SMILES IDX 33 80 34 81 35 82 61 83 62 84 70 85 63 86 69 87 71 88 68 89
REMARK SMILES IDX 64 90 65 91 66 92 67 93 46 94 47 95 55 96 48 97 54 98 56 99
REMARK SMILES IDX 53 100 49 101 50 102 51 103 52 104
REMARK H PARENT 12 6 7 10 4 18 87 27 17 38 76 57 44 68
REMARK Flexibility Score: inf
ROOT
ATOM      1  C   UNL A   1      39.523  22.938  26.442  1.00  0.00     0.023 C 
ENDROOT
BRANCH   1   2
ATOM      2  C   UNL A   1      38.149  23.602  26.342  1.00  0.00     0.116 C 
BRANCH   2   3
ATOM      3  N   UNL A   1      37.770  23.738  24.952  1.00  0.00    -0.351 N 
ATOM      4  C   UNL A   1      36.611  23.334  24.347  1.00  0.00     0.283 C 
ATOM      5  O   UNL A   1      36.658  23.153  23.123  1.00  0.00    -0.268 OA
ATOM      6  H   UNL A   1      38.431  24.175  24.367  1.00  0.00     0.163 HD
BRANCH   4   7
ATOM      7  C   UNL A   1      35.303  23.144  25.186  1.00  0.00     0.305 C 
BRANCH   7   8
ATOM      8  N   UNL A   1      34.927  21.708  25.292  1.00  0.00    -0.317 N 
ATOM      9  C   UNL A   1      36.019  20.759  25.284  1.00  0.00     0.334 C 
ATOM     10  H   UNL A   1      34.585  21.720  26.253  1.00  0.00     0.349 HD
BRANCH   8  11
ATOM     11  C   UNL A   1      33.760  21.243  24.530  1.00  0.00     0.339 C 
BRANCH  11  12
ATOM     12  C   UNL A   1      33.449  19.798  24.766  1.00  0.00     0.161 A 
ATOM     13  C   UNL A   1      33.551  16.325  24.031  1.00  0.00     0.068 C 
ATOM     14  C   UNL A   1      33.295  17.658  24.615  1.00  0.00     0.056 A 
ATOM     15  C   UNL A   1      32.758  17.988  25.839  1.00  0.00     0.107 A 
ATOM     16  N   UNL A   1      33.652  18.794  23.931  1.00  0.00    -0.233 NA
ATOM     17  N   UNL A   1      32.897  19.347  25.938  1.00  0.00    -0.344 N 
ATOM     18  H   UNL A   1      32.646  19.900  26.713  1.00  0.00     0.167 HD
ENDBRANCH  11  12
ENDBRANCH   8  11
ENDBRANCH   7   8
BRANCH   7  19
ATOM     19  C   UNL A   1      34.139  23.995  24.644  1.00  0.00     0.019 A 
ATOM     20  C   UNL A   1      33.068  24.397  25.452  1.00  0.00     0.012 A 
ATOM     21  C   UNL A   1      34.130  24.419  23.306  1.00  0.00     0.012 A 
ATOM     22  C   UNL A   1      32.198  25.401  25.023  1.00  0.00     0.027 A 
ATOM     23  C   UNL A   1      33.274  25.438  22.885  1.00  0.00     0.027 A 
ATOM     24  C   UNL A   1      32.402  26.027  23.797  1.00  0.00     0.042 A 
BRANCH  24  25
ATOM     25  N   UNL A   1      31.799  27.244  23.441  1.00  0.00    -0.308 N 
ATOM     26  C   UNL A   1      31.639  28.398  24.147  1.00  0.00     0.321 C 
ATOM     27  H   UNL A   1      31.430  27.267  22.529  1.00  0.00     0.171 HD
ATOM     28  O   UNL A   1      30.716  29.153  23.830  1.00  0.00    -0.248 OA
ATOM     29  N   UNL A   1      32.497  28.710  25.162  1.00  0.00    -0.325 N 
ATOM     30  C   UNL A   1      33.938  28.528  25.196  1.00  0.00     0.121 C 
ATOM     31  C   UNL A   1      32.107  29.621  26.213  1.00  0.00     0.121 C 
ATOM     32  C   UNL A   1      34.252  28.559  26.679  1.00  0.00     0.023 C 
ATOM     33  C   UNL A   1      33.226  29.540  27.251  1.00  0.00     0.023 C 
ENDBRANCH  24  25
ENDBRANCH   7  19
ENDBRANCH   4   7
ENDBRANCH   2   3
ENDBRANCH   1   2
BRANCH   1  34
ATOM     34  C   UNL A   1      39.543  21.456  26.075  1.00  0.00     0.023 C 
BRANCH  34  35
ATOM     35  C   UNL A   1      40.425  20.591  26.961  1.00  0.00     0.116 C 
BRANCH  35  36
ATOM     36  N   UNL A   1      41.406  19.823  26.209  1.00  0.00    -0.352 N 
ATOM     37  C   UNL A   1      42.614  20.242  25.703  1.00  0.00     0.251 C 
ATOM     38  H   UNL A   1      41.174  18.881  26.040  1.00  0.00     0.163 HD
ATOM     39  O   UNL A   1      43.265  19.502  24.972  1.00  0.00    -0.269 OA
BRANCH  37  40
ATOM     40  C   UNL A   1      43.087  21.604  26.021  1.00  0.00     0.039 A 
ATOM     41  C   UNL A   1      43.070  22.580  25.022  1.00  0.00     0.014 A 
ATOM     42  C   UNL A   1      43.479  21.927  27.323  1.00  0.00     0.014 A 
ATOM     43  C   UNL A   1      43.377  23.902  25.349  1.00  0.00     0.010 A 
ATOM     44  C   UNL A   1      43.694  23.257  27.664  1.00  0.00     0.010 A 
ATOM     45  C   UNL A   1      43.650  24.257  26.680  1.00  0.00    -0.014 A 
BRANCH  45  46
ATOM     46  C   UNL A   1      43.912  25.667  27.070  1.00  0.00     0.031 A 
ATOM     47  C   UNL A   1      45.311  26.213  26.990  1.00  0.00     0.074 A 
ATOM     48  C   UNL A   1      42.911  26.422  27.563  1.00  0.00     0.049 A 
ATOM     49  N   UNL A   1      45.769  27.378  27.369  1.00  0.00    -0.248 NA
ATOM     50  C   UNL A   1      46.338  25.309  26.453  1.00  0.00     0.031 C 
ATOM     51  C   UNL A   1      41.524  25.983  27.737  1.00  0.00     0.029 A 
ATOM     52  N   UNL A   1      42.908  27.715  28.019  1.00  0.00    -0.354 N 
ATOM     53  C   UNL A   1      47.139  27.338  27.136  1.00  0.00     0.074 A 
ATOM     54  C   UNL A   1      47.443  26.008  26.655  1.00  0.00     0.031 C 
ATOM     55  C   UNL A   1      40.800  26.999  28.233  1.00  0.00     0.029 A 
ATOM     56  C   UNL A   1      41.675  28.146  28.454  1.00  0.00     0.049 A 
ATOM     57  H   UNL A   1      43.712  28.283  28.035  1.00  0.00     0.167 HD
ATOM     58  C   UNL A   1      48.055  28.329  27.280  1.00  0.00     0.034 A 
ATOM     59  C   UNL A   1      41.297  29.328  28.977  1.00  0.00     0.034 A 
ATOM     60  C   UNL A   1      47.726  29.655  27.741  1.00  0.00     0.049 A 
ATOM     61  C   UNL A   1      42.329  30.415  29.135  1.00  0.00     0.074 A 
ATOM     62  C   UNL A   1      48.554  30.757  27.864  1.00  0.00     0.029 A 
ATOM     63  N   UNL A   1      46.463  30.059  28.161  1.00  0.00    -0.354 N 
ATOM     64  N   UNL A   1      43.613  30.382  28.857  1.00  0.00    -0.248 NA
ATOM     65  C   UNL A   1      41.859  31.700  29.667  1.00  0.00     0.031 C 
ATOM     66  C   UNL A   1      47.809  31.806  28.417  1.00  0.00     0.029 A 
ATOM     67  C   UNL A   1      46.498  31.384  28.571  1.00  0.00     0.049 A 
ATOM     68  H   UNL A   1      45.661  29.488  28.165  1.00  0.00     0.167 HD
ATOM     69  C   UNL A   1      44.097  31.652  29.154  1.00  0.00     0.074 A 
ATOM     70  C   UNL A   1      42.966  32.429  29.619  1.00  0.00     0.031 C 
ATOM     71  C   UNL A   1      45.361  32.137  29.047  1.00  0.00     0.034 A 
BRANCH  58  72
ATOM     72  C   UNL A   1      49.492  27.992  26.957  1.00  0.00     0.023 A 
ATOM     73  C   UNL A   1      50.009  28.135  25.656  1.00  0.00     0.031 A 
ATOM     74  C   UNL A   1      50.343  27.464  27.944  1.00  0.00     0.131 A 
ATOM     75  C   UNL A   1      51.295  27.664  25.355  1.00  0.00     0.055 A 
ATOM     76  C   UNL A   1      51.656  27.085  27.660  1.00  0.00     0.041 A 
ATOM     77  F   UNL A   1      49.903  27.284  29.200  1.00  0.00    -0.206 F 
ATOM     78  C   UNL A   1      52.133  27.163  26.354  1.00  0.00     0.022 A 
BRANCH  75  79
ATOM     79  S   UNL A   1      51.786  27.549  23.613  1.00  0.00     0.124 S 
ATOM     80  O   UNL A   1      50.517  27.207  22.973  1.00  0.00    -0.237 OA
ATOM     81  O   UNL A   1      52.299  28.887  23.341  1.00  0.00    -0.237 OA
ATOM     82  O   UNL A   1      52.785  26.482  23.608  1.00  0.00    -0.744 OA
ENDBRANCH  75  79
ENDBRANCH  58  72
BRANCH  59  83
ATOM     83  C   UNL A   1      39.880  29.554  29.383  1.00  0.00     0.023 A 
ATOM     84  C   UNL A   1      39.522  29.632  30.737  1.00  0.00     0.031 A 
ATOM     85  C   UNL A   1      38.861  29.672  28.421  1.00  0.00     0.131 A 
ATOM     86  C   UNL A   1      38.173  29.783  31.097  1.00  0.00     0.055 A 
ATOM     87  C   UNL A   1      37.526  29.869  28.784  1.00  0.00     0.041 A 
ATOM     88  F   UNL A   1      39.152  29.615  27.112  1.00  0.00    -0.206 F 
ATOM     89  C   UNL A   1      37.176  29.914  30.129  1.00  0.00     0.022 A 
BRANCH  86  90
ATOM     90  S   UNL A   1      37.734  29.742  32.857  1.00  0.00     0.124 S 
ATOM     91  O   UNL A   1      37.400  28.335  33.047  1.00  0.00    -0.237 OA
ATOM     92  O   UNL A   1      38.968  30.201  33.487  1.00  0.00    -0.237 OA
ATOM     93  O   UNL A   1      36.609  30.669  32.947  1.00  0.00    -0.744 OA
ENDBRANCH  86  90
ENDBRANCH  59  83
BRANCH  71  94
ATOM     94  C   UNL A   1      45.569  33.588  29.405  1.00  0.00     0.023 A 
ATOM     95  C   UNL A   1      45.928  33.984  30.704  1.00  0.00     0.031 A 
ATOM     96  C   UNL A   1      45.394  34.587  28.431  1.00  0.00     0.131 A 
ATOM     97  C   UNL A   1      46.047  35.349  31.009  1.00  0.00     0.055 A 
ATOM     98  C   UNL A   1      45.572  35.938  28.725  1.00  0.00     0.041 A 
ATOM     99  F   UNL A   1      45.049  34.263  27.174  1.00  0.00    -0.206 F 
ATOM    100  C   UNL A   1      45.888  36.328  30.024  1.00  0.00     0.022 A 
BRANCH  97 101
ATOM    101  S   UNL A   1      46.326  35.834  32.735  1.00  0.00     0.124 S 
ATOM    102  O   UNL A   1      46.428  37.286  32.629  1.00  0.00    -0.237 OA
ATOM    103  O   UNL A   1      45.130  35.326  33.399  1.00  0.00    -0.237 OA
ATOM    104  O   UNL A   1      47.569  35.150  33.087  1.00  0.00    -0.744 OA
ENDBRANCH  97 101
ENDBRANCH  71  94
ENDBRANCH  45  46
ENDBRANCH  37  40
ENDBRANCH  35  36
ENDBRANCH  34  35
ENDBRANCH   1  34
TORSDOF 19
ENDMDL
