MODEL 1
REMARK VINA RESULT:     -11.8      0.000      0.000
REMARK SMILES Cc1cccc(Cl)c1Nc1ccccc1CC(=O)NCCCCNC(=O)c1ccc(-c2c3nc(c(-c4cc(S(=O)(=O)[O-])ccc4F)c4ccc([nH]4)c(-c4cc(S(=O)(=O)[O-])ccc4F)c4nc(c(-c5cc(S(=O)(=O)[O-])ccc5F)c5ccc2[nH]5)C=C4)C=C3)cc1
REMARK SMILES IDX 21 1 20 2 19 3 17 4 18 5 16 7 15 8 10 9 11 10 12 11 14 12
REMARK SMILES IDX 13 13 9 14 8 16 1 17 2 18 3 19 4 20 6 21 5 22 7 23 22 24
REMARK SMILES IDX 23 25 24 26 25 27 26 29 27 30 28 31 89 32 29 33 88 34 30 35
REMARK SMILES IDX 31 36 32 37 82 38 33 39 87 40 81 41 83 42 34 43 86 44 80 45
REMARK SMILES IDX 79 46 35 48 67 49 47 50 66 51 48 52 51 53 65 54 84 55 49 56
REMARK SMILES IDX 50 57 64 59 85 60 52 61 36 62 37 63 45 64 38 65 44 66 46 67
REMARK SMILES IDX 43 68 39 69 40 70 41 71 42 72 68 73 69 74 77 75 70 76 76 77
REMARK SMILES IDX 78 78 75 79 71 80 72 81 73 82 74 83 53 84 54 85 62 86 55 87
REMARK SMILES IDX 61 88 63 89 60 90 56 91 57 92 58 93 59 94
REMARK H PARENT 19 6 9 15 24 28 83 47 51 58
REMARK Flexibility Score: inf
ROOT
ATOM      1  C   UNL A   1      31.729  30.407  26.176  1.00  0.00     0.023 C 
ENDROOT
BRANCH   1   2
ATOM      2  C   UNL A   1      32.368  29.443  27.174  1.00  0.00     0.116 C 
BRANCH   2   3
ATOM      3  N   UNL A   1      31.717  28.148  27.169  1.00  0.00    -0.356 N 
ATOM      4  C   UNL A   1      32.150  26.986  26.593  1.00  0.00     0.224 C 
ATOM      5  O   UNL A   1      31.414  25.998  26.627  1.00  0.00    -0.275 OA
ATOM      6  H   UNL A   1      30.854  28.099  27.640  1.00  0.00     0.163 HD
BRANCH   4   7
ATOM      7  C   UNL A   1      33.535  26.921  25.964  1.00  0.00     0.137 C 
BRANCH   7   8
ATOM      8  C   UNL A   1      33.866  25.583  25.335  1.00  0.00    -0.015 A 
ATOM      9  C   UNL A   1      33.529  25.249  24.006  1.00  0.00     0.042 A 
ATOM     10  C   UNL A   1      33.771  23.934  23.561  1.00  0.00     0.026 A 
ATOM     11  C   UNL A   1      34.356  22.978  24.392  1.00  0.00     0.002 A 
ATOM     12  C   UNL A   1      34.492  24.614  26.149  1.00  0.00     0.006 A 
ATOM     13  C   UNL A   1      34.730  23.323  25.683  1.00  0.00     0.000 A 
BRANCH   9  14
ATOM     14  N   UNL A   1      33.001  26.152  23.061  1.00  0.00    -0.354 N 
ATOM     15  H   UNL A   1      33.502  26.176  22.214  1.00  0.00     0.167 HD
BRANCH  14  16
ATOM     16  C   UNL A   1      31.891  27.029  23.094  1.00  0.00     0.060 A 
ATOM     17  C   UNL A   1      33.525  28.970  22.753  1.00  0.00     0.046 C 
ATOM     18  C   UNL A   1      32.131  28.419  22.917  1.00  0.00    -0.026 A 
ATOM     19  C   UNL A   1      31.052  29.318  22.846  1.00  0.00     0.005 A 
ATOM     20  C   UNL A   1      29.741  28.870  22.958  1.00  0.00     0.002 A 
ATOM     21  C   UNL A   1      30.550  26.603  23.233  1.00  0.00     0.064 A 
ATOM     22  C   UNL A   1      29.491  27.517  23.160  1.00  0.00     0.023 A 
ATOM     23  Cl  UNL A   1      30.109  24.972  23.614  1.00  0.00    -0.082 Cl
ENDBRANCH  14  16
ENDBRANCH   9  14
ENDBRANCH   7   8
ENDBRANCH   4   7
ENDBRANCH   2   3
ENDBRANCH   1   2
BRANCH   1  24
ATOM     24  C   UNL A   1      31.507  31.825  26.710  1.00  0.00     0.023 C 
BRANCH  24  25
ATOM     25  C   UNL A   1      32.778  32.634  26.944  1.00  0.00     0.116 C 
BRANCH  25  26
ATOM     26  N   UNL A   1      32.529  33.918  27.585  1.00  0.00    -0.352 N 
ATOM     27  C   UNL A   1      33.207  34.488  28.636  1.00  0.00     0.251 C 
ATOM     28  H   UNL A   1      31.781  34.444  27.219  1.00  0.00     0.163 HD
ATOM     29  O   UNL A   1      32.801  35.531  29.137  1.00  0.00    -0.269 OA
BRANCH  27  30
ATOM     30  C   UNL A   1      34.399  33.802  29.181  1.00  0.00     0.039 A 
ATOM     31  C   UNL A   1      35.669  34.251  28.806  1.00  0.00     0.014 A 
ATOM     32  C   UNL A   1      34.260  32.753  30.094  1.00  0.00     0.014 A 
ATOM     33  C   UNL A   1      36.801  33.697  29.409  1.00  0.00     0.010 A 
ATOM     34  C   UNL A   1      35.385  32.246  30.736  1.00  0.00     0.010 A 
ATOM     35  C   UNL A   1      36.667  32.718  30.405  1.00  0.00    -0.014 A 
BRANCH  35  36
ATOM     36  C   UNL A   1      37.847  32.170  31.124  1.00  0.00     0.031 A 
ATOM     37  C   UNL A   1      38.628  31.037  30.519  1.00  0.00     0.074 A 
ATOM     38  C   UNL A   1      38.155  32.629  32.352  1.00  0.00     0.049 A 
ATOM     39  N   UNL A   1      39.598  30.330  31.038  1.00  0.00    -0.248 NA
ATOM     40  C   UNL A   1      38.240  30.625  29.162  1.00  0.00     0.031 C 
ATOM     41  C   UNL A   1      37.447  33.701  33.057  1.00  0.00     0.029 A 
ATOM     42  N   UNL A   1      39.130  32.241  33.236  1.00  0.00    -0.354 N 
ATOM     43  C   UNL A   1      39.924  29.374  30.081  1.00  0.00     0.074 A 
ATOM     44  C   UNL A   1      39.010  29.565  28.973  1.00  0.00     0.031 C 
ATOM     45  C   UNL A   1      38.017  33.888  34.259  1.00  0.00     0.029 A 
ATOM     46  C   UNL A   1      39.100  32.924  34.430  1.00  0.00     0.049 A 
ATOM     47  H   UNL A   1      39.791  31.538  33.034  1.00  0.00     0.167 HD
ATOM     48  C   UNL A   1      40.905  28.439  30.117  1.00  0.00     0.034 A 
ATOM     49  C   UNL A   1      39.845  32.776  35.543  1.00  0.00     0.034 A 
ATOM     50  C   UNL A   1      41.818  28.275  31.221  1.00  0.00     0.049 A 
ATOM     51  C   UNL A   1      40.923  31.722  35.565  1.00  0.00     0.074 A 
ATOM     52  C   UNL A   1      42.883  27.400  31.339  1.00  0.00     0.029 A 
ATOM     53  N   UNL A   1      41.771  29.003  32.404  1.00  0.00    -0.354 N 
ATOM     54  N   UNL A   1      41.245  30.852  34.635  1.00  0.00    -0.248 NA
ATOM     55  C   UNL A   1      41.742  31.636  36.781  1.00  0.00     0.031 C 
ATOM     56  C   UNL A   1      43.443  27.557  32.612  1.00  0.00     0.029 A 
ATOM     57  C   UNL A   1      42.772  28.578  33.264  1.00  0.00     0.049 A 
ATOM     58  H   UNL A   1      41.121  29.716  32.602  1.00  0.00     0.167 HD
ATOM     59  C   UNL A   1      42.327  30.138  35.144  1.00  0.00     0.074 A 
ATOM     60  C   UNL A   1      42.604  30.683  36.457  1.00  0.00     0.031 C 
ATOM     61  C   UNL A   1      43.032  29.131  34.572  1.00  0.00     0.034 A 
BRANCH  48  62
ATOM     62  C   UNL A   1      41.014  27.507  28.934  1.00  0.00     0.023 A 
ATOM     63  C   UNL A   1      42.015  27.665  27.960  1.00  0.00     0.031 A 
ATOM     64  C   UNL A   1      40.086  26.466  28.759  1.00  0.00     0.131 A 
ATOM     65  C   UNL A   1      42.016  26.853  26.816  1.00  0.00     0.055 A 
ATOM     66  C   UNL A   1      40.141  25.606  27.660  1.00  0.00     0.041 A 
ATOM     67  F   UNL A   1      39.095  26.276  29.646  1.00  0.00    -0.206 F 
ATOM     68  C   UNL A   1      41.101  25.807  26.671  1.00  0.00     0.022 A 
BRANCH  65  69
ATOM     69  S   UNL A   1      43.136  27.277  25.455  1.00  0.00     0.124 S 
ATOM     70  O   UNL A   1      44.278  27.834  26.177  1.00  0.00    -0.237 OA
ATOM     71  O   UNL A   1      43.355  25.987  24.812  1.00  0.00    -0.237 OA
ATOM     72  O   UNL A   1      42.372  28.245  24.670  1.00  0.00    -0.744 OA
ENDBRANCH  65  69
ENDBRANCH  48  62
BRANCH  49  73
ATOM     73  C   UNL A   1      39.596  33.633  36.736  1.00  0.00     0.023 A 
ATOM     74  C   UNL A   1      38.965  33.115  37.877  1.00  0.00     0.031 A 
ATOM     75  C   UNL A   1      39.953  34.993  36.738  1.00  0.00     0.131 A 
ATOM     76  C   UNL A   1      38.671  33.961  38.957  1.00  0.00     0.055 A 
ATOM     77  C   UNL A   1      39.702  35.820  37.834  1.00  0.00     0.041 A 
ATOM     78  F   UNL A   1      40.566  35.536  35.674  1.00  0.00    -0.206 F 
ATOM     79  C   UNL A   1      39.045  35.307  38.948  1.00  0.00     0.022 A 
BRANCH  76  80
ATOM     80  S   UNL A   1      37.722  33.291  40.351  1.00  0.00     0.124 S 
ATOM     81  O   UNL A   1      36.456  32.952  39.713  1.00  0.00    -0.237 OA
ATOM     82  O   UNL A   1      38.553  32.167  40.770  1.00  0.00    -0.237 OA
ATOM     83  O   UNL A   1      37.668  34.407  41.293  1.00  0.00    -0.744 OA
ENDBRANCH  76  80
ENDBRANCH  49  73
BRANCH  61  84
ATOM     84  C   UNL A   1      44.210  28.593  35.346  1.00  0.00     0.023 A 
ATOM     85  C   UNL A   1      44.078  27.526  36.251  1.00  0.00     0.031 A 
ATOM     86  C   UNL A   1      45.483  29.162  35.169  1.00  0.00     0.131 A 
ATOM     87  C   UNL A   1      45.195  27.089  36.979  1.00  0.00     0.055 A 
ATOM     88  C   UNL A   1      46.600  28.689  35.858  1.00  0.00     0.041 A 
ATOM     89  F   UNL A   1      45.663  30.184  34.317  1.00  0.00    -0.206 F 
ATOM     90  C   UNL A   1      46.458  27.653  36.776  1.00  0.00     0.022 A 
BRANCH  87  91
ATOM     91  S   UNL A   1      44.967  25.811  38.245  1.00  0.00     0.124 S 
ATOM     92  O   UNL A   1      44.167  26.512  39.244  1.00  0.00    -0.237 OA
ATOM     93  O   UNL A   1      44.281  24.755  37.505  1.00  0.00    -0.237 OA
ATOM     94  O   UNL A   1      46.331  25.487  38.658  1.00  0.00    -0.744 OA
ENDBRANCH  87  91
ENDBRANCH  61  84
ENDBRANCH  35  36
ENDBRANCH  27  30
ENDBRANCH  25  26
ENDBRANCH  24  25
ENDBRANCH   1  24
TORSDOF 17
ENDMDL
MODEL 2
REMARK VINA RESULT:     -11.6      3.948      8.852
REMARK SMILES Cc1cccc(Cl)c1Nc1ccccc1CC(=O)NCCCCNC(=O)c1ccc(-c2c3nc(c(-c4cc(S(=O)(=O)[O-])ccc4F)c4ccc([nH]4)c(-c4cc(S(=O)(=O)[O-])ccc4F)c4nc(c(-c5cc(S(=O)(=O)[O-])ccc5F)c5ccc2[nH]5)C=C4)C=C3)cc1
REMARK SMILES IDX 21 1 20 2 19 3 17 4 18 5 16 7 15 8 10 9 11 10 12 11 14 12
REMARK SMILES IDX 13 13 9 14 8 16 1 17 2 18 3 19 4 20 6 21 5 22 7 23 22 24
REMARK SMILES IDX 23 25 24 26 25 27 26 29 27 30 28 31 89 32 29 33 88 34 30 35
REMARK SMILES IDX 31 36 32 37 82 38 33 39 87 40 81 41 83 42 34 43 86 44 80 45
REMARK SMILES IDX 79 46 35 48 67 49 47 50 66 51 48 52 51 53 65 54 84 55 49 56
REMARK SMILES IDX 50 57 64 59 85 60 52 61 36 62 37 63 45 64 38 65 44 66 46 67
REMARK SMILES IDX 43 68 39 69 40 70 41 71 42 72 68 73 69 74 77 75 70 76 76 77
REMARK SMILES IDX 78 78 75 79 71 80 72 81 73 82 74 83 53 84 54 85 62 86 55 87
REMARK SMILES IDX 61 88 63 89 60 90 56 91 57 92 58 93 59 94
REMARK H PARENT 19 6 9 15 24 28 83 47 51 58
REMARK Flexibility Score: inf
ROOT
ATOM      1  C   UNL A   1      32.661  29.057  24.261  1.00  0.00     0.023 C 
ENDROOT
BRANCH   1   2
ATOM      2  C   UNL A   1      32.375  28.710  22.801  1.00  0.00     0.116 C 
BRANCH   2   3
ATOM      3  N   UNL A   1      33.265  27.679  22.305  1.00  0.00    -0.356 N 
ATOM      4  C   UNL A   1      32.991  26.357  22.090  1.00  0.00     0.224 C 
ATOM      5  O   UNL A   1      33.908  25.612  21.737  1.00  0.00    -0.275 OA
ATOM      6  H   UNL A   1      34.183  27.968  22.096  1.00  0.00     0.163 HD
BRANCH   4   7
ATOM      7  C   UNL A   1      31.567  25.843  22.246  1.00  0.00     0.137 C 
BRANCH   7   8
ATOM      8  C   UNL A   1      31.215  25.418  23.658  1.00  0.00    -0.015 A 
ATOM      9  C   UNL A   1      31.710  24.241  24.259  1.00  0.00     0.042 A 
ATOM     10  C   UNL A   1      31.221  23.877  25.528  1.00  0.00     0.026 A 
ATOM     11  C   UNL A   1      30.289  24.664  26.206  1.00  0.00     0.002 A 
ATOM     12  C   UNL A   1      30.301  26.222  24.374  1.00  0.00     0.006 A 
ATOM     13  C   UNL A   1      29.839  25.845  25.633  1.00  0.00     0.000 A 
BRANCH   9  14
ATOM     14  N   UNL A   1      32.704  23.412  23.699  1.00  0.00    -0.354 N 
ATOM     15  H   UNL A   1      32.690  23.385  22.716  1.00  0.00     0.167 HD
BRANCH  14  16
ATOM     16  C   UNL A   1      33.716  22.611  24.278  1.00  0.00     0.060 A 
ATOM     17  C   UNL A   1      32.360  20.551  23.588  1.00  0.00     0.046 C 
ATOM     18  C   UNL A   1      33.574  21.198  24.207  1.00  0.00    -0.026 A 
ATOM     19  C   UNL A   1      34.599  20.360  24.683  1.00  0.00     0.005 A 
ATOM     20  C   UNL A   1      35.757  20.894  25.236  1.00  0.00     0.002 A 
ATOM     21  C   UNL A   1      34.892  23.127  24.871  1.00  0.00     0.064 A 
ATOM     22  C   UNL A   1      35.899  22.273  25.338  1.00  0.00     0.023 A 
ATOM     23  Cl  UNL A   1      35.137  24.815  25.173  1.00  0.00    -0.082 Cl
ENDBRANCH  14  16
ENDBRANCH   9  14
ENDBRANCH   7   8
ENDBRANCH   4   7
ENDBRANCH   2   3
ENDBRANCH   1   2
BRANCH   1  24
ATOM     24  C   UNL A   1      33.595  28.080  24.980  1.00  0.00     0.023 C 
BRANCH  24  25
ATOM     25  C   UNL A   1      34.158  28.579  26.305  1.00  0.00     0.116 C 
BRANCH  25  26
ATOM     26  N   UNL A   1      33.792  29.958  26.599  1.00  0.00    -0.352 N 
ATOM     27  C   UNL A   1      34.421  30.841  27.443  1.00  0.00     0.251 C 
ATOM     28  H   UNL A   1      32.994  30.300  26.136  1.00  0.00     0.163 HD
ATOM     29  O   UNL A   1      33.921  31.938  27.671  1.00  0.00    -0.269 OA
BRANCH  27  30
ATOM     30  C   UNL A   1      35.679  30.433  28.106  1.00  0.00     0.039 A 
ATOM     31  C   UNL A   1      35.614  29.812  29.357  1.00  0.00     0.014 A 
ATOM     32  C   UNL A   1      36.910  30.620  27.472  1.00  0.00     0.014 A 
ATOM     33  C   UNL A   1      36.781  29.308  29.938  1.00  0.00     0.010 A 
ATOM     34  C   UNL A   1      38.060  30.064  28.023  1.00  0.00     0.010 A 
ATOM     35  C   UNL A   1      38.006  29.396  29.258  1.00  0.00    -0.014 A 
BRANCH  35  36
ATOM     36  C   UNL A   1      39.248  28.796  29.810  1.00  0.00     0.031 A 
ATOM     37  C   UNL A   1      39.919  29.429  30.998  1.00  0.00     0.074 A 
ATOM     38  C   UNL A   1      39.816  27.743  29.191  1.00  0.00     0.049 A 
ATOM     39  N   UNL A   1      41.072  29.148  31.545  1.00  0.00    -0.248 NA
ATOM     40  C   UNL A   1      39.209  30.552  31.628  1.00  0.00     0.031 C 
ATOM     41  C   UNL A   1      39.277  27.066  28.008  1.00  0.00     0.029 A 
ATOM     42  N   UNL A   1      40.982  27.070  29.454  1.00  0.00    -0.354 N 
ATOM     43  C   UNL A   1      41.239  30.070  32.573  1.00  0.00     0.074 A 
ATOM     44  C   UNL A   1      40.089  30.951  32.534  1.00  0.00     0.031 C 
ATOM     45  C   UNL A   1      40.107  26.070  27.656  1.00  0.00     0.029 A 
ATOM     46  C   UNL A   1      41.257  26.064  28.555  1.00  0.00     0.049 A 
ATOM     47  H   UNL A   1      41.569  27.286  30.216  1.00  0.00     0.167 HD
ATOM     48  C   UNL A   1      42.248  30.163  33.474  1.00  0.00     0.034 A 
ATOM     49  C   UNL A   1      42.322  25.245  28.456  1.00  0.00     0.034 A 
ATOM     50  C   UNL A   1      43.377  29.266  33.510  1.00  0.00     0.049 A 
ATOM     51  C   UNL A   1      43.438  25.372  29.462  1.00  0.00     0.074 A 
ATOM     52  C   UNL A   1      44.425  29.233  34.412  1.00  0.00     0.029 A 
ATOM     53  N   UNL A   1      43.607  28.244  32.597  1.00  0.00    -0.354 N 
ATOM     54  N   UNL A   1      43.561  26.225  30.453  1.00  0.00    -0.248 NA
ATOM     55  C   UNL A   1      44.551  24.423  29.342  1.00  0.00     0.031 C 
ATOM     56  C   UNL A   1      45.317  28.231  34.013  1.00  0.00     0.029 A 
ATOM     57  C   UNL A   1      44.793  27.592  32.902  1.00  0.00     0.049 A 
ATOM     58  H   UNL A   1      43.015  28.016  31.844  1.00  0.00     0.167 HD
ATOM     59  C   UNL A   1      44.751  25.892  31.093  1.00  0.00     0.074 A 
ATOM     60  C   UNL A   1      45.303  24.758  30.380  1.00  0.00     0.031 C 
ATOM     61  C   UNL A   1      45.330  26.465  32.178  1.00  0.00     0.034 A 
BRANCH  48  62
ATOM     62  C   UNL A   1      42.180  31.293  34.473  1.00  0.00     0.023 A 
ATOM     63  C   UNL A   1      42.653  32.580  34.165  1.00  0.00     0.031 A 
ATOM     64  C   UNL A   1      41.666  31.073  35.763  1.00  0.00     0.131 A 
ATOM     65  C   UNL A   1      42.680  33.573  35.154  1.00  0.00     0.055 A 
ATOM     66  C   UNL A   1      41.618  32.089  36.720  1.00  0.00     0.041 A 
ATOM     67  F   UNL A   1      41.218  29.860  36.124  1.00  0.00    -0.206 F 
ATOM     68  C   UNL A   1      42.142  33.345  36.424  1.00  0.00     0.022 A 
BRANCH  65  69
ATOM     69  S   UNL A   1      43.559  35.120  34.804  1.00  0.00     0.124 S 
ATOM     70  O   UNL A   1      43.963  35.538  36.145  1.00  0.00    -0.237 OA
ATOM     71  O   UNL A   1      44.633  34.680  33.922  1.00  0.00    -0.237 OA
ATOM     72  O   UNL A   1      42.540  35.960  34.178  1.00  0.00    -0.744 OA
ENDBRANCH  65  69
ENDBRANCH  48  62
BRANCH  49  73
ATOM     73  C   UNL A   1      42.400  24.240  27.358  1.00  0.00     0.023 A 
ATOM     74  C   UNL A   1      41.655  23.051  27.414  1.00  0.00     0.031 A 
ATOM     75  C   UNL A   1      43.248  24.437  26.255  1.00  0.00     0.131 A 
ATOM     76  C   UNL A   1      41.805  22.086  26.407  1.00  0.00     0.055 A 
ATOM     77  C   UNL A   1      43.358  23.494  25.231  1.00  0.00     0.041 A 
ATOM     78  F   UNL A   1      43.976  25.561  26.151  1.00  0.00    -0.206 F 
ATOM     79  C   UNL A   1      42.643  22.304  25.311  1.00  0.00     0.022 A 
BRANCH  76  80
ATOM     80  S   UNL A   1      40.942  20.500  26.590  1.00  0.00     0.124 S 
ATOM     81  O   UNL A   1      41.830  19.594  25.871  1.00  0.00    -0.237 OA
ATOM     82  O   UNL A   1      40.902  20.343  28.040  1.00  0.00    -0.237 OA
ATOM     83  O   UNL A   1      39.648  20.743  25.956  1.00  0.00    -0.744 OA
ENDBRANCH  76  80
ENDBRANCH  49  73
BRANCH  61  84
ATOM     84  C   UNL A   1      46.599  25.833  32.692  1.00  0.00     0.023 A 
ATOM     85  C   UNL A   1      47.857  26.155  32.155  1.00  0.00     0.031 A 
ATOM     86  C   UNL A   1      46.542  24.895  33.738  1.00  0.00     0.131 A 
ATOM     87  C   UNL A   1      49.006  25.510  32.639  1.00  0.00     0.055 A 
ATOM     88  C   UNL A   1      47.692  24.295  34.248  1.00  0.00     0.041 A 
ATOM     89  F   UNL A   1      45.364  24.552  34.284  1.00  0.00    -0.206 F 
ATOM     90  C   UNL A   1      48.932  24.594  33.692  1.00  0.00     0.022 A 
BRANCH  87  91
ATOM     91  S   UNL A   1      50.596  25.835  31.830  1.00  0.00     0.124 S 
ATOM     92  O   UNL A   1      51.536  25.690  32.937  1.00  0.00    -0.237 OA
ATOM     93  O   UNL A   1      50.647  24.792  30.809  1.00  0.00    -0.237 OA
ATOM     94  O   UNL A   1      50.448  27.195  31.315  1.00  0.00    -0.744 OA
ENDBRANCH  87  91
ENDBRANCH  61  84
ENDBRANCH  35  36
ENDBRANCH  27  30
ENDBRANCH  25  26
ENDBRANCH  24  25
ENDBRANCH   1  24
TORSDOF 17
ENDMDL
MODEL 3
REMARK VINA RESULT:     -11.5      1.529      2.828
REMARK SMILES Cc1cccc(Cl)c1Nc1ccccc1CC(=O)NCCCCNC(=O)c1ccc(-c2c3nc(c(-c4cc(S(=O)(=O)[O-])ccc4F)c4ccc([nH]4)c(-c4cc(S(=O)(=O)[O-])ccc4F)c4nc(c(-c5cc(S(=O)(=O)[O-])ccc5F)c5ccc2[nH]5)C=C4)C=C3)cc1
REMARK SMILES IDX 21 1 20 2 19 3 17 4 18 5 16 7 15 8 10 9 11 10 12 11 14 12
REMARK SMILES IDX 13 13 9 14 8 16 1 17 2 18 3 19 4 20 6 21 5 22 7 23 22 24
REMARK SMILES IDX 23 25 24 26 25 27 26 29 27 30 28 31 89 32 29 33 88 34 30 35
REMARK SMILES IDX 31 36 32 37 82 38 33 39 87 40 81 41 83 42 34 43 86 44 80 45
REMARK SMILES IDX 79 46 35 48 67 49 47 50 66 51 48 52 51 53 65 54 84 55 49 56
REMARK SMILES IDX 50 57 64 59 85 60 52 61 36 62 37 63 45 64 38 65 44 66 46 67
REMARK SMILES IDX 43 68 39 69 40 70 41 71 42 72 68 73 69 74 77 75 70 76 76 77
REMARK SMILES IDX 78 78 75 79 71 80 72 81 73 82 74 83 53 84 54 85 62 86 55 87
REMARK SMILES IDX 61 88 63 89 60 90 56 91 57 92 58 93 59 94
REMARK H PARENT 19 6 9 15 24 28 83 47 51 58
REMARK Flexibility Score: inf
ROOT
ATOM      1  C   UNL A   1      31.995  30.418  26.282  1.00  0.00     0.023 C 
ENDROOT
BRANCH   1   2
ATOM      2  C   UNL A   1      32.404  29.340  27.285  1.00  0.00     0.116 C 
BRANCH   2   3
ATOM      3  N   UNL A   1      31.511  28.199  27.247  1.00  0.00    -0.356 N 
ATOM      4  C   UNL A   1      31.718  26.983  26.658  1.00  0.00     0.224 C 
ATOM      5  O   UNL A   1      30.801  26.159  26.664  1.00  0.00    -0.275 OA
ATOM      6  H   UNL A   1      30.647  28.314  27.704  1.00  0.00     0.163 HD
BRANCH   4   7
ATOM      7  C   UNL A   1      33.074  26.655  26.050  1.00  0.00     0.137 C 
BRANCH   7   8
ATOM      8  C   UNL A   1      33.025  26.324  24.572  1.00  0.00    -0.015 A 
ATOM      9  C   UNL A   1      33.570  25.143  24.025  1.00  0.00     0.042 A 
ATOM     10  C   UNL A   1      33.581  24.993  22.624  1.00  0.00     0.026 A 
ATOM     11  C   UNL A   1      33.045  25.967  21.781  1.00  0.00     0.002 A 
ATOM     12  C   UNL A   1      32.453  27.281  23.705  1.00  0.00     0.006 A 
ATOM     13  C   UNL A   1      32.468  27.106  22.323  1.00  0.00     0.000 A 
BRANCH   9  14
ATOM     14  N   UNL A   1      34.071  24.065  24.783  1.00  0.00    -0.354 N 
ATOM     15  H   UNL A   1      34.773  24.323  25.422  1.00  0.00     0.167 HD
BRANCH  14  16
ATOM     16  C   UNL A   1      33.761  22.684  24.801  1.00  0.00     0.060 A 
ATOM     17  C   UNL A   1      36.264  22.206  24.555  1.00  0.00     0.046 C 
ATOM     18  C   UNL A   1      34.834  21.755  24.717  1.00  0.00    -0.026 A 
ATOM     19  C   UNL A   1      34.584  20.376  24.827  1.00  0.00     0.005 A 
ATOM     20  C   UNL A   1      33.291  19.897  25.010  1.00  0.00     0.002 A 
ATOM     21  C   UNL A   1      32.453  22.169  24.958  1.00  0.00     0.064 A 
ATOM     22  C   UNL A   1      32.228  20.791  25.066  1.00  0.00     0.023 A 
ATOM     23  Cl  UNL A   1      31.033  23.161  24.915  1.00  0.00    -0.082 Cl
ENDBRANCH  14  16
ENDBRANCH   9  14
ENDBRANCH   7   8
ENDBRANCH   4   7
ENDBRANCH   2   3
ENDBRANCH   1   2
BRANCH   1  24
ATOM     24  C   UNL A   1      31.693  31.785  26.901  1.00  0.00     0.023 C 
BRANCH  24  25
ATOM     25  C   UNL A   1      32.889  32.723  27.014  1.00  0.00     0.116 C 
BRANCH  25  26
ATOM     26  N   UNL A   1      32.584  33.957  27.725  1.00  0.00    -0.352 N 
ATOM     27  C   UNL A   1      33.215  34.481  28.827  1.00  0.00     0.251 C 
ATOM     28  H   UNL A   1      31.830  34.483  27.370  1.00  0.00     0.163 HD
ATOM     29  O   UNL A   1      32.764  35.479  29.379  1.00  0.00    -0.269 OA
BRANCH  27  30
ATOM     30  C   UNL A   1      34.413  33.797  29.364  1.00  0.00     0.039 A 
ATOM     31  C   UNL A   1      35.678  34.293  29.037  1.00  0.00     0.014 A 
ATOM     32  C   UNL A   1      34.281  32.704  30.224  1.00  0.00     0.014 A 
ATOM     33  C   UNL A   1      36.812  33.737  29.636  1.00  0.00     0.010 A 
ATOM     34  C   UNL A   1      35.406  32.193  30.864  1.00  0.00     0.010 A 
ATOM     35  C   UNL A   1      36.682  32.710  30.582  1.00  0.00    -0.014 A 
BRANCH  35  36
ATOM     36  C   UNL A   1      37.861  32.156  31.298  1.00  0.00     0.031 A 
ATOM     37  C   UNL A   1      38.671  31.059  30.665  1.00  0.00     0.074 A 
ATOM     38  C   UNL A   1      38.143  32.575  32.547  1.00  0.00     0.049 A 
ATOM     39  N   UNL A   1      39.645  30.350  31.172  1.00  0.00    -0.248 NA
ATOM     40  C   UNL A   1      38.310  30.691  29.288  1.00  0.00     0.031 C 
ATOM     41  C   UNL A   1      37.406  33.608  33.280  1.00  0.00     0.029 A 
ATOM     42  N   UNL A   1      39.112  32.171  33.431  1.00  0.00    -0.354 N 
ATOM     43  C   UNL A   1      40.002  29.436  30.186  1.00  0.00     0.074 A 
ATOM     44  C   UNL A   1      39.101  29.652  29.072  1.00  0.00     0.031 C 
ATOM     45  C   UNL A   1      37.955  33.760  34.496  1.00  0.00     0.029 A 
ATOM     46  C   UNL A   1      39.052  32.808  34.649  1.00  0.00     0.049 A 
ATOM     47  H   UNL A   1      39.788  31.487  33.213  1.00  0.00     0.167 HD
ATOM     48  C   UNL A   1      40.999  28.517  30.202  1.00  0.00     0.034 A 
ATOM     49  C   UNL A   1      39.783  32.633  35.766  1.00  0.00     0.034 A 
ATOM     50  C   UNL A   1      41.898  28.328  31.314  1.00  0.00     0.049 A 
ATOM     51  C   UNL A   1      40.879  31.597  35.766  1.00  0.00     0.074 A 
ATOM     52  C   UNL A   1      42.976  27.468  31.416  1.00  0.00     0.029 A 
ATOM     53  N   UNL A   1      41.821  29.011  32.522  1.00  0.00    -0.354 N 
ATOM     54  N   UNL A   1      41.230  30.768  34.811  1.00  0.00    -0.248 NA
ATOM     55  C   UNL A   1      41.681  31.480  36.991  1.00  0.00     0.031 C 
ATOM     56  C   UNL A   1      43.515  27.587  32.702  1.00  0.00     0.029 A 
ATOM     57  C   UNL A   1      42.817  28.572  33.381  1.00  0.00     0.049 A 
ATOM     58  H   UNL A   1      41.156  29.705  32.736  1.00  0.00     0.167 HD
ATOM     59  C   UNL A   1      42.316  30.054  35.309  1.00  0.00     0.074 A 
ATOM     60  C   UNL A   1      42.565  30.555  36.646  1.00  0.00     0.031 C 
ATOM     61  C   UNL A   1      43.048  29.080  34.712  1.00  0.00     0.034 A 
BRANCH  48  62
ATOM     62  C   UNL A   1      41.141  27.631  28.988  1.00  0.00     0.023 A 
ATOM     63  C   UNL A   1      42.151  27.845  28.033  1.00  0.00     0.031 A 
ATOM     64  C   UNL A   1      40.237  26.578  28.764  1.00  0.00     0.131 A 
ATOM     65  C   UNL A   1      42.182  27.076  26.861  1.00  0.00     0.055 A 
ATOM     66  C   UNL A   1      40.323  25.761  27.635  1.00  0.00     0.041 A 
ATOM     67  F   UNL A   1      39.240  26.337  29.630  1.00  0.00    -0.206 F 
ATOM     68  C   UNL A   1      41.290  26.017  26.667  1.00  0.00     0.022 A 
BRANCH  65  69
ATOM     69  S   UNL A   1      43.310  27.571  25.531  1.00  0.00     0.124 S 
ATOM     70  O   UNL A   1      42.394  28.223  24.597  1.00  0.00    -0.237 OA
ATOM     71  O   UNL A   1      44.249  28.447  26.222  1.00  0.00    -0.237 OA
ATOM     72  O   UNL A   1      43.867  26.303  25.063  1.00  0.00    -0.744 OA
ENDBRANCH  65  69
ENDBRANCH  48  62
BRANCH  49  73
ATOM     73  C   UNL A   1      39.502  33.441  36.986  1.00  0.00     0.023 A 
ATOM     74  C   UNL A   1      40.197  34.634  37.238  1.00  0.00     0.031 A 
ATOM     75  C   UNL A   1      38.558  33.012  37.937  1.00  0.00     0.131 A 
ATOM     76  C   UNL A   1      39.969  35.336  38.432  1.00  0.00     0.055 A 
ATOM     77  C   UNL A   1      38.301  33.739  39.100  1.00  0.00     0.041 A 
ATOM     78  F   UNL A   1      37.862  31.882  37.739  1.00  0.00    -0.206 F 
ATOM     79  C   UNL A   1      39.018  34.903  39.359  1.00  0.00     0.022 A 
BRANCH  76  80
ATOM     80  S   UNL A   1      40.992  36.790  38.791  1.00  0.00     0.124 S 
ATOM     81  O   UNL A   1      39.984  37.833  38.942  1.00  0.00    -0.237 OA
ATOM     82  O   UNL A   1      41.680  36.382  40.012  1.00  0.00    -0.237 OA
ATOM     83  O   UNL A   1      41.843  36.908  37.609  1.00  0.00    -0.744 OA
ENDBRANCH  76  80
ENDBRANCH  49  73
BRANCH  61  84
ATOM     84  C   UNL A   1      44.223  28.535  35.484  1.00  0.00     0.023 A 
ATOM     85  C   UNL A   1      44.082  27.480  36.401  1.00  0.00     0.031 A 
ATOM     86  C   UNL A   1      45.503  29.085  35.292  1.00  0.00     0.131 A 
ATOM     87  C   UNL A   1      45.199  27.034  37.126  1.00  0.00     0.055 A 
ATOM     88  C   UNL A   1      46.618  28.604  35.979  1.00  0.00     0.041 A 
ATOM     89  F   UNL A   1      45.691  30.095  34.428  1.00  0.00    -0.206 F 
ATOM     90  C   UNL A   1      46.468  27.579  36.909  1.00  0.00     0.022 A 
BRANCH  87  91
ATOM     91  S   UNL A   1      44.961  25.773  38.407  1.00  0.00     0.124 S 
ATOM     92  O   UNL A   1      43.882  24.968  37.844  1.00  0.00    -0.237 OA
ATOM     93  O   UNL A   1      46.272  25.132  38.463  1.00  0.00    -0.237 OA
ATOM     94  O   UNL A   1      44.603  26.550  39.593  1.00  0.00    -0.744 OA
ENDBRANCH  87  91
ENDBRANCH  61  84
ENDBRANCH  35  36
ENDBRANCH  27  30
ENDBRANCH  25  26
ENDBRANCH  24  25
ENDBRANCH   1  24
TORSDOF 17
ENDMDL
