MODEL 1
REMARK VINA RESULT:     -11.7      0.000      0.000
REMARK SMILES O=C(NCCCCNC(=O)[C@@H](Cc1ccccc1Br)CC(F)(F)F)c1ccc(-c2c3nc(c(-c4cc(S(=O)(=O)[O-])ccc4F)c4ccc([nH]4)c(-c4cc(S(=O)(=O)[O-])ccc4F)c4nc(c(-c5cc(S(=O)(=O)[O-])ccc5F)c5ccc2[nH]5)C=C4)C=C3)cc1
REMARK SMILES IDX 5 1 4 2 3 3 1 4 2 5 25 7 26 8 87 9 27 10 86 11 28 12 29 13
REMARK SMILES IDX 30 14 80 15 31 16 85 17 79 18 81 19 32 20 84 21 78 22 77 23
REMARK SMILES IDX 33 25 65 26 45 27 64 28 46 29 49 30 63 31 82 32 47 33 48 34
REMARK SMILES IDX 62 36 83 37 50 38 34 39 35 40 43 41 36 42 42 43 44 44 41 45
REMARK SMILES IDX 37 46 38 47 39 48 40 49 66 50 67 51 75 52 68 53 74 54 76 55
REMARK SMILES IDX 73 56 69 57 70 58 71 59 72 60 51 61 52 62 60 63 53 64 59 65
REMARK SMILES IDX 61 66 58 67 54 68 55 69 56 70 57 71 6 72 7 73 8 74 9 75
REMARK SMILES IDX 10 77 11 78 12 79 13 80 14 81 18 82 15 83 17 84 19 85 16 86
REMARK SMILES IDX 20 87 21 88 22 89 23 90 24 91
REMARK H PARENT 3 6 81 24 49 35 8 76
REMARK Flexibility Score: inf
ROOT
ATOM      1  C   UNL A   1      31.505  29.058  25.943  1.00  0.00     0.023 C 
ENDROOT
BRANCH   1   2
ATOM      2  C   UNL A   1      32.680  30.026  25.974  1.00  0.00     0.116 C 
BRANCH   2   3
ATOM      3  N   UNL A   1      32.404  31.331  26.560  1.00  0.00    -0.352 N 
ATOM      4  O   UNL A   1      32.892  33.180  27.792  1.00  0.00    -0.269 OA
ATOM      5  C   UNL A   1      33.254  32.097  27.340  1.00  0.00     0.251 C 
ATOM      6  H   UNL A   1      31.513  31.710  26.384  1.00  0.00     0.163 HD
BRANCH   5   7
ATOM      7  C   UNL A   1      34.593  31.548  27.675  1.00  0.00     0.039 A 
ATOM      8  C   UNL A   1      34.748  30.183  27.911  1.00  0.00     0.014 A 
ATOM      9  C   UNL A   1      35.652  32.427  27.920  1.00  0.00     0.014 A 
ATOM     10  C   UNL A   1      35.860  29.736  28.618  1.00  0.00     0.010 A 
ATOM     11  C   UNL A   1      36.818  31.952  28.534  1.00  0.00     0.010 A 
ATOM     12  C   UNL A   1      36.900  30.618  28.965  1.00  0.00    -0.014 A 
BRANCH  12  13
ATOM     13  C   UNL A   1      38.018  30.126  29.825  1.00  0.00     0.031 A 
ATOM     14  C   UNL A   1      39.101  29.234  29.261  1.00  0.00     0.074 A 
ATOM     15  C   UNL A   1      38.105  30.550  31.102  1.00  0.00     0.049 A 
ATOM     16  N   UNL A   1      40.158  28.736  29.858  1.00  0.00    -0.248 NA
ATOM     17  C   UNL A   1      38.976  28.838  27.851  1.00  0.00     0.031 C 
ATOM     18  C   UNL A   1      37.129  31.417  31.767  1.00  0.00     0.029 A 
ATOM     19  N   UNL A   1      39.068  30.342  32.057  1.00  0.00    -0.354 N 
ATOM     20  C   UNL A   1      40.797  27.936  28.912  1.00  0.00     0.074 A 
ATOM     21  C   UNL A   1      39.995  28.002  27.708  1.00  0.00     0.031 C 
ATOM     22  C   UNL A   1      37.578  31.725  32.992  1.00  0.00     0.029 A 
ATOM     23  C   UNL A   1      38.832  31.019  33.231  1.00  0.00     0.049 A 
ATOM     24  H   UNL A   1      39.852  29.764  31.916  1.00  0.00     0.167 HD
ATOM     25  C   UNL A   1      41.945  27.220  29.033  1.00  0.00     0.034 A 
ATOM     26  C   UNL A   1      39.534  31.061  34.381  1.00  0.00     0.034 A 
ATOM     27  C   UNL A   1      42.760  27.195  30.226  1.00  0.00     0.049 A 
ATOM     28  C   UNL A   1      40.808  30.270  34.486  1.00  0.00     0.074 A 
ATOM     29  C   UNL A   1      43.955  26.528  30.442  1.00  0.00     0.029 A 
ATOM     30  N   UNL A   1      42.467  27.866  31.406  1.00  0.00    -0.354 N 
ATOM     31  N   UNL A   1      41.384  29.509  33.585  1.00  0.00    -0.248 NA
ATOM     32  C   UNL A   1      41.524  30.344  35.765  1.00  0.00     0.031 C 
ATOM     33  C   UNL A   1      44.355  26.752  31.766  1.00  0.00     0.029 A 
ATOM     34  C   UNL A   1      43.445  27.613  32.357  1.00  0.00     0.049 A 
ATOM     35  H   UNL A   1      41.679  28.439  31.548  1.00  0.00     0.167 HD
ATOM     36  C   UNL A   1      42.540  29.022  34.187  1.00  0.00     0.074 A 
ATOM     37  C   UNL A   1      42.590  29.597  35.516  1.00  0.00     0.031 C 
ATOM     38  C   UNL A   1      43.474  28.174  33.687  1.00  0.00     0.034 A 
BRANCH  25  39
ATOM     39  C   UNL A   1      42.362  26.363  27.858  1.00  0.00     0.023 A 
ATOM     40  C   UNL A   1      41.875  25.058  27.671  1.00  0.00     0.031 A 
ATOM     41  C   UNL A   1      43.282  26.861  26.916  1.00  0.00     0.131 A 
ATOM     42  C   UNL A   1      42.361  24.273  26.612  1.00  0.00     0.055 A 
ATOM     43  C   UNL A   1      43.704  26.103  25.822  1.00  0.00     0.041 A 
ATOM     44  F   UNL A   1      43.798  28.094  27.051  1.00  0.00    -0.206 F 
ATOM     45  C   UNL A   1      43.255  24.794  25.673  1.00  0.00     0.022 A 
BRANCH  42  46
ATOM     46  S   UNL A   1      41.916  22.515  26.559  1.00  0.00     0.124 S 
ATOM     47  O   UNL A   1      40.457  22.576  26.618  1.00  0.00    -0.237 OA
ATOM     48  O   UNL A   1      42.486  22.083  25.289  1.00  0.00    -0.237 OA
ATOM     49  O   UNL A   1      42.555  21.963  27.751  1.00  0.00    -0.744 OA
ENDBRANCH  42  46
ENDBRANCH  25  39
BRANCH  26  50
ATOM     50  C   UNL A   1      39.033  31.863  35.531  1.00  0.00     0.023 A 
ATOM     51  C   UNL A   1      38.369  31.254  36.607  1.00  0.00     0.031 A 
ATOM     52  C   UNL A   1      39.202  33.260  35.562  1.00  0.00     0.131 A 
ATOM     53  C   UNL A   1      37.871  32.042  37.655  1.00  0.00     0.055 A 
ATOM     54  C   UNL A   1      38.750  34.033  36.631  1.00  0.00     0.041 A 
ATOM     55  F   UNL A   1      39.835  33.889  34.560  1.00  0.00    -0.206 F 
ATOM     56  C   UNL A   1      38.071  33.425  37.682  1.00  0.00     0.022 A 
BRANCH  53  57
ATOM     57  S   UNL A   1      36.900  31.241  38.960  1.00  0.00     0.124 S 
ATOM     58  O   UNL A   1      37.816  31.305  40.095  1.00  0.00    -0.237 OA
ATOM     59  O   UNL A   1      35.725  32.103  39.034  1.00  0.00    -0.237 OA
ATOM     60  O   UNL A   1      36.656  29.902  38.430  1.00  0.00    -0.744 OA
ENDBRANCH  53  57
ENDBRANCH  26  50
BRANCH  38  61
ATOM     61  C   UNL A   1      44.643  27.854  34.584  1.00  0.00     0.023 A 
ATOM     62  C   UNL A   1      44.624  26.745  35.448  1.00  0.00     0.031 A 
ATOM     63  C   UNL A   1      45.768  28.695  34.607  1.00  0.00     0.131 A 
ATOM     64  C   UNL A   1      45.683  26.543  36.346  1.00  0.00     0.055 A 
ATOM     65  C   UNL A   1      46.843  28.458  35.465  1.00  0.00     0.041 A 
ATOM     66  F   UNL A   1      45.836  29.769  33.804  1.00  0.00    -0.206 F 
ATOM     67  C   UNL A   1      46.797  27.386  36.353  1.00  0.00     0.022 A 
BRANCH  64  68
ATOM     68  S   UNL A   1      45.534  25.224  37.584  1.00  0.00     0.124 S 
ATOM     69  O   UNL A   1      46.533  25.618  38.571  1.00  0.00    -0.237 OA
ATOM     70  O   UNL A   1      44.141  25.346  38.003  1.00  0.00    -0.237 OA
ATOM     71  O   UNL A   1      45.850  24.011  36.833  1.00  0.00    -0.744 OA
ENDBRANCH  64  68
ENDBRANCH  38  61
ENDBRANCH  12  13
ENDBRANCH   5   7
ENDBRANCH   2   3
ENDBRANCH   1   2
BRANCH   1  72
ATOM     72  C   UNL A   1      31.546  27.909  26.947  1.00  0.00     0.023 C 
BRANCH  72  73
ATOM     73  C   UNL A   1      32.081  26.587  26.395  1.00  0.00     0.116 C 
BRANCH  73  74
ATOM     74  N   UNL A   1      31.419  25.422  26.939  1.00  0.00    -0.356 N 
ATOM     75  C   UNL A   1      31.303  24.142  26.539  1.00  0.00     0.223 C 
ATOM     76  H   UNL A   1      30.951  25.604  27.786  1.00  0.00     0.163 HD
ATOM     77  O   UNL A   1      30.990  23.335  27.424  1.00  0.00    -0.275 OA
BRANCH  75  78
ATOM     78  C   UNL A   1      31.456  23.615  25.108  1.00  0.00     0.092 C 
BRANCH  78  79
ATOM     79  C   UNL A   1      30.631  24.204  23.949  1.00  0.00     0.050 C 
BRANCH  79  80
ATOM     80  C   UNL A   1      30.458  25.625  23.441  1.00  0.00    -0.033 A 
ATOM     81  C   UNL A   1      29.245  26.221  23.892  1.00  0.00     0.005 A 
ATOM     82  C   UNL A   1      31.253  26.411  22.592  1.00  0.00     0.021 A 
ATOM     83  C   UNL A   1      28.887  27.537  23.594  1.00  0.00     0.000 A 
ATOM     84  C   UNL A   1      30.886  27.740  22.295  1.00  0.00     0.016 A 
ATOM     85  Br  UNL A   1      32.870  25.876  21.765  1.00  0.00    -0.051 Br
ATOM     86  C   UNL A   1      29.720  28.304  22.802  1.00  0.00     0.001 A 
ENDBRANCH  79  80
ENDBRANCH  78  79
BRANCH  78  87
ATOM     87  C   UNL A   1      32.768  22.909  24.729  1.00  0.00     0.129 C 
BRANCH  87  88
ATOM     88  C   UNL A   1      32.939  21.479  25.193  1.00  0.00     0.389 C 
ATOM     89  F   UNL A   1      33.431  21.406  26.445  1.00  0.00    -0.171 F 
ATOM     90  F   UNL A   1      31.726  20.873  25.218  1.00  0.00    -0.171 F 
ATOM     91  F   UNL A   1      33.728  20.764  24.371  1.00  0.00    -0.171 F 
ENDBRANCH  87  88
ENDBRANCH  78  87
ENDBRANCH  75  78
ENDBRANCH  73  74
ENDBRANCH  72  73
ENDBRANCH   1  72
TORSDOF 18
ENDMDL
MODEL 2
REMARK VINA RESULT:     -11.5      1.845      2.850
REMARK SMILES O=C(NCCCCNC(=O)[C@@H](Cc1ccccc1Br)CC(F)(F)F)c1ccc(-c2c3nc(c(-c4cc(S(=O)(=O)[O-])ccc4F)c4ccc([nH]4)c(-c4cc(S(=O)(=O)[O-])ccc4F)c4nc(c(-c5cc(S(=O)(=O)[O-])ccc5F)c5ccc2[nH]5)C=C4)C=C3)cc1
REMARK SMILES IDX 5 1 4 2 3 3 1 4 2 5 25 7 26 8 87 9 27 10 86 11 28 12 29 13
REMARK SMILES IDX 30 14 80 15 31 16 85 17 79 18 81 19 32 20 84 21 78 22 77 23
REMARK SMILES IDX 33 25 65 26 45 27 64 28 46 29 49 30 63 31 82 32 47 33 48 34
REMARK SMILES IDX 62 36 83 37 50 38 34 39 35 40 43 41 36 42 42 43 44 44 41 45
REMARK SMILES IDX 37 46 38 47 39 48 40 49 66 50 67 51 75 52 68 53 74 54 76 55
REMARK SMILES IDX 73 56 69 57 70 58 71 59 72 60 51 61 52 62 60 63 53 64 59 65
REMARK SMILES IDX 61 66 58 67 54 68 55 69 56 70 57 71 6 72 7 73 8 74 9 75
REMARK SMILES IDX 10 77 11 78 12 79 13 80 14 81 18 82 15 83 17 84 19 85 16 86
REMARK SMILES IDX 20 87 21 88 22 89 23 90 24 91
REMARK H PARENT 3 6 81 24 49 35 8 76
REMARK Flexibility Score: inf
ROOT
ATOM      1  C   UNL A   1      31.382  30.077  25.314  1.00  0.00     0.023 C 
ENDROOT
BRANCH   1   2
ATOM      2  C   UNL A   1      32.398  30.478  26.375  1.00  0.00     0.116 C 
BRANCH   2   3
ATOM      3  N   UNL A   1      32.279  31.841  26.875  1.00  0.00    -0.352 N 
ATOM      4  O   UNL A   1      33.017  33.722  27.920  1.00  0.00    -0.269 OA
ATOM      5  C   UNL A   1      33.249  32.581  27.531  1.00  0.00     0.251 C 
ATOM      6  H   UNL A   1      31.414  32.286  26.731  1.00  0.00     0.163 HD
BRANCH   5   7
ATOM      7  C   UNL A   1      34.558  31.937  27.816  1.00  0.00     0.039 A 
ATOM      8  C   UNL A   1      34.620  30.567  28.070  1.00  0.00     0.014 A 
ATOM      9  C   UNL A   1      35.689  32.737  27.997  1.00  0.00     0.014 A 
ATOM     10  C   UNL A   1      35.727  30.049  28.734  1.00  0.00     0.010 A 
ATOM     11  C   UNL A   1      36.844  32.184  28.567  1.00  0.00     0.010 A 
ATOM     12  C   UNL A   1      36.845  30.855  29.018  1.00  0.00    -0.014 A 
BRANCH  12  13
ATOM     13  C   UNL A   1      37.962  30.293  29.835  1.00  0.00     0.031 A 
ATOM     14  C   UNL A   1      38.975  29.348  29.228  1.00  0.00     0.074 A 
ATOM     15  C   UNL A   1      38.114  30.697  31.112  1.00  0.00     0.049 A 
ATOM     16  N   UNL A   1      40.021  28.786  29.784  1.00  0.00    -0.248 NA
ATOM     17  C   UNL A   1      38.781  28.974  27.820  1.00  0.00     0.031 C 
ATOM     18  C   UNL A   1      37.211  31.610  31.817  1.00  0.00     0.029 A 
ATOM     19  N   UNL A   1      39.095  30.426  32.033  1.00  0.00    -0.354 N 
ATOM     20  C   UNL A   1      40.583  27.962  28.811  1.00  0.00     0.074 A 
ATOM     21  C   UNL A   1      39.747  28.084  27.635  1.00  0.00     0.031 C 
ATOM     22  C   UNL A   1      37.716  31.880  33.029  1.00  0.00     0.029 A 
ATOM     23  C   UNL A   1      38.936  31.103  33.220  1.00  0.00     0.049 A 
ATOM     24  H   UNL A   1      39.840  29.807  31.861  1.00  0.00     0.167 HD
ATOM     25  C   UNL A   1      41.693  27.182  28.886  1.00  0.00     0.034 A 
ATOM     26  C   UNL A   1      39.676  31.094  34.346  1.00  0.00     0.034 A 
ATOM     27  C   UNL A   1      42.544  27.099  30.052  1.00  0.00     0.049 A 
ATOM     28  C   UNL A   1      40.907  30.232  34.401  1.00  0.00     0.074 A 
ATOM     29  C   UNL A   1      43.706  26.365  30.222  1.00  0.00     0.029 A 
ATOM     30  N   UNL A   1      42.328  27.773  31.247  1.00  0.00    -0.354 N 
ATOM     31  N   UNL A   1      41.410  29.451  33.475  1.00  0.00    -0.248 NA
ATOM     32  C   UNL A   1      41.668  30.253  35.656  1.00  0.00     0.031 C 
ATOM     33  C   UNL A   1      44.161  26.553  31.533  1.00  0.00     0.029 A 
ATOM     34  C   UNL A   1      43.321  27.456  32.162  1.00  0.00     0.049 A 
ATOM     35  H   UNL A   1      41.579  28.388  31.420  1.00  0.00     0.167 HD
ATOM     36  C   UNL A   1      42.557  28.894  34.033  1.00  0.00     0.074 A 
ATOM     37  C   UNL A   1      42.682  29.451  35.365  1.00  0.00     0.031 C 
ATOM     38  C   UNL A   1      43.425  28.001  33.495  1.00  0.00     0.034 A 
BRANCH  25  39
ATOM     39  C   UNL A   1      42.023  26.316  27.691  1.00  0.00     0.023 A 
ATOM     40  C   UNL A   1      41.584  24.985  27.585  1.00  0.00     0.031 A 
ATOM     41  C   UNL A   1      42.810  26.833  26.644  1.00  0.00     0.131 A 
ATOM     42  C   UNL A   1      41.991  24.197  26.495  1.00  0.00     0.055 A 
ATOM     43  C   UNL A   1      43.148  26.068  25.526  1.00  0.00     0.041 A 
ATOM     44  F   UNL A   1      43.274  28.092  26.696  1.00  0.00    -0.206 F 
ATOM     45  C   UNL A   1      42.751  24.736  25.454  1.00  0.00     0.022 A 
BRANCH  42  46
ATOM     46  S   UNL A   1      41.631  22.419  26.527  1.00  0.00     0.124 S 
ATOM     47  O   UNL A   1      40.171  22.410  26.466  1.00  0.00    -0.237 OA
ATOM     48  O   UNL A   1      42.323  21.936  25.339  1.00  0.00    -0.237 OA
ATOM     49  O   UNL A   1      42.194  21.978  27.801  1.00  0.00    -0.744 OA
ENDBRANCH  42  46
ENDBRANCH  25  39
BRANCH  26  50
ATOM     50  C   UNL A   1      39.259  31.910  35.520  1.00  0.00     0.023 A 
ATOM     51  C   UNL A   1      38.518  31.346  36.569  1.00  0.00     0.031 A 
ATOM     52  C   UNL A   1      39.588  33.276  35.598  1.00  0.00     0.131 A 
ATOM     53  C   UNL A   1      38.104  32.152  37.641  1.00  0.00     0.055 A 
ATOM     54  C   UNL A   1      39.216  34.061  36.690  1.00  0.00     0.041 A 
ATOM     55  F   UNL A   1      40.300  33.860  34.622  1.00  0.00    -0.206 F 
ATOM     56  C   UNL A   1      38.461  33.501  37.715  1.00  0.00     0.022 A 
BRANCH  53  57
ATOM     57  S   UNL A   1      37.033  31.425  38.911  1.00  0.00     0.124 S 
ATOM     58  O   UNL A   1      36.849  30.069  38.406  1.00  0.00    -0.237 OA
ATOM     59  O   UNL A   1      37.856  31.557  40.110  1.00  0.00    -0.237 OA
ATOM     60  O   UNL A   1      35.843  32.271  38.879  1.00  0.00    -0.744 OA
ENDBRANCH  53  57
ENDBRANCH  26  50
BRANCH  38  61
ATOM     61  C   UNL A   1      44.603  27.607  34.349  1.00  0.00     0.023 A 
ATOM     62  C   UNL A   1      44.567  26.467  35.171  1.00  0.00     0.031 A 
ATOM     63  C   UNL A   1      45.758  28.408  34.376  1.00  0.00     0.131 A 
ATOM     64  C   UNL A   1      45.639  26.194  36.035  1.00  0.00     0.055 A 
ATOM     65  C   UNL A   1      46.844  28.102  35.197  1.00  0.00     0.041 A 
ATOM     66  F   UNL A   1      45.843  29.509  33.612  1.00  0.00    -0.206 F 
ATOM     67  C   UNL A   1      46.782  26.998  36.045  1.00  0.00     0.022 A 
BRANCH  64  68
ATOM     68  S   UNL A   1      45.474  24.835  37.225  1.00  0.00     0.124 S 
ATOM     69  O   UNL A   1      46.820  24.273  37.236  1.00  0.00    -0.237 OA
ATOM     70  O   UNL A   1      45.065  25.533  38.440  1.00  0.00    -0.237 OA
ATOM     71  O   UNL A   1      44.450  23.979  36.629  1.00  0.00    -0.744 OA
ENDBRANCH  64  68
ENDBRANCH  38  61
ENDBRANCH  12  13
ENDBRANCH   5   7
ENDBRANCH   2   3
ENDBRANCH   1   2
BRANCH   1  72
ATOM     72  C   UNL A   1      31.797  28.955  24.366  1.00  0.00     0.023 C 
BRANCH  72  73
ATOM     73  C   UNL A   1      33.297  28.661  24.330  1.00  0.00     0.116 C 
BRANCH  73  74
ATOM     74  N   UNL A   1      33.696  27.820  23.223  1.00  0.00    -0.356 N 
ATOM     75  C   UNL A   1      33.503  26.524  22.919  1.00  0.00     0.223 C 
ATOM     76  H   UNL A   1      34.223  28.301  22.544  1.00  0.00     0.163 HD
ATOM     77  O   UNL A   1      33.656  26.229  21.727  1.00  0.00    -0.275 OA
BRANCH  75  78
ATOM     78  C   UNL A   1      33.184  25.393  23.903  1.00  0.00     0.092 C 
BRANCH  78  79
ATOM     79  C   UNL A   1      34.236  24.888  24.907  1.00  0.00     0.050 C 
BRANCH  79  80
ATOM     80  C   UNL A   1      35.052  23.609  24.970  1.00  0.00    -0.033 A 
ATOM     81  C   UNL A   1      35.904  23.450  23.838  1.00  0.00     0.005 A 
ATOM     82  C   UNL A   1      35.077  22.568  25.911  1.00  0.00     0.021 A 
ATOM     83  C   UNL A   1      36.784  22.375  23.693  1.00  0.00     0.000 A 
ATOM     84  C   UNL A   1      35.968  21.485  25.759  1.00  0.00     0.016 A 
ATOM     85  Br  UNL A   1      34.007  22.445  27.468  1.00  0.00    -0.051 Br
ATOM     86  C   UNL A   1      36.824  21.395  24.666  1.00  0.00     0.001 A 
ENDBRANCH  79  80
ENDBRANCH  78  79
BRANCH  78  87
ATOM     87  C   UNL A   1      31.711  25.136  24.263  1.00  0.00     0.129 C 
BRANCH  87  88
ATOM     88  C   UNL A   1      31.289  25.434  25.685  1.00  0.00     0.389 C 
ATOM     89  F   UNL A   1      32.133  26.285  26.299  1.00  0.00    -0.171 F 
ATOM     90  F   UNL A   1      30.074  26.038  25.670  1.00  0.00    -0.171 F 
ATOM     91  F   UNL A   1      31.173  24.319  26.429  1.00  0.00    -0.171 F 
ENDBRANCH  87  88
ENDBRANCH  78  87
ENDBRANCH  75  78
ENDBRANCH  73  74
ENDBRANCH  72  73
ENDBRANCH   1  72
TORSDOF 18
ENDMDL
MODEL 3
REMARK VINA RESULT:     -11.4      2.635      3.561
REMARK SMILES O=C(NCCCCNC(=O)[C@@H](Cc1ccccc1Br)CC(F)(F)F)c1ccc(-c2c3nc(c(-c4cc(S(=O)(=O)[O-])ccc4F)c4ccc([nH]4)c(-c4cc(S(=O)(=O)[O-])ccc4F)c4nc(c(-c5cc(S(=O)(=O)[O-])ccc5F)c5ccc2[nH]5)C=C4)C=C3)cc1
REMARK SMILES IDX 5 1 4 2 3 3 1 4 2 5 25 7 26 8 87 9 27 10 86 11 28 12 29 13
REMARK SMILES IDX 30 14 80 15 31 16 85 17 79 18 81 19 32 20 84 21 78 22 77 23
REMARK SMILES IDX 33 25 65 26 45 27 64 28 46 29 49 30 63 31 82 32 47 33 48 34
REMARK SMILES IDX 62 36 83 37 50 38 34 39 35 40 43 41 36 42 42 43 44 44 41 45
REMARK SMILES IDX 37 46 38 47 39 48 40 49 66 50 67 51 75 52 68 53 74 54 76 55
REMARK SMILES IDX 73 56 69 57 70 58 71 59 72 60 51 61 52 62 60 63 53 64 59 65
REMARK SMILES IDX 61 66 58 67 54 68 55 69 56 70 57 71 6 72 7 73 8 74 9 75
REMARK SMILES IDX 10 77 11 78 12 79 13 80 14 81 18 82 15 83 17 84 19 85 16 86
REMARK SMILES IDX 20 87 21 88 22 89 23 90 24 91
REMARK H PARENT 3 6 81 24 49 35 8 76
REMARK Flexibility Score: inf
ROOT
ATOM      1  C   UNL A   1      31.552  28.988  25.565  1.00  0.00     0.023 C 
ENDROOT
BRANCH   1   2
ATOM      2  C   UNL A   1      32.753  29.826  25.986  1.00  0.00     0.116 C 
BRANCH   2   3
ATOM      3  N   UNL A   1      32.439  31.120  26.576  1.00  0.00    -0.352 N 
ATOM      4  O   UNL A   1      32.878  32.982  27.807  1.00  0.00    -0.269 OA
ATOM      5  C   UNL A   1      33.270  31.912  27.351  1.00  0.00     0.251 C 
ATOM      6  H   UNL A   1      31.536  31.471  26.406  1.00  0.00     0.163 HD
BRANCH   5   7
ATOM      7  C   UNL A   1      34.628  31.404  27.677  1.00  0.00     0.039 A 
ATOM      8  C   UNL A   1      34.825  30.045  27.920  1.00  0.00     0.014 A 
ATOM      9  C   UNL A   1      35.662  32.315  27.908  1.00  0.00     0.014 A 
ATOM     10  C   UNL A   1      35.955  29.635  28.619  1.00  0.00     0.010 A 
ATOM     11  C   UNL A   1      36.847  31.877  28.515  1.00  0.00     0.010 A 
ATOM     12  C   UNL A   1      36.972  30.549  28.952  1.00  0.00    -0.014 A 
BRANCH  12  13
ATOM     13  C   UNL A   1      38.112  30.095  29.804  1.00  0.00     0.031 A 
ATOM     14  C   UNL A   1      39.167  29.158  29.262  1.00  0.00     0.074 A 
ATOM     15  C   UNL A   1      38.243  30.592  31.051  1.00  0.00     0.049 A 
ATOM     16  N   UNL A   1      40.237  28.683  29.853  1.00  0.00    -0.248 NA
ATOM     17  C   UNL A   1      38.993  28.681  27.882  1.00  0.00     0.031 C 
ATOM     18  C   UNL A   1      37.298  31.509  31.693  1.00  0.00     0.029 A 
ATOM     19  N   UNL A   1      39.234  30.429  31.986  1.00  0.00    -0.354 N 
ATOM     20  C   UNL A   1      40.838  27.822  28.937  1.00  0.00     0.074 A 
ATOM     21  C   UNL A   1      39.999  27.826  27.757  1.00  0.00     0.031 C 
ATOM     22  C   UNL A   1      37.789  31.883  32.883  1.00  0.00     0.029 A 
ATOM     23  C   UNL A   1      39.042  31.177  33.125  1.00  0.00     0.049 A 
ATOM     24  H   UNL A   1      40.007  29.835  31.856  1.00  0.00     0.167 HD
ATOM     25  C   UNL A   1      41.981  27.100  29.065  1.00  0.00     0.034 A 
ATOM     26  C   UNL A   1      39.780  31.279  34.248  1.00  0.00     0.034 A 
ATOM     27  C   UNL A   1      42.833  27.135  30.232  1.00  0.00     0.049 A 
ATOM     28  C   UNL A   1      41.048  30.479  34.360  1.00  0.00     0.074 A 
ATOM     29  C   UNL A   1      44.027  26.467  30.450  1.00  0.00     0.029 A 
ATOM     30  N   UNL A   1      42.585  27.878  31.379  1.00  0.00    -0.354 N 
ATOM     31  N   UNL A   1      41.588  29.660  33.488  1.00  0.00    -0.248 NA
ATOM     32  C   UNL A   1      41.806  30.619  35.609  1.00  0.00     0.031 C 
ATOM     33  C   UNL A   1      44.471  26.764  31.745  1.00  0.00     0.029 A 
ATOM     34  C   UNL A   1      43.590  27.669  32.312  1.00  0.00     0.049 A 
ATOM     35  H   UNL A   1      41.808  28.468  31.510  1.00  0.00     0.167 HD
ATOM     36  C   UNL A   1      42.757  29.195  34.082  1.00  0.00     0.074 A 
ATOM     37  C   UNL A   1      42.856  29.847  35.372  1.00  0.00     0.031 C 
ATOM     38  C   UNL A   1      43.667  28.308  33.604  1.00  0.00     0.034 A 
BRANCH  25  39
ATOM     39  C   UNL A   1      42.352  26.170  27.931  1.00  0.00     0.023 A 
ATOM     40  C   UNL A   1      41.905  24.838  27.875  1.00  0.00     0.031 A 
ATOM     41  C   UNL A   1      43.187  26.626  26.893  1.00  0.00     0.131 A 
ATOM     42  C   UNL A   1      42.350  23.992  26.846  1.00  0.00     0.055 A 
ATOM     43  C   UNL A   1      43.564  25.801  25.831  1.00  0.00     0.041 A 
ATOM     44  F   UNL A   1      43.661  27.882  26.899  1.00  0.00    -0.206 F 
ATOM     45  C   UNL A   1      43.157  24.470  25.811  1.00  0.00     0.022 A 
BRANCH  42  46
ATOM     46  S   UNL A   1      41.972  22.221  26.954  1.00  0.00     0.124 S 
ATOM     47  O   UNL A   1      40.923  22.078  25.947  1.00  0.00    -0.237 OA
ATOM     48  O   UNL A   1      43.253  21.604  26.633  1.00  0.00    -0.237 OA
ATOM     49  O   UNL A   1      41.524  22.049  28.335  1.00  0.00    -0.744 OA
ENDBRANCH  42  46
ENDBRANCH  25  39
BRANCH  26  50
ATOM     50  C   UNL A   1      39.324  32.153  35.364  1.00  0.00     0.023 A 
ATOM     51  C   UNL A   1      39.767  33.479  35.474  1.00  0.00     0.031 A 
ATOM     52  C   UNL A   1      38.444  31.663  36.346  1.00  0.00     0.131 A 
ATOM     53  C   UNL A   1      39.352  34.264  36.561  1.00  0.00     0.055 A 
ATOM     54  C   UNL A   1      37.995  32.463  37.397  1.00  0.00     0.041 A 
ATOM     55  F   UNL A   1      37.988  30.403  36.282  1.00  0.00    -0.206 F 
ATOM     56  C   UNL A   1      38.458  33.769  37.515  1.00  0.00     0.022 A 
BRANCH  53  57
ATOM     57  S   UNL A   1      40.050  35.928  36.749  1.00  0.00     0.124 S 
ATOM     58  O   UNL A   1      39.658  36.557  35.492  1.00  0.00    -0.237 OA
ATOM     59  O   UNL A   1      39.368  36.407  37.947  1.00  0.00    -0.237 OA
ATOM     60  O   UNL A   1      41.481  35.681  36.905  1.00  0.00    -0.744 OA
ENDBRANCH  53  57
ENDBRANCH  26  50
BRANCH  38  61
ATOM     61  C   UNL A   1      44.860  28.027  34.482  1.00  0.00     0.023 A 
ATOM     62  C   UNL A   1      46.041  28.783  34.381  1.00  0.00     0.031 A 
ATOM     63  C   UNL A   1      44.830  26.960  35.397  1.00  0.00     0.131 A 
ATOM     64  C   UNL A   1      47.168  28.422  35.136  1.00  0.00     0.055 A 
ATOM     65  C   UNL A   1      45.937  26.640  36.185  1.00  0.00     0.041 A 
ATOM     66  F   UNL A   1      43.728  26.206  35.531  1.00  0.00    -0.206 F 
ATOM     67  C   UNL A   1      47.119  27.362  36.045  1.00  0.00     0.022 A 
BRANCH  64  68
ATOM     68  S   UNL A   1      48.733  29.288  34.833  1.00  0.00     0.124 S 
ATOM     69  O   UNL A   1      49.106  29.723  36.175  1.00  0.00    -0.237 OA
ATOM     70  O   UNL A   1      49.562  28.239  34.249  1.00  0.00    -0.237 OA
ATOM     71  O   UNL A   1      48.358  30.363  33.916  1.00  0.00    -0.744 OA
ENDBRANCH  64  68
ENDBRANCH  38  61
ENDBRANCH  12  13
ENDBRANCH   5   7
ENDBRANCH   2   3
ENDBRANCH   1   2
BRANCH   1  72
ATOM     72  C   UNL A   1      31.167  29.047  24.089  1.00  0.00     0.023 C 
BRANCH  72  73
ATOM     73  C   UNL A   1      31.083  27.690  23.389  1.00  0.00     0.116 C 
BRANCH  73  74
ATOM     74  N   UNL A   1      32.144  27.467  22.430  1.00  0.00    -0.356 N 
ATOM     75  C   UNL A   1      33.034  26.477  22.238  1.00  0.00     0.223 C 
ATOM     76  H   UNL A   1      32.233  28.198  21.777  1.00  0.00     0.163 HD
ATOM     77  O   UNL A   1      33.541  26.430  21.109  1.00  0.00    -0.275 OA
BRANCH  75  78
ATOM     78  C   UNL A   1      33.517  25.466  23.283  1.00  0.00     0.092 C 
BRANCH  78  79
ATOM     79  C   UNL A   1      33.954  24.047  22.878  1.00  0.00     0.050 C 
BRANCH  79  80
ATOM     80  C   UNL A   1      34.653  22.938  23.646  1.00  0.00    -0.033 A 
ATOM     81  C   UNL A   1      36.064  22.940  23.442  1.00  0.00     0.005 A 
ATOM     82  C   UNL A   1      34.149  21.918  24.468  1.00  0.00     0.021 A 
ATOM     83  C   UNL A   1      36.925  22.044  24.079  1.00  0.00     0.000 A 
ATOM     84  C   UNL A   1      35.025  21.017  25.108  1.00  0.00     0.016 A 
ATOM     85  Br  UNL A   1      32.326  21.598  24.861  1.00  0.00    -0.051 Br
ATOM     86  C   UNL A   1      36.403  21.086  24.927  1.00  0.00     0.001 A 
ENDBRANCH  79  80
ENDBRANCH  78  79
BRANCH  78  87
ATOM     87  C   UNL A   1      34.072  26.004  24.612  1.00  0.00     0.129 C 
BRANCH  87  88
ATOM     88  C   UNL A   1      33.316  25.639  25.872  1.00  0.00     0.389 C 
ATOM     89  F   UNL A   1      33.276  26.656  26.753  1.00  0.00    -0.171 F 
ATOM     90  F   UNL A   1      32.029  25.355  25.550  1.00  0.00    -0.171 F 
ATOM     91  F   UNL A   1      33.827  24.553  26.480  1.00  0.00    -0.171 F 
ENDBRANCH  87  88
ENDBRANCH  78  87
ENDBRANCH  75  78
ENDBRANCH  73  74
ENDBRANCH  72  73
ENDBRANCH   1  72
TORSDOF 18
ENDMDL
