MODEL 1
REMARK VINA RESULT:     -12.0      0.000      0.000
REMARK SMILES CC[NH2+][C@@]1(C(=O)NCCCCNC(=O)c2ccc(-c3c4nc(c(-c5cc(S(=O)(=O)[O-])ccc5F)c5ccc([nH]5)c(-c5cc(S(=O)(=O)[O-])ccc5F)c5nc(c(-c6cc(S(=O)(=O)[O-])ccc6F)c6ccc3[nH]6)C=C5)C=C4)cc2)CCC[C@@H](Sc2ncc(C)cn2)C1
REMARK SMILES IDX 10 1 9 2 8 3 7 4 5 5 6 6 4 8 78 9 90 10 79 11 81 12 80 13
REMARK SMILES IDX 3 14 2 17 1 18 82 19 83 20 84 21 89 22 85 23 88 24 86 25
REMARK SMILES IDX 87 26 11 27 12 28 13 29 14 31 15 32 16 33 77 34 17 35 76 36
REMARK SMILES IDX 18 37 19 38 20 39 70 40 21 41 75 42 69 43 71 44 22 45 74 46
REMARK SMILES IDX 68 47 67 48 23 50 55 51 35 52 54 53 36 54 39 55 53 56 72 57
REMARK SMILES IDX 37 58 38 59 52 61 73 62 40 63 24 64 25 65 33 66 26 67 32 68
REMARK SMILES IDX 34 69 31 70 27 71 28 72 29 73 30 74 56 75 57 76 65 77 58 78
REMARK SMILES IDX 64 79 66 80 63 81 59 82 60 83 61 84 62 85 41 86 42 87 50 88
REMARK SMILES IDX 43 89 49 90 51 91 48 92 44 93 45 94 46 95 47 96
REMARK H PARENT 7 7 3 15 3 16 12 30 71 49 39 60
REMARK Flexibility Score: inf
ROOT
ATOM      1  C   UNL A   1      31.820  29.008  26.910  1.00  0.00     0.023 C 
ENDROOT
BRANCH   1   2
ATOM      2  C   UNL A   1      32.311  27.622  27.306  1.00  0.00     0.023 C 
BRANCH   2   3
ATOM      3  C   UNL A   1      32.055  26.516  26.276  1.00  0.00     0.116 C 
BRANCH   3   4
ATOM      4  N   UNL A   1      31.341  25.404  26.859  1.00  0.00    -0.351 N 
ATOM      5  C   UNL A   1      31.388  24.057  26.730  1.00  0.00     0.281 C 
ATOM      6  O   UNL A   1      30.423  23.500  27.277  1.00  0.00    -0.268 OA
ATOM      7  H   UNL A   1      30.657  25.696  27.504  1.00  0.00     0.163 HD
BRANCH   5   8
ATOM      8  C   UNL A   1      32.488  23.205  25.934  1.00  0.00     0.176 C 
ATOM      9  C   UNL A   1      33.954  23.270  26.445  1.00  0.00     0.079 C 
ATOM     10  C   UNL A   1      32.365  23.515  24.419  1.00  0.00     0.094 C 
ATOM     11  C   UNL A   1      34.968  24.176  25.737  1.00  0.00     0.008 C 
ATOM     12  C   UNL A   1      33.235  24.683  23.972  1.00  0.00     0.061 C 
ATOM     13  C   UNL A   1      34.710  24.420  24.256  1.00  0.00     0.015 C 
BRANCH   8  14
ATOM     14  N   UNL A   1      32.055  21.757  26.039  1.00  0.00    -0.334 N 
ATOM     15  H   UNL A   1      32.577  21.331  26.805  1.00  0.00     0.347 HD
ATOM     16  H   UNL A   1      31.045  21.782  26.183  1.00  0.00     0.347 HD
BRANCH  14  17
ATOM     17  C   UNL A   1      32.261  20.934  24.845  1.00  0.00     0.257 C 
ATOM     18  C   UNL A   1      32.732  19.550  25.273  1.00  0.00     0.071 C 
ENDBRANCH  14  17
ENDBRANCH   8  14
BRANCH  12  19
ATOM     19  S   UNL A   1      32.854  25.240  22.269  1.00  0.00    -0.083 SA
BRANCH  19  20
ATOM     20  C   UNL A   1      31.898  26.684  22.600  1.00  0.00     0.187 A 
ATOM     21  N   UNL A   1      32.524  27.870  22.591  1.00  0.00    -0.231 NA
ATOM     22  N   UNL A   1      30.597  26.496  22.873  1.00  0.00    -0.231 NA
ATOM     23  C   UNL A   1      31.763  28.943  22.873  1.00  0.00     0.119 A 
ATOM     24  C   UNL A   1      29.885  27.601  23.151  1.00  0.00     0.119 A 
ATOM     25  C   UNL A   1      30.420  28.871  23.172  1.00  0.00    -0.014 A 
ATOM     26  C   UNL A   1      29.594  30.068  23.483  1.00  0.00     0.048 C 
ENDBRANCH  19  20
ENDBRANCH  12  19
ENDBRANCH   5   8
ENDBRANCH   3   4
ENDBRANCH   2   3
ENDBRANCH   1   2
BRANCH   1  27
ATOM     27  C   UNL A   1      32.908  29.958  26.430  1.00  0.00     0.116 C 
BRANCH  27  28
ATOM     28  N   UNL A   1      32.778  31.325  26.918  1.00  0.00    -0.352 N 
ATOM     29  C   UNL A   1      33.712  32.051  27.627  1.00  0.00     0.251 C 
ATOM     30  H   UNL A   1      31.927  31.781  26.720  1.00  0.00     0.163 HD
ATOM     31  O   UNL A   1      33.461  33.183  28.024  1.00  0.00    -0.269 OA
BRANCH  29  32
ATOM     32  C   UNL A   1      34.997  31.399  27.942  1.00  0.00     0.039 A 
ATOM     33  C   UNL A   1      36.158  32.174  27.976  1.00  0.00     0.014 A 
ATOM     34  C   UNL A   1      35.015  30.064  28.350  1.00  0.00     0.014 A 
ATOM     35  C   UNL A   1      37.326  31.631  28.512  1.00  0.00     0.010 A 
ATOM     36  C   UNL A   1      36.152  29.557  28.964  1.00  0.00     0.010 A 
ATOM     37  C   UNL A   1      37.316  30.336  29.059  1.00  0.00    -0.014 A 
BRANCH  37  38
ATOM     38  C   UNL A   1      38.510  29.771  29.736  1.00  0.00     0.031 A 
ATOM     39  C   UNL A   1      38.883  30.256  31.109  1.00  0.00     0.074 A 
ATOM     40  C   UNL A   1      39.306  28.901  29.082  1.00  0.00     0.049 A 
ATOM     41  N   UNL A   1      39.937  29.977  31.831  1.00  0.00    -0.248 NA
ATOM     42  C   UNL A   1      37.967  31.224  31.730  1.00  0.00     0.031 C 
ATOM     43  C   UNL A   1      39.082  28.403  27.721  1.00  0.00     0.029 A 
ATOM     44  N   UNL A   1      40.470  28.288  29.470  1.00  0.00    -0.354 N 
ATOM     45  C   UNL A   1      39.828  30.761  32.974  1.00  0.00     0.074 A 
ATOM     46  C   UNL A   1      38.641  31.573  32.814  1.00  0.00     0.031 C 
ATOM     47  C   UNL A   1      40.057  27.535  27.405  1.00  0.00     0.029 A 
ATOM     48  C   UNL A   1      40.995  27.444  28.519  1.00  0.00     0.049 A 
ATOM     49  H   UNL A   1      40.890  28.437  30.347  1.00  0.00     0.167 HD
ATOM     50  C   UNL A   1      40.631  30.784  34.067  1.00  0.00     0.034 A 
ATOM     51  C   UNL A   1      42.108  26.685  28.545  1.00  0.00     0.034 A 
ATOM     52  C   UNL A   1      41.787  29.937  34.224  1.00  0.00     0.049 A 
ATOM     53  C   UNL A   1      42.974  26.708  29.776  1.00  0.00     0.074 A 
ATOM     54  C   UNL A   1      42.618  29.803  35.322  1.00  0.00     0.029 A 
ATOM     55  N   UNL A   1      42.279  29.079  33.248  1.00  0.00    -0.354 N 
ATOM     56  N   UNL A   1      42.825  27.405  30.879  1.00  0.00    -0.248 NA
ATOM     57  C   UNL A   1      44.156  25.836  29.768  1.00  0.00     0.031 C 
ATOM     58  C   UNL A   1      43.641  28.906  34.992  1.00  0.00     0.029 A 
ATOM     59  C   UNL A   1      43.415  28.433  33.708  1.00  0.00     0.049 A 
ATOM     60  H   UNL A   1      41.877  28.948  32.358  1.00  0.00     0.167 HD
ATOM     61  C   UNL A   1      43.878  27.032  31.709  1.00  0.00     0.074 A 
ATOM     62  C   UNL A   1      44.649  26.044  30.981  1.00  0.00     0.031 C 
ATOM     63  C   UNL A   1      44.177  27.459  32.962  1.00  0.00     0.034 A 
BRANCH  50  64
ATOM     64  C   UNL A   1      40.285  31.774  35.155  1.00  0.00     0.023 A 
ATOM     65  C   UNL A   1      39.403  31.444  36.199  1.00  0.00     0.031 A 
ATOM     66  C   UNL A   1      40.788  33.085  35.109  1.00  0.00     0.131 A 
ATOM     67  C   UNL A   1      38.967  32.439  37.088  1.00  0.00     0.055 A 
ATOM     68  C   UNL A   1      40.423  34.046  36.053  1.00  0.00     0.041 A 
ATOM     69  F   UNL A   1      41.620  33.465  34.126  1.00  0.00    -0.206 F 
ATOM     70  C   UNL A   1      39.490  33.732  37.039  1.00  0.00     0.022 A 
BRANCH  67  71
ATOM     71  S   UNL A   1      37.576  32.060  38.189  1.00  0.00     0.124 S 
ATOM     72  O   UNL A   1      38.156  32.345  39.501  1.00  0.00    -0.237 OA
ATOM     73  O   UNL A   1      36.548  32.986  37.731  1.00  0.00    -0.237 OA
ATOM     74  O   UNL A   1      37.308  30.648  37.930  1.00  0.00    -0.744 OA
ENDBRANCH  67  71
ENDBRANCH  50  64
BRANCH  51  75
ATOM     75  C   UNL A   1      42.463  25.823  27.382  1.00  0.00     0.023 A 
ATOM     76  C   UNL A   1      42.033  24.489  27.325  1.00  0.00     0.031 A 
ATOM     77  C   UNL A   1      43.258  26.310  26.331  1.00  0.00     0.131 A 
ATOM     78  C   UNL A   1      42.433  23.670  26.258  1.00  0.00     0.055 A 
ATOM     79  C   UNL A   1      43.619  25.503  25.250  1.00  0.00     0.041 A 
ATOM     80  F   UNL A   1      43.684  27.582  26.335  1.00  0.00    -0.206 F 
ATOM     81  C   UNL A   1      43.216  24.171  25.214  1.00  0.00     0.022 A 
BRANCH  78  82
ATOM     82  S   UNL A   1      41.962  21.919  26.282  1.00  0.00     0.124 S 
ATOM     83  O   UNL A   1      42.805  21.370  25.226  1.00  0.00    -0.237 OA
ATOM     84  O   UNL A   1      42.306  21.531  27.646  1.00  0.00    -0.237 OA
ATOM     85  O   UNL A   1      40.531  21.947  25.988  1.00  0.00    -0.744 OA
ENDBRANCH  78  82
ENDBRANCH  51  75
BRANCH  63  86
ATOM     86  C   UNL A   1      45.364  26.818  33.632  1.00  0.00     0.023 A 
ATOM     87  C   UNL A   1      45.246  25.617  34.353  1.00  0.00     0.031 A 
ATOM     88  C   UNL A   1      46.628  27.429  33.558  1.00  0.00     0.131 A 
ATOM     89  C   UNL A   1      46.365  25.090  35.015  1.00  0.00     0.055 A 
ATOM     90  C   UNL A   1      47.749  26.872  34.174  1.00  0.00     0.041 A 
ATOM     91  F   UNL A   1      46.793  28.577  32.883  1.00  0.00    -0.206 F 
ATOM     92  C   UNL A   1      47.619  25.702  34.917  1.00  0.00     0.022 A 
BRANCH  89  93
ATOM     93  S   UNL A   1      46.146  23.632  36.072  1.00  0.00     0.124 S 
ATOM     94  O   UNL A   1      44.792  23.210  35.729  1.00  0.00    -0.237 OA
ATOM     95  O   UNL A   1      47.221  22.755  35.621  1.00  0.00    -0.237 OA
ATOM     96  O   UNL A   1      46.307  24.163  37.424  1.00  0.00    -0.744 OA
ENDBRANCH  89  93
ENDBRANCH  63  86
ENDBRANCH  37  38
ENDBRANCH  29  32
ENDBRANCH  27  28
ENDBRANCH   1  27
TORSDOF 18
ENDMDL
MODEL 2
REMARK VINA RESULT:     -11.6      1.524      7.677
REMARK SMILES CC[NH2+][C@@]1(C(=O)NCCCCNC(=O)c2ccc(-c3c4nc(c(-c5cc(S(=O)(=O)[O-])ccc5F)c5ccc([nH]5)c(-c5cc(S(=O)(=O)[O-])ccc5F)c5nc(c(-c6cc(S(=O)(=O)[O-])ccc6F)c6ccc3[nH]6)C=C5)C=C4)cc2)CCC[C@@H](Sc2ncc(C)cn2)C1
REMARK SMILES IDX 10 1 9 2 8 3 7 4 5 5 6 6 4 8 78 9 90 10 79 11 81 12 80 13
REMARK SMILES IDX 3 14 2 17 1 18 82 19 83 20 84 21 89 22 85 23 88 24 86 25
REMARK SMILES IDX 87 26 11 27 12 28 13 29 14 31 15 32 16 33 77 34 17 35 76 36
REMARK SMILES IDX 18 37 19 38 20 39 70 40 21 41 75 42 69 43 71 44 22 45 74 46
REMARK SMILES IDX 68 47 67 48 23 50 55 51 35 52 54 53 36 54 39 55 53 56 72 57
REMARK SMILES IDX 37 58 38 59 52 61 73 62 40 63 24 64 25 65 33 66 26 67 32 68
REMARK SMILES IDX 34 69 31 70 27 71 28 72 29 73 30 74 56 75 57 76 65 77 58 78
REMARK SMILES IDX 64 79 66 80 63 81 59 82 60 83 61 84 62 85 41 86 42 87 50 88
REMARK SMILES IDX 43 89 49 90 51 91 48 92 44 93 45 94 46 95 47 96
REMARK H PARENT 7 7 3 15 3 16 12 30 71 49 39 60
REMARK Flexibility Score: inf
ROOT
ATOM      1  C   UNL A   1      31.536  29.039  26.935  1.00  0.00     0.023 C 
ENDROOT
BRANCH   1   2
ATOM      2  C   UNL A   1      32.210  27.703  27.218  1.00  0.00     0.023 C 
BRANCH   2   3
ATOM      3  C   UNL A   1      31.927  26.596  26.197  1.00  0.00     0.116 C 
BRANCH   3   4
ATOM      4  N   UNL A   1      31.259  25.470  26.806  1.00  0.00    -0.351 N 
ATOM      5  C   UNL A   1      31.292  24.126  26.640  1.00  0.00     0.281 C 
ATOM      6  O   UNL A   1      30.372  23.556  27.249  1.00  0.00    -0.268 OA
ATOM      7  H   UNL A   1      30.631  25.746  27.512  1.00  0.00     0.163 HD
BRANCH   5   8
ATOM      8  C   UNL A   1      32.321  23.295  25.736  1.00  0.00     0.176 C 
ATOM      9  C   UNL A   1      33.824  23.344  26.129  1.00  0.00     0.079 C 
ATOM     10  C   UNL A   1      32.077  23.644  24.244  1.00  0.00     0.094 C 
ATOM     11  C   UNL A   1      34.781  24.267  25.365  1.00  0.00     0.008 C 
ATOM     12  C   UNL A   1      32.913  24.822  23.759  1.00  0.00     0.061 C 
ATOM     13  C   UNL A   1      34.405  24.550  23.916  1.00  0.00     0.015 C 
BRANCH   8  14
ATOM     14  N   UNL A   1      31.893  21.845  25.838  1.00  0.00    -0.334 N 
ATOM     15  H   UNL A   1      31.439  21.717  26.743  1.00  0.00     0.347 HD
ATOM     16  H   UNL A   1      31.284  21.681  25.036  1.00  0.00     0.347 HD
BRANCH  14  17
ATOM     17  C   UNL A   1      32.961  20.848  25.729  1.00  0.00     0.257 C 
ATOM     18  C   UNL A   1      32.824  20.120  24.397  1.00  0.00     0.071 C 
ENDBRANCH  14  17
ENDBRANCH   8  14
BRANCH  12  19
ATOM     19  S   UNL A   1      32.398  25.424  22.108  1.00  0.00    -0.083 SA
BRANCH  19  20
ATOM     20  C   UNL A   1      31.508  26.880  22.549  1.00  0.00     0.187 A 
ATOM     21  N   UNL A   1      30.220  26.750  22.898  1.00  0.00    -0.231 NA
ATOM     22  N   UNL A   1      32.177  28.042  22.477  1.00  0.00    -0.231 NA
ATOM     23  C   UNL A   1      29.571  27.888  23.203  1.00  0.00     0.119 A 
ATOM     24  C   UNL A   1      31.481  29.147  22.790  1.00  0.00     0.119 A 
ATOM     25  C   UNL A   1      30.154  29.136  23.161  1.00  0.00    -0.014 A 
ATOM     26  C   UNL A   1      29.421  30.385  23.501  1.00  0.00     0.048 C 
ENDBRANCH  19  20
ENDBRANCH  12  19
ENDBRANCH   5   8
ENDBRANCH   3   4
ENDBRANCH   2   3
ENDBRANCH   1   2
BRANCH   1  27
ATOM     27  C   UNL A   1      32.436  30.087  26.296  1.00  0.00     0.116 C 
BRANCH  27  28
ATOM     28  N   UNL A   1      32.119  31.462  26.661  1.00  0.00    -0.352 N 
ATOM     29  C   UNL A   1      32.924  32.353  27.337  1.00  0.00     0.251 C 
ATOM     30  H   UNL A   1      31.229  31.791  26.395  1.00  0.00     0.163 HD
ATOM     31  O   UNL A   1      32.520  33.474  27.626  1.00  0.00    -0.269 OA
BRANCH  29  32
ATOM     32  C   UNL A   1      34.264  31.894  27.752  1.00  0.00     0.039 A 
ATOM     33  C   UNL A   1      35.257  32.843  27.999  1.00  0.00     0.014 A 
ATOM     34  C   UNL A   1      34.475  30.544  28.040  1.00  0.00     0.014 A 
ATOM     35  C   UNL A   1      36.438  32.447  28.628  1.00  0.00     0.010 A 
ATOM     36  C   UNL A   1      35.611  30.169  28.744  1.00  0.00     0.010 A 
ATOM     37  C   UNL A   1      36.601  31.117  29.052  1.00  0.00    -0.014 A 
BRANCH  37  38
ATOM     38  C   UNL A   1      37.795  30.688  29.822  1.00  0.00     0.031 A 
ATOM     39  C   UNL A   1      38.770  29.725  29.204  1.00  0.00     0.074 A 
ATOM     40  C   UNL A   1      37.950  31.086  31.101  1.00  0.00     0.049 A 
ATOM     41  N   UNL A   1      39.813  29.143  29.736  1.00  0.00    -0.248 NA
ATOM     42  C   UNL A   1      38.503  29.329  27.814  1.00  0.00     0.031 C 
ATOM     43  C   UNL A   1      37.037  31.971  31.831  1.00  0.00     0.029 A 
ATOM     44  N   UNL A   1      38.927  30.792  32.017  1.00  0.00    -0.354 N 
ATOM     45  C   UNL A   1      40.305  28.286  28.757  1.00  0.00     0.074 A 
ATOM     46  C   UNL A   1      39.405  28.378  27.628  1.00  0.00     0.031 C 
ATOM     47  C   UNL A   1      37.517  32.174  33.069  1.00  0.00     0.029 A 
ATOM     48  C   UNL A   1      38.746  31.405  33.235  1.00  0.00     0.049 A 
ATOM     49  H   UNL A   1      39.686  30.197  31.822  1.00  0.00     0.167 HD
ATOM     50  C   UNL A   1      41.419  27.512  28.789  1.00  0.00     0.034 A 
ATOM     51  C   UNL A   1      39.489  31.351  34.358  1.00  0.00     0.034 A 
ATOM     52  C   UNL A   1      42.325  27.466  29.909  1.00  0.00     0.049 A 
ATOM     53  C   UNL A   1      40.734  30.503  34.366  1.00  0.00     0.074 A 
ATOM     54  C   UNL A   1      43.530  26.796  30.018  1.00  0.00     0.029 A 
ATOM     55  N   UNL A   1      42.121  28.116  31.120  1.00  0.00    -0.354 N 
ATOM     56  N   UNL A   1      41.224  29.747  33.411  1.00  0.00    -0.248 NA
ATOM     57  C   UNL A   1      41.527  30.506  35.601  1.00  0.00     0.031 C 
ATOM     58  C   UNL A   1      44.029  26.997  31.311  1.00  0.00     0.029 A 
ATOM     59  C   UNL A   1      43.164  27.842  31.990  1.00  0.00     0.049 A 
ATOM     60  H   UNL A   1      41.348  28.689  31.329  1.00  0.00     0.167 HD
ATOM     61  C   UNL A   1      42.403  29.209  33.920  1.00  0.00     0.074 A 
ATOM     62  C   UNL A   1      42.550  29.733  35.263  1.00  0.00     0.031 C 
ATOM     63  C   UNL A   1      43.287  28.366  33.330  1.00  0.00     0.034 A 
BRANCH  50  64
ATOM     64  C   UNL A   1      41.689  26.646  27.580  1.00  0.00     0.023 A 
ATOM     65  C   UNL A   1      41.321  25.289  27.547  1.00  0.00     0.031 A 
ATOM     66  C   UNL A   1      42.385  27.165  26.475  1.00  0.00     0.131 A 
ATOM     67  C   UNL A   1      41.744  24.475  26.486  1.00  0.00     0.055 A 
ATOM     68  C   UNL A   1      42.720  26.370  25.378  1.00  0.00     0.041 A 
ATOM     69  F   UNL A   1      42.779  28.449  26.456  1.00  0.00    -0.206 F 
ATOM     70  C   UNL A   1      42.419  25.010  25.388  1.00  0.00     0.022 A 
BRANCH  67  71
ATOM     71  S   UNL A   1      41.554  22.678  26.651  1.00  0.00     0.124 S 
ATOM     72  O   UNL A   1      42.187  22.202  25.422  1.00  0.00    -0.237 OA
ATOM     73  O   UNL A   1      42.270  22.397  27.889  1.00  0.00    -0.237 OA
ATOM     74  O   UNL A   1      40.106  22.490  26.708  1.00  0.00    -0.744 OA
ENDBRANCH  67  71
ENDBRANCH  50  64
BRANCH  51  75
ATOM     75  C   UNL A   1      39.096  32.133  35.564  1.00  0.00     0.023 A 
ATOM     76  C   UNL A   1      39.571  33.439  35.754  1.00  0.00     0.031 A 
ATOM     77  C   UNL A   1      38.268  31.578  36.553  1.00  0.00     0.131 A 
ATOM     78  C   UNL A   1      39.248  34.137  36.927  1.00  0.00     0.055 A 
ATOM     79  C   UNL A   1      37.915  32.291  37.701  1.00  0.00     0.041 A 
ATOM     80  F   UNL A   1      37.780  30.336  36.412  1.00  0.00    -0.206 F 
ATOM     81  C   UNL A   1      38.414  33.576  37.898  1.00  0.00     0.022 A 
BRANCH  78  82
ATOM     82  S   UNL A   1      39.981  35.774  37.194  1.00  0.00     0.124 S 
ATOM     83  O   UNL A   1      41.386  35.442  37.395  1.00  0.00    -0.237 OA
ATOM     84  O   UNL A   1      39.654  36.460  35.948  1.00  0.00    -0.237 OA
ATOM     85  O   UNL A   1      39.281  36.273  38.377  1.00  0.00    -0.744 OA
ENDBRANCH  78  82
ENDBRANCH  51  75
BRANCH  63  86
ATOM     86  C   UNL A   1      44.513  28.002  34.127  1.00  0.00     0.023 A 
ATOM     87  C   UNL A   1      44.549  26.861  34.947  1.00  0.00     0.031 A 
ATOM     88  C   UNL A   1      45.655  28.819  34.074  1.00  0.00     0.131 A 
ATOM     89  C   UNL A   1      45.688  26.595  35.721  1.00  0.00     0.055 A 
ATOM     90  C   UNL A   1      46.805  28.521  34.805  1.00  0.00     0.041 A 
ATOM     91  F   UNL A   1      45.672  29.921  33.307  1.00  0.00    -0.206 F 
ATOM     92  C   UNL A   1      46.822  27.410  35.644  1.00  0.00     0.022 A 
BRANCH  89  93
ATOM     93  S   UNL A   1      45.643  25.210  36.892  1.00  0.00     0.124 S 
ATOM     94  O   UNL A   1      44.289  25.308  37.426  1.00  0.00    -0.237 OA
ATOM     95  O   UNL A   1      45.907  24.063  36.029  1.00  0.00    -0.237 OA
ATOM     96  O   UNL A   1      46.708  25.529  37.840  1.00  0.00    -0.744 OA
ENDBRANCH  89  93
ENDBRANCH  63  86
ENDBRANCH  37  38
ENDBRANCH  29  32
ENDBRANCH  27  28
ENDBRANCH   1  27
TORSDOF 18
ENDMDL
MODEL 3
REMARK VINA RESULT:     -11.6      2.957      8.333
REMARK SMILES CC[NH2+][C@@]1(C(=O)NCCCCNC(=O)c2ccc(-c3c4nc(c(-c5cc(S(=O)(=O)[O-])ccc5F)c5ccc([nH]5)c(-c5cc(S(=O)(=O)[O-])ccc5F)c5nc(c(-c6cc(S(=O)(=O)[O-])ccc6F)c6ccc3[nH]6)C=C5)C=C4)cc2)CCC[C@@H](Sc2ncc(C)cn2)C1
REMARK SMILES IDX 10 1 9 2 8 3 7 4 5 5 6 6 4 8 78 9 90 10 79 11 81 12 80 13
REMARK SMILES IDX 3 14 2 17 1 18 82 19 83 20 84 21 89 22 85 23 88 24 86 25
REMARK SMILES IDX 87 26 11 27 12 28 13 29 14 31 15 32 16 33 77 34 17 35 76 36
REMARK SMILES IDX 18 37 19 38 20 39 70 40 21 41 75 42 69 43 71 44 22 45 74 46
REMARK SMILES IDX 68 47 67 48 23 50 55 51 35 52 54 53 36 54 39 55 53 56 72 57
REMARK SMILES IDX 37 58 38 59 52 61 73 62 40 63 24 64 25 65 33 66 26 67 32 68
REMARK SMILES IDX 34 69 31 70 27 71 28 72 29 73 30 74 56 75 57 76 65 77 58 78
REMARK SMILES IDX 64 79 66 80 63 81 59 82 60 83 61 84 62 85 41 86 42 87 50 88
REMARK SMILES IDX 43 89 49 90 51 91 48 92 44 93 45 94 46 95 47 96
REMARK H PARENT 7 7 3 15 3 16 12 30 71 49 39 60
REMARK Flexibility Score: inf
ROOT
ATOM      1  C   UNL A   1      32.494  30.918  26.803  1.00  0.00     0.023 C 
ENDROOT
BRANCH   1   2
ATOM      2  C   UNL A   1      32.592  29.464  27.247  1.00  0.00     0.023 C 
BRANCH   2   3
ATOM      3  C   UNL A   1      33.814  28.700  26.726  1.00  0.00     0.116 C 
BRANCH   3   4
ATOM      4  N   UNL A   1      33.992  28.889  25.306  1.00  0.00    -0.351 N 
ATOM      5  C   UNL A   1      33.953  28.087  24.216  1.00  0.00     0.281 C 
ATOM      6  O   UNL A   1      34.386  28.655  23.200  1.00  0.00    -0.268 OA
ATOM      7  H   UNL A   1      34.188  29.826  25.075  1.00  0.00     0.163 HD
BRANCH   5   8
ATOM      8  C   UNL A   1      33.476  26.557  24.165  1.00  0.00     0.176 C 
ATOM      9  C   UNL A   1      33.841  25.734  22.899  1.00  0.00     0.079 C 
ATOM     10  C   UNL A   1      31.966  26.489  24.513  1.00  0.00     0.094 C 
ATOM     11  C   UNL A   1      32.787  25.505  21.809  1.00  0.00     0.008 C 
ATOM     12  C   UNL A   1      31.063  26.603  23.292  1.00  0.00     0.061 C 
ATOM     13  C   UNL A   1      31.340  25.491  22.286  1.00  0.00     0.015 C 
BRANCH   8  14
ATOM     14  N   UNL A   1      34.144  25.870  25.338  1.00  0.00    -0.334 N 
ATOM     15  H   UNL A   1      34.950  25.356  24.980  1.00  0.00     0.347 HD
ATOM     16  H   UNL A   1      34.381  26.615  25.994  1.00  0.00     0.347 HD
BRANCH  14  17
ATOM     17  C   UNL A   1      33.313  24.930  26.093  1.00  0.00     0.257 C 
ATOM     18  C   UNL A   1      33.890  23.527  25.942  1.00  0.00     0.071 C 
ENDBRANCH  14  17
ENDBRANCH   8  14
BRANCH  12  19
ATOM     19  S   UNL A   1      29.300  26.837  23.732  1.00  0.00    -0.083 SA
BRANCH  19  20
ATOM     20  C   UNL A   1      28.968  28.386  22.960  1.00  0.00     0.187 A 
ATOM     21  N   UNL A   1      27.748  28.919  23.114  1.00  0.00    -0.231 NA
ATOM     22  N   UNL A   1      29.962  28.922  22.233  1.00  0.00    -0.231 NA
ATOM     23  C   UNL A   1      27.528  30.089  22.488  1.00  0.00     0.119 A 
ATOM     24  C   UNL A   1      29.689  30.089  21.627  1.00  0.00     0.119 A 
ATOM     25  C   UNL A   1      28.471  30.729  21.713  1.00  0.00    -0.014 A 
ATOM     26  C   UNL A   1      28.211  32.023  21.026  1.00  0.00     0.048 C 
ENDBRANCH  19  20
ENDBRANCH  12  19
ENDBRANCH   5   8
ENDBRANCH   3   4
ENDBRANCH   2   3
ENDBRANCH   1   2
BRANCH   1  27
ATOM     27  C   UNL A   1      33.396  31.880  27.563  1.00  0.00     0.116 C 
BRANCH  27  28
ATOM     28  N   UNL A   1      32.897  33.248  27.639  1.00  0.00    -0.352 N 
ATOM     29  C   UNL A   1      33.347  34.256  28.464  1.00  0.00     0.251 C 
ATOM     30  H   UNL A   1      32.155  33.476  27.032  1.00  0.00     0.163 HD
ATOM     31  O   UNL A   1      32.808  35.357  28.466  1.00  0.00    -0.269 OA
BRANCH  29  32
ATOM     32  C   UNL A   1      34.457  33.947  29.387  1.00  0.00     0.039 A 
ATOM     33  C   UNL A   1      34.200  33.166  30.515  1.00  0.00     0.014 A 
ATOM     34  C   UNL A   1      35.763  34.303  29.044  1.00  0.00     0.014 A 
ATOM     35  C   UNL A   1      35.271  32.659  31.252  1.00  0.00     0.010 A 
ATOM     36  C   UNL A   1      36.825  33.727  29.726  1.00  0.00     0.010 A 
ATOM     37  C   UNL A   1      36.591  32.893  30.832  1.00  0.00    -0.014 A 
BRANCH  37  38
ATOM     38  C   UNL A   1      37.748  32.277  31.529  1.00  0.00     0.031 A 
ATOM     39  C   UNL A   1      38.505  31.159  30.866  1.00  0.00     0.074 A 
ATOM     40  C   UNL A   1      38.054  32.654  32.786  1.00  0.00     0.049 A 
ATOM     41  N   UNL A   1      39.470  30.416  31.339  1.00  0.00    -0.248 NA
ATOM     42  C   UNL A   1      38.081  30.802  29.505  1.00  0.00     0.031 C 
ATOM     43  C   UNL A   1      37.353  33.685  33.558  1.00  0.00     0.029 A 
ATOM     44  N   UNL A   1      39.028  32.208  33.642  1.00  0.00    -0.354 N 
ATOM     45  C   UNL A   1      39.745  29.480  30.347  1.00  0.00     0.074 A 
ATOM     46  C   UNL A   1      38.797  29.713  29.279  1.00  0.00     0.031 C 
ATOM     47  C   UNL A   1      37.944  33.815  34.758  1.00  0.00     0.029 A 
ATOM     48  C   UNL A   1      39.036  32.853  34.857  1.00  0.00     0.049 A 
ATOM     49  H   UNL A   1      39.663  31.493  33.409  1.00  0.00     0.167 HD
ATOM     50  C   UNL A   1      40.714  28.532  30.320  1.00  0.00     0.034 A 
ATOM     51  C   UNL A   1      39.835  32.684  35.929  1.00  0.00     0.034 A 
ATOM     52  C   UNL A   1      41.674  28.344  31.379  1.00  0.00     0.049 A 
ATOM     53  C   UNL A   1      40.919  31.640  35.871  1.00  0.00     0.074 A 
ATOM     54  C   UNL A   1      42.756  27.483  31.421  1.00  0.00     0.029 A 
ATOM     55  N   UNL A   1      41.665  29.029  32.587  1.00  0.00    -0.354 N 
ATOM     56  N   UNL A   1      41.210  30.805  34.900  1.00  0.00    -0.248 NA
ATOM     57  C   UNL A   1      41.784  31.521  37.051  1.00  0.00     0.031 C 
ATOM     58  C   UNL A   1      43.368  27.608  32.674  1.00  0.00     0.029 A 
ATOM     59  C   UNL A   1      42.705  28.592  33.392  1.00  0.00     0.049 A 
ATOM     60  H   UNL A   1      41.014  29.725  32.836  1.00  0.00     0.167 HD
ATOM     61  C   UNL A   1      42.315  30.082  35.342  1.00  0.00     0.074 A 
ATOM     62  C   UNL A   1      42.639  30.585  36.661  1.00  0.00     0.031 C 
ATOM     63  C   UNL A   1      43.005  29.098  34.711  1.00  0.00     0.034 A 
BRANCH  50  64
ATOM     64  C   UNL A   1      40.753  27.623  29.114  1.00  0.00     0.023 A 
ATOM     65  C   UNL A   1      41.697  27.800  28.087  1.00  0.00     0.031 A 
ATOM     66  C   UNL A   1      39.791  26.611  28.954  1.00  0.00     0.131 A 
ATOM     67  C   UNL A   1      41.593  27.054  26.903  1.00  0.00     0.055 A 
ATOM     68  C   UNL A   1      39.751  25.807  27.813  1.00  0.00     0.041 A 
ATOM     69  F   UNL A   1      38.852  26.405  29.892  1.00  0.00    -0.206 F 
ATOM     70  C   UNL A   1      40.643  26.040  26.769  1.00  0.00     0.022 A 
BRANCH  67  71
ATOM     71  S   UNL A   1      42.602  27.551  25.480  1.00  0.00     0.124 S 
ATOM     72  O   UNL A   1      43.872  27.886  26.122  1.00  0.00    -0.237 OA
ATOM     73  O   UNL A   1      42.600  26.349  24.655  1.00  0.00    -0.237 OA
ATOM     74  O   UNL A   1      41.875  28.692  24.927  1.00  0.00    -0.744 OA
ENDBRANCH  67  71
ENDBRANCH  50  64
BRANCH  51  75
ATOM     75  C   UNL A   1      39.661  33.531  37.143  1.00  0.00     0.023 A 
ATOM     76  C   UNL A   1      40.479  34.650  37.356  1.00  0.00     0.031 A 
ATOM     77  C   UNL A   1      38.698  33.217  38.117  1.00  0.00     0.131 A 
ATOM     78  C   UNL A   1      40.349  35.397  38.537  1.00  0.00     0.055 A 
ATOM     79  C   UNL A   1      38.544  33.988  39.272  1.00  0.00     0.041 A 
ATOM     80  F   UNL A   1      37.885  32.163  37.953  1.00  0.00    -0.206 F 
ATOM     81  C   UNL A   1      39.380  35.079  39.492  1.00  0.00     0.022 A 
BRANCH  78  82
ATOM     82  S   UNL A   1      41.506  36.761  38.834  1.00  0.00     0.124 S 
ATOM     83  O   UNL A   1      41.984  37.046  37.486  1.00  0.00    -0.237 OA
ATOM     84  O   UNL A   1      40.638  37.770  39.434  1.00  0.00    -0.237 OA
ATOM     85  O   UNL A   1      42.495  36.179  39.739  1.00  0.00    -0.744 OA
ENDBRANCH  78  82
ENDBRANCH  51  75
BRANCH  63  86
ATOM     86  C   UNL A   1      44.204  28.541  35.432  1.00  0.00     0.023 A 
ATOM     87  C   UNL A   1      44.080  27.527  36.398  1.00  0.00     0.031 A 
ATOM     88  C   UNL A   1      45.487  29.044  35.156  1.00  0.00     0.131 A 
ATOM     89  C   UNL A   1      45.216  27.083  37.090  1.00  0.00     0.055 A 
ATOM     90  C   UNL A   1      46.621  28.561  35.810  1.00  0.00     0.041 A 
ATOM     91  F   UNL A   1      45.659  30.013  34.243  1.00  0.00    -0.206 F 
ATOM     92  C   UNL A   1      46.488  27.583  36.792  1.00  0.00     0.022 A 
BRANCH  89  93
ATOM     93  S   UNL A   1      45.002  25.895  38.444  1.00  0.00     0.124 S 
ATOM     94  O   UNL A   1      44.457  24.735  37.748  1.00  0.00    -0.237 OA
ATOM     95  O   UNL A   1      46.363  25.753  38.953  1.00  0.00    -0.237 OA
ATOM     96  O   UNL A   1      44.072  26.570  39.348  1.00  0.00    -0.744 OA
ENDBRANCH  89  93
ENDBRANCH  63  86
ENDBRANCH  37  38
ENDBRANCH  29  32
ENDBRANCH  27  28
ENDBRANCH   1  27
TORSDOF 18
ENDMDL
