MODEL 1
REMARK VINA RESULT:     -11.7      0.000      0.000
REMARK SMILES COc1ccc(C2=NN=C[C@@H]2C(=O)NCCCCNC(=O)c2ccc(-c3c4nc(c(-c5cc(S(=O)(=O)[O-])ccc5F)c5ccc([nH]5)c(-c5cc(S(=O)(=O)[O-])ccc5F)c5nc(c(-c6cc(S(=O)(=O)[O-])ccc6F)c6ccc3[nH]6)C=C5)C=C4)cc2)cc1OC
REMARK SMILES IDX 17 1 16 2 15 3 14 4 12 5 13 6 11 8 7 9 8 10 9 11 10 12 6 13
REMARK SMILES IDX 3 14 4 15 86 16 5 17 85 18 2 19 1 20 87 21 88 22 18 23 19 24
REMARK SMILES IDX 20 25 21 27 22 28 23 29 84 30 24 31 83 32 25 33 26 34 27 35
REMARK SMILES IDX 77 36 28 37 82 38 76 39 78 40 29 41 81 42 75 43 74 44 30 46
REMARK SMILES IDX 62 47 42 48 61 49 43 50 46 51 60 52 79 53 44 54 45 55 59 57
REMARK SMILES IDX 80 58 47 59 31 60 32 61 40 62 33 63 39 64 41 65 38 66 34 67
REMARK SMILES IDX 35 68 36 69 37 70 63 71 64 72 72 73 65 74 71 75 73 76 70 77
REMARK SMILES IDX 66 78 67 79 68 80 69 81 48 82 49 83 57 84 50 85 56 86 58 87
REMARK SMILES IDX 55 88 51 89 52 90 53 91 54 92
REMARK H PARENT 14 7 19 26 78 45 46 56
REMARK Flexibility Score: inf
ROOT
ATOM      1  C   UNL A   1      37.040  23.521  25.230  1.00  0.00     0.023 C 
ENDROOT
BRANCH   1   2
ATOM      2  C   UNL A   1      35.581  23.981  25.077  1.00  0.00     0.023 C 
BRANCH   2   3
ATOM      3  C   UNL A   1      34.520  22.877  25.167  1.00  0.00     0.116 C 
BRANCH   3   4
ATOM      4  N   UNL A   1      34.079  22.650  26.538  1.00  0.00    -0.355 N 
ATOM      5  C   UNL A   1      32.855  22.723  27.126  1.00  0.00     0.234 C 
ATOM      6  O   UNL A   1      32.800  22.473  28.335  1.00  0.00    -0.274 OA
ATOM      7  H   UNL A   1      34.804  22.396  27.153  1.00  0.00     0.163 HD
BRANCH   5   8
ATOM      8  C   UNL A   1      31.591  23.068  26.394  1.00  0.00     0.173 C 
ATOM      9  C   UNL A   1      31.301  24.520  26.233  1.00  0.00     0.088 C 
ATOM     10  N   UNL A   1      30.143  24.858  26.722  1.00  0.00    -0.154 NA
ATOM     11  N   UNL A   1      29.510  23.678  27.227  1.00  0.00    -0.162 NA
ATOM     12  C   UNL A   1      30.318  22.685  27.046  1.00  0.00     0.128 C 
BRANCH   9  13
ATOM     13  C   UNL A   1      32.199  25.448  25.533  1.00  0.00     0.003 A 
ATOM     14  C   UNL A   1      33.667  27.434  24.222  1.00  0.00     0.160 A 
ATOM     15  C   UNL A   1      32.936  26.490  23.484  1.00  0.00     0.051 A 
ATOM     16  C   UNL A   1      33.688  27.366  25.623  1.00  0.00     0.161 A 
ATOM     17  C   UNL A   1      32.213  25.486  24.137  1.00  0.00     0.014 A 
ATOM     18  C   UNL A   1      32.936  26.376  26.270  1.00  0.00     0.060 A 
BRANCH  14  19
ATOM     19  O   UNL A   1      34.175  28.519  23.558  1.00  0.00    -0.493 OA
ATOM     20  C   UNL A   1      34.126  28.383  22.139  1.00  0.00     0.278 C 
ENDBRANCH  14  19
BRANCH  16  21
ATOM     21  O   UNL A   1      34.322  28.212  26.492  1.00  0.00    -0.493 OA
ATOM     22  C   UNL A   1      33.524  28.928  27.426  1.00  0.00     0.278 C 
ENDBRANCH  16  21
ENDBRANCH   9  13
ENDBRANCH   5   8
ENDBRANCH   3   4
ENDBRANCH   2   3
ENDBRANCH   1   2
BRANCH   1  23
ATOM     23  C   UNL A   1      37.867  24.302  26.248  1.00  0.00     0.116 C 
BRANCH  23  24
ATOM     24  N   UNL A   1      39.304  24.117  26.076  1.00  0.00    -0.352 N 
ATOM     25  C   UNL A   1      40.316  25.029  26.325  1.00  0.00     0.251 C 
ATOM     26  H   UNL A   1      39.590  23.236  25.740  1.00  0.00     0.163 HD
ATOM     27  O   UNL A   1      41.388  24.929  25.750  1.00  0.00    -0.269 OA
BRANCH  25  28
ATOM     28  C   UNL A   1      40.071  26.125  27.286  1.00  0.00     0.039 A 
ATOM     29  C   UNL A   1      39.600  25.859  28.574  1.00  0.00     0.014 A 
ATOM     30  C   UNL A   1      40.333  27.435  26.886  1.00  0.00     0.014 A 
ATOM     31  C   UNL A   1      39.491  26.911  29.484  1.00  0.00     0.010 A 
ATOM     32  C   UNL A   1      40.329  28.454  27.813  1.00  0.00     0.010 A 
ATOM     33  C   UNL A   1      39.885  28.207  29.110  1.00  0.00    -0.014 A 
BRANCH  33  34
ATOM     34  C   UNL A   1      40.011  29.264  30.119  1.00  0.00     0.031 A 
ATOM     35  C   UNL A   1      38.766  30.057  30.317  1.00  0.00     0.074 A 
ATOM     36  C   UNL A   1      41.052  29.377  30.976  1.00  0.00     0.049 A 
ATOM     37  N   UNL A   1      38.551  31.292  30.007  1.00  0.00    -0.248 NA
ATOM     38  C   UNL A   1      37.554  29.344  30.756  1.00  0.00     0.031 C 
ATOM     39  C   UNL A   1      42.199  28.472  31.105  1.00  0.00     0.029 A 
ATOM     40  N   UNL A   1      41.255  30.264  31.996  1.00  0.00    -0.354 N 
ATOM     41  C   UNL A   1      37.264  31.582  30.455  1.00  0.00     0.074 A 
ATOM     42  C   UNL A   1      36.638  30.310  30.679  1.00  0.00     0.031 C 
ATOM     43  C   UNL A   1      42.847  28.716  32.266  1.00  0.00     0.029 A 
ATOM     44  C   UNL A   1      42.274  29.902  32.878  1.00  0.00     0.049 A 
ATOM     45  H   UNL A   1      40.728  31.089  32.099  1.00  0.00     0.167 HD
ATOM     46  C   UNL A   1      36.931  32.842  30.857  1.00  0.00     0.034 A 
ATOM     47  C   UNL A   1      42.637  30.517  34.036  1.00  0.00     0.034 A 
ATOM     48  C   UNL A   1      37.931  33.790  30.412  1.00  0.00     0.049 A 
ATOM     49  C   UNL A   1      42.142  31.909  33.954  1.00  0.00     0.074 A 
ATOM     50  C   UNL A   1      38.405  34.218  29.189  1.00  0.00     0.029 A 
ATOM     51  N   UNL A   1      38.875  34.164  31.342  1.00  0.00    -0.354 N 
ATOM     52  N   UNL A   1      42.582  32.774  33.084  1.00  0.00    -0.248 NA
ATOM     53  C   UNL A   1      40.856  32.234  34.549  1.00  0.00     0.031 C 
ATOM     54  C   UNL A   1      39.799  34.449  29.388  1.00  0.00     0.029 A 
ATOM     55  C   UNL A   1      40.102  34.232  30.736  1.00  0.00     0.049 A 
ATOM     56  H   UNL A   1      38.697  34.353  32.292  1.00  0.00     0.167 HD
ATOM     57  C   UNL A   1      41.462  33.487  32.693  1.00  0.00     0.074 A 
ATOM     58  C   UNL A   1      40.471  33.221  33.732  1.00  0.00     0.031 C 
ATOM     59  C   UNL A   1      41.358  33.983  31.424  1.00  0.00     0.034 A 
BRANCH  46  60
ATOM     60  C   UNL A   1      35.982  33.179  32.002  1.00  0.00     0.023 A 
ATOM     61  C   UNL A   1      34.892  34.023  31.696  1.00  0.00     0.031 A 
ATOM     62  C   UNL A   1      36.226  32.989  33.381  1.00  0.00     0.131 A 
ATOM     63  C   UNL A   1      34.212  34.732  32.703  1.00  0.00     0.055 A 
ATOM     64  C   UNL A   1      35.506  33.652  34.382  1.00  0.00     0.041 A 
ATOM     65  F   UNL A   1      37.212  32.220  33.851  1.00  0.00    -0.206 F 
ATOM     66  C   UNL A   1      34.519  34.560  34.046  1.00  0.00     0.022 A 
BRANCH  63  67
ATOM     67  S   UNL A   1      33.049  36.028  32.204  1.00  0.00     0.124 S 
ATOM     68  O   UNL A   1      31.768  35.368  32.428  1.00  0.00    -0.237 OA
ATOM     69  O   UNL A   1      33.392  37.107  33.123  1.00  0.00    -0.237 OA
ATOM     70  O   UNL A   1      33.391  36.268  30.804  1.00  0.00    -0.744 OA
ENDBRANCH  63  67
ENDBRANCH  46  60
BRANCH  47  71
ATOM     71  C   UNL A   1      43.138  29.891  35.292  1.00  0.00     0.023 A 
ATOM     72  C   UNL A   1      42.767  28.596  35.723  1.00  0.00     0.031 A 
ATOM     73  C   UNL A   1      44.217  30.499  35.972  1.00  0.00     0.131 A 
ATOM     74  C   UNL A   1      43.470  27.970  36.782  1.00  0.00     0.055 A 
ATOM     75  C   UNL A   1      44.908  29.874  37.013  1.00  0.00     0.041 A 
ATOM     76  F   UNL A   1      44.692  31.695  35.587  1.00  0.00    -0.206 F 
ATOM     77  C   UNL A   1      44.541  28.602  37.418  1.00  0.00     0.022 A 
BRANCH  74  78
ATOM     78  S   UNL A   1      43.052  26.272  37.308  1.00  0.00     0.124 S 
ATOM     79  O   UNL A   1      44.041  26.011  38.345  1.00  0.00    -0.237 OA
ATOM     80  O   UNL A   1      41.668  26.416  37.747  1.00  0.00    -0.237 OA
ATOM     81  O   UNL A   1      43.224  25.484  36.086  1.00  0.00    -0.744 OA
ENDBRANCH  74  78
ENDBRANCH  47  71
BRANCH  59  82
ATOM     82  C   UNL A   1      42.632  34.122  30.612  1.00  0.00     0.023 A 
ATOM     83  C   UNL A   1      43.076  33.223  29.615  1.00  0.00     0.031 A 
ATOM     84  C   UNL A   1      43.388  35.290  30.819  1.00  0.00     0.131 A 
ATOM     85  C   UNL A   1      44.244  33.509  28.881  1.00  0.00     0.055 A 
ATOM     86  C   UNL A   1      44.527  35.583  30.072  1.00  0.00     0.041 A 
ATOM     87  F   UNL A   1      43.009  36.193  31.739  1.00  0.00    -0.206 F 
ATOM     88  C   UNL A   1      44.964  34.688  29.103  1.00  0.00     0.022 A 
BRANCH  85  89
ATOM     89  S   UNL A   1      44.873  32.337  27.633  1.00  0.00     0.124 S 
ATOM     90  O   UNL A   1      44.895  33.125  26.406  1.00  0.00    -0.237 OA
ATOM     91  O   UNL A   1      46.175  31.964  28.178  1.00  0.00    -0.237 OA
ATOM     92  O   UNL A   1      43.879  31.261  27.646  1.00  0.00    -0.744 OA
ENDBRANCH  85  89
ENDBRANCH  59  82
ENDBRANCH  33  34
ENDBRANCH  25  28
ENDBRANCH  23  24
ENDBRANCH   1  23
TORSDOF 17
ENDMDL
MODEL 2
REMARK VINA RESULT:     -11.7      4.489     10.282
REMARK SMILES COc1ccc(C2=NN=C[C@@H]2C(=O)NCCCCNC(=O)c2ccc(-c3c4nc(c(-c5cc(S(=O)(=O)[O-])ccc5F)c5ccc([nH]5)c(-c5cc(S(=O)(=O)[O-])ccc5F)c5nc(c(-c6cc(S(=O)(=O)[O-])ccc6F)c6ccc3[nH]6)C=C5)C=C4)cc2)cc1OC
REMARK SMILES IDX 17 1 16 2 15 3 14 4 12 5 13 6 11 8 7 9 8 10 9 11 10 12 6 13
REMARK SMILES IDX 3 14 4 15 86 16 5 17 85 18 2 19 1 20 87 21 88 22 18 23 19 24
REMARK SMILES IDX 20 25 21 27 22 28 23 29 84 30 24 31 83 32 25 33 26 34 27 35
REMARK SMILES IDX 77 36 28 37 82 38 76 39 78 40 29 41 81 42 75 43 74 44 30 46
REMARK SMILES IDX 62 47 42 48 61 49 43 50 46 51 60 52 79 53 44 54 45 55 59 57
REMARK SMILES IDX 80 58 47 59 31 60 32 61 40 62 33 63 39 64 41 65 38 66 34 67
REMARK SMILES IDX 35 68 36 69 37 70 63 71 64 72 72 73 65 74 71 75 73 76 70 77
REMARK SMILES IDX 66 78 67 79 68 80 69 81 48 82 49 83 57 84 50 85 56 86 58 87
REMARK SMILES IDX 55 88 51 89 52 90 53 91 54 92
REMARK H PARENT 14 7 19 26 78 45 46 56
REMARK Flexibility Score: inf
ROOT
ATOM      1  C   UNL A   1      33.699  29.513  26.880  1.00  0.00     0.023 C 
ENDROOT
BRANCH   1   2
ATOM      2  C   UNL A   1      32.471  28.686  27.298  1.00  0.00     0.023 C 
BRANCH   2   3
ATOM      3  C   UNL A   1      31.729  27.972  26.160  1.00  0.00     0.116 C 
BRANCH   3   4
ATOM      4  N   UNL A   1      30.955  26.835  26.640  1.00  0.00    -0.355 N 
ATOM      5  C   UNL A   1      30.366  25.794  25.992  1.00  0.00     0.234 C 
ATOM      6  O   UNL A   1      29.762  24.971  26.689  1.00  0.00    -0.274 OA
ATOM      7  H   UNL A   1      30.836  26.816  27.617  1.00  0.00     0.163 HD
BRANCH   5   8
ATOM      8  C   UNL A   1      30.425  25.589  24.507  1.00  0.00     0.173 C 
ATOM      9  C   UNL A   1      31.782  25.615  23.893  1.00  0.00     0.088 C 
ATOM     10  N   UNL A   1      31.891  26.507  22.952  1.00  0.00    -0.154 NA
ATOM     11  N   UNL A   1      30.621  27.149  22.797  1.00  0.00    -0.162 NA
ATOM     12  C   UNL A   1      29.809  26.640  23.665  1.00  0.00     0.128 C 
BRANCH   9  13
ATOM     13  C   UNL A   1      32.853  24.683  24.269  1.00  0.00     0.003 A 
ATOM     14  C   UNL A   1      34.714  22.841  25.250  1.00  0.00     0.160 A 
ATOM     15  C   UNL A   1      34.863  24.210  25.520  1.00  0.00     0.051 A 
ATOM     16  C   UNL A   1      33.646  22.394  24.458  1.00  0.00     0.161 A 
ATOM     17  C   UNL A   1      33.941  25.135  25.019  1.00  0.00     0.014 A 
ATOM     18  C   UNL A   1      32.710  23.325  23.985  1.00  0.00     0.060 A 
BRANCH  14  19
ATOM     19  O   UNL A   1      35.505  21.957  25.937  1.00  0.00    -0.493 OA
ATOM     20  C   UNL A   1      36.515  21.360  25.126  1.00  0.00     0.278 C 
ENDBRANCH  14  19
BRANCH  16  21
ATOM     21  O   UNL A   1      33.338  21.104  24.119  1.00  0.00    -0.493 OA
ATOM     22  C   UNL A   1      32.464  20.380  24.975  1.00  0.00     0.278 C 
ENDBRANCH  16  21
ENDBRANCH   9  13
ENDBRANCH   5   8
ENDBRANCH   3   4
ENDBRANCH   2   3
ENDBRANCH   1   2
BRANCH   1  23
ATOM     23  C   UNL A   1      34.999  29.157  27.596  1.00  0.00     0.116 C 
BRANCH  23  24
ATOM     24  N   UNL A   1      35.298  30.052  28.709  1.00  0.00    -0.352 N 
ATOM     25  C   UNL A   1      36.365  29.987  29.590  1.00  0.00     0.251 C 
ATOM     26  H   UNL A   1      34.664  30.792  28.852  1.00  0.00     0.163 HD
ATOM     27  O   UNL A   1      36.277  30.492  30.698  1.00  0.00    -0.269 OA
BRANCH  25  28
ATOM     28  C   UNL A   1      37.600  29.292  29.169  1.00  0.00     0.039 A 
ATOM     29  C   UNL A   1      38.269  29.661  28.000  1.00  0.00     0.014 A 
ATOM     30  C   UNL A   1      38.095  28.267  29.973  1.00  0.00     0.014 A 
ATOM     31  C   UNL A   1      39.490  29.056  27.700  1.00  0.00     0.010 A 
ATOM     32  C   UNL A   1      39.349  27.747  29.736  1.00  0.00     0.010 A 
ATOM     33  C   UNL A   1      40.044  28.118  28.588  1.00  0.00    -0.014 A 
BRANCH  33  34
ATOM     34  C   UNL A   1      41.428  27.663  28.415  1.00  0.00     0.031 A 
ATOM     35  C   UNL A   1      41.550  26.372  27.681  1.00  0.00     0.074 A 
ATOM     36  C   UNL A   1      42.516  28.427  28.663  1.00  0.00     0.049 A 
ATOM     37  N   UNL A   1      41.927  25.226  28.142  1.00  0.00    -0.248 NA
ATOM     38  C   UNL A   1      41.022  26.306  26.308  1.00  0.00     0.031 C 
ATOM     39  C   UNL A   1      42.538  29.831  29.088  1.00  0.00     0.029 A 
ATOM     40  N   UNL A   1      43.843  28.149  28.481  1.00  0.00    -0.354 N 
ATOM     41  C   UNL A   1      41.937  24.358  27.052  1.00  0.00     0.074 A 
ATOM     42  C   UNL A   1      41.159  25.008  26.035  1.00  0.00     0.031 C 
ATOM     43  C   UNL A   1      43.777  30.342  28.915  1.00  0.00     0.029 A 
ATOM     44  C   UNL A   1      44.676  29.267  28.537  1.00  0.00     0.049 A 
ATOM     45  H   UNL A   1      44.181  27.238  28.326  1.00  0.00     0.167 HD
ATOM     46  C   UNL A   1      42.812  23.314  26.998  1.00  0.00     0.034 A 
ATOM     47  C   UNL A   1      46.013  29.327  28.290  1.00  0.00     0.034 A 
ATOM     48  C   UNL A   1      43.387  23.075  28.305  1.00  0.00     0.049 A 
ATOM     49  C   UNL A   1      46.542  27.957  28.464  1.00  0.00     0.074 A 
ATOM     50  C   UNL A   1      42.898  22.707  29.542  1.00  0.00     0.029 A 
ATOM     51  N   UNL A   1      44.639  23.603  28.529  1.00  0.00    -0.354 N 
ATOM     52  N   UNL A   1      46.545  27.332  29.608  1.00  0.00    -0.248 NA
ATOM     53  C   UNL A   1      46.681  27.102  27.296  1.00  0.00     0.031 C 
ATOM     54  C   UNL A   1      43.698  23.417  30.487  1.00  0.00     0.029 A 
ATOM     55  C   UNL A   1      44.688  24.121  29.796  1.00  0.00     0.049 A 
ATOM     56  H   UNL A   1      45.381  23.607  27.881  1.00  0.00     0.167 HD
ATOM     57  C   UNL A   1      46.233  26.020  29.299  1.00  0.00     0.074 A 
ATOM     58  C   UNL A   1      46.482  25.908  27.864  1.00  0.00     0.031 C 
ATOM     59  C   UNL A   1      45.531  25.244  30.178  1.00  0.00     0.034 A 
BRANCH  46  60
ATOM     60  C   UNL A   1      43.491  22.798  25.734  1.00  0.00     0.023 A 
ATOM     61  C   UNL A   1      43.631  21.399  25.613  1.00  0.00     0.031 A 
ATOM     62  C   UNL A   1      44.253  23.558  24.818  1.00  0.00     0.131 A 
ATOM     63  C   UNL A   1      44.579  20.831  24.743  1.00  0.00     0.055 A 
ATOM     64  C   UNL A   1      45.153  22.984  23.911  1.00  0.00     0.041 A 
ATOM     65  F   UNL A   1      44.240  24.894  24.786  1.00  0.00    -0.206 F 
ATOM     66  C   UNL A   1      45.350  21.617  23.897  1.00  0.00     0.022 A 
BRANCH  63  67
ATOM     67  S   UNL A   1      44.917  19.057  24.882  1.00  0.00     0.124 S 
ATOM     68  O   UNL A   1      44.975  18.663  23.478  1.00  0.00    -0.237 OA
ATOM     69  O   UNL A   1      46.181  19.049  25.609  1.00  0.00    -0.237 OA
ATOM     70  O   UNL A   1      43.766  18.550  25.625  1.00  0.00    -0.744 OA
ENDBRANCH  63  67
ENDBRANCH  46  60
BRANCH  47  71
ATOM     71  C   UNL A   1      46.782  30.435  27.656  1.00  0.00     0.023 A 
ATOM     72  C   UNL A   1      46.178  31.539  27.011  1.00  0.00     0.031 A 
ATOM     73  C   UNL A   1      48.168  30.532  27.910  1.00  0.00     0.131 A 
ATOM     74  C   UNL A   1      46.954  32.670  26.660  1.00  0.00     0.055 A 
ATOM     75  C   UNL A   1      48.928  31.652  27.563  1.00  0.00     0.041 A 
ATOM     76  F   UNL A   1      48.818  29.569  28.584  1.00  0.00    -0.206 F 
ATOM     77  C   UNL A   1      48.321  32.731  26.942  1.00  0.00     0.022 A 
BRANCH  74  78
ATOM     78  S   UNL A   1      46.181  34.134  25.888  1.00  0.00     0.124 S 
ATOM     79  O   UNL A   1      45.762  34.915  27.044  1.00  0.00    -0.237 OA
ATOM     80  O   UNL A   1      47.275  34.680  25.092  1.00  0.00    -0.237 OA
ATOM     81  O   UNL A   1      45.082  33.565  25.104  1.00  0.00    -0.744 OA
ENDBRANCH  74  78
ENDBRANCH  47  71
BRANCH  59  82
ATOM     82  C   UNL A   1      45.486  25.681  31.629  1.00  0.00     0.023 A 
ATOM     83  C   UNL A   1      46.509  25.477  32.583  1.00  0.00     0.031 A 
ATOM     84  C   UNL A   1      44.360  26.422  32.031  1.00  0.00     0.131 A 
ATOM     85  C   UNL A   1      46.372  26.000  33.885  1.00  0.00     0.055 A 
ATOM     86  C   UNL A   1      44.240  26.961  33.311  1.00  0.00     0.041 A 
ATOM     87  F   UNL A   1      43.360  26.666  31.167  1.00  0.00    -0.206 F 
ATOM     88  C   UNL A   1      45.245  26.745  34.245  1.00  0.00     0.022 A 
BRANCH  85  89
ATOM     89  S   UNL A   1      47.649  25.699  35.151  1.00  0.00     0.124 S 
ATOM     90  O   UNL A   1      48.257  27.011  35.341  1.00  0.00    -0.237 OA
ATOM     91  O   UNL A   1      46.866  25.187  36.273  1.00  0.00    -0.237 OA
ATOM     92  O   UNL A   1      48.526  24.709  34.521  1.00  0.00    -0.744 OA
ENDBRANCH  85  89
ENDBRANCH  59  82
ENDBRANCH  33  34
ENDBRANCH  25  28
ENDBRANCH  23  24
ENDBRANCH   1  23
TORSDOF 17
ENDMDL
MODEL 3
REMARK VINA RESULT:     -11.7      3.716      8.537
REMARK SMILES COc1ccc(C2=NN=C[C@@H]2C(=O)NCCCCNC(=O)c2ccc(-c3c4nc(c(-c5cc(S(=O)(=O)[O-])ccc5F)c5ccc([nH]5)c(-c5cc(S(=O)(=O)[O-])ccc5F)c5nc(c(-c6cc(S(=O)(=O)[O-])ccc6F)c6ccc3[nH]6)C=C5)C=C4)cc2)cc1OC
REMARK SMILES IDX 17 1 16 2 15 3 14 4 12 5 13 6 11 8 7 9 8 10 9 11 10 12 6 13
REMARK SMILES IDX 3 14 4 15 86 16 5 17 85 18 2 19 1 20 87 21 88 22 18 23 19 24
REMARK SMILES IDX 20 25 21 27 22 28 23 29 84 30 24 31 83 32 25 33 26 34 27 35
REMARK SMILES IDX 77 36 28 37 82 38 76 39 78 40 29 41 81 42 75 43 74 44 30 46
REMARK SMILES IDX 62 47 42 48 61 49 43 50 46 51 60 52 79 53 44 54 45 55 59 57
REMARK SMILES IDX 80 58 47 59 31 60 32 61 40 62 33 63 39 64 41 65 38 66 34 67
REMARK SMILES IDX 35 68 36 69 37 70 63 71 64 72 72 73 65 74 71 75 73 76 70 77
REMARK SMILES IDX 66 78 67 79 68 80 69 81 48 82 49 83 57 84 50 85 56 86 58 87
REMARK SMILES IDX 55 88 51 89 52 90 53 91 54 92
REMARK H PARENT 14 7 19 26 78 45 46 56
REMARK Flexibility Score: inf
ROOT
ATOM      1  C   UNL A   1      33.968  30.341  27.549  1.00  0.00     0.023 C 
ENDROOT
BRANCH   1   2
ATOM      2  C   UNL A   1      34.640  29.087  26.963  1.00  0.00     0.023 C 
BRANCH   2   3
ATOM      3  C   UNL A   1      33.690  28.022  26.401  1.00  0.00     0.116 C 
BRANCH   3   4
ATOM      4  N   UNL A   1      33.670  28.018  24.945  1.00  0.00    -0.355 N 
ATOM      5  C   UNL A   1      32.651  28.086  24.046  1.00  0.00     0.234 C 
ATOM      6  O   UNL A   1      32.958  28.057  22.849  1.00  0.00    -0.274 OA
ATOM      7  H   UNL A   1      34.562  27.956  24.533  1.00  0.00     0.163 HD
BRANCH   5   8
ATOM      8  C   UNL A   1      31.205  28.209  24.425  1.00  0.00     0.173 C 
ATOM      9  C   UNL A   1      30.295  27.156  23.894  1.00  0.00     0.088 C 
ATOM     10  N   UNL A   1      29.310  27.646  23.198  1.00  0.00    -0.154 NA
ATOM     11  N   UNL A   1      29.419  29.073  23.215  1.00  0.00    -0.162 NA
ATOM     12  C   UNL A   1      30.475  29.383  23.894  1.00  0.00     0.128 C 
BRANCH   9  13
ATOM     13  C   UNL A   1      30.460  25.726  24.188  1.00  0.00     0.003 A 
ATOM     14  C   UNL A   1      31.077  23.080  24.848  1.00  0.00     0.160 A 
ATOM     15  C   UNL A   1      31.243  23.539  23.533  1.00  0.00     0.051 A 
ATOM     16  C   UNL A   1      30.569  23.940  25.833  1.00  0.00     0.161 A 
ATOM     17  C   UNL A   1      30.922  24.858  23.196  1.00  0.00     0.014 A 
ATOM     18  C   UNL A   1      30.278  25.270  25.494  1.00  0.00     0.060 A 
BRANCH  14  19
ATOM     19  O   UNL A   1      31.606  21.861  25.179  1.00  0.00    -0.493 OA
ATOM     20  C   UNL A   1      32.883  21.954  25.807  1.00  0.00     0.278 C 
ENDBRANCH  14  19
BRANCH  16  21
ATOM     21  O   UNL A   1      30.368  23.669  27.159  1.00  0.00    -0.493 OA
ATOM     22  C   UNL A   1      29.326  22.764  27.504  1.00  0.00     0.278 C 
ENDBRANCH  16  21
ENDBRANCH   9  13
ENDBRANCH   5   8
ENDBRANCH   3   4
ENDBRANCH   2   3
ENDBRANCH   1   2
BRANCH   1  23
ATOM     23  C   UNL A   1      34.858  31.577  27.638  1.00  0.00     0.116 C 
BRANCH  23  24
ATOM     24  N   UNL A   1      34.836  32.200  28.957  1.00  0.00    -0.352 N 
ATOM     25  C   UNL A   1      35.549  31.829  30.085  1.00  0.00     0.251 C 
ATOM     26  H   UNL A   1      34.242  32.978  29.058  1.00  0.00     0.163 HD
ATOM     27  O   UNL A   1      35.138  32.126  31.196  1.00  0.00    -0.269 OA
BRANCH  25  28
ATOM     28  C   UNL A   1      36.804  31.066  29.921  1.00  0.00     0.039 A 
ATOM     29  C   UNL A   1      38.039  31.717  29.860  1.00  0.00     0.014 A 
ATOM     30  C   UNL A   1      36.734  29.676  29.841  1.00  0.00     0.014 A 
ATOM     31  C   UNL A   1      39.205  30.952  29.817  1.00  0.00     0.010 A 
ATOM     32  C   UNL A   1      37.885  28.921  29.907  1.00  0.00     0.010 A 
ATOM     33  C   UNL A   1      39.126  29.550  29.872  1.00  0.00    -0.014 A 
BRANCH  33  34
ATOM     34  C   UNL A   1      40.337  28.747  30.078  1.00  0.00     0.031 A 
ATOM     35  C   UNL A   1      40.661  28.507  31.513  1.00  0.00     0.074 A 
ATOM     36  C   UNL A   1      40.978  28.072  29.097  1.00  0.00     0.049 A 
ATOM     37  N   UNL A   1      41.652  28.976  32.194  1.00  0.00    -0.248 NA
ATOM     38  C   UNL A   1      39.667  27.798  32.336  1.00  0.00     0.031 C 
ATOM     39  C   UNL A   1      40.582  27.961  27.690  1.00  0.00     0.029 A 
ATOM     40  N   UNL A   1      42.063  27.243  29.168  1.00  0.00    -0.354 N 
ATOM     41  C   UNL A   1      41.551  28.406  33.462  1.00  0.00     0.074 A 
ATOM     42  C   UNL A   1      40.211  27.899  33.550  1.00  0.00     0.031 C 
ATOM     43  C   UNL A   1      41.264  26.954  27.100  1.00  0.00     0.029 A 
ATOM     44  C   UNL A   1      42.267  26.464  28.029  1.00  0.00     0.049 A 
ATOM     45  H   UNL A   1      42.651  27.200  29.957  1.00  0.00     0.167 HD
ATOM     46  C   UNL A   1      42.664  28.166  34.212  1.00  0.00     0.034 A 
ATOM     47  C   UNL A   1      43.186  25.479  27.841  1.00  0.00     0.034 A 
ATOM     48  C   UNL A   1      43.797  28.889  33.671  1.00  0.00     0.049 A 
ATOM     49  C   UNL A   1      44.267  25.711  28.824  1.00  0.00     0.074 A 
ATOM     50  C   UNL A   1      44.114  30.217  33.479  1.00  0.00     0.029 A 
ATOM     51  N   UNL A   1      44.657  28.169  32.872  1.00  0.00    -0.354 N 
ATOM     52  N   UNL A   1      45.042  26.759  28.801  1.00  0.00    -0.248 NA
ATOM     53  C   UNL A   1      44.227  25.002  30.093  1.00  0.00     0.031 C 
ATOM     54  C   UNL A   1      44.858  30.252  32.261  1.00  0.00     0.029 A 
ATOM     55  C   UNL A   1      45.033  28.943  31.806  1.00  0.00     0.049 A 
ATOM     56  H   UNL A   1      44.955  27.246  33.040  1.00  0.00     0.167 HD
ATOM     57  C   UNL A   1      45.220  27.099  30.131  1.00  0.00     0.074 A 
ATOM     58  C   UNL A   1      44.832  25.904  30.875  1.00  0.00     0.031 C 
ATOM     59  C   UNL A   1      45.386  28.404  30.501  1.00  0.00     0.034 A 
BRANCH  46  60
ATOM     60  C   UNL A   1      42.863  26.968  35.134  1.00  0.00     0.023 A 
ATOM     61  C   UNL A   1      43.678  25.922  34.650  1.00  0.00     0.031 A 
ATOM     62  C   UNL A   1      42.098  26.652  36.280  1.00  0.00     0.131 A 
ATOM     63  C   UNL A   1      43.603  24.626  35.191  1.00  0.00     0.055 A 
ATOM     64  C   UNL A   1      42.072  25.374  36.852  1.00  0.00     0.041 A 
ATOM     65  F   UNL A   1      41.276  27.522  36.874  1.00  0.00    -0.206 F 
ATOM     66  C   UNL A   1      42.795  24.342  36.285  1.00  0.00     0.022 A 
BRANCH  63  67
ATOM     67  S   UNL A   1      44.436  23.279  34.313  1.00  0.00     0.124 S 
ATOM     68  O   UNL A   1      45.663  23.934  33.875  1.00  0.00    -0.237 OA
ATOM     69  O   UNL A   1      44.576  22.278  35.365  1.00  0.00    -0.237 OA
ATOM     70  O   UNL A   1      43.495  22.938  33.248  1.00  0.00    -0.744 OA
ENDBRANCH  63  67
ENDBRANCH  46  60
BRANCH  47  71
ATOM     71  C   UNL A   1      43.040  24.221  27.055  1.00  0.00     0.023 A 
ATOM     72  C   UNL A   1      43.984  23.780  26.101  1.00  0.00     0.031 A 
ATOM     73  C   UNL A   1      42.046  23.293  27.439  1.00  0.00     0.131 A 
ATOM     74  C   UNL A   1      43.910  22.463  25.583  1.00  0.00     0.055 A 
ATOM     75  C   UNL A   1      41.981  21.995  26.927  1.00  0.00     0.041 A 
ATOM     76  F   UNL A   1      41.150  23.592  28.394  1.00  0.00    -0.206 F 
ATOM     77  C   UNL A   1      42.919  21.571  26.001  1.00  0.00     0.022 A 
BRANCH  74  78
ATOM     78  S   UNL A   1      45.160  21.850  24.401  1.00  0.00     0.124 S 
ATOM     79  O   UNL A   1      46.309  21.597  25.260  1.00  0.00    -0.237 OA
ATOM     80  O   UNL A   1      44.501  20.681  23.831  1.00  0.00    -0.237 OA
ATOM     81  O   UNL A   1      45.327  22.970  23.471  1.00  0.00    -0.744 OA
ENDBRANCH  74  78
ENDBRANCH  47  71
BRANCH  59  82
ATOM     82  C   UNL A   1      45.803  29.396  29.433  1.00  0.00     0.023 A 
ATOM     83  C   UNL A   1      44.927  30.104  28.578  1.00  0.00     0.031 A 
ATOM     84  C   UNL A   1      47.176  29.690  29.346  1.00  0.00     0.131 A 
ATOM     85  C   UNL A   1      45.442  31.055  27.674  1.00  0.00     0.055 A 
ATOM     86  C   UNL A   1      47.678  30.651  28.470  1.00  0.00     0.041 A 
ATOM     87  F   UNL A   1      48.059  29.065  30.143  1.00  0.00    -0.206 F 
ATOM     88  C   UNL A   1      46.812  31.333  27.626  1.00  0.00     0.022 A 
BRANCH  85  89
ATOM     89  S   UNL A   1      44.341  31.937  26.519  1.00  0.00     0.124 S 
ATOM     90  O   UNL A   1      43.315  30.950  26.204  1.00  0.00    -0.237 OA
ATOM     91  O   UNL A   1      43.905  33.083  27.312  1.00  0.00    -0.237 OA
ATOM     92  O   UNL A   1      45.224  32.275  25.400  1.00  0.00    -0.744 OA
ENDBRANCH  85  89
ENDBRANCH  59  82
ENDBRANCH  33  34
ENDBRANCH  25  28
ENDBRANCH  23  24
ENDBRANCH   1  23
TORSDOF 17
ENDMDL
