MODEL 1
REMARK VINA RESULT:      -8.9      0.000      0.000
REMARK SMILES CCOc1ccccc1[C@@H](C(=O)NCCCCNC(=O)c1ccc(-c2c3nc(c(-c4cc(S(=O)(=O)[O-])ccc4F)c4ccc([nH]4)c(-c4cc(S(=O)(=O)[O-])ccc4F)c4nc(c(-c5cc(S(=O)(=O)[O-])ccc5F)c5ccc2[nH]5)C=C4)C=C3)cc1)[NH+]1CCC(C(=O)N2CCCC2)CC1
REMARK SMILES IDX 15 1 14 2 13 3 11 4 12 5 10 7 9 8 4 9 5 10 6 11 8 12 7 13
REMARK SMILES IDX 3 14 2 15 1 16 84 17 85 18 96 19 86 21 95 22 87 23 88 24
REMARK SMILES IDX 89 25 90 26 91 27 94 28 92 29 93 30 16 31 17 32 18 33 19 34
REMARK SMILES IDX 20 36 21 37 22 38 83 39 23 40 82 41 24 42 25 43 26 44 76 45
REMARK SMILES IDX 27 46 81 47 75 48 77 49 28 50 80 51 74 52 73 53 29 55 61 56
REMARK SMILES IDX 41 57 60 58 42 59 45 60 59 61 78 62 43 63 44 64 58 66 79 67
REMARK SMILES IDX 46 68 30 69 31 70 39 71 32 72 38 73 40 74 37 75 33 76 34 77
REMARK SMILES IDX 35 78 36 79 62 80 63 81 71 82 64 83 70 84 72 85 69 86 65 87
REMARK SMILES IDX 66 88 67 89 68 90 47 91 48 92 56 93 49 94 55 95 57 96 54 97
REMARK SMILES IDX 50 98 51 99 52 100 53 101
REMARK H PARENT 13 6 84 20 18 35 77 54 45 65
REMARK Flexibility Score: inf
ROOT
ATOM      1  C   UNL A   1      40.553  27.251  28.973  1.00  0.00     0.023 C 
ENDROOT
BRANCH   1   2
ATOM      2  C   UNL A   1      39.703  28.518  28.897  1.00  0.00     0.116 C 
BRANCH   2   3
ATOM      3  N   UNL A   1      38.870  28.667  30.071  1.00  0.00    -0.351 N 
ATOM      4  C   UNL A   1      37.993  29.670  30.392  1.00  0.00     0.283 C 
ATOM      5  O   UNL A   1      37.447  29.564  31.496  1.00  0.00    -0.268 OA
ATOM      6  H   UNL A   1      38.944  27.943  30.733  1.00  0.00     0.163 HD
BRANCH   4   7
ATOM      7  C   UNL A   1      37.658  30.791  29.353  1.00  0.00     0.309 C 
BRANCH   7   8
ATOM      8  C   UNL A   1      37.969  32.215  29.801  1.00  0.00     0.061 A 
ATOM      9  C   UNL A   1      37.116  32.929  30.670  1.00  0.00     0.128 A 
ATOM     10  C   UNL A   1      37.489  34.185  31.156  1.00  0.00     0.047 A 
ATOM     11  C   UNL A   1      38.708  34.750  30.778  1.00  0.00     0.004 A 
ATOM     12  C   UNL A   1      39.160  32.837  29.384  1.00  0.00     0.014 A 
ATOM     13  C   UNL A   1      39.531  34.087  29.874  1.00  0.00     0.001 A 
BRANCH   9  14
ATOM     14  O   UNL A   1      35.792  32.594  30.792  1.00  0.00    -0.493 OA
BRANCH  14  15
ATOM     15  C   UNL A   1      34.888  33.605  31.232  1.00  0.00     0.226 C 
ATOM     16  C   UNL A   1      34.141  34.142  30.012  1.00  0.00     0.049 C 
ENDBRANCH  14  15
ENDBRANCH   9  14
ENDBRANCH   7   8
BRANCH   7  17
ATOM     17  N   UNL A   1      36.286  30.631  28.749  1.00  0.00    -0.321 N 
ATOM     18  C   UNL A   1      35.883  31.680  27.799  1.00  0.00     0.263 C 
ATOM     19  C   UNL A   1      36.104  29.304  28.147  1.00  0.00     0.263 C 
ATOM     20  H   UNL A   1      35.660  30.735  29.549  1.00  0.00     0.349 HD
ATOM     21  C   UNL A   1      34.390  31.534  27.491  1.00  0.00     0.075 C 
ATOM     22  C   UNL A   1      34.662  29.057  27.729  1.00  0.00     0.075 C 
ATOM     23  C   UNL A   1      34.126  30.183  26.840  1.00  0.00     0.090 C 
BRANCH  23  24
ATOM     24  C   UNL A   1      32.712  29.795  26.411  1.00  0.00     0.226 C 
ATOM     25  O   UNL A   1      31.757  30.409  26.901  1.00  0.00    -0.275 OA
ATOM     26  N   UNL A   1      32.530  29.021  25.293  1.00  0.00    -0.342 N 
ATOM     27  C   UNL A   1      33.186  27.801  24.872  1.00  0.00     0.119 C 
ATOM     28  C   UNL A   1      31.571  29.441  24.288  1.00  0.00     0.119 C 
ATOM     29  C   UNL A   1      33.237  27.953  23.367  1.00  0.00     0.023 C 
ATOM     30  C   UNL A   1      31.885  28.590  23.058  1.00  0.00     0.023 C 
ENDBRANCH  23  24
ENDBRANCH   7  17
ENDBRANCH   4   7
ENDBRANCH   2   3
ENDBRANCH   1   2
BRANCH   1  31
ATOM     31  C   UNL A   1      40.195  26.215  27.907  1.00  0.00     0.023 C 
BRANCH  31  32
ATOM     32  C   UNL A   1      40.512  26.646  26.482  1.00  0.00     0.116 C 
BRANCH  32  33
ATOM     33  N   UNL A   1      41.736  26.048  25.973  1.00  0.00    -0.352 N 
ATOM     34  C   UNL A   1      43.003  26.576  25.973  1.00  0.00     0.251 C 
ATOM     35  H   UNL A   1      41.645  25.149  25.582  1.00  0.00     0.163 HD
ATOM     36  O   UNL A   1      43.905  26.011  25.359  1.00  0.00    -0.269 OA
BRANCH  34  37
ATOM     37  C   UNL A   1      43.256  27.847  26.683  1.00  0.00     0.039 A 
ATOM     38  C   UNL A   1      42.571  28.993  26.278  1.00  0.00     0.014 A 
ATOM     39  C   UNL A   1      44.137  27.896  27.768  1.00  0.00     0.014 A 
ATOM     40  C   UNL A   1      42.730  30.179  26.998  1.00  0.00     0.010 A 
ATOM     41  C   UNL A   1      44.227  29.054  28.534  1.00  0.00     0.010 A 
ATOM     42  C   UNL A   1      43.533  30.211  28.152  1.00  0.00    -0.014 A 
BRANCH  42  43
ATOM     43  C   UNL A   1      43.664  31.454  28.954  1.00  0.00     0.031 A 
ATOM     44  C   UNL A   1      44.646  32.517  28.541  1.00  0.00     0.074 A 
ATOM     45  C   UNL A   1      42.928  31.609  30.073  1.00  0.00     0.049 A 
ATOM     46  N   UNL A   1      44.928  33.655  29.122  1.00  0.00    -0.248 NA
ATOM     47  C   UNL A   1      45.437  32.252  27.329  1.00  0.00     0.031 C 
ATOM     48  C   UNL A   1      41.975  30.627  30.598  1.00  0.00     0.029 A 
ATOM     49  N   UNL A   1      42.861  32.644  30.970  1.00  0.00    -0.354 N 
ATOM     50  C   UNL A   1      45.930  34.237  28.351  1.00  0.00     0.074 A 
ATOM     51  C   UNL A   1      46.256  33.292  27.306  1.00  0.00     0.031 C 
ATOM     52  C   UNL A   1      41.393  31.125  31.700  1.00  0.00     0.029 A 
ATOM     53  C   UNL A   1      41.964  32.436  31.993  1.00  0.00     0.049 A 
ATOM     54  H   UNL A   1      43.405  33.462  30.890  1.00  0.00     0.167 HD
ATOM     55  C   UNL A   1      46.502  35.458  28.486  1.00  0.00     0.034 A 
ATOM     56  C   UNL A   1      41.644  33.210  33.050  1.00  0.00     0.034 A 
ATOM     57  C   UNL A   1      46.158  36.391  29.532  1.00  0.00     0.049 A 
ATOM     58  C   UNL A   1      42.323  34.549  33.199  1.00  0.00     0.074 A 
ATOM     59  C   UNL A   1      46.638  37.674  29.734  1.00  0.00     0.029 A 
ATOM     60  N   UNL A   1      45.259  36.139  30.560  1.00  0.00    -0.354 N 
ATOM     61  N   UNL A   1      43.226  35.110  32.427  1.00  0.00    -0.248 NA
ATOM     62  C   UNL A   1      41.930  35.363  34.355  1.00  0.00     0.031 C 
ATOM     63  C   UNL A   1      46.090  38.165  30.923  1.00  0.00     0.029 A 
ATOM     64  C   UNL A   1      45.198  37.227  31.419  1.00  0.00     0.049 A 
ATOM     65  H   UNL A   1      44.739  35.310  30.663  1.00  0.00     0.167 HD
ATOM     66  C   UNL A   1      43.484  36.358  32.990  1.00  0.00     0.074 A 
ATOM     67  C   UNL A   1      42.626  36.472  34.152  1.00  0.00     0.031 C 
ATOM     68  C   UNL A   1      44.349  37.322  32.583  1.00  0.00     0.034 A 
BRANCH  55  69
ATOM     69  C   UNL A   1      47.576  35.838  27.492  1.00  0.00     0.023 A 
ATOM     70  C   UNL A   1      48.901  35.388  27.626  1.00  0.00     0.031 A 
ATOM     71  C   UNL A   1      47.277  36.682  26.408  1.00  0.00     0.131 A 
ATOM     72  C   UNL A   1      49.891  35.844  26.744  1.00  0.00     0.055 A 
ATOM     73  C   UNL A   1      48.250  37.063  25.481  1.00  0.00     0.041 A 
ATOM     74  F   UNL A   1      46.036  37.165  26.238  1.00  0.00    -0.206 F 
ATOM     75  C   UNL A   1      49.569  36.657  25.654  1.00  0.00     0.022 A 
BRANCH  72  76
ATOM     76  S   UNL A   1      51.626  35.486  27.129  1.00  0.00     0.124 S 
ATOM     77  O   UNL A   1      52.229  36.814  27.038  1.00  0.00    -0.237 OA
ATOM     78  O   UNL A   1      51.542  34.913  28.466  1.00  0.00    -0.237 OA
ATOM     79  O   UNL A   1      52.027  34.557  26.075  1.00  0.00    -0.744 OA
ENDBRANCH  72  76
ENDBRANCH  55  69
BRANCH  56  80
ATOM     80  C   UNL A   1      40.647  32.744  34.056  1.00  0.00     0.023 A 
ATOM     81  C   UNL A   1      39.310  33.170  34.004  1.00  0.00     0.031 A 
ATOM     82  C   UNL A   1      41.027  31.904  35.118  1.00  0.00     0.131 A 
ATOM     83  C   UNL A   1      38.416  32.799  35.019  1.00  0.00     0.055 A 
ATOM     84  C   UNL A   1      40.119  31.487  36.093  1.00  0.00     0.041 A 
ATOM     85  F   UNL A   1      42.292  31.465  35.217  1.00  0.00    -0.206 F 
ATOM     86  C   UNL A   1      38.807  31.948  36.055  1.00  0.00     0.022 A 
BRANCH  83  87
ATOM     87  S   UNL A   1      36.755  33.526  35.022  1.00  0.00     0.124 S 
ATOM     88  O   UNL A   1      37.007  34.846  34.455  1.00  0.00    -0.237 OA
ATOM     89  O   UNL A   1      36.014  32.595  34.178  1.00  0.00    -0.237 OA
ATOM     90  O   UNL A   1      36.381  33.515  36.436  1.00  0.00    -0.744 OA
ENDBRANCH  83  87
ENDBRANCH  56  80
BRANCH  68  91
ATOM     91  C   UNL A   1      44.374  38.603  33.383  1.00  0.00     0.023 A 
ATOM     92  C   UNL A   1      43.480  39.657  33.124  1.00  0.00     0.031 A 
ATOM     93  C   UNL A   1      45.318  38.777  34.411  1.00  0.00     0.131 A 
ATOM     94  C   UNL A   1      43.590  40.859  33.839  1.00  0.00     0.055 A 
ATOM     95  C   UNL A   1      45.376  39.949  35.167  1.00  0.00     0.041 A 
ATOM     96  F   UNL A   1      46.201  37.807  34.701  1.00  0.00    -0.206 F 
ATOM     97  C   UNL A   1      44.519  41.004  34.873  1.00  0.00     0.022 A 
BRANCH  94  98
ATOM     98  S   UNL A   1      42.571  42.270  33.329  1.00  0.00     0.124 S 
ATOM     99  O   UNL A   1      43.569  43.177  32.771  1.00  0.00    -0.237 OA
ATOM    100  O   UNL A   1      41.653  41.664  32.371  1.00  0.00    -0.237 OA
ATOM    101  O   UNL A   1      41.957  42.719  34.578  1.00  0.00    -0.744 OA
ENDBRANCH  94  98
ENDBRANCH  68  91
ENDBRANCH  42  43
ENDBRANCH  34  37
ENDBRANCH  32  33
ENDBRANCH  31  32
ENDBRANCH   1  31
TORSDOF 19
ENDMDL
MODEL 2
REMARK VINA RESULT:      -8.6      4.287      7.978
REMARK SMILES CCOc1ccccc1[C@@H](C(=O)NCCCCNC(=O)c1ccc(-c2c3nc(c(-c4cc(S(=O)(=O)[O-])ccc4F)c4ccc([nH]4)c(-c4cc(S(=O)(=O)[O-])ccc4F)c4nc(c(-c5cc(S(=O)(=O)[O-])ccc5F)c5ccc2[nH]5)C=C4)C=C3)cc1)[NH+]1CCC(C(=O)N2CCCC2)CC1
REMARK SMILES IDX 15 1 14 2 13 3 11 4 12 5 10 7 9 8 4 9 5 10 6 11 8 12 7 13
REMARK SMILES IDX 3 14 2 15 1 16 84 17 85 18 96 19 86 21 95 22 87 23 88 24
REMARK SMILES IDX 89 25 90 26 91 27 94 28 92 29 93 30 16 31 17 32 18 33 19 34
REMARK SMILES IDX 20 36 21 37 22 38 83 39 23 40 82 41 24 42 25 43 26 44 76 45
REMARK SMILES IDX 27 46 81 47 75 48 77 49 28 50 80 51 74 52 73 53 29 55 61 56
REMARK SMILES IDX 41 57 60 58 42 59 45 60 59 61 78 62 43 63 44 64 58 66 79 67
REMARK SMILES IDX 46 68 30 69 31 70 39 71 32 72 38 73 40 74 37 75 33 76 34 77
REMARK SMILES IDX 35 78 36 79 62 80 63 81 71 82 64 83 70 84 72 85 69 86 65 87
REMARK SMILES IDX 66 88 67 89 68 90 47 91 48 92 56 93 49 94 55 95 57 96 54 97
REMARK SMILES IDX 50 98 51 99 52 100 53 101
REMARK H PARENT 13 6 84 20 18 35 77 54 45 65
REMARK Flexibility Score: inf
ROOT
ATOM      1  C   UNL A   1      47.220  27.620  24.438  1.00  0.00     0.023 C 
ENDROOT
BRANCH   1   2
ATOM      2  C   UNL A   1      46.065  27.214  25.350  1.00  0.00     0.116 C 
BRANCH   2   3
ATOM      3  N   UNL A   1      44.795  27.673  24.831  1.00  0.00    -0.351 N 
ATOM      4  C   UNL A   1      43.524  27.335  25.219  1.00  0.00     0.283 C 
ATOM      5  O   UNL A   1      42.613  27.847  24.559  1.00  0.00    -0.268 OA
ATOM      6  H   UNL A   1      44.851  28.323  24.094  1.00  0.00     0.163 HD
BRANCH   4   7
ATOM      7  C   UNL A   1      43.294  26.445  26.485  1.00  0.00     0.309 C 
BRANCH   7   8
ATOM      8  C   UNL A   1      43.410  24.941  26.260  1.00  0.00     0.061 A 
ATOM      9  C   UNL A   1      43.439  24.024  27.333  1.00  0.00     0.128 A 
ATOM     10  C   UNL A   1      43.424  22.648  27.090  1.00  0.00     0.047 A 
ATOM     11  C   UNL A   1      43.390  22.167  25.781  1.00  0.00     0.004 A 
ATOM     12  C   UNL A   1      43.443  24.429  24.950  1.00  0.00     0.014 A 
ATOM     13  C   UNL A   1      43.424  23.056  24.712  1.00  0.00     0.001 A 
BRANCH   9  14
ATOM     14  O   UNL A   1      43.819  24.420  28.589  1.00  0.00    -0.493 OA
BRANCH  14  15
ATOM     15  C   UNL A   1      43.251  23.734  29.703  1.00  0.00     0.226 C 
ATOM     16  C   UNL A   1      44.365  23.449  30.708  1.00  0.00     0.049 C 
ENDBRANCH  14  15
ENDBRANCH   9  14
ENDBRANCH   7   8
BRANCH   7  17
ATOM     17  N   UNL A   1      42.067  26.848  27.264  1.00  0.00    -0.321 N 
ATOM     18  C   UNL A   1      40.983  25.855  27.301  1.00  0.00     0.263 C 
ATOM     19  C   UNL A   1      42.403  27.284  28.625  1.00  0.00     0.263 C 
ATOM     20  H   UNL A   1      41.697  27.636  26.732  1.00  0.00     0.349 HD
ATOM     21  C   UNL A   1      39.724  26.507  27.880  1.00  0.00     0.075 C 
ATOM     22  C   UNL A   1      41.207  27.894  29.343  1.00  0.00     0.075 C 
ATOM     23  C   UNL A   1      39.988  26.967  29.307  1.00  0.00     0.090 C 
BRANCH  23  24
ATOM     24  C   UNL A   1      38.881  27.633  30.122  1.00  0.00     0.226 C 
ATOM     25  O   UNL A   1      38.639  27.197  31.254  1.00  0.00    -0.275 OA
ATOM     26  N   UNL A   1      38.401  28.860  29.741  1.00  0.00    -0.342 N 
ATOM     27  C   UNL A   1      37.986  29.351  28.443  1.00  0.00     0.119 C 
ATOM     28  C   UNL A   1      38.297  29.919  30.728  1.00  0.00     0.119 C 
ATOM     29  C   UNL A   1      38.421  30.800  28.481  1.00  0.00     0.023 C 
ATOM     30  C   UNL A   1      38.096  31.199  29.919  1.00  0.00     0.023 C 
ENDBRANCH  23  24
ENDBRANCH   7  17
ENDBRANCH   4   7
ENDBRANCH   2   3
ENDBRANCH   1   2
BRANCH   1  31
ATOM     31  C   UNL A   1      48.553  26.981  24.825  1.00  0.00     0.023 C 
BRANCH  31  32
ATOM     32  C   UNL A   1      48.440  25.548  25.327  1.00  0.00     0.116 C 
BRANCH  32  33
ATOM     33  N   UNL A   1      49.562  25.158  26.167  1.00  0.00    -0.352 N 
ATOM     34  C   UNL A   1      49.791  25.478  27.482  1.00  0.00     0.251 C 
ATOM     35  H   UNL A   1      50.243  24.591  25.738  1.00  0.00     0.163 HD
ATOM     36  O   UNL A   1      50.869  25.204  28.003  1.00  0.00    -0.269 OA
BRANCH  34  37
ATOM     37  C   UNL A   1      48.744  26.190  28.244  1.00  0.00     0.039 A 
ATOM     38  C   UNL A   1      49.063  27.401  28.860  1.00  0.00     0.014 A 
ATOM     39  C   UNL A   1      47.444  25.681  28.318  1.00  0.00     0.014 A 
ATOM     40  C   UNL A   1      48.062  28.129  29.505  1.00  0.00     0.010 A 
ATOM     41  C   UNL A   1      46.432  26.450  28.885  1.00  0.00     0.010 A 
ATOM     42  C   UNL A   1      46.731  27.677  29.494  1.00  0.00    -0.014 A 
BRANCH  42  43
ATOM     43  C   UNL A   1      45.650  28.472  30.130  1.00  0.00     0.031 A 
ATOM     44  C   UNL A   1      45.206  29.771  29.512  1.00  0.00     0.074 A 
ATOM     45  C   UNL A   1      45.094  28.044  31.281  1.00  0.00     0.049 A 
ATOM     46  N   UNL A   1      44.303  30.620  29.928  1.00  0.00    -0.248 NA
ATOM     47  C   UNL A   1      45.891  30.183  28.276  1.00  0.00     0.031 C 
ATOM     48  C   UNL A   1      45.473  26.823  31.998  1.00  0.00     0.029 A 
ATOM     49  N   UNL A   1      44.096  28.582  32.053  1.00  0.00    -0.354 N 
ATOM     50  C   UNL A   1      44.314  31.666  29.012  1.00  0.00     0.074 A 
ATOM     51  C   UNL A   1      45.365  31.379  28.061  1.00  0.00     0.031 C 
ATOM     52  C   UNL A   1      44.690  26.688  33.080  1.00  0.00     0.029 A 
ATOM     53  C   UNL A   1      43.789  27.833  33.166  1.00  0.00     0.049 A 
ATOM     54  H   UNL A   1      43.640  29.426  31.830  1.00  0.00     0.167 HD
ATOM     55  C   UNL A   1      43.503  32.751  28.952  1.00  0.00     0.034 A 
ATOM     56  C   UNL A   1      42.890  28.048  34.148  1.00  0.00     0.034 A 
ATOM     57  C   UNL A   1      42.453  33.018  29.906  1.00  0.00     0.049 A 
ATOM     58  C   UNL A   1      42.025  29.282  34.080  1.00  0.00     0.074 A 
ATOM     59  C   UNL A   1      41.540  34.058  29.914  1.00  0.00     0.029 A 
ATOM     60  N   UNL A   1      42.184  32.247  31.030  1.00  0.00    -0.354 N 
ATOM     61  N   UNL A   1      42.008  30.232  33.172  1.00  0.00    -0.248 NA
ATOM     62  C   UNL A   1      41.050  29.465  35.161  1.00  0.00     0.031 C 
ATOM     63  C   UNL A   1      40.773  33.960  31.080  1.00  0.00     0.029 A 
ATOM     64  C   UNL A   1      41.145  32.809  31.757  1.00  0.00     0.049 A 
ATOM     65  H   UNL A   1      42.660  31.421  31.275  1.00  0.00     0.167 HD
ATOM     66  C   UNL A   1      40.998  31.109  33.560  1.00  0.00     0.074 A 
ATOM     67  C   UNL A   1      40.418  30.562  34.770  1.00  0.00     0.031 C 
ATOM     68  C   UNL A   1      40.585  32.260  32.970  1.00  0.00     0.034 A 
BRANCH  55  69
ATOM     69  C   UNL A   1      43.740  33.738  27.832  1.00  0.00     0.023 A 
ATOM     70  C   UNL A   1      44.041  35.088  28.087  1.00  0.00     0.031 A 
ATOM     71  C   UNL A   1      43.639  33.331  26.490  1.00  0.00     0.131 A 
ATOM     72  C   UNL A   1      44.152  35.996  27.023  1.00  0.00     0.055 A 
ATOM     73  C   UNL A   1      43.838  34.222  25.433  1.00  0.00     0.041 A 
ATOM     74  F   UNL A   1      43.330  32.061  26.181  1.00  0.00    -0.206 F 
ATOM     75  C   UNL A   1      44.081  35.566  25.696  1.00  0.00     0.022 A 
BRANCH  72  76
ATOM     76  S   UNL A   1      44.238  37.767  27.402  1.00  0.00     0.124 S 
ATOM     77  O   UNL A   1      45.570  38.110  26.908  1.00  0.00    -0.237 OA
ATOM     78  O   UNL A   1      43.116  38.307  26.644  1.00  0.00    -0.237 OA
ATOM     79  O   UNL A   1      44.091  37.814  28.855  1.00  0.00    -0.744 OA
ENDBRANCH  72  76
ENDBRANCH  55  69
BRANCH  56  80
ATOM     80  C   UNL A   1      42.764  27.090  35.283  1.00  0.00     0.023 A 
ATOM     81  C   UNL A   1      43.683  27.101  36.346  1.00  0.00     0.031 A 
ATOM     82  C   UNL A   1      41.752  26.114  35.300  1.00  0.00     0.131 A 
ATOM     83  C   UNL A   1      43.603  26.124  37.351  1.00  0.00     0.055 A 
ATOM     84  C   UNL A   1      41.640  25.183  36.334  1.00  0.00     0.041 A 
ATOM     85  F   UNL A   1      40.846  26.059  34.311  1.00  0.00    -0.206 F 
ATOM     86  C   UNL A   1      42.579  25.175  37.360  1.00  0.00     0.022 A 
BRANCH  83  87
ATOM     87  S   UNL A   1      44.919  26.050  38.596  1.00  0.00     0.124 S 
ATOM     88  O   UNL A   1      45.892  26.994  38.057  1.00  0.00    -0.237 OA
ATOM     89  O   UNL A   1      44.218  26.471  39.804  1.00  0.00    -0.237 OA
ATOM     90  O   UNL A   1      45.330  24.647  38.573  1.00  0.00    -0.744 OA
ENDBRANCH  83  87
ENDBRANCH  56  80
BRANCH  68  91
ATOM     91  C   UNL A   1      39.420  32.980  33.608  1.00  0.00     0.023 A 
ATOM     92  C   UNL A   1      38.095  32.764  33.189  1.00  0.00     0.031 A 
ATOM     93  C   UNL A   1      39.641  33.907  34.643  1.00  0.00     0.131 A 
ATOM     94  C   UNL A   1      37.052  33.510  33.756  1.00  0.00     0.055 A 
ATOM     95  C   UNL A   1      38.591  34.595  35.251  1.00  0.00     0.041 A 
ATOM     96  F   UNL A   1      40.885  34.158  35.081  1.00  0.00    -0.206 F 
ATOM     97  C   UNL A   1      37.289  34.410  34.799  1.00  0.00     0.022 A 
BRANCH  94  98
ATOM     98  S   UNL A   1      35.392  33.368  33.040  1.00  0.00     0.124 S 
ATOM     99  O   UNL A   1      35.489  32.116  32.297  1.00  0.00    -0.237 OA
ATOM    100  O   UNL A   1      34.541  33.343  34.225  1.00  0.00    -0.237 OA
ATOM    101  O   UNL A   1      35.269  34.570  32.216  1.00  0.00    -0.744 OA
ENDBRANCH  94  98
ENDBRANCH  68  91
ENDBRANCH  42  43
ENDBRANCH  34  37
ENDBRANCH  32  33
ENDBRANCH  31  32
ENDBRANCH   1  31
TORSDOF 19
ENDMDL
MODEL 3
REMARK VINA RESULT:      -8.5      6.191     11.409
REMARK SMILES CCOc1ccccc1[C@@H](C(=O)NCCCCNC(=O)c1ccc(-c2c3nc(c(-c4cc(S(=O)(=O)[O-])ccc4F)c4ccc([nH]4)c(-c4cc(S(=O)(=O)[O-])ccc4F)c4nc(c(-c5cc(S(=O)(=O)[O-])ccc5F)c5ccc2[nH]5)C=C4)C=C3)cc1)[NH+]1CCC(C(=O)N2CCCC2)CC1
REMARK SMILES IDX 15 1 14 2 13 3 11 4 12 5 10 7 9 8 4 9 5 10 6 11 8 12 7 13
REMARK SMILES IDX 3 14 2 15 1 16 84 17 85 18 96 19 86 21 95 22 87 23 88 24
REMARK SMILES IDX 89 25 90 26 91 27 94 28 92 29 93 30 16 31 17 32 18 33 19 34
REMARK SMILES IDX 20 36 21 37 22 38 83 39 23 40 82 41 24 42 25 43 26 44 76 45
REMARK SMILES IDX 27 46 81 47 75 48 77 49 28 50 80 51 74 52 73 53 29 55 61 56
REMARK SMILES IDX 41 57 60 58 42 59 45 60 59 61 78 62 43 63 44 64 58 66 79 67
REMARK SMILES IDX 46 68 30 69 31 70 39 71 32 72 38 73 40 74 37 75 33 76 34 77
REMARK SMILES IDX 35 78 36 79 62 80 63 81 71 82 64 83 70 84 72 85 69 86 65 87
REMARK SMILES IDX 66 88 67 89 68 90 47 91 48 92 56 93 49 94 55 95 57 96 54 97
REMARK SMILES IDX 50 98 51 99 52 100 53 101
REMARK H PARENT 13 6 84 20 18 35 77 54 45 65
REMARK Flexibility Score: inf
ROOT
ATOM      1  C   UNL A   1      45.833  38.280  26.740  1.00  0.00     0.023 C 
ENDROOT
BRANCH   1   2
ATOM      2  C   UNL A   1      45.703  39.657  26.093  1.00  0.00     0.116 C 
BRANCH   2   3
ATOM      3  N   UNL A   1      44.332  40.119  26.103  1.00  0.00    -0.351 N 
ATOM      4  C   UNL A   1      43.814  41.313  25.671  1.00  0.00     0.283 C 
ATOM      5  O   UNL A   1      42.600  41.460  25.850  1.00  0.00    -0.268 OA
ATOM      6  H   UNL A   1      43.677  39.485  26.474  1.00  0.00     0.163 HD
BRANCH   4   7
ATOM      7  C   UNL A   1      44.718  42.338  24.909  1.00  0.00     0.309 C 
BRANCH   7   8
ATOM      8  C   UNL A   1      45.290  43.467  25.760  1.00  0.00     0.061 A 
ATOM      9  C   UNL A   1      46.131  44.462  25.216  1.00  0.00     0.128 A 
ATOM     10  C   UNL A   1      46.540  45.547  25.994  1.00  0.00     0.047 A 
ATOM     11  C   UNL A   1      46.128  45.654  27.322  1.00  0.00     0.004 A 
ATOM     12  C   UNL A   1      44.944  43.564  27.120  1.00  0.00     0.014 A 
ATOM     13  C   UNL A   1      45.350  44.650  27.892  1.00  0.00     0.001 A 
BRANCH   9  14
ATOM     14  O   UNL A   1      46.835  44.236  24.061  1.00  0.00    -0.493 OA
BRANCH  14  15
ATOM     15  C   UNL A   1      47.529  45.337  23.480  1.00  0.00     0.226 C 
ATOM     16  C   UNL A   1      48.896  44.846  23.007  1.00  0.00     0.049 C 
ENDBRANCH  14  15
ENDBRANCH   9  14
ENDBRANCH   7   8
BRANCH   7  17
ATOM     17  N   UNL A   1      44.102  42.807  23.615  1.00  0.00    -0.321 N 
ATOM     18  C   UNL A   1      44.829  42.433  22.393  1.00  0.00     0.263 C 
ATOM     19  C   UNL A   1      42.691  42.411  23.507  1.00  0.00     0.263 C 
ATOM     20  H   UNL A   1      44.171  43.823  23.673  1.00  0.00     0.349 HD
ATOM     21  C   UNL A   1      44.244  43.202  21.204  1.00  0.00     0.075 C 
ATOM     22  C   UNL A   1      42.005  43.060  22.313  1.00  0.00     0.075 C 
ATOM     23  C   UNL A   1      42.781  42.826  21.014  1.00  0.00     0.090 C 
BRANCH  23  24
ATOM     24  C   UNL A   1      41.967  43.439  19.876  1.00  0.00     0.226 C 
ATOM     25  O   UNL A   1      40.748  43.574  20.030  1.00  0.00    -0.275 OA
ATOM     26  N   UNL A   1      42.610  44.102  18.862  1.00  0.00    -0.342 N 
ATOM     27  C   UNL A   1      43.767  43.732  18.074  1.00  0.00     0.119 C 
ATOM     28  C   UNL A   1      42.148  45.423  18.475  1.00  0.00     0.119 C 
ATOM     29  C   UNL A   1      44.454  45.061  17.846  1.00  0.00     0.023 C 
ATOM     30  C   UNL A   1      43.273  46.002  17.618  1.00  0.00     0.023 C 
ENDBRANCH  23  24
ENDBRANCH   7  17
ENDBRANCH   4   7
ENDBRANCH   2   3
ENDBRANCH   1   2
BRANCH   1  31
ATOM     31  C   UNL A   1      46.794  37.350  26.000  1.00  0.00     0.023 C 
BRANCH  31  32
ATOM     32  C   UNL A   1      46.516  35.867  26.208  1.00  0.00     0.116 C 
BRANCH  32  33
ATOM     33  N   UNL A   1      45.515  35.349  25.289  1.00  0.00    -0.352 N 
ATOM     34  C   UNL A   1      44.332  34.720  25.587  1.00  0.00     0.251 C 
ATOM     35  H   UNL A   1      45.710  35.466  24.331  1.00  0.00     0.163 HD
ATOM     36  O   UNL A   1      43.672  34.196  24.694  1.00  0.00    -0.269 OA
BRANCH  34  37
ATOM     37  C   UNL A   1      43.889  34.646  26.995  1.00  0.00     0.039 A 
ATOM     38  C   UNL A   1      43.316  35.776  27.582  1.00  0.00     0.014 A 
ATOM     39  C   UNL A   1      44.003  33.456  27.719  1.00  0.00     0.014 A 
ATOM     40  C   UNL A   1      42.809  35.693  28.880  1.00  0.00     0.010 A 
ATOM     41  C   UNL A   1      43.420  33.353  28.978  1.00  0.00     0.010 A 
ATOM     42  C   UNL A   1      42.826  34.473  29.576  1.00  0.00    -0.014 A 
BRANCH  42  43
ATOM     43  C   UNL A   1      42.239  34.363  30.936  1.00  0.00     0.031 A 
ATOM     44  C   UNL A   1      43.137  34.206  32.134  1.00  0.00     0.074 A 
ATOM     45  C   UNL A   1      40.900  34.368  31.089  1.00  0.00     0.049 A 
ATOM     46  N   UNL A   1      42.819  34.067  33.395  1.00  0.00    -0.248 NA
ATOM     47  C   UNL A   1      44.585  34.173  31.874  1.00  0.00     0.031 C 
ATOM     48  C   UNL A   1      39.926  34.470  29.999  1.00  0.00     0.029 A 
ATOM     49  N   UNL A   1      40.123  34.286  32.217  1.00  0.00    -0.354 N 
ATOM     50  C   UNL A   1      44.024  33.924  34.077  1.00  0.00     0.074 A 
ATOM     51  C   UNL A   1      45.071  33.919  33.079  1.00  0.00     0.031 C 
ATOM     52  C   UNL A   1      38.687  34.483  30.515  1.00  0.00     0.029 A 
ATOM     53  C   UNL A   1      38.771  34.340  31.965  1.00  0.00     0.049 A 
ATOM     54  H   UNL A   1      40.497  34.197  33.124  1.00  0.00     0.167 HD
ATOM     55  C   UNL A   1      44.237  33.835  35.413  1.00  0.00     0.034 A 
ATOM     56  C   UNL A   1      37.718  34.274  32.806  1.00  0.00     0.034 A 
ATOM     57  C   UNL A   1      43.179  33.848  36.394  1.00  0.00     0.049 A 
ATOM     58  C   UNL A   1      37.981  34.137  34.285  1.00  0.00     0.074 A 
ATOM     59  C   UNL A   1      43.283  33.815  37.774  1.00  0.00     0.029 A 
ATOM     60  N   UNL A   1      41.821  33.886  36.101  1.00  0.00    -0.354 N 
ATOM     61  N   UNL A   1      39.129  34.063  34.918  1.00  0.00    -0.248 NA
ATOM     62  C   UNL A   1      36.805  34.087  35.162  1.00  0.00     0.031 C 
ATOM     63  C   UNL A   1      41.993  33.753  38.310  1.00  0.00     0.029 A 
ATOM     64  C   UNL A   1      41.079  33.839  37.272  1.00  0.00     0.049 A 
ATOM     65  H   UNL A   1      41.442  33.941  35.194  1.00  0.00     0.167 HD
ATOM     66  C   UNL A   1      38.811  33.990  36.273  1.00  0.00     0.074 A 
ATOM     67  C   UNL A   1      37.366  34.049  36.362  1.00  0.00     0.031 C 
ATOM     68  C   UNL A   1      39.637  33.885  37.345  1.00  0.00     0.034 A 
BRANCH  55  69
ATOM     69  C   UNL A   1      45.667  33.690  35.882  1.00  0.00     0.023 A 
ATOM     70  C   UNL A   1      46.252  32.428  36.091  1.00  0.00     0.031 A 
ATOM     71  C   UNL A   1      46.449  34.827  36.148  1.00  0.00     0.131 A 
ATOM     72  C   UNL A   1      47.546  32.334  36.625  1.00  0.00     0.055 A 
ATOM     73  C   UNL A   1      47.768  34.726  36.596  1.00  0.00     0.041 A 
ATOM     74  F   UNL A   1      45.940  36.060  35.991  1.00  0.00    -0.206 F 
ATOM     75  C   UNL A   1      48.319  33.474  36.853  1.00  0.00     0.022 A 
BRANCH  72  76
ATOM     76  S   UNL A   1      48.145  30.708  37.161  1.00  0.00     0.124 S 
ATOM     77  O   UNL A   1      47.358  30.489  38.372  1.00  0.00    -0.237 OA
ATOM     78  O   UNL A   1      47.817  29.859  36.022  1.00  0.00    -0.237 OA
ATOM     79  O   UNL A   1      49.572  30.926  37.386  1.00  0.00    -0.744 OA
ENDBRANCH  72  76
ENDBRANCH  55  69
BRANCH  56  80
ATOM     80  C   UNL A   1      36.324  34.325  32.280  1.00  0.00     0.023 A 
ATOM     81  C   UNL A   1      35.552  35.494  32.382  1.00  0.00     0.031 A 
ATOM     82  C   UNL A   1      35.722  33.188  31.712  1.00  0.00     0.131 A 
ATOM     83  C   UNL A   1      34.210  35.486  31.972  1.00  0.00     0.055 A 
ATOM     84  C   UNL A   1      34.404  33.202  31.249  1.00  0.00     0.041 A 
ATOM     85  F   UNL A   1      36.413  32.044  31.588  1.00  0.00    -0.206 F 
ATOM     86  C   UNL A   1      33.636  34.352  31.392  1.00  0.00     0.022 A 
BRANCH  83  87
ATOM     87  S   UNL A   1      33.193  36.951  32.300  1.00  0.00     0.124 S 
ATOM     88  O   UNL A   1      31.982  36.355  32.852  1.00  0.00    -0.237 OA
ATOM     89  O   UNL A   1      34.028  37.695  33.236  1.00  0.00    -0.237 OA
ATOM     90  O   UNL A   1      33.042  37.562  30.980  1.00  0.00    -0.744 OA
ENDBRANCH  83  87
ENDBRANCH  56  80
BRANCH  68  91
ATOM     91  C   UNL A   1      38.991  33.871  38.711  1.00  0.00     0.023 A 
ATOM     92  C   UNL A   1      38.397  32.710  39.238  1.00  0.00     0.031 A 
ATOM     93  C   UNL A   1      38.957  35.041  39.490  1.00  0.00     0.131 A 
ATOM     94  C   UNL A   1      37.739  32.762  40.476  1.00  0.00     0.055 A 
ATOM     95  C   UNL A   1      38.363  35.068  40.752  1.00  0.00     0.041 A 
ATOM     96  F   UNL A   1      39.504  36.180  39.037  1.00  0.00    -0.206 F 
ATOM     97  C   UNL A   1      37.736  33.928  41.246  1.00  0.00     0.022 A 
BRANCH  94  98
ATOM     98  S   UNL A   1      36.795  31.312  41.021  1.00  0.00     0.124 S 
ATOM     99  O   UNL A   1      35.887  31.103  39.898  1.00  0.00    -0.237 OA
ATOM    100  O   UNL A   1      37.838  30.306  41.194  1.00  0.00    -0.237 OA
ATOM    101  O   UNL A   1      36.158  31.763  42.258  1.00  0.00    -0.744 OA
ENDBRANCH  94  98
ENDBRANCH  68  91
ENDBRANCH  42  43
ENDBRANCH  34  37
ENDBRANCH  32  33
ENDBRANCH  31  32
ENDBRANCH   1  31
TORSDOF 19
ENDMDL
