MODEL 1
REMARK VINA RESULT:     -13.4      0.000      0.000
REMARK SMILES Cc1ccnc(C(=O)c2[nH]c3cc(Cl)c(F)cc3c2CC(=O)NCCCCNC(=O)c2ccc(-c3c4nc(c(-c5cc(S(=O)(=O)[O-])ccc5F)c5ccc([nH]5)c(-c5cc(S(=O)(=O)[O-])ccc5F)c5nc(c(-c6cc(S(=O)(=O)[O-])ccc6F)c6ccc3[nH]6)C=C5)C=C4)cc2)c1
REMARK SMILES IDX 25 1 24 2 23 3 21 4 22 5 20 7 19 8 9 9 10 10 11 11 18 13
REMARK SMILES IDX 12 14 17 15 13 16 15 17 14 18 16 19 7 20 8 21 6 22 1 23 2 24
REMARK SMILES IDX 3 25 94 26 4 27 5 28 26 29 27 30 28 31 29 32 30 34 31 35
REMARK SMILES IDX 32 36 93 37 33 38 92 39 34 40 35 41 36 42 86 43 37 44 91 45
REMARK SMILES IDX 85 46 87 47 38 48 90 49 84 50 83 51 39 53 71 54 51 55 70 56
REMARK SMILES IDX 52 57 55 58 69 59 88 60 53 61 54 62 68 64 89 65 56 66 40 67
REMARK SMILES IDX 41 68 49 69 42 70 48 71 50 72 47 73 43 74 44 75 45 76 46 77
REMARK SMILES IDX 72 78 73 79 81 80 74 81 80 82 82 83 79 84 75 85 76 86 77 87
REMARK SMILES IDX 78 88 57 89 58 90 66 91 59 92 65 93 67 94 64 95 60 96 61 97
REMARK SMILES IDX 62 98 63 99
REMARK H PARENT 23 6 10 12 28 33 87 52 55 63
REMARK Flexibility Score: inf
ROOT
ATOM      1  C   UNL A   1      32.592  28.159  27.221  1.00  0.00     0.023 C 
ENDROOT
BRANCH   1   2
ATOM      2  C   UNL A   1      31.773  27.370  26.188  1.00  0.00     0.116 C 
BRANCH   2   3
ATOM      3  N   UNL A   1      31.240  26.101  26.643  1.00  0.00    -0.356 N 
ATOM      4  C   UNL A   1      31.734  24.834  26.543  1.00  0.00     0.224 C 
ATOM      5  O   UNL A   1      31.181  23.964  27.224  1.00  0.00    -0.275 OA
ATOM      6  H   UNL A   1      30.370  26.165  27.102  1.00  0.00     0.163 HD
BRANCH   4   7
ATOM      7  C   UNL A   1      32.949  24.483  25.705  1.00  0.00     0.138 C 
BRANCH   7   8
ATOM      8  C   UNL A   1      32.701  23.653  24.480  1.00  0.00    -0.002 A 
ATOM      9  C   UNL A   1      32.420  24.063  23.173  1.00  0.00     0.093 A 
ATOM     10  N   UNL A   1      32.164  22.917  22.445  1.00  0.00    -0.351 N 
ATOM     11  C   UNL A   1      32.343  21.787  23.201  1.00  0.00     0.048 A 
ATOM     12  H   UNL A   1      31.886  22.912  21.501  1.00  0.00     0.167 HD
ATOM     13  C   UNL A   1      32.608  22.212  24.498  1.00  0.00     0.007 A 
ATOM     14  C   UNL A   1      32.274  20.432  22.841  1.00  0.00     0.050 A 
ATOM     15  C   UNL A   1      32.754  21.232  25.505  1.00  0.00     0.051 A 
ATOM     16  C   UNL A   1      32.487  19.484  23.846  1.00  0.00     0.078 A 
ATOM     17  C   UNL A   1      32.714  19.881  25.158  1.00  0.00     0.142 A 
ATOM     18  Cl  UNL A   1      32.458  17.810  23.439  1.00  0.00    -0.081 Cl
ATOM     19  F   UNL A   1      32.916  18.972  26.126  1.00  0.00    -0.205 F 
BRANCH   9  20
ATOM     20  C   UNL A   1      32.240  25.364  22.531  1.00  0.00     0.227 C 
ATOM     21  O   UNL A   1      33.127  25.793  21.793  1.00  0.00    -0.285 OA
BRANCH  20  22
ATOM     22  C   UNL A   1      31.051  26.245  22.821  1.00  0.00     0.113 A 
ATOM     23  C   UNL A   1      29.740  29.780  22.325  1.00  0.00     0.044 C 
ATOM     24  C   UNL A   1      29.846  28.330  22.690  1.00  0.00    -0.047 A 
ATOM     25  C   UNL A   1      28.815  27.731  23.407  1.00  0.00     0.023 A 
ATOM     26  C   UNL A   1      30.954  27.547  22.337  1.00  0.00     0.036 A 
ATOM     27  C   UNL A   1      28.956  26.409  23.788  1.00  0.00     0.112 A 
ATOM     28  N   UNL A   1      30.052  25.663  23.534  1.00  0.00    -0.253 NA
ENDBRANCH  20  22
ENDBRANCH   9  20
ENDBRANCH   7   8
ENDBRANCH   4   7
ENDBRANCH   2   3
ENDBRANCH   1   2
BRANCH   1  29
ATOM     29  C   UNL A   1      32.432  29.688  27.253  1.00  0.00     0.023 C 
BRANCH  29  30
ATOM     30  C   UNL A   1      33.688  30.484  26.924  1.00  0.00     0.116 C 
BRANCH  30  31
ATOM     31  N   UNL A   1      33.877  31.620  27.797  1.00  0.00    -0.352 N 
ATOM     32  C   UNL A   1      34.879  32.054  28.618  1.00  0.00     0.251 C 
ATOM     33  H   UNL A   1      33.099  32.224  27.801  1.00  0.00     0.163 HD
ATOM     34  O   UNL A   1      34.664  33.131  29.183  1.00  0.00    -0.269 OA
BRANCH  32  35
ATOM     35  C   UNL A   1      36.141  31.321  28.911  1.00  0.00     0.039 A 
ATOM     36  C   UNL A   1      37.374  31.896  29.226  1.00  0.00     0.014 A 
ATOM     37  C   UNL A   1      36.058  29.917  28.834  1.00  0.00     0.014 A 
ATOM     38  C   UNL A   1      38.507  31.099  29.364  1.00  0.00     0.010 A 
ATOM     39  C   UNL A   1      37.182  29.116  28.990  1.00  0.00     0.010 A 
ATOM     40  C   UNL A   1      38.417  29.713  29.206  1.00  0.00    -0.014 A 
BRANCH  40  41
ATOM     41  C   UNL A   1      39.634  28.921  29.374  1.00  0.00     0.031 A 
ATOM     42  C   UNL A   1      40.001  28.639  30.789  1.00  0.00     0.074 A 
ATOM     43  C   UNL A   1      40.331  28.402  28.344  1.00  0.00     0.049 A 
ATOM     44  N   UNL A   1      41.015  29.087  31.453  1.00  0.00    -0.248 NA
ATOM     45  C   UNL A   1      39.041  27.882  31.605  1.00  0.00     0.031 C 
ATOM     46  C   UNL A   1      39.938  28.355  26.932  1.00  0.00     0.029 A 
ATOM     47  N   UNL A   1      41.507  27.711  28.359  1.00  0.00    -0.354 N 
ATOM     48  C   UNL A   1      40.936  28.504  32.719  1.00  0.00     0.074 A 
ATOM     49  C   UNL A   1      39.623  27.916  32.804  1.00  0.00     0.031 C 
ATOM     50  C   UNL A   1      40.733  27.479  26.275  1.00  0.00     0.029 A 
ATOM     51  C   UNL A   1      41.785  27.041  27.175  1.00  0.00     0.049 A 
ATOM     52  H   UNL A   1      42.106  27.691  29.140  1.00  0.00     0.167 HD
ATOM     53  C   UNL A   1      42.037  28.363  33.512  1.00  0.00     0.034 A 
ATOM     54  C   UNL A   1      42.785  26.153  26.958  1.00  0.00     0.034 A 
ATOM     55  C   UNL A   1      43.141  29.124  32.995  1.00  0.00     0.049 A 
ATOM     56  C   UNL A   1      43.830  26.369  27.978  1.00  0.00     0.074 A 
ATOM     57  C   UNL A   1      43.500  30.451  32.943  1.00  0.00     0.029 A 
ATOM     58  N   UNL A   1      43.927  28.449  32.099  1.00  0.00    -0.354 N 
ATOM     59  N   UNL A   1      44.593  27.423  28.023  1.00  0.00    -0.248 NA
ATOM     60  C   UNL A   1      43.817  25.554  29.185  1.00  0.00     0.031 C 
ATOM     61  C   UNL A   1      44.324  30.580  31.790  1.00  0.00     0.029 A 
ATOM     62  C   UNL A   1      44.471  29.323  31.198  1.00  0.00     0.049 A 
ATOM     63  H   UNL A   1      44.079  27.476  32.103  1.00  0.00     0.167 HD
ATOM     64  C   UNL A   1      44.772  27.651  29.374  1.00  0.00     0.074 A 
ATOM     65  C   UNL A   1      44.449  26.384  30.019  1.00  0.00     0.031 C 
ATOM     66  C   UNL A   1      44.865  28.921  29.860  1.00  0.00     0.034 A 
BRANCH  53  67
ATOM     67  C   UNL A   1      42.265  27.229  34.493  1.00  0.00     0.023 A 
ATOM     68  C   UNL A   1      43.017  26.083  34.182  1.00  0.00     0.031 A 
ATOM     69  C   UNL A   1      41.945  27.394  35.860  1.00  0.00     0.131 A 
ATOM     70  C   UNL A   1      43.426  25.177  35.171  1.00  0.00     0.055 A 
ATOM     71  C   UNL A   1      42.406  26.524  36.857  1.00  0.00     0.041 A 
ATOM     72  F   UNL A   1      41.224  28.446  36.281  1.00  0.00    -0.206 F 
ATOM     73  C   UNL A   1      43.156  25.408  36.514  1.00  0.00     0.022 A 
BRANCH  70  74
ATOM     74  S   UNL A   1      44.348  23.685  34.709  1.00  0.00     0.124 S 
ATOM     75  O   UNL A   1      43.396  23.004  33.830  1.00  0.00    -0.237 OA
ATOM     76  O   UNL A   1      45.519  24.258  34.045  1.00  0.00    -0.237 OA
ATOM     77  O   UNL A   1      44.613  23.036  35.982  1.00  0.00    -0.744 OA
ENDBRANCH  70  74
ENDBRANCH  53  67
BRANCH  54  78
ATOM     78  C   UNL A   1      42.722  24.897  26.180  1.00  0.00     0.023 A 
ATOM     79  C   UNL A   1      41.770  23.924  26.531  1.00  0.00     0.031 A 
ATOM     80  C   UNL A   1      43.789  24.499  25.355  1.00  0.00     0.131 A 
ATOM     81  C   UNL A   1      41.938  22.594  26.127  1.00  0.00     0.055 A 
ATOM     82  C   UNL A   1      43.939  23.174  24.931  1.00  0.00     0.041 A 
ATOM     83  F   UNL A   1      44.746  25.373  25.010  1.00  0.00    -0.206 F 
ATOM     84  C   UNL A   1      43.021  22.209  25.335  1.00  0.00     0.022 A 
BRANCH  81  85
ATOM     85  S   UNL A   1      40.808  21.306  26.721  1.00  0.00     0.124 S 
ATOM     86  O   UNL A   1      39.593  21.587  25.961  1.00  0.00    -0.237 OA
ATOM     87  O   UNL A   1      41.521  20.091  26.342  1.00  0.00    -0.237 OA
ATOM     88  O   UNL A   1      40.715  21.568  28.154  1.00  0.00    -0.744 OA
ENDBRANCH  81  85
ENDBRANCH  54  78
BRANCH  66  89
ATOM     89  C   UNL A   1      45.208  30.029  28.897  1.00  0.00     0.023 A 
ATOM     90  C   UNL A   1      46.573  30.319  28.733  1.00  0.00     0.031 A 
ATOM     91  C   UNL A   1      44.278  30.900  28.300  1.00  0.00     0.131 A 
ATOM     92  C   UNL A   1      46.974  31.467  28.046  1.00  0.00     0.055 A 
ATOM     93  C   UNL A   1      44.686  32.004  27.544  1.00  0.00     0.041 A 
ATOM     94  F   UNL A   1      42.960  30.758  28.491  1.00  0.00    -0.206 F 
ATOM     95  C   UNL A   1      46.040  32.303  27.431  1.00  0.00     0.022 A 
BRANCH  92  96
ATOM     96  S   UNL A   1      48.707  31.987  28.087  1.00  0.00     0.124 S 
ATOM     97  O   UNL A   1      49.086  31.911  26.680  1.00  0.00    -0.237 OA
ATOM     98  O   UNL A   1      48.610  33.337  28.639  1.00  0.00    -0.237 OA
ATOM     99  O   UNL A   1      49.348  31.010  28.962  1.00  0.00    -0.744 OA
ENDBRANCH  92  96
ENDBRANCH  66  89
ENDBRANCH  40  41
ENDBRANCH  32  35
ENDBRANCH  30  31
ENDBRANCH  29  30
ENDBRANCH   1  29
TORSDOF 17
ENDMDL
MODEL 2
REMARK VINA RESULT:     -13.3      3.329      8.337
REMARK SMILES Cc1ccnc(C(=O)c2[nH]c3cc(Cl)c(F)cc3c2CC(=O)NCCCCNC(=O)c2ccc(-c3c4nc(c(-c5cc(S(=O)(=O)[O-])ccc5F)c5ccc([nH]5)c(-c5cc(S(=O)(=O)[O-])ccc5F)c5nc(c(-c6cc(S(=O)(=O)[O-])ccc6F)c6ccc3[nH]6)C=C5)C=C4)cc2)c1
REMARK SMILES IDX 25 1 24 2 23 3 21 4 22 5 20 7 19 8 9 9 10 10 11 11 18 13
REMARK SMILES IDX 12 14 17 15 13 16 15 17 14 18 16 19 7 20 8 21 6 22 1 23 2 24
REMARK SMILES IDX 3 25 94 26 4 27 5 28 26 29 27 30 28 31 29 32 30 34 31 35
REMARK SMILES IDX 32 36 93 37 33 38 92 39 34 40 35 41 36 42 86 43 37 44 91 45
REMARK SMILES IDX 85 46 87 47 38 48 90 49 84 50 83 51 39 53 71 54 51 55 70 56
REMARK SMILES IDX 52 57 55 58 69 59 88 60 53 61 54 62 68 64 89 65 56 66 40 67
REMARK SMILES IDX 41 68 49 69 42 70 48 71 50 72 47 73 43 74 44 75 45 76 46 77
REMARK SMILES IDX 72 78 73 79 81 80 74 81 80 82 82 83 79 84 75 85 76 86 77 87
REMARK SMILES IDX 78 88 57 89 58 90 66 91 59 92 65 93 67 94 64 95 60 96 61 97
REMARK SMILES IDX 62 98 63 99
REMARK H PARENT 23 6 10 12 28 33 87 52 55 63
REMARK Flexibility Score: inf
ROOT
ATOM      1  C   UNL A   1      37.030  22.897  23.503  1.00  0.00     0.023 C 
ENDROOT
BRANCH   1   2
ATOM      2  C   UNL A   1      35.534  23.202  23.331  1.00  0.00     0.116 C 
BRANCH   2   3
ATOM      3  N   UNL A   1      35.034  24.339  24.077  1.00  0.00    -0.356 N 
ATOM      4  C   UNL A   1      34.627  24.451  25.374  1.00  0.00     0.224 C 
ATOM      5  O   UNL A   1      34.465  25.595  25.812  1.00  0.00    -0.275 OA
ATOM      6  H   UNL A   1      34.976  25.174  23.558  1.00  0.00     0.163 HD
BRANCH   4   7
ATOM      7  C   UNL A   1      34.442  23.255  26.290  1.00  0.00     0.138 C 
BRANCH   7   8
ATOM      8  C   UNL A   1      33.364  22.283  25.913  1.00  0.00    -0.002 A 
ATOM      9  C   UNL A   1      31.976  22.417  26.007  1.00  0.00     0.093 A 
ATOM     10  N   UNL A   1      31.434  21.201  25.637  1.00  0.00    -0.351 N 
ATOM     11  C   UNL A   1      32.402  20.317  25.237  1.00  0.00     0.048 A 
ATOM     12  H   UNL A   1      30.472  20.994  25.661  1.00  0.00     0.167 HD
ATOM     13  C   UNL A   1      33.627  20.935  25.465  1.00  0.00     0.007 A 
ATOM     14  C   UNL A   1      32.288  19.021  24.710  1.00  0.00     0.050 A 
ATOM     15  C   UNL A   1      34.804  20.197  25.210  1.00  0.00     0.051 A 
ATOM     16  C   UNL A   1      33.471  18.339  24.405  1.00  0.00     0.078 A 
ATOM     17  C   UNL A   1      34.707  18.918  24.661  1.00  0.00     0.142 A 
ATOM     18  Cl  UNL A   1      33.376  16.764  23.714  1.00  0.00    -0.081 Cl
ATOM     19  F   UNL A   1      35.844  18.265  24.373  1.00  0.00    -0.205 F 
BRANCH   9  20
ATOM     20  C   UNL A   1      31.086  23.468  26.499  1.00  0.00     0.227 C 
ATOM     21  O   UNL A   1      30.236  23.183  27.342  1.00  0.00    -0.285 OA
BRANCH  20  22
ATOM     22  C   UNL A   1      31.106  24.867  25.937  1.00  0.00     0.113 A 
ATOM     23  C   UNL A   1      31.032  26.788  22.656  1.00  0.00     0.044 C 
ATOM     24  C   UNL A   1      31.041  26.446  24.116  1.00  0.00    -0.047 A 
ATOM     25  C   UNL A   1      31.139  27.469  25.054  1.00  0.00     0.023 A 
ATOM     26  C   UNL A   1      30.958  25.126  24.577  1.00  0.00     0.036 A 
ATOM     27  C   UNL A   1      31.208  27.133  26.394  1.00  0.00     0.112 A 
ATOM     28  N   UNL A   1      31.217  25.863  26.853  1.00  0.00    -0.253 NA
ENDBRANCH  20  22
ENDBRANCH   9  20
ENDBRANCH   7   8
ENDBRANCH   4   7
ENDBRANCH   2   3
ENDBRANCH   1   2
BRANCH   1  29
ATOM     29  C   UNL A   1      37.435  21.838  24.541  1.00  0.00     0.023 C 
BRANCH  29  30
ATOM     30  C   UNL A   1      38.114  22.376  25.794  1.00  0.00     0.116 C 
BRANCH  30  31
ATOM     31  N   UNL A   1      39.481  21.928  25.928  1.00  0.00    -0.352 N 
ATOM     32  C   UNL A   1      40.624  22.452  26.462  1.00  0.00     0.251 C 
ATOM     33  H   UNL A   1      39.623  21.032  25.543  1.00  0.00     0.163 HD
ATOM     34  O   UNL A   1      41.613  21.714  26.412  1.00  0.00    -0.269 OA
BRANCH  32  35
ATOM     35  C   UNL A   1      40.770  23.821  27.028  1.00  0.00     0.039 A 
ATOM     36  C   UNL A   1      41.763  24.246  27.912  1.00  0.00     0.014 A 
ATOM     37  C   UNL A   1      39.786  24.748  26.632  1.00  0.00     0.014 A 
ATOM     38  C   UNL A   1      41.719  25.526  28.458  1.00  0.00     0.010 A 
ATOM     39  C   UNL A   1      39.747  26.033  27.161  1.00  0.00     0.010 A 
ATOM     40  C   UNL A   1      40.688  26.404  28.113  1.00  0.00    -0.014 A 
BRANCH  40  41
ATOM     41  C   UNL A   1      40.694  27.740  28.705  1.00  0.00     0.031 A 
ATOM     42  C   UNL A   1      41.722  28.662  28.147  1.00  0.00     0.074 A 
ATOM     43  C   UNL A   1      39.793  28.152  29.618  1.00  0.00     0.049 A 
ATOM     44  N   UNL A   1      42.769  29.137  28.736  1.00  0.00    -0.248 NA
ATOM     45  C   UNL A   1      41.649  28.975  26.712  1.00  0.00     0.031 C 
ATOM     46  C   UNL A   1      38.571  27.462  30.044  1.00  0.00     0.029 A 
ATOM     47  N   UNL A   1      39.729  29.336  30.294  1.00  0.00    -0.354 N 
ATOM     48  C   UNL A   1      43.386  29.978  27.807  1.00  0.00     0.074 A 
ATOM     49  C   UNL A   1      42.752  29.706  26.542  1.00  0.00     0.031 C 
ATOM     50  C   UNL A   1      37.779  28.328  30.716  1.00  0.00     0.029 A 
ATOM     51  C   UNL A   1      38.508  29.569  30.912  1.00  0.00     0.049 A 
ATOM     52  H   UNL A   1      40.483  29.967  30.341  1.00  0.00     0.167 HD
ATOM     53  C   UNL A   1      44.217  30.987  28.198  1.00  0.00     0.034 A 
ATOM     54  C   UNL A   1      38.104  30.717  31.507  1.00  0.00     0.034 A 
ATOM     55  C   UNL A   1      44.561  30.858  29.587  1.00  0.00     0.049 A 
ATOM     56  C   UNL A   1      39.300  31.509  31.853  1.00  0.00     0.074 A 
ATOM     57  C   UNL A   1      45.384  30.055  30.340  1.00  0.00     0.029 A 
ATOM     58  N   UNL A   1      43.698  31.486  30.446  1.00  0.00    -0.354 N 
ATOM     59  N   UNL A   1      40.152  31.171  32.778  1.00  0.00    -0.248 NA
ATOM     60  C   UNL A   1      39.756  32.540  30.930  1.00  0.00     0.031 C 
ATOM     61  C   UNL A   1      44.797  30.012  31.636  1.00  0.00     0.029 A 
ATOM     62  C   UNL A   1      43.657  30.820  31.641  1.00  0.00     0.049 A 
ATOM     63  H   UNL A   1      43.182  32.297  30.236  1.00  0.00     0.167 HD
ATOM     64  C   UNL A   1      41.372  31.585  32.279  1.00  0.00     0.074 A 
ATOM     65  C   UNL A   1      41.050  32.576  31.260  1.00  0.00     0.031 C 
ATOM     66  C   UNL A   1      42.503  30.864  32.521  1.00  0.00     0.034 A 
BRANCH  53  67
ATOM     67  C   UNL A   1      44.381  32.310  27.474  1.00  0.00     0.023 A 
ATOM     68  C   UNL A   1      43.676  33.473  27.830  1.00  0.00     0.031 A 
ATOM     69  C   UNL A   1      45.450  32.499  26.568  1.00  0.00     0.131 A 
ATOM     70  C   UNL A   1      44.025  34.732  27.322  1.00  0.00     0.055 A 
ATOM     71  C   UNL A   1      45.839  33.765  26.109  1.00  0.00     0.041 A 
ATOM     72  F   UNL A   1      46.194  31.463  26.148  1.00  0.00    -0.206 F 
ATOM     73  C   UNL A   1      45.127  34.893  26.490  1.00  0.00     0.022 A 
BRANCH  70  74
ATOM     74  S   UNL A   1      43.048  36.194  27.769  1.00  0.00     0.124 S 
ATOM     75  O   UNL A   1      43.601  37.211  26.873  1.00  0.00    -0.237 OA
ATOM     76  O   UNL A   1      41.691  35.747  27.452  1.00  0.00    -0.237 OA
ATOM     77  O   UNL A   1      43.326  36.374  29.184  1.00  0.00    -0.744 OA
ENDBRANCH  70  74
ENDBRANCH  53  67
BRANCH  54  78
ATOM     78  C   UNL A   1      36.764  31.339  31.448  1.00  0.00     0.023 A 
ATOM     79  C   UNL A   1      36.171  31.564  30.193  1.00  0.00     0.031 A 
ATOM     80  C   UNL A   1      36.231  32.025  32.554  1.00  0.00     0.131 A 
ATOM     81  C   UNL A   1      35.138  32.500  30.057  1.00  0.00     0.055 A 
ATOM     82  C   UNL A   1      35.181  32.940  32.419  1.00  0.00     0.041 A 
ATOM     83  F   UNL A   1      36.773  31.877  33.772  1.00  0.00    -0.206 F 
ATOM     84  C   UNL A   1      34.643  33.197  31.161  1.00  0.00     0.022 A 
BRANCH  81  85
ATOM     85  S   UNL A   1      34.490  32.919  28.416  1.00  0.00     0.124 S 
ATOM     86  O   UNL A   1      33.600  34.038  28.712  1.00  0.00    -0.237 OA
ATOM     87  O   UNL A   1      35.712  33.261  27.696  1.00  0.00    -0.237 OA
ATOM     88  O   UNL A   1      33.822  31.693  27.990  1.00  0.00    -0.744 OA
ENDBRANCH  81  85
ENDBRANCH  54  78
BRANCH  66  89
ATOM     89  C   UNL A   1      42.495  29.889  33.671  1.00  0.00     0.023 A 
ATOM     90  C   UNL A   1      43.040  30.343  34.884  1.00  0.00     0.031 A 
ATOM     91  C   UNL A   1      42.157  28.527  33.575  1.00  0.00     0.131 A 
ATOM     92  C   UNL A   1      43.284  29.448  35.928  1.00  0.00     0.055 A 
ATOM     93  C   UNL A   1      42.328  27.650  34.651  1.00  0.00     0.041 A 
ATOM     94  F   UNL A   1      41.730  27.988  32.425  1.00  0.00    -0.206 F 
ATOM     95  C   UNL A   1      42.912  28.106  35.829  1.00  0.00     0.022 A 
BRANCH  92  96
ATOM     96  S   UNL A   1      44.246  29.976  37.367  1.00  0.00     0.124 S 
ATOM     97  O   UNL A   1      45.408  30.607  36.748  1.00  0.00    -0.237 OA
ATOM     98  O   UNL A   1      43.320  30.887  38.038  1.00  0.00    -0.237 OA
ATOM     99  O   UNL A   1      44.516  28.735  38.086  1.00  0.00    -0.744 OA
ENDBRANCH  92  96
ENDBRANCH  66  89
ENDBRANCH  40  41
ENDBRANCH  32  35
ENDBRANCH  30  31
ENDBRANCH  29  30
ENDBRANCH   1  29
TORSDOF 17
ENDMDL
MODEL 3
REMARK VINA RESULT:     -13.1      3.680      8.945
REMARK SMILES Cc1ccnc(C(=O)c2[nH]c3cc(Cl)c(F)cc3c2CC(=O)NCCCCNC(=O)c2ccc(-c3c4nc(c(-c5cc(S(=O)(=O)[O-])ccc5F)c5ccc([nH]5)c(-c5cc(S(=O)(=O)[O-])ccc5F)c5nc(c(-c6cc(S(=O)(=O)[O-])ccc6F)c6ccc3[nH]6)C=C5)C=C4)cc2)c1
REMARK SMILES IDX 25 1 24 2 23 3 21 4 22 5 20 7 19 8 9 9 10 10 11 11 18 13
REMARK SMILES IDX 12 14 17 15 13 16 15 17 14 18 16 19 7 20 8 21 6 22 1 23 2 24
REMARK SMILES IDX 3 25 94 26 4 27 5 28 26 29 27 30 28 31 29 32 30 34 31 35
REMARK SMILES IDX 32 36 93 37 33 38 92 39 34 40 35 41 36 42 86 43 37 44 91 45
REMARK SMILES IDX 85 46 87 47 38 48 90 49 84 50 83 51 39 53 71 54 51 55 70 56
REMARK SMILES IDX 52 57 55 58 69 59 88 60 53 61 54 62 68 64 89 65 56 66 40 67
REMARK SMILES IDX 41 68 49 69 42 70 48 71 50 72 47 73 43 74 44 75 45 76 46 77
REMARK SMILES IDX 72 78 73 79 81 80 74 81 80 82 82 83 79 84 75 85 76 86 77 87
REMARK SMILES IDX 78 88 57 89 58 90 66 91 59 92 65 93 67 94 64 95 60 96 61 97
REMARK SMILES IDX 62 98 63 99
REMARK H PARENT 23 6 10 12 28 33 87 52 55 63
REMARK Flexibility Score: inf
ROOT
ATOM      1  C   UNL A   1      35.816  21.979  24.249  1.00  0.00     0.023 C 
ENDROOT
BRANCH   1   2
ATOM      2  C   UNL A   1      35.324  23.424  24.418  1.00  0.00     0.116 C 
BRANCH   2   3
ATOM      3  N   UNL A   1      34.806  24.057  23.222  1.00  0.00    -0.356 N 
ATOM      4  C   UNL A   1      34.066  25.191  23.056  1.00  0.00     0.224 C 
ATOM      5  O   UNL A   1      33.958  25.624  21.904  1.00  0.00    -0.275 OA
ATOM      6  H   UNL A   1      35.025  23.587  22.384  1.00  0.00     0.163 HD
BRANCH   4   7
ATOM      7  C   UNL A   1      33.450  25.954  24.214  1.00  0.00     0.138 C 
BRANCH   7   8
ATOM      8  C   UNL A   1      31.960  25.864  24.359  1.00  0.00    -0.002 A 
ATOM      9  C   UNL A   1      31.186  24.874  24.971  1.00  0.00     0.093 A 
ATOM     10  N   UNL A   1      29.865  25.202  24.737  1.00  0.00    -0.351 N 
ATOM     11  C   UNL A   1      29.750  26.395  24.070  1.00  0.00     0.048 A 
ATOM     12  H   UNL A   1      29.100  24.647  25.012  1.00  0.00     0.167 HD
ATOM     13  C   UNL A   1      31.042  26.801  23.754  1.00  0.00     0.007 A 
ATOM     14  C   UNL A   1      28.610  27.130  23.712  1.00  0.00     0.050 A 
ATOM     15  C   UNL A   1      31.203  27.975  22.985  1.00  0.00     0.051 A 
ATOM     16  C   UNL A   1      28.803  28.323  23.007  1.00  0.00     0.078 A 
ATOM     17  C   UNL A   1      30.080  28.731  22.644  1.00  0.00     0.142 A 
ATOM     18  Cl  UNL A   1      27.434  29.280  22.588  1.00  0.00    -0.081 Cl
ATOM     19  F   UNL A   1      30.269  29.874  21.965  1.00  0.00    -0.205 F 
BRANCH   9  20
ATOM     20  C   UNL A   1      31.494  23.611  25.640  1.00  0.00     0.227 C 
ATOM     21  O   UNL A   1      31.549  23.584  26.869  1.00  0.00    -0.285 OA
BRANCH  20  22
ATOM     22  C   UNL A   1      31.845  22.361  24.873  1.00  0.00     0.113 A 
ATOM     23  C   UNL A   1      32.863  18.728  25.353  1.00  0.00     0.044 C 
ATOM     24  C   UNL A   1      32.458  20.032  24.735  1.00  0.00    -0.047 A 
ATOM     25  C   UNL A   1      32.454  20.157  23.349  1.00  0.00     0.023 A 
ATOM     26  C   UNL A   1      32.081  21.142  25.503  1.00  0.00     0.036 A 
ATOM     27  C   UNL A   1      32.136  21.384  22.796  1.00  0.00     0.112 A 
ATOM     28  N   UNL A   1      31.856  22.488  23.521  1.00  0.00    -0.253 NA
ENDBRANCH  20  22
ENDBRANCH   9  20
ENDBRANCH   7   8
ENDBRANCH   4   7
ENDBRANCH   2   3
ENDBRANCH   1   2
BRANCH   1  29
ATOM     29  C   UNL A   1      36.871  21.456  25.238  1.00  0.00     0.023 C 
BRANCH  29  30
ATOM     30  C   UNL A   1      37.844  22.500  25.770  1.00  0.00     0.116 C 
BRANCH  30  31
ATOM     31  N   UNL A   1      39.181  21.982  25.949  1.00  0.00    -0.352 N 
ATOM     32  C   UNL A   1      40.335  22.452  26.507  1.00  0.00     0.251 C 
ATOM     33  H   UNL A   1      39.285  21.074  25.580  1.00  0.00     0.163 HD
ATOM     34  O   UNL A   1      41.284  21.662  26.495  1.00  0.00    -0.269 OA
BRANCH  32  35
ATOM     35  C   UNL A   1      40.538  23.820  27.059  1.00  0.00     0.039 A 
ATOM     36  C   UNL A   1      41.570  24.221  27.910  1.00  0.00     0.014 A 
ATOM     37  C   UNL A   1      39.570  24.773  26.687  1.00  0.00     0.014 A 
ATOM     38  C   UNL A   1      41.580  25.504  28.448  1.00  0.00     0.010 A 
ATOM     39  C   UNL A   1      39.585  26.062  27.207  1.00  0.00     0.010 A 
ATOM     40  C   UNL A   1      40.565  26.411  28.128  1.00  0.00    -0.014 A 
BRANCH  40  41
ATOM     41  C   UNL A   1      40.629  27.749  28.710  1.00  0.00     0.031 A 
ATOM     42  C   UNL A   1      41.693  28.623  28.143  1.00  0.00     0.074 A 
ATOM     43  C   UNL A   1      39.747  28.206  29.621  1.00  0.00     0.049 A 
ATOM     44  N   UNL A   1      42.761  29.058  28.727  1.00  0.00    -0.248 NA
ATOM     45  C   UNL A   1      41.631  28.929  26.707  1.00  0.00     0.031 C 
ATOM     46  C   UNL A   1      38.498  27.571  30.054  1.00  0.00     0.029 A 
ATOM     47  N   UNL A   1      39.734  29.397  30.288  1.00  0.00    -0.354 N 
ATOM     48  C   UNL A   1      43.411  29.865  27.791  1.00  0.00     0.074 A 
ATOM     49  C   UNL A   1      42.763  29.611  26.530  1.00  0.00     0.031 C 
ATOM     50  C   UNL A   1      37.744  28.475  30.721  1.00  0.00     0.029 A 
ATOM     51  C   UNL A   1      38.525  29.686  30.906  1.00  0.00     0.049 A 
ATOM     52  H   UNL A   1      40.514  29.996  30.329  1.00  0.00     0.167 HD
ATOM     53  C   UNL A   1      44.284  30.842  28.173  1.00  0.00     0.034 A 
ATOM     54  C   UNL A   1      38.170  30.853  31.494  1.00  0.00     0.034 A 
ATOM     55  C   UNL A   1      44.624  30.709  29.563  1.00  0.00     0.049 A 
ATOM     56  C   UNL A   1      39.400  31.597  31.832  1.00  0.00     0.074 A 
ATOM     57  C   UNL A   1      45.415  29.877  30.321  1.00  0.00     0.029 A 
ATOM     58  N   UNL A   1      43.790  31.378  30.419  1.00  0.00    -0.354 N 
ATOM     59  N   UNL A   1      40.238  31.230  32.758  1.00  0.00    -0.248 NA
ATOM     60  C   UNL A   1      39.897  32.601  30.900  1.00  0.00     0.031 C 
ATOM     61  C   UNL A   1      44.828  29.868  31.618  1.00  0.00     0.029 A 
ATOM     62  C   UNL A   1      43.723  30.724  31.619  1.00  0.00     0.049 A 
ATOM     63  H   UNL A   1      43.308  32.209  30.203  1.00  0.00     0.167 HD
ATOM     64  C   UNL A   1      41.473  31.589  32.254  1.00  0.00     0.074 A 
ATOM     65  C   UNL A   1      41.191  32.585  31.228  1.00  0.00     0.031 C 
ATOM     66  C   UNL A   1      42.574  30.823  32.500  1.00  0.00     0.034 A 
BRANCH  53  67
ATOM     67  C   UNL A   1      44.502  32.151  27.440  1.00  0.00     0.023 A 
ATOM     68  C   UNL A   1      43.791  33.326  27.738  1.00  0.00     0.031 A 
ATOM     69  C   UNL A   1      45.622  32.315  26.592  1.00  0.00     0.131 A 
ATOM     70  C   UNL A   1      44.182  34.574  27.230  1.00  0.00     0.055 A 
ATOM     71  C   UNL A   1      46.049  33.569  26.136  1.00  0.00     0.041 A 
ATOM     72  F   UNL A   1      46.377  31.265  26.230  1.00  0.00    -0.206 F 
ATOM     73  C   UNL A   1      45.329  34.711  26.459  1.00  0.00     0.022 A 
BRANCH  70  74
ATOM     74  S   UNL A   1      43.197  36.052  27.600  1.00  0.00     0.124 S 
ATOM     75  O   UNL A   1      41.948  35.766  26.893  1.00  0.00    -0.237 OA
ATOM     76  O   UNL A   1      43.121  35.995  29.060  1.00  0.00    -0.237 OA
ATOM     77  O   UNL A   1      43.996  37.141  27.064  1.00  0.00    -0.744 OA
ENDBRANCH  70  74
ENDBRANCH  53  67
BRANCH  54  78
ATOM     78  C   UNL A   1      36.858  31.532  31.431  1.00  0.00     0.023 A 
ATOM     79  C   UNL A   1      36.346  31.914  30.178  1.00  0.00     0.031 A 
ATOM     80  C   UNL A   1      36.285  32.114  32.576  1.00  0.00     0.131 A 
ATOM     81  C   UNL A   1      35.355  32.900  30.092  1.00  0.00     0.055 A 
ATOM     82  C   UNL A   1      35.276  33.079  32.487  1.00  0.00     0.041 A 
ATOM     83  F   UNL A   1      36.750  31.813  33.798  1.00  0.00    -0.206 F 
ATOM     84  C   UNL A   1      34.820  33.492  31.238  1.00  0.00     0.022 A 
BRANCH  81  85
ATOM     85  S   UNL A   1      34.817  33.519  28.475  1.00  0.00     0.124 S 
ATOM     86  O   UNL A   1      33.623  32.718  28.219  1.00  0.00    -0.237 OA
ATOM     87  O   UNL A   1      34.578  34.929  28.764  1.00  0.00    -0.237 OA
ATOM     88  O   UNL A   1      35.953  33.231  27.604  1.00  0.00    -0.744 OA
ENDBRANCH  81  85
ENDBRANCH  54  78
BRANCH  66  89
ATOM     89  C   UNL A   1      42.527  29.857  33.657  1.00  0.00     0.023 A 
ATOM     90  C   UNL A   1      43.064  30.309  34.874  1.00  0.00     0.031 A 
ATOM     91  C   UNL A   1      42.159  28.503  33.566  1.00  0.00     0.131 A 
ATOM     92  C   UNL A   1      43.273  29.417  35.929  1.00  0.00     0.055 A 
ATOM     93  C   UNL A   1      42.294  27.631  34.652  1.00  0.00     0.041 A 
ATOM     94  F   UNL A   1      41.736  27.965  32.415  1.00  0.00    -0.206 F 
ATOM     95  C   UNL A   1      42.872  28.082  35.835  1.00  0.00     0.022 A 
BRANCH  92  96
ATOM     96  S   UNL A   1      44.225  29.934  37.378  1.00  0.00     0.124 S 
ATOM     97  O   UNL A   1      44.499  28.662  38.039  1.00  0.00    -0.237 OA
ATOM     98  O   UNL A   1      45.383  30.587  36.768  1.00  0.00    -0.237 OA
ATOM     99  O   UNL A   1      43.321  30.830  38.093  1.00  0.00    -0.744 OA
ENDBRANCH  92  96
ENDBRANCH  66  89
ENDBRANCH  40  41
ENDBRANCH  32  35
ENDBRANCH  30  31
ENDBRANCH  29  30
ENDBRANCH   1  29
TORSDOF 17
ENDMDL
