MODEL 1
REMARK VINA RESULT:     -12.2      0.000      0.000
REMARK SMILES O=C(NCCCCNC(=O)[C@H]1C[C@H]2CCCC[C@@H]2[N@@H+]1CC[C@@H]1CCCO1)c1ccc(-c2c3nc(c(-c4cc(S(=O)(=O)[O-])ccc4F)c4ccc([nH]4)c(-c4cc(S(=O)(=O)[O-])ccc4F)c4nc(c(-c5cc(S(=O)(=O)[O-])ccc5F)c5ccc2[nH]5)C=C4)C=C3)cc1
REMARK SMILES IDX 5 1 4 2 3 3 1 4 2 5 27 7 28 8 89 9 29 10 88 11 30 12 31 13
REMARK SMILES IDX 32 14 82 15 33 16 87 17 81 18 83 19 34 20 86 21 80 22 79 23
REMARK SMILES IDX 35 25 67 26 47 27 66 28 48 29 51 30 65 31 84 32 49 33 50 34
REMARK SMILES IDX 64 36 85 37 52 38 36 39 37 40 45 41 38 42 44 43 46 44 43 45
REMARK SMILES IDX 39 46 40 47 41 48 42 49 68 50 69 51 77 52 70 53 76 54 78 55
REMARK SMILES IDX 75 56 71 57 72 58 73 59 74 60 53 61 54 62 62 63 55 64 61 65
REMARK SMILES IDX 63 66 60 67 56 68 57 69 58 70 59 71 6 72 7 73 8 74 9 75
REMARK SMILES IDX 10 77 11 78 12 79 19 80 13 81 18 82 14 84 17 85 15 86 16 87
REMARK SMILES IDX 20 88 21 89 22 90 23 91 26 92 24 93 25 94
REMARK H PARENT 3 6 83 24 51 35 8 76 19 83
REMARK Flexibility Score: inf
ROOT
ATOM      1  C   UNL A   1      35.791  21.399  25.346  1.00  0.00     0.023 C 
ENDROOT
BRANCH   1   2
ATOM      2  C   UNL A   1      37.255  21.683  25.091  1.00  0.00     0.116 C 
BRANCH   2   3
ATOM      3  N   UNL A   1      38.164  20.569  25.333  1.00  0.00    -0.352 N 
ATOM      4  O   UNL A   1      40.066  19.632  26.162  1.00  0.00    -0.269 OA
ATOM      5  C   UNL A   1      39.351  20.621  26.040  1.00  0.00     0.251 C 
ATOM      6  H   UNL A   1      37.907  19.696  24.959  1.00  0.00     0.163 HD
BRANCH   5   7
ATOM      7  C   UNL A   1      39.754  21.929  26.601  1.00  0.00     0.039 A 
ATOM      8  C   UNL A   1      39.255  23.097  26.023  1.00  0.00     0.014 A 
ATOM      9  C   UNL A   1      40.758  21.984  27.569  1.00  0.00     0.014 A 
ATOM     10  C   UNL A   1      39.905  24.298  26.257  1.00  0.00     0.010 A 
ATOM     11  C   UNL A   1      41.325  23.220  27.898  1.00  0.00     0.010 A 
ATOM     12  C   UNL A   1      40.933  24.380  27.212  1.00  0.00    -0.014 A 
BRANCH  12  13
ATOM     13  C   UNL A   1      41.521  25.710  27.515  1.00  0.00     0.031 A 
ATOM     14  C   UNL A   1      40.792  26.725  28.352  1.00  0.00     0.074 A 
ATOM     15  C   UNL A   1      42.759  25.970  27.049  1.00  0.00     0.049 A 
ATOM     16  N   UNL A   1      41.162  27.937  28.682  1.00  0.00    -0.248 NA
ATOM     17  C   UNL A   1      39.474  26.339  28.879  1.00  0.00     0.031 C 
ATOM     18  C   UNL A   1      43.557  25.049  26.232  1.00  0.00     0.029 A 
ATOM     19  N   UNL A   1      43.574  27.058  27.208  1.00  0.00    -0.354 N 
ATOM     20  C   UNL A   1      40.117  28.471  29.430  1.00  0.00     0.074 A 
ATOM     21  C   UNL A   1      39.087  27.452  29.488  1.00  0.00     0.031 C 
ATOM     22  C   UNL A   1      44.765  25.583  26.016  1.00  0.00     0.029 A 
ATOM     23  C   UNL A   1      44.795  26.922  26.588  1.00  0.00     0.049 A 
ATOM     24  H   UNL A   1      43.313  27.859  27.717  1.00  0.00     0.167 HD
ATOM     25  C   UNL A   1      40.031  29.696  30.006  1.00  0.00     0.034 A 
ATOM     26  C   UNL A   1      45.814  27.789  26.456  1.00  0.00     0.034 A 
ATOM     27  C   UNL A   1      41.081  30.689  29.942  1.00  0.00     0.049 A 
ATOM     28  C   UNL A   1      45.677  29.148  27.078  1.00  0.00     0.074 A 
ATOM     29  C   UNL A   1      41.110  31.953  30.508  1.00  0.00     0.029 A 
ATOM     30  N   UNL A   1      42.285  30.532  29.266  1.00  0.00    -0.354 N 
ATOM     31  N   UNL A   1      44.675  29.640  27.769  1.00  0.00    -0.248 NA
ATOM     32  C   UNL A   1      46.805  30.069  26.902  1.00  0.00     0.031 C 
ATOM     33  C   UNL A   1      42.301  32.580  30.122  1.00  0.00     0.029 A 
ATOM     34  C   UNL A   1      43.051  31.685  29.377  1.00  0.00     0.049 A 
ATOM     35  H   UNL A   1      42.557  29.720  28.779  1.00  0.00     0.167 HD
ATOM     36  C   UNL A   1      45.058  30.929  28.121  1.00  0.00     0.074 A 
ATOM     37  C   UNL A   1      46.392  31.125  27.588  1.00  0.00     0.031 C 
ATOM     38  C   UNL A   1      44.369  31.867  28.818  1.00  0.00     0.034 A 
BRANCH  25  39
ATOM     39  C   UNL A   1      38.742  30.055  30.710  1.00  0.00     0.023 A 
ATOM     40  C   UNL A   1      37.715  30.772  30.072  1.00  0.00     0.031 A 
ATOM     41  C   UNL A   1      38.539  29.671  32.049  1.00  0.00     0.131 A 
ATOM     42  C   UNL A   1      36.561  31.132  30.787  1.00  0.00     0.055 A 
ATOM     43  C   UNL A   1      37.359  29.970  32.733  1.00  0.00     0.041 A 
ATOM     44  F   UNL A   1      39.490  29.001  32.719  1.00  0.00    -0.206 F 
ATOM     45  C   UNL A   1      36.365  30.715  32.106  1.00  0.00     0.022 A 
BRANCH  42  46
ATOM     46  S   UNL A   1      35.370  32.258  30.008  1.00  0.00     0.124 S 
ATOM     47  O   UNL A   1      34.444  32.515  31.108  1.00  0.00    -0.237 OA
ATOM     48  O   UNL A   1      36.211  33.378  29.606  1.00  0.00    -0.237 OA
ATOM     49  O   UNL A   1      34.817  31.467  28.910  1.00  0.00    -0.744 OA
ENDBRANCH  42  46
ENDBRANCH  25  39
BRANCH  26  50
ATOM     50  C   UNL A   1      47.016  27.411  25.663  1.00  0.00     0.023 A 
ATOM     51  C   UNL A   1      47.142  27.783  24.317  1.00  0.00     0.031 A 
ATOM     52  C   UNL A   1      48.059  26.667  26.245  1.00  0.00     0.131 A 
ATOM     53  C   UNL A   1      48.270  27.382  23.587  1.00  0.00     0.055 A 
ATOM     54  C   UNL A   1      49.204  26.318  25.531  1.00  0.00     0.041 A 
ATOM     55  F   UNL A   1      47.990  26.292  27.533  1.00  0.00    -0.206 F 
ATOM     56  C   UNL A   1      49.309  26.666  24.188  1.00  0.00     0.022 A 
BRANCH  53  57
ATOM     57  S   UNL A   1      48.327  27.743  21.812  1.00  0.00     0.124 S 
ATOM     58  O   UNL A   1      47.021  28.354  21.591  1.00  0.00    -0.237 OA
ATOM     59  O   UNL A   1      49.477  28.636  21.723  1.00  0.00    -0.237 OA
ATOM     60  O   UNL A   1      48.513  26.428  21.203  1.00  0.00    -0.744 OA
ENDBRANCH  53  57
ENDBRANCH  26  50
BRANCH  38  61
ATOM     61  C   UNL A   1      45.080  33.174  29.062  1.00  0.00     0.023 A 
ATOM     62  C   UNL A   1      44.909  34.273  28.203  1.00  0.00     0.031 A 
ATOM     63  C   UNL A   1      45.968  33.304  30.143  1.00  0.00     0.131 A 
ATOM     64  C   UNL A   1      45.666  35.437  28.403  1.00  0.00     0.055 A 
ATOM     65  C   UNL A   1      46.675  34.485  30.370  1.00  0.00     0.041 A 
ATOM     66  F   UNL A   1      46.169  32.282  30.989  1.00  0.00    -0.206 F 
ATOM     67  C   UNL A   1      46.536  35.555  29.491  1.00  0.00     0.022 A 
BRANCH  64  68
ATOM     68  S   UNL A   1      45.569  36.760  27.167  1.00  0.00     0.124 S 
ATOM     69  O   UNL A   1      46.134  37.894  27.891  1.00  0.00    -0.237 OA
ATOM     70  O   UNL A   1      46.383  36.230  26.078  1.00  0.00    -0.237 OA
ATOM     71  O   UNL A   1      44.138  36.856  26.880  1.00  0.00    -0.744 OA
ENDBRANCH  64  68
ENDBRANCH  38  61
ENDBRANCH  12  13
ENDBRANCH   5   7
ENDBRANCH   2   3
ENDBRANCH   1   2
BRANCH   1  72
ATOM     72  C   UNL A   1      34.823  22.430  24.803  1.00  0.00     0.023 C 
BRANCH  72  73
ATOM     73  C   UNL A   1      33.323  22.135  24.932  1.00  0.00     0.116 C 
BRANCH  73  74
ATOM     74  N   UNL A   1      32.717  22.619  26.159  1.00  0.00    -0.351 N 
ATOM     75  C   UNL A   1      31.840  23.625  26.439  1.00  0.00     0.278 C 
ATOM     76  H   UNL A   1      32.997  22.115  26.956  1.00  0.00     0.163 HD
ATOM     77  O   UNL A   1      31.313  23.561  27.560  1.00  0.00    -0.268 OA
BRANCH  75  78
ATOM     78  C   UNL A   1      31.505  24.834  25.509  1.00  0.00     0.274 C 
ATOM     79  C   UNL A   1      30.610  25.950  26.024  1.00  0.00     0.085 C 
ATOM     80  N   UNL A   1      32.744  25.544  25.067  1.00  0.00    -0.322 N 
ATOM     81  C   UNL A   1      31.512  27.147  26.261  1.00  0.00     0.054 C 
ATOM     82  C   UNL A   1      32.919  26.620  26.042  1.00  0.00     0.188 C 
ATOM     83  H   UNL A   1      33.575  24.951  25.085  1.00  0.00     0.349 HD
ATOM     84  C   UNL A   1      31.437  27.996  27.517  1.00  0.00     0.010 C 
ATOM     85  C   UNL A   1      33.913  27.759  25.820  1.00  0.00     0.065 C 
ATOM     86  C   UNL A   1      32.372  29.200  27.312  1.00  0.00     0.001 C 
ATOM     87  C   UNL A   1      33.812  28.785  26.962  1.00  0.00     0.006 C 
BRANCH  80  88
ATOM     88  C   UNL A   1      32.813  25.856  23.626  1.00  0.00     0.265 C 
BRANCH  88  89
ATOM     89  C   UNL A   1      31.593  25.777  22.656  1.00  0.00     0.093 C 
BRANCH  89  90
ATOM     90  C   UNL A   1      30.898  27.102  22.349  1.00  0.00     0.123 C 
ATOM     91  C   UNL A   1      31.640  28.338  22.841  1.00  0.00     0.034 C 
ATOM     92  O   UNL A   1      29.615  27.277  22.978  1.00  0.00    -0.378 OA
ATOM     93  C   UNL A   1      30.613  29.412  22.576  1.00  0.00     0.031 C 
ATOM     94  C   UNL A   1      29.295  28.677  22.782  1.00  0.00     0.160 C 
ENDBRANCH  89  90
ENDBRANCH  88  89
ENDBRANCH  80  88
ENDBRANCH  75  78
ENDBRANCH  73  74
ENDBRANCH  72  73
ENDBRANCH   1  72
TORSDOF 17
ENDMDL
MODEL 2
REMARK VINA RESULT:     -12.0      0.681      7.548
REMARK SMILES O=C(NCCCCNC(=O)[C@H]1C[C@H]2CCCC[C@@H]2[N@@H+]1CC[C@@H]1CCCO1)c1ccc(-c2c3nc(c(-c4cc(S(=O)(=O)[O-])ccc4F)c4ccc([nH]4)c(-c4cc(S(=O)(=O)[O-])ccc4F)c4nc(c(-c5cc(S(=O)(=O)[O-])ccc5F)c5ccc2[nH]5)C=C4)C=C3)cc1
REMARK SMILES IDX 5 1 4 2 3 3 1 4 2 5 27 7 28 8 89 9 29 10 88 11 30 12 31 13
REMARK SMILES IDX 32 14 82 15 33 16 87 17 81 18 83 19 34 20 86 21 80 22 79 23
REMARK SMILES IDX 35 25 67 26 47 27 66 28 48 29 51 30 65 31 84 32 49 33 50 34
REMARK SMILES IDX 64 36 85 37 52 38 36 39 37 40 45 41 38 42 44 43 46 44 43 45
REMARK SMILES IDX 39 46 40 47 41 48 42 49 68 50 69 51 77 52 70 53 76 54 78 55
REMARK SMILES IDX 75 56 71 57 72 58 73 59 74 60 53 61 54 62 62 63 55 64 61 65
REMARK SMILES IDX 63 66 60 67 56 68 57 69 58 70 59 71 6 72 7 73 8 74 9 75
REMARK SMILES IDX 10 77 11 78 12 79 19 80 13 81 18 82 14 84 17 85 15 86 16 87
REMARK SMILES IDX 20 88 21 89 22 90 23 91 26 92 24 93 25 94
REMARK H PARENT 3 6 83 24 51 35 8 76 19 83
REMARK Flexibility Score: inf
ROOT
ATOM      1  C   UNL A   1      36.004  22.503  24.017  1.00  0.00     0.023 C 
ENDROOT
BRANCH   1   2
ATOM      2  C   UNL A   1      36.645  22.215  25.357  1.00  0.00     0.116 C 
BRANCH   2   3
ATOM      3  N   UNL A   1      37.577  21.093  25.381  1.00  0.00    -0.352 N 
ATOM      4  O   UNL A   1      39.578  20.115  25.848  1.00  0.00    -0.269 OA
ATOM      5  C   UNL A   1      38.856  21.105  25.905  1.00  0.00     0.251 C 
ATOM      6  H   UNL A   1      37.265  20.247  24.988  1.00  0.00     0.163 HD
BRANCH   5   7
ATOM      7  C   UNL A   1      39.342  22.372  26.491  1.00  0.00     0.039 A 
ATOM      8  C   UNL A   1      38.877  23.581  25.972  1.00  0.00     0.014 A 
ATOM      9  C   UNL A   1      40.385  22.348  27.419  1.00  0.00     0.014 A 
ATOM     10  C   UNL A   1      39.592  24.742  26.218  1.00  0.00     0.010 A 
ATOM     11  C   UNL A   1      41.022  23.544  27.764  1.00  0.00     0.010 A 
ATOM     12  C   UNL A   1      40.659  24.744  27.132  1.00  0.00    -0.014 A 
BRANCH  12  13
ATOM     13  C   UNL A   1      41.321  26.035  27.454  1.00  0.00     0.031 A 
ATOM     14  C   UNL A   1      42.679  26.385  26.910  1.00  0.00     0.074 A 
ATOM     15  C   UNL A   1      40.644  26.913  28.221  1.00  0.00     0.049 A 
ATOM     16  N   UNL A   1      43.397  27.459  27.120  1.00  0.00    -0.248 NA
ATOM     17  C   UNL A   1      43.321  25.401  26.025  1.00  0.00     0.031 C 
ATOM     18  C   UNL A   1      39.315  26.675  28.795  1.00  0.00     0.029 A 
ATOM     19  N   UNL A   1      40.957  28.181  28.633  1.00  0.00    -0.354 N 
ATOM     20  C   UNL A   1      44.585  27.273  26.420  1.00  0.00     0.074 A 
ATOM     21  C   UNL A   1      44.497  25.970  25.793  1.00  0.00     0.031 C 
ATOM     22  C   UNL A   1      38.902  27.778  29.428  1.00  0.00     0.029 A 
ATOM     23  C   UNL A   1      39.972  28.766  29.395  1.00  0.00     0.049 A 
ATOM     24  H   UNL A   1      41.802  28.630  28.405  1.00  0.00     0.167 HD
ATOM     25  C   UNL A   1      45.646  28.114  26.319  1.00  0.00     0.034 A 
ATOM     26  C   UNL A   1      39.943  29.950  30.033  1.00  0.00     0.034 A 
ATOM     27  C   UNL A   1      45.701  29.415  26.947  1.00  0.00     0.049 A 
ATOM     28  C   UNL A   1      41.143  30.845  29.928  1.00  0.00     0.074 A 
ATOM     29  C   UNL A   1      46.714  30.358  26.893  1.00  0.00     0.029 A 
ATOM     30  N   UNL A   1      44.703  29.956  27.749  1.00  0.00    -0.354 N 
ATOM     31  N   UNL A   1      42.264  30.645  29.274  1.00  0.00    -0.248 NA
ATOM     32  C   UNL A   1      41.077  32.120  30.648  1.00  0.00     0.031 C 
ATOM     33  C   UNL A   1      46.356  31.437  27.710  1.00  0.00     0.029 A 
ATOM     34  C   UNL A   1      45.088  31.205  28.218  1.00  0.00     0.049 A 
ATOM     35  H   UNL A   1      43.846  29.517  27.955  1.00  0.00     0.167 HD
ATOM     36  C   UNL A   1      43.035  31.780  29.495  1.00  0.00     0.074 A 
ATOM     37  C   UNL A   1      42.239  32.667  30.320  1.00  0.00     0.031 C 
ATOM     38  C   UNL A   1      44.288  32.063  29.058  1.00  0.00     0.034 A 
BRANCH  25  39
ATOM     39  C   UNL A   1      46.854  27.634  25.547  1.00  0.00     0.023 A 
ATOM     40  C   UNL A   1      47.079  27.998  24.208  1.00  0.00     0.031 A 
ATOM     41  C   UNL A   1      47.797  26.792  26.165  1.00  0.00     0.131 A 
ATOM     42  C   UNL A   1      48.185  27.479  23.516  1.00  0.00     0.055 A 
ATOM     43  C   UNL A   1      48.933  26.336  25.493  1.00  0.00     0.041 A 
ATOM     44  F   UNL A   1      47.627  26.393  27.435  1.00  0.00    -0.206 F 
ATOM     45  C   UNL A   1      49.127  26.669  24.156  1.00  0.00     0.022 A 
BRANCH  42  46
ATOM     46  S   UNL A   1      48.314  27.776  21.730  1.00  0.00     0.124 S 
ATOM     47  O   UNL A   1      46.988  28.306  21.423  1.00  0.00    -0.237 OA
ATOM     48  O   UNL A   1      49.416  28.727  21.648  1.00  0.00    -0.237 OA
ATOM     49  O   UNL A   1      48.591  26.452  21.180  1.00  0.00    -0.744 OA
ENDBRANCH  42  46
ENDBRANCH  25  39
BRANCH  26  50
ATOM     50  C   UNL A   1      38.763  30.320  30.862  1.00  0.00     0.023 A 
ATOM     51  C   UNL A   1      37.695  31.046  30.318  1.00  0.00     0.031 A 
ATOM     52  C   UNL A   1      38.691  29.951  32.218  1.00  0.00     0.131 A 
ATOM     53  C   UNL A   1      36.614  31.411  31.134  1.00  0.00     0.055 A 
ATOM     54  C   UNL A   1      37.588  30.267  33.011  1.00  0.00     0.041 A 
ATOM     55  F   UNL A   1      39.685  29.248  32.786  1.00  0.00    -0.206 F 
ATOM     56  C   UNL A   1      36.546  31.013  32.472  1.00  0.00     0.022 A 
BRANCH  53  57
ATOM     57  S   UNL A   1      35.327  32.482  30.440  1.00  0.00     0.124 S 
ATOM     58  O   UNL A   1      34.966  31.764  29.223  1.00  0.00    -0.237 OA
ATOM     59  O   UNL A   1      34.330  32.485  31.505  1.00  0.00    -0.237 OA
ATOM     60  O   UNL A   1      36.019  33.753  30.234  1.00  0.00    -0.744 OA
ENDBRANCH  53  57
ENDBRANCH  26  50
BRANCH  38  61
ATOM     61  C   UNL A   1      44.844  33.408  29.451  1.00  0.00     0.023 A 
ATOM     62  C   UNL A   1      44.656  34.544  28.645  1.00  0.00     0.031 A 
ATOM     63  C   UNL A   1      45.605  33.542  30.625  1.00  0.00     0.131 A 
ATOM     64  C   UNL A   1      45.276  35.753  28.991  1.00  0.00     0.055 A 
ATOM     65  C   UNL A   1      46.171  34.763  30.994  1.00  0.00     0.041 A 
ATOM     66  F   UNL A   1      45.817  32.487  31.427  1.00  0.00    -0.206 F 
ATOM     67  C   UNL A   1      46.019  35.874  30.168  1.00  0.00     0.022 A 
BRANCH  64  68
ATOM     68  S   UNL A   1      45.178  37.143  27.830  1.00  0.00     0.124 S 
ATOM     69  O   UNL A   1      43.754  37.461  27.858  1.00  0.00    -0.237 OA
ATOM     70  O   UNL A   1      46.063  38.126  28.443  1.00  0.00    -0.237 OA
ATOM     71  O   UNL A   1      45.661  36.573  26.573  1.00  0.00    -0.744 OA
ENDBRANCH  64  68
ENDBRANCH  38  61
ENDBRANCH  12  13
ENDBRANCH   5   7
ENDBRANCH   2   3
ENDBRANCH   1   2
BRANCH   1  72
ATOM     72  C   UNL A   1      34.956  23.596  24.018  1.00  0.00     0.023 C 
BRANCH  72  73
ATOM     73  C   UNL A   1      33.491  23.177  24.200  1.00  0.00     0.116 C 
BRANCH  73  74
ATOM     74  N   UNL A   1      32.976  23.355  25.546  1.00  0.00    -0.351 N 
ATOM     75  C   UNL A   1      31.982  24.122  26.078  1.00  0.00     0.278 C 
ATOM     76  H   UNL A   1      33.443  22.806  26.217  1.00  0.00     0.163 HD
ATOM     77  O   UNL A   1      31.627  23.799  27.221  1.00  0.00    -0.268 OA
BRANCH  75  78
ATOM     78  C   UNL A   1      31.321  25.363  25.399  1.00  0.00     0.274 C 
ATOM     79  C   UNL A   1      30.596  26.389  26.256  1.00  0.00     0.085 C 
ATOM     80  N   UNL A   1      32.325  26.173  24.643  1.00  0.00    -0.322 N 
ATOM     81  C   UNL A   1      31.480  27.622  26.287  1.00  0.00     0.054 C 
ATOM     82  C   UNL A   1      32.762  27.196  25.593  1.00  0.00     0.188 C 
ATOM     83  H   UNL A   1      33.139  25.631  24.351  1.00  0.00     0.349 HD
ATOM     84  C   UNL A   1      31.780  28.386  27.564  1.00  0.00     0.010 C 
ATOM     85  C   UNL A   1      33.587  28.405  25.156  1.00  0.00     0.065 C 
ATOM     86  C   UNL A   1      32.553  29.654  27.168  1.00  0.00     0.001 C 
ATOM     87  C   UNL A   1      33.819  29.350  26.348  1.00  0.00     0.006 C 
BRANCH  80  88
ATOM     88  C   UNL A   1      31.915  26.577  23.283  1.00  0.00     0.265 C 
BRANCH  88  89
ATOM     89  C   UNL A   1      31.908  28.053  22.776  1.00  0.00     0.093 C 
BRANCH  89  90
ATOM     90  C   UNL A   1      30.573  28.787  22.879  1.00  0.00     0.123 C 
ATOM     91  C   UNL A   1      29.372  27.888  23.146  1.00  0.00     0.034 C 
ATOM     92  O   UNL A   1      30.155  29.462  21.678  1.00  0.00    -0.378 OA
ATOM     93  C   UNL A   1      28.238  28.869  22.977  1.00  0.00     0.031 C 
ATOM     94  C   UNL A   1      28.774  29.826  21.920  1.00  0.00     0.160 C 
ENDBRANCH  89  90
ENDBRANCH  88  89
ENDBRANCH  80  88
ENDBRANCH  75  78
ENDBRANCH  73  74
ENDBRANCH  72  73
ENDBRANCH   1  72
TORSDOF 17
ENDMDL
MODEL 3
REMARK VINA RESULT:     -12.0      1.207      2.421
REMARK SMILES O=C(NCCCCNC(=O)[C@H]1C[C@H]2CCCC[C@@H]2[N@@H+]1CC[C@@H]1CCCO1)c1ccc(-c2c3nc(c(-c4cc(S(=O)(=O)[O-])ccc4F)c4ccc([nH]4)c(-c4cc(S(=O)(=O)[O-])ccc4F)c4nc(c(-c5cc(S(=O)(=O)[O-])ccc5F)c5ccc2[nH]5)C=C4)C=C3)cc1
REMARK SMILES IDX 5 1 4 2 3 3 1 4 2 5 27 7 28 8 89 9 29 10 88 11 30 12 31 13
REMARK SMILES IDX 32 14 82 15 33 16 87 17 81 18 83 19 34 20 86 21 80 22 79 23
REMARK SMILES IDX 35 25 67 26 47 27 66 28 48 29 51 30 65 31 84 32 49 33 50 34
REMARK SMILES IDX 64 36 85 37 52 38 36 39 37 40 45 41 38 42 44 43 46 44 43 45
REMARK SMILES IDX 39 46 40 47 41 48 42 49 68 50 69 51 77 52 70 53 76 54 78 55
REMARK SMILES IDX 75 56 71 57 72 58 73 59 74 60 53 61 54 62 62 63 55 64 61 65
REMARK SMILES IDX 63 66 60 67 56 68 57 69 58 70 59 71 6 72 7 73 8 74 9 75
REMARK SMILES IDX 10 77 11 78 12 79 19 80 13 81 18 82 14 84 17 85 15 86 16 87
REMARK SMILES IDX 20 88 21 89 22 90 23 91 26 92 24 93 25 94
REMARK H PARENT 3 6 83 24 51 35 8 76 19 83
REMARK Flexibility Score: inf
ROOT
ATOM      1  C   UNL A   1      34.663  22.095  24.870  1.00  0.00     0.023 C 
ENDROOT
BRANCH   1   2
ATOM      2  C   UNL A   1      35.993  22.222  25.581  1.00  0.00     0.116 C 
BRANCH   2   3
ATOM      3  N   UNL A   1      36.944  21.144  25.334  1.00  0.00    -0.352 N 
ATOM      4  O   UNL A   1      39.021  20.212  25.355  1.00  0.00    -0.269 OA
ATOM      5  C   UNL A   1      38.294  21.161  25.633  1.00  0.00     0.251 C 
ATOM      6  H   UNL A   1      36.591  20.326  24.916  1.00  0.00     0.163 HD
BRANCH   5   7
ATOM      7  C   UNL A   1      38.840  22.387  26.253  1.00  0.00     0.039 A 
ATOM      8  C   UNL A   1      38.386  23.630  25.812  1.00  0.00     0.014 A 
ATOM      9  C   UNL A   1      39.922  22.293  27.131  1.00  0.00     0.014 A 
ATOM     10  C   UNL A   1      39.143  24.760  26.077  1.00  0.00     0.010 A 
ATOM     11  C   UNL A   1      40.606  23.454  27.500  1.00  0.00     0.010 A 
ATOM     12  C   UNL A   1      40.249  24.692  26.941  1.00  0.00    -0.014 A 
BRANCH  12  13
ATOM     13  C   UNL A   1      40.960  25.948  27.291  1.00  0.00     0.031 A 
ATOM     14  C   UNL A   1      40.325  27.002  28.156  1.00  0.00     0.074 A 
ATOM     15  C   UNL A   1      42.222  26.101  26.842  1.00  0.00     0.049 A 
ATOM     16  N   UNL A   1      40.807  28.161  28.528  1.00  0.00    -0.248 NA
ATOM     17  C   UNL A   1      38.971  26.729  28.662  1.00  0.00     0.031 C 
ATOM     18  C   UNL A   1      42.935  25.134  26.000  1.00  0.00     0.029 A 
ATOM     19  N   UNL A   1      43.137  27.100  27.041  1.00  0.00    -0.354 N 
ATOM     20  C   UNL A   1      39.811  28.769  29.286  1.00  0.00     0.074 A 
ATOM     21  C   UNL A   1      38.688  27.854  29.305  1.00  0.00     0.031 C 
ATOM     22  C   UNL A   1      44.190  25.555  25.809  1.00  0.00     0.029 A 
ATOM     23  C   UNL A   1      44.344  26.866  26.424  1.00  0.00     0.049 A 
ATOM     24  H   UNL A   1      42.949  27.906  27.574  1.00  0.00     0.167 HD
ATOM     25  C   UNL A   1      39.839  29.978  29.901  1.00  0.00     0.034 A 
ATOM     26  C   UNL A   1      45.444  27.634  26.327  1.00  0.00     0.034 A 
ATOM     27  C   UNL A   1      40.980  30.867  29.876  1.00  0.00     0.049 A 
ATOM     28  C   UNL A   1      45.433  28.980  26.993  1.00  0.00     0.074 A 
ATOM     29  C   UNL A   1      41.126  32.103  30.483  1.00  0.00     0.029 A 
ATOM     30  N   UNL A   1      42.170  30.616  29.203  1.00  0.00    -0.354 N 
ATOM     31  N   UNL A   1      44.477  29.544  27.693  1.00  0.00    -0.248 NA
ATOM     32  C   UNL A   1      46.646  29.792  26.853  1.00  0.00     0.031 C 
ATOM     33  C   UNL A   1      42.375  32.624  30.125  1.00  0.00     0.029 A 
ATOM     34  C   UNL A   1      43.042  31.685  29.356  1.00  0.00     0.049 A 
ATOM     35  H   UNL A   1      42.366  29.797  28.692  1.00  0.00     0.167 HD
ATOM     36  C   UNL A   1      44.979  30.778  28.088  1.00  0.00     0.074 A 
ATOM     37  C   UNL A   1      46.330  30.860  27.570  1.00  0.00     0.031 C 
ATOM     38  C   UNL A   1      44.377  31.756  28.812  1.00  0.00     0.034 A 
BRANCH  25  39
ATOM     39  C   UNL A   1      38.583  30.438  30.609  1.00  0.00     0.023 A 
ATOM     40  C   UNL A   1      37.664  31.314  30.007  1.00  0.00     0.031 A 
ATOM     41  C   UNL A   1      38.305  29.989  31.913  1.00  0.00     0.131 A 
ATOM     42  C   UNL A   1      36.543  31.757  30.727  1.00  0.00     0.055 A 
ATOM     43  C   UNL A   1      37.152  30.378  32.598  1.00  0.00     0.041 A 
ATOM     44  F   UNL A   1      39.155  29.167  32.549  1.00  0.00    -0.206 F 
ATOM     45  C   UNL A   1      36.267  31.277  32.010  1.00  0.00     0.022 A 
BRANCH  42  46
ATOM     46  S   UNL A   1      35.510  33.067  30.012  1.00  0.00     0.124 S 
ATOM     47  O   UNL A   1      34.403  32.297  29.450  1.00  0.00    -0.237 OA
ATOM     48  O   UNL A   1      35.192  33.888  31.174  1.00  0.00    -0.237 OA
ATOM     49  O   UNL A   1      36.386  33.696  29.026  1.00  0.00    -0.744 OA
ENDBRANCH  42  46
ENDBRANCH  25  39
BRANCH  26  50
ATOM     50  C   UNL A   1      46.611  27.167  25.530  1.00  0.00     0.023 A 
ATOM     51  C   UNL A   1      46.878  27.696  24.260  1.00  0.00     0.031 A 
ATOM     52  C   UNL A   1      47.477  26.178  26.032  1.00  0.00     0.131 A 
ATOM     53  C   UNL A   1      47.965  27.209  23.518  1.00  0.00     0.055 A 
ATOM     54  C   UNL A   1      48.589  25.739  25.314  1.00  0.00     0.041 A 
ATOM     55  F   UNL A   1      47.270  25.645  27.247  1.00  0.00    -0.206 F 
ATOM     56  C   UNL A   1      48.831  26.246  24.043  1.00  0.00     0.022 A 
BRANCH  53  57
ATOM     57  S   UNL A   1      48.188  27.800  21.819  1.00  0.00     0.124 S 
ATOM     58  O   UNL A   1      48.279  26.547  21.078  1.00  0.00    -0.237 OA
ATOM     59  O   UNL A   1      46.976  28.584  21.611  1.00  0.00    -0.237 OA
ATOM     60  O   UNL A   1      49.425  28.576  21.889  1.00  0.00    -0.744 OA
ENDBRANCH  53  57
ENDBRANCH  26  50
BRANCH  38  61
ATOM     61  C   UNL A   1      45.208  32.979  29.102  1.00  0.00     0.023 A 
ATOM     62  C   UNL A   1      45.226  34.079  28.227  1.00  0.00     0.031 A 
ATOM     63  C   UNL A   1      46.022  33.025  30.247  1.00  0.00     0.131 A 
ATOM     64  C   UNL A   1      46.090  35.155  28.479  1.00  0.00     0.055 A 
ATOM     65  C   UNL A   1      46.836  34.124  30.522  1.00  0.00     0.041 A 
ATOM     66  F   UNL A   1      46.044  31.999  31.112  1.00  0.00    -0.206 F 
ATOM     67  C   UNL A   1      46.884  35.190  29.628  1.00  0.00     0.022 A 
BRANCH  64  68
ATOM     68  S   UNL A   1      46.235  36.463  27.231  1.00  0.00     0.124 S 
ATOM     69  O   UNL A   1      46.050  35.720  25.990  1.00  0.00    -0.237 OA
ATOM     70  O   UNL A   1      45.153  37.368  27.600  1.00  0.00    -0.237 OA
ATOM     71  O   UNL A   1      47.583  36.990  27.444  1.00  0.00    -0.744 OA
ENDBRANCH  64  68
ENDBRANCH  38  61
ENDBRANCH  12  13
ENDBRANCH   5   7
ENDBRANCH   2   3
ENDBRANCH   1   2
BRANCH   1  72
ATOM     72  C   UNL A   1      34.547  22.857  23.566  1.00  0.00     0.023 C 
BRANCH  72  73
ATOM     73  C   UNL A   1      33.161  22.946  22.916  1.00  0.00     0.116 C 
BRANCH  73  74
ATOM     74  N   UNL A   1      33.055  23.929  21.852  1.00  0.00    -0.351 N 
ATOM     75  C   UNL A   1      33.113  25.291  21.823  1.00  0.00     0.278 C 
ATOM     76  H   UNL A   1      32.913  23.528  20.964  1.00  0.00     0.163 HD
ATOM     77  O   UNL A   1      33.278  25.783  20.696  1.00  0.00    -0.268 OA
BRANCH  75  78
ATOM     78  C   UNL A   1      32.937  26.241  23.049  1.00  0.00     0.274 C 
ATOM     79  C   UNL A   1      32.869  27.744  22.829  1.00  0.00     0.085 C 
ATOM     80  N   UNL A   1      31.685  25.933  23.806  1.00  0.00    -0.322 N 
ATOM     81  C   UNL A   1      31.425  28.146  23.065  1.00  0.00     0.054 C 
ATOM     82  C   UNL A   1      30.682  26.833  23.239  1.00  0.00     0.188 C 
ATOM     83  H   UNL A   1      31.367  24.972  23.680  1.00  0.00     0.349 HD
ATOM     84  C   UNL A   1      30.671  29.082  22.137  1.00  0.00     0.010 C 
ATOM     85  C   UNL A   1      29.321  27.047  23.899  1.00  0.00     0.065 C 
ATOM     86  C   UNL A   1      29.314  29.384  22.796  1.00  0.00     0.001 C 
ATOM     87  C   UNL A   1      28.517  28.111  23.132  1.00  0.00     0.006 C 
BRANCH  80  88
ATOM     88  C   UNL A   1      31.837  25.853  25.272  1.00  0.00     0.265 C 
BRANCH  88  89
ATOM     89  C   UNL A   1      33.137  26.252  26.039  1.00  0.00     0.093 C 
BRANCH  89  90
ATOM     90  C   UNL A   1      33.131  27.635  26.686  1.00  0.00     0.123 C 
ATOM     91  C   UNL A   1      31.774  28.328  26.693  1.00  0.00     0.034 C 
ATOM     92  O   UNL A   1      33.945  28.620  26.025  1.00  0.00    -0.378 OA
ATOM     93  C   UNL A   1      32.158  29.701  27.188  1.00  0.00     0.031 C 
ATOM     94  C   UNL A   1      33.564  29.881  26.629  1.00  0.00     0.160 C 
ENDBRANCH  89  90
ENDBRANCH  88  89
ENDBRANCH  80  88
ENDBRANCH  75  78
ENDBRANCH  73  74
ENDBRANCH  72  73
ENDBRANCH   1  72
TORSDOF 17
ENDMDL
