MODEL 1
REMARK VINA RESULT:     -13.4      0.000      0.000
REMARK SMILES COc1cccc([C@@H]2[NH2+][C@@](C)(C(=O)NCCCCNC(=O)c3ccc(-c4c5nc(c(-c6cc(S(=O)(=O)[O-])ccc6F)c6ccc([nH]6)c(-c6cc(S(=O)(=O)[O-])ccc6F)c6nc(c(-c7cc(S(=O)(=O)[O-])ccc7F)c7ccc4[nH]7)C=C6)C=C5)cc3)[C@@H]3C(=O)N(C)C(=O)[C@@H]32)c1O
REMARK SMILES IDX 17 1 16 2 15 3 14 4 12 5 13 6 10 8 8 9 9 10 92 11 85 14
REMARK SMILES IDX 90 15 11 16 86 17 88 18 91 19 87 20 89 21 7 22 3 23 4 24
REMARK SMILES IDX 93 25 5 26 6 27 2 28 1 29 94 30 18 32 19 33 20 34 21 36
REMARK SMILES IDX 22 37 23 38 84 39 24 40 83 41 25 42 26 43 27 44 77 45 28 46
REMARK SMILES IDX 82 47 76 48 78 49 29 50 81 51 75 52 74 53 30 55 62 56 42 57
REMARK SMILES IDX 61 58 43 59 46 60 60 61 79 62 44 63 45 64 59 66 80 67 47 68
REMARK SMILES IDX 31 69 32 70 40 71 33 72 39 73 41 74 38 75 34 76 35 77 36 78
REMARK SMILES IDX 37 79 63 80 64 81 72 82 65 83 71 84 73 85 70 86 66 87 67 88
REMARK SMILES IDX 68 89 69 90 48 91 49 92 57 93 50 94 56 95 58 96 55 97 51 98
REMARK SMILES IDX 52 99 53 100 54 101
REMARK H PARENT 14 7 9 12 9 13 94 31 19 35 78 54 46 65
REMARK Flexibility Score: inf
ROOT
ATOM      1  C   UNL A   1      35.765  21.362  25.267  1.00  0.00     0.023 C 
ENDROOT
BRANCH   1   2
ATOM      2  C   UNL A   1      34.927  22.518  25.812  1.00  0.00     0.023 C 
BRANCH   2   3
ATOM      3  C   UNL A   1      35.127  23.844  25.083  1.00  0.00     0.116 C 
BRANCH   3   4
ATOM      4  N   UNL A   1      34.836  23.737  23.663  1.00  0.00    -0.351 N 
ATOM      5  C   UNL A   1      33.694  24.038  22.976  1.00  0.00     0.281 C 
ATOM      6  O   UNL A   1      33.683  23.794  21.766  1.00  0.00    -0.268 OA
ATOM      7  H   UNL A   1      35.575  23.394  23.112  1.00  0.00     0.163 HD
BRANCH   5   8
ATOM      8  C   UNL A   1      32.472  24.698  23.692  1.00  0.00     0.185 C 
ATOM      9  C   UNL A   1      31.974  26.850  22.711  1.00  0.00     0.232 C 
ATOM     10  N   UNL A   1      31.667  25.405  22.661  1.00  0.00    -0.326 N 
ATOM     11  C   UNL A   1      33.042  27.048  23.796  1.00  0.00     0.161 C 
ATOM     12  H   UNL A   1      31.899  25.039  21.737  1.00  0.00     0.347 HD
ATOM     13  H   UNL A   1      30.674  25.259  22.840  1.00  0.00     0.347 HD
ATOM     14  C   UNL A   1      32.977  25.787  24.644  1.00  0.00     0.169 C 
ATOM     15  C   UNL A   1      32.778  28.145  24.791  1.00  0.00     0.239 C 
ATOM     16  C   UNL A   1      31.695  23.585  24.411  1.00  0.00     0.091 C 
ATOM     17  C   UNL A   1      32.120  26.223  25.808  1.00  0.00     0.240 C 
ATOM     18  N   UNL A   1      32.199  27.585  25.897  1.00  0.00    -0.285 N 
ATOM     19  O   UNL A   1      32.997  29.331  24.610  1.00  0.00    -0.274 OA
ATOM     20  O   UNL A   1      31.479  25.504  26.561  1.00  0.00    -0.274 OA
ATOM     21  C   UNL A   1      31.648  28.365  26.978  1.00  0.00     0.156 C 
BRANCH   9  22
ATOM     22  C   UNL A   1      30.719  27.714  22.834  1.00  0.00     0.056 A 
ATOM     23  C   UNL A   1      29.391  29.701  22.277  1.00  0.00     0.161 A 
ATOM     24  C   UNL A   1      28.289  29.118  22.908  1.00  0.00     0.050 A 
ATOM     25  C   UNL A   1      30.611  29.017  22.295  1.00  0.00     0.166 A 
ATOM     26  C   UNL A   1      28.386  27.862  23.506  1.00  0.00     0.005 A 
ATOM     27  C   UNL A   1      29.587  27.157  23.451  1.00  0.00     0.014 A 
BRANCH  23  28
ATOM     28  O   UNL A   1      29.142  30.948  21.771  1.00  0.00    -0.493 OA
ATOM     29  C   UNL A   1      28.040  31.087  20.886  1.00  0.00     0.278 C 
ENDBRANCH  23  28
BRANCH  25  30
ATOM     30  O   UNL A   1      31.776  29.611  21.895  1.00  0.00    -0.504 OA
ATOM     31  H   UNL A   1      32.090  30.372  22.340  1.00  0.00     0.293 HD
ENDBRANCH  25  30
ENDBRANCH   9  22
ENDBRANCH   5   8
ENDBRANCH   3   4
ENDBRANCH   2   3
ENDBRANCH   1   2
BRANCH   1  32
ATOM     32  C   UNL A   1      37.223  21.700  24.977  1.00  0.00     0.116 C 
BRANCH  32  33
ATOM     33  N   UNL A   1      38.143  20.670  25.437  1.00  0.00    -0.352 N 
ATOM     34  C   UNL A   1      39.343  20.811  26.092  1.00  0.00     0.251 C 
ATOM     35  H   UNL A   1      37.867  19.744  25.253  1.00  0.00     0.163 HD
ATOM     36  O   UNL A   1      40.064  19.832  26.261  1.00  0.00    -0.269 OA
BRANCH  34  37
ATOM     37  C   UNL A   1      39.772  22.148  26.557  1.00  0.00     0.039 A 
ATOM     38  C   UNL A   1      40.849  22.243  27.440  1.00  0.00     0.014 A 
ATOM     39  C   UNL A   1      39.135  23.304  26.098  1.00  0.00     0.014 A 
ATOM     40  C   UNL A   1      41.335  23.501  27.805  1.00  0.00     0.010 A 
ATOM     41  C   UNL A   1      39.674  24.554  26.392  1.00  0.00     0.010 A 
ATOM     42  C   UNL A   1      40.779  24.667  27.250  1.00  0.00    -0.014 A 
BRANCH  42  43
ATOM     43  C   UNL A   1      41.346  26.009  27.552  1.00  0.00     0.031 A 
ATOM     44  C   UNL A   1      42.716  26.382  27.055  1.00  0.00     0.074 A 
ATOM     45  C   UNL A   1      40.650  26.869  28.323  1.00  0.00     0.049 A 
ATOM     46  N   UNL A   1      43.400  27.480  27.252  1.00  0.00    -0.248 NA
ATOM     47  C   UNL A   1      43.424  25.372  26.253  1.00  0.00     0.031 C 
ATOM     48  C   UNL A   1      39.328  26.609  28.897  1.00  0.00     0.029 A 
ATOM     49  N   UNL A   1      40.955  28.135  28.759  1.00  0.00    -0.354 N 
ATOM     50  C   UNL A   1      44.621  27.288  26.617  1.00  0.00     0.074 A 
ATOM     51  C   UNL A   1      44.606  25.943  26.083  1.00  0.00     0.031 C 
ATOM     52  C   UNL A   1      38.918  27.696  29.570  1.00  0.00     0.029 A 
ATOM     53  C   UNL A   1      39.968  28.709  29.526  1.00  0.00     0.049 A 
ATOM     54  H   UNL A   1      41.801  28.589  28.543  1.00  0.00     0.167 HD
ATOM     55  C   UNL A   1      45.650  28.160  26.472  1.00  0.00     0.034 A 
ATOM     56  C   UNL A   1      39.915  29.914  30.130  1.00  0.00     0.034 A 
ATOM     57  C   UNL A   1      45.642  29.502  27.004  1.00  0.00     0.049 A 
ATOM     58  C   UNL A   1      41.091  30.850  29.991  1.00  0.00     0.074 A 
ATOM     59  C   UNL A   1      46.600  30.492  26.857  1.00  0.00     0.029 A 
ATOM     60  N   UNL A   1      44.638  30.040  27.799  1.00  0.00    -0.354 N 
ATOM     61  N   UNL A   1      42.212  30.678  29.331  1.00  0.00    -0.248 NA
ATOM     62  C   UNL A   1      40.986  32.145  30.675  1.00  0.00     0.031 C 
ATOM     63  C   UNL A   1      46.218  31.591  27.634  1.00  0.00     0.029 A 
ATOM     64  C   UNL A   1      44.975  31.328  28.188  1.00  0.00     0.049 A 
ATOM     65  H   UNL A   1      43.807  29.575  28.049  1.00  0.00     0.167 HD
ATOM     66  C   UNL A   1      42.930  31.861  29.488  1.00  0.00     0.074 A 
ATOM     67  C   UNL A   1      42.107  32.740  30.294  1.00  0.00     0.031 C 
ATOM     68  C   UNL A   1      44.154  32.193  29.005  1.00  0.00     0.034 A 
BRANCH  55  69
ATOM     69  C   UNL A   1      46.882  27.670  25.743  1.00  0.00     0.023 A 
ATOM     70  C   UNL A   1      47.158  28.043  24.416  1.00  0.00     0.031 A 
ATOM     71  C   UNL A   1      47.778  26.789  26.376  1.00  0.00     0.131 A 
ATOM     72  C   UNL A   1      48.245  27.470  23.738  1.00  0.00     0.055 A 
ATOM     73  C   UNL A   1      48.911  26.296  25.725  1.00  0.00     0.041 A 
ATOM     74  F   UNL A   1      47.559  26.377  27.634  1.00  0.00    -0.206 F 
ATOM     75  C   UNL A   1      49.140  26.621  24.391  1.00  0.00     0.022 A 
BRANCH  72  76
ATOM     76  S   UNL A   1      48.373  27.715  21.944  1.00  0.00     0.124 S 
ATOM     77  O   UNL A   1      47.085  28.333  21.638  1.00  0.00    -0.237 OA
ATOM     78  O   UNL A   1      49.541  28.580  21.827  1.00  0.00    -0.237 OA
ATOM     79  O   UNL A   1      48.543  26.361  21.424  1.00  0.00    -0.744 OA
ENDBRANCH  72  76
ENDBRANCH  55  69
BRANCH  56  80
ATOM     80  C   UNL A   1      38.716  30.314  30.922  1.00  0.00     0.023 A 
ATOM     81  C   UNL A   1      37.651  31.001  30.317  1.00  0.00     0.031 A 
ATOM     82  C   UNL A   1      38.635  30.061  32.303  1.00  0.00     0.131 A 
ATOM     83  C   UNL A   1      36.577  31.456  31.097  1.00  0.00     0.055 A 
ATOM     84  C   UNL A   1      37.535  30.463  33.064  1.00  0.00     0.041 A 
ATOM     85  F   UNL A   1      39.624  29.408  32.934  1.00  0.00    -0.206 F 
ATOM     86  C   UNL A   1      36.503  31.178  32.464  1.00  0.00     0.022 A 
BRANCH  83  87
ATOM     87  S   UNL A   1      35.318  32.502  30.314  1.00  0.00     0.124 S 
ATOM     88  O   UNL A   1      36.087  33.697  29.989  1.00  0.00    -0.237 OA
ATOM     89  O   UNL A   1      34.901  31.679  29.183  1.00  0.00    -0.237 OA
ATOM     90  O   UNL A   1      34.315  32.669  31.363  1.00  0.00    -0.744 OA
ENDBRANCH  83  87
ENDBRANCH  56  80
BRANCH  68  91
ATOM     91  C   UNL A   1      44.654  33.590  29.296  1.00  0.00     0.023 A 
ATOM     92  C   UNL A   1      44.379  34.673  28.443  1.00  0.00     0.031 A 
ATOM     93  C   UNL A   1      45.434  33.836  30.442  1.00  0.00     0.131 A 
ATOM     94  C   UNL A   1      44.933  35.933  28.711  1.00  0.00     0.055 A 
ATOM     95  C   UNL A   1      45.921  35.108  30.742  1.00  0.00     0.041 A 
ATOM     96  F   UNL A   1      45.734  32.841  31.292  1.00  0.00    -0.206 F 
ATOM     97  C   UNL A   1      45.684  36.163  29.866  1.00  0.00     0.022 A 
BRANCH  94  98
ATOM     98  S   UNL A   1      44.751  37.247  27.472  1.00  0.00     0.124 S 
ATOM     99  O   UNL A   1      43.529  36.844  26.783  1.00  0.00    -0.237 OA
ATOM    100  O   UNL A   1      44.651  38.444  28.299  1.00  0.00    -0.237 OA
ATOM    101  O   UNL A   1      45.974  37.142  26.679  1.00  0.00    -0.744 OA
ENDBRANCH  94  98
ENDBRANCH  68  91
ENDBRANCH  42  43
ENDBRANCH  34  37
ENDBRANCH  32  33
ENDBRANCH   1  32
TORSDOF 17
ENDMDL
MODEL 2
REMARK VINA RESULT:     -13.2      5.019      8.312
REMARK SMILES COc1cccc([C@@H]2[NH2+][C@@](C)(C(=O)NCCCCNC(=O)c3ccc(-c4c5nc(c(-c6cc(S(=O)(=O)[O-])ccc6F)c6ccc([nH]6)c(-c6cc(S(=O)(=O)[O-])ccc6F)c6nc(c(-c7cc(S(=O)(=O)[O-])ccc7F)c7ccc4[nH]7)C=C6)C=C5)cc3)[C@@H]3C(=O)N(C)C(=O)[C@@H]32)c1O
REMARK SMILES IDX 17 1 16 2 15 3 14 4 12 5 13 6 10 8 8 9 9 10 92 11 85 14
REMARK SMILES IDX 90 15 11 16 86 17 88 18 91 19 87 20 89 21 7 22 3 23 4 24
REMARK SMILES IDX 93 25 5 26 6 27 2 28 1 29 94 30 18 32 19 33 20 34 21 36
REMARK SMILES IDX 22 37 23 38 84 39 24 40 83 41 25 42 26 43 27 44 77 45 28 46
REMARK SMILES IDX 82 47 76 48 78 49 29 50 81 51 75 52 74 53 30 55 62 56 42 57
REMARK SMILES IDX 61 58 43 59 46 60 60 61 79 62 44 63 45 64 59 66 80 67 47 68
REMARK SMILES IDX 31 69 32 70 40 71 33 72 39 73 41 74 38 75 34 76 35 77 36 78
REMARK SMILES IDX 37 79 63 80 64 81 72 82 65 83 71 84 73 85 70 86 66 87 67 88
REMARK SMILES IDX 68 89 69 90 48 91 49 92 57 93 50 94 56 95 58 96 55 97 51 98
REMARK SMILES IDX 52 99 53 100 54 101
REMARK H PARENT 14 7 9 12 9 13 94 31 19 35 78 54 46 65
REMARK Flexibility Score: inf
ROOT
ATOM      1  C   UNL A   1      32.131  29.737  25.326  1.00  0.00     0.023 C 
ENDROOT
BRANCH   1   2
ATOM      2  C   UNL A   1      31.407  28.420  25.054  1.00  0.00     0.023 C 
BRANCH   2   3
ATOM      3  C   UNL A   1      32.044  27.199  25.711  1.00  0.00     0.116 C 
BRANCH   3   4
ATOM      4  N   UNL A   1      31.062  26.367  26.387  1.00  0.00    -0.351 N 
ATOM      5  C   UNL A   1      30.619  25.111  26.084  1.00  0.00     0.281 C 
ATOM      6  O   UNL A   1      29.721  24.644  26.791  1.00  0.00    -0.268 OA
ATOM      7  H   UNL A   1      30.652  26.772  27.185  1.00  0.00     0.163 HD
BRANCH   5   8
ATOM      8  C   UNL A   1      31.253  24.291  24.915  1.00  0.00     0.185 C 
ATOM      9  C   UNL A   1      31.915  22.095  25.679  1.00  0.00     0.232 C 
ATOM     10  N   UNL A   1      30.821  22.876  25.063  1.00  0.00    -0.326 N 
ATOM     11  C   UNL A   1      33.065  23.072  25.960  1.00  0.00     0.161 C 
ATOM     12  H   UNL A   1      29.994  22.833  25.660  1.00  0.00     0.347 HD
ATOM     13  H   UNL A   1      30.596  22.487  24.148  1.00  0.00     0.347 HD
ATOM     14  C   UNL A   1      32.776  24.280  25.081  1.00  0.00     0.169 C 
ATOM     15  C   UNL A   1      34.430  22.634  25.503  1.00  0.00     0.239 C 
ATOM     16  C   UNL A   1      30.797  24.931  23.594  1.00  0.00     0.091 C 
ATOM     17  C   UNL A   1      33.659  24.027  23.882  1.00  0.00     0.240 C 
ATOM     18  N   UNL A   1      34.666  23.189  24.275  1.00  0.00    -0.285 N 
ATOM     19  O   UNL A   1      35.166  21.872  26.107  1.00  0.00    -0.274 OA
ATOM     20  O   UNL A   1      33.529  24.492  22.759  1.00  0.00    -0.274 OA
ATOM     21  C   UNL A   1      35.803  22.841  23.458  1.00  0.00     0.156 C 
BRANCH   9  22
ATOM     22  C   UNL A   1      32.271  20.846  24.874  1.00  0.00     0.056 A 
ATOM     23  C   UNL A   1      32.853  18.468  24.704  1.00  0.00     0.161 A 
ATOM     24  C   UNL A   1      32.667  18.541  23.321  1.00  0.00     0.050 A 
ATOM     25  C   UNL A   1      32.707  19.636  25.461  1.00  0.00     0.166 A 
ATOM     26  C   UNL A   1      32.302  19.738  22.708  1.00  0.00     0.005 A 
ATOM     27  C   UNL A   1      32.085  20.877  23.482  1.00  0.00     0.014 A 
BRANCH  23  28
ATOM     28  O   UNL A   1      33.243  17.233  25.146  1.00  0.00    -0.493 OA
ATOM     29  C   UNL A   1      33.514  16.242  24.164  1.00  0.00     0.278 C 
ENDBRANCH  23  28
BRANCH  25  30
ATOM     30  O   UNL A   1      33.081  19.694  26.775  1.00  0.00    -0.504 OA
ATOM     31  H   UNL A   1      32.840  19.006  27.361  1.00  0.00     0.293 HD
ENDBRANCH  25  30
ENDBRANCH   9  22
ENDBRANCH   5   8
ENDBRANCH   3   4
ENDBRANCH   2   3
ENDBRANCH   1   2
BRANCH   1  32
ATOM     32  C   UNL A   1      31.999  30.267  26.750  1.00  0.00     0.116 C 
BRANCH  32  33
ATOM     33  N   UNL A   1      31.942  31.720  26.809  1.00  0.00    -0.352 N 
ATOM     34  C   UNL A   1      32.821  32.598  27.398  1.00  0.00     0.251 C 
ATOM     35  H   UNL A   1      31.166  32.132  26.366  1.00  0.00     0.163 HD
ATOM     36  O   UNL A   1      32.528  33.786  27.487  1.00  0.00    -0.269 OA
BRANCH  34  37
ATOM     37  C   UNL A   1      34.098  32.096  27.951  1.00  0.00     0.039 A 
ATOM     38  C   UNL A   1      35.138  33.000  28.177  1.00  0.00     0.014 A 
ATOM     39  C   UNL A   1      34.257  30.746  28.275  1.00  0.00     0.014 A 
ATOM     40  C   UNL A   1      36.310  32.562  28.798  1.00  0.00     0.010 A 
ATOM     41  C   UNL A   1      35.388  30.330  28.971  1.00  0.00     0.010 A 
ATOM     42  C   UNL A   1      36.429  31.233  29.240  1.00  0.00    -0.014 A 
BRANCH  42  43
ATOM     43  C   UNL A   1      37.631  30.775  29.987  1.00  0.00     0.031 A 
ATOM     44  C   UNL A   1      38.628  29.859  29.329  1.00  0.00     0.074 A 
ATOM     45  C   UNL A   1      37.795  31.137  31.276  1.00  0.00     0.049 A 
ATOM     46  N   UNL A   1      39.709  29.316  29.827  1.00  0.00    -0.248 NA
ATOM     47  C   UNL A   1      38.355  29.481  27.934  1.00  0.00     0.031 C 
ATOM     48  C   UNL A   1      36.878  31.990  32.036  1.00  0.00     0.029 A 
ATOM     49  N   UNL A   1      38.787  30.835  32.175  1.00  0.00    -0.354 N 
ATOM     50  C   UNL A   1      40.235  28.519  28.816  1.00  0.00     0.074 A 
ATOM     51  C   UNL A   1      39.318  28.603  27.700  1.00  0.00     0.031 C 
ATOM     52  C   UNL A   1      37.373  32.178  33.270  1.00  0.00     0.029 A 
ATOM     53  C   UNL A   1      38.610  31.416  33.410  1.00  0.00     0.049 A 
ATOM     54  H   UNL A   1      39.553  30.257  31.958  1.00  0.00     0.167 HD
ATOM     55  C   UNL A   1      41.387  27.804  28.810  1.00  0.00     0.034 A 
ATOM     56  C   UNL A   1      39.356  31.340  34.531  1.00  0.00     0.034 A 
ATOM     57  C   UNL A   1      42.295  27.741  29.931  1.00  0.00     0.049 A 
ATOM     58  C   UNL A   1      40.611  30.501  34.514  1.00  0.00     0.074 A 
ATOM     59  C   UNL A   1      43.522  27.104  30.010  1.00  0.00     0.029 A 
ATOM     60  N   UNL A   1      42.070  28.319  31.175  1.00  0.00    -0.354 N 
ATOM     61  N   UNL A   1      41.129  29.807  33.528  1.00  0.00    -0.248 NA
ATOM     62  C   UNL A   1      41.383  30.446  35.762  1.00  0.00     0.031 C 
ATOM     63  C   UNL A   1      43.994  27.221  31.322  1.00  0.00     0.029 A 
ATOM     64  C   UNL A   1      43.111  28.013  32.039  1.00  0.00     0.049 A 
ATOM     65  H   UNL A   1      41.285  28.866  31.408  1.00  0.00     0.167 HD
ATOM     66  C   UNL A   1      42.311  29.263  34.027  1.00  0.00     0.074 A 
ATOM     67  C   UNL A   1      42.431  29.723  35.396  1.00  0.00     0.031 C 
ATOM     68  C   UNL A   1      43.216  28.464  33.408  1.00  0.00     0.034 A 
BRANCH  55  69
ATOM     69  C   UNL A   1      41.705  27.003  27.567  1.00  0.00     0.023 A 
ATOM     70  C   UNL A   1      41.432  25.627  27.478  1.00  0.00     0.031 A 
ATOM     71  C   UNL A   1      42.321  27.621  26.463  1.00  0.00     0.131 A 
ATOM     72  C   UNL A   1      41.854  24.899  26.355  1.00  0.00     0.055 A 
ATOM     73  C   UNL A   1      42.653  26.908  25.309  1.00  0.00     0.041 A 
ATOM     74  F   UNL A   1      42.628  28.928  26.493  1.00  0.00    -0.206 F 
ATOM     75  C   UNL A   1      42.437  25.534  25.257  1.00  0.00     0.022 A 
BRANCH  72  76
ATOM     76  S   UNL A   1      41.786  23.086  26.423  1.00  0.00     0.124 S 
ATOM     77  O   UNL A   1      42.484  22.811  27.677  1.00  0.00    -0.237 OA
ATOM     78  O   UNL A   1      40.351  22.825  26.419  1.00  0.00    -0.237 OA
ATOM     79  O   UNL A   1      42.500  22.671  25.218  1.00  0.00    -0.744 OA
ENDBRANCH  72  76
ENDBRANCH  55  69
BRANCH  56  80
ATOM     80  C   UNL A   1      38.948  32.071  35.766  1.00  0.00     0.023 A 
ATOM     81  C   UNL A   1      38.258  31.413  36.796  1.00  0.00     0.031 A 
ATOM     82  C   UNL A   1      39.199  33.446  35.916  1.00  0.00     0.131 A 
ATOM     83  C   UNL A   1      37.797  32.138  37.906  1.00  0.00     0.055 A 
ATOM     84  C   UNL A   1      38.791  34.151  37.050  1.00  0.00     0.041 A 
ATOM     85  F   UNL A   1      39.856  34.126  34.963  1.00  0.00    -0.206 F 
ATOM     86  C   UNL A   1      38.072  33.500  38.048  1.00  0.00     0.022 A 
BRANCH  83  87
ATOM     87  S   UNL A   1      36.746  31.292  39.120  1.00  0.00     0.124 S 
ATOM     88  O   UNL A   1      35.603  32.193  39.199  1.00  0.00    -0.237 OA
ATOM     89  O   UNL A   1      36.508  30.007  38.470  1.00  0.00    -0.237 OA
ATOM     90  O   UNL A   1      37.585  31.238  40.315  1.00  0.00    -0.744 OA
ENDBRANCH  83  87
ENDBRANCH  56  80
BRANCH  68  91
ATOM     91  C   UNL A   1      44.446  28.077  34.198  1.00  0.00     0.023 A 
ATOM     92  C   UNL A   1      44.522  26.871  34.916  1.00  0.00     0.031 A 
ATOM     93  C   UNL A   1      45.555  28.942  34.247  1.00  0.00     0.131 A 
ATOM     94  C   UNL A   1      45.651  26.593  35.701  1.00  0.00     0.055 A 
ATOM     95  C   UNL A   1      46.705  28.627  34.970  1.00  0.00     0.041 A 
ATOM     96  F   UNL A   1      45.540  30.112  33.586  1.00  0.00    -0.206 F 
ATOM     97  C   UNL A   1      46.752  27.453  35.716  1.00  0.00     0.022 A 
BRANCH  94  98
ATOM     98  S   UNL A   1      45.618  25.143  36.792  1.00  0.00     0.124 S 
ATOM     99  O   UNL A   1      46.542  24.237  36.117  1.00  0.00    -0.237 OA
ATOM    100  O   UNL A   1      46.081  25.696  38.060  1.00  0.00    -0.237 OA
ATOM    101  O   UNL A   1      44.216  24.730  36.771  1.00  0.00    -0.744 OA
ENDBRANCH  94  98
ENDBRANCH  68  91
ENDBRANCH  42  43
ENDBRANCH  34  37
ENDBRANCH  32  33
ENDBRANCH   1  32
TORSDOF 17
ENDMDL
MODEL 3
REMARK VINA RESULT:     -13.2      1.483      7.456
REMARK SMILES COc1cccc([C@@H]2[NH2+][C@@](C)(C(=O)NCCCCNC(=O)c3ccc(-c4c5nc(c(-c6cc(S(=O)(=O)[O-])ccc6F)c6ccc([nH]6)c(-c6cc(S(=O)(=O)[O-])ccc6F)c6nc(c(-c7cc(S(=O)(=O)[O-])ccc7F)c7ccc4[nH]7)C=C6)C=C5)cc3)[C@@H]3C(=O)N(C)C(=O)[C@@H]32)c1O
REMARK SMILES IDX 17 1 16 2 15 3 14 4 12 5 13 6 10 8 8 9 9 10 92 11 85 14
REMARK SMILES IDX 90 15 11 16 86 17 88 18 91 19 87 20 89 21 7 22 3 23 4 24
REMARK SMILES IDX 93 25 5 26 6 27 2 28 1 29 94 30 18 32 19 33 20 34 21 36
REMARK SMILES IDX 22 37 23 38 84 39 24 40 83 41 25 42 26 43 27 44 77 45 28 46
REMARK SMILES IDX 82 47 76 48 78 49 29 50 81 51 75 52 74 53 30 55 62 56 42 57
REMARK SMILES IDX 61 58 43 59 46 60 60 61 79 62 44 63 45 64 59 66 80 67 47 68
REMARK SMILES IDX 31 69 32 70 40 71 33 72 39 73 41 74 38 75 34 76 35 77 36 78
REMARK SMILES IDX 37 79 63 80 64 81 72 82 65 83 71 84 73 85 70 86 66 87 67 88
REMARK SMILES IDX 68 89 69 90 48 91 49 92 57 93 50 94 56 95 58 96 55 97 51 98
REMARK SMILES IDX 52 99 53 100 54 101
REMARK H PARENT 14 7 9 12 9 13 94 31 19 35 78 54 46 65
REMARK Flexibility Score: inf
ROOT
ATOM      1  C   UNL A   1      35.855  21.387  25.577  1.00  0.00     0.023 C 
ENDROOT
BRANCH   1   2
ATOM      2  C   UNL A   1      34.674  21.513  24.616  1.00  0.00     0.023 C 
BRANCH   2   3
ATOM      3  C   UNL A   1      34.127  22.930  24.467  1.00  0.00     0.116 C 
BRANCH   3   4
ATOM      4  N   UNL A   1      34.069  23.350  23.076  1.00  0.00    -0.351 N 
ATOM      5  C   UNL A   1      33.149  24.128  22.432  1.00  0.00     0.281 C 
ATOM      6  O   UNL A   1      33.297  24.286  21.217  1.00  0.00    -0.268 OA
ATOM      7  H   UNL A   1      34.806  23.024  22.512  1.00  0.00     0.163 HD
BRANCH   5   8
ATOM      8  C   UNL A   1      31.983  24.814  23.215  1.00  0.00     0.185 C 
ATOM      9  C   UNL A   1      31.614  27.057  22.393  1.00  0.00     0.232 C 
ATOM     10  N   UNL A   1      31.212  25.642  22.249  1.00  0.00    -0.326 N 
ATOM     11  C   UNL A   1      32.709  27.110  23.468  1.00  0.00     0.161 C 
ATOM     12  H   UNL A   1      31.406  25.327  21.298  1.00  0.00     0.347 HD
ATOM     13  H   UNL A   1      30.214  25.549  22.437  1.00  0.00     0.347 HD
ATOM     14  C   UNL A   1      32.573  25.799  24.228  1.00  0.00     0.169 C 
ATOM     15  C   UNL A   1      32.532  28.149  24.541  1.00  0.00     0.239 C 
ATOM     16  C   UNL A   1      31.144  23.706  23.870  1.00  0.00     0.091 C 
ATOM     17  C   UNL A   1      31.763  26.208  25.435  1.00  0.00     0.240 C 
ATOM     18  N   UNL A   1      31.932  27.553  25.616  1.00  0.00    -0.285 N 
ATOM     19  O   UNL A   1      32.826  29.328  24.436  1.00  0.00    -0.274 OA
ATOM     20  O   UNL A   1      31.086  25.482  26.150  1.00  0.00    -0.274 OA
ATOM     21  C   UNL A   1      31.450  28.290  26.758  1.00  0.00     0.156 C 
BRANCH   9  22
ATOM     22  C   UNL A   1      30.421  27.990  22.597  1.00  0.00     0.056 A 
ATOM     23  C   UNL A   1      29.195  30.071  22.163  1.00  0.00     0.161 A 
ATOM     24  C   UNL A   1      28.087  29.534  22.823  1.00  0.00     0.050 A 
ATOM     25  C   UNL A   1      30.371  29.314  22.104  1.00  0.00     0.166 A 
ATOM     26  C   UNL A   1      28.132  28.255  23.376  1.00  0.00     0.005 A 
ATOM     27  C   UNL A   1      29.284  27.481  23.246  1.00  0.00     0.014 A 
BRANCH  23  28
ATOM     28  O   UNL A   1      29.003  31.347  21.707  1.00  0.00    -0.493 OA
ATOM     29  C   UNL A   1      28.590  32.324  22.652  1.00  0.00     0.278 C 
ENDBRANCH  23  28
BRANCH  25  30
ATOM     30  O   UNL A   1      31.552  29.851  21.673  1.00  0.00    -0.504 OA
ATOM     31  H   UNL A   1      31.552  30.512  21.011  1.00  0.00     0.293 HD
ENDBRANCH  25  30
ENDBRANCH   9  22
ENDBRANCH   5   8
ENDBRANCH   3   4
ENDBRANCH   2   3
ENDBRANCH   1   2
BRANCH   1  32
ATOM     32  C   UNL A   1      37.231  21.466  24.925  1.00  0.00     0.116 C 
BRANCH  32  33
ATOM     33  N   UNL A   1      38.124  20.402  25.359  1.00  0.00    -0.352 N 
ATOM     34  C   UNL A   1      39.343  20.495  25.987  1.00  0.00     0.251 C 
ATOM     35  H   UNL A   1      37.810  19.487  25.178  1.00  0.00     0.163 HD
ATOM     36  O   UNL A   1      40.031  19.489  26.134  1.00  0.00    -0.269 OA
BRANCH  34  37
ATOM     37  C   UNL A   1      39.831  21.813  26.447  1.00  0.00     0.039 A 
ATOM     38  C   UNL A   1      40.892  21.862  27.353  1.00  0.00     0.014 A 
ATOM     39  C   UNL A   1      39.266  22.996  25.962  1.00  0.00     0.014 A 
ATOM     40  C   UNL A   1      41.435  23.097  27.715  1.00  0.00     0.010 A 
ATOM     41  C   UNL A   1      39.862  24.219  26.255  1.00  0.00     0.010 A 
ATOM     42  C   UNL A   1      40.953  24.284  27.136  1.00  0.00    -0.014 A 
BRANCH  42  43
ATOM     43  C   UNL A   1      41.582  25.598  27.437  1.00  0.00     0.031 A 
ATOM     44  C   UNL A   1      40.843  26.621  28.258  1.00  0.00     0.074 A 
ATOM     45  C   UNL A   1      42.795  25.891  26.925  1.00  0.00     0.049 A 
ATOM     46  N   UNL A   1      41.202  27.835  28.587  1.00  0.00    -0.248 NA
ATOM     47  C   UNL A   1      39.510  26.236  28.747  1.00  0.00     0.031 C 
ATOM     48  C   UNL A   1      43.594  24.998  26.084  1.00  0.00     0.029 A 
ATOM     49  N   UNL A   1      43.567  27.021  27.034  1.00  0.00    -0.354 N 
ATOM     50  C   UNL A   1      40.135  28.365  29.305  1.00  0.00     0.074 A 
ATOM     51  C   UNL A   1      39.094  27.360  29.306  1.00  0.00     0.031 C 
ATOM     52  C   UNL A   1      44.761  25.596  25.791  1.00  0.00     0.029 A 
ATOM     53  C   UNL A   1      44.771  26.934  26.372  1.00  0.00     0.049 A 
ATOM     54  H   UNL A   1      43.286  27.819  27.537  1.00  0.00     0.167 HD
ATOM     55  C   UNL A   1      40.042  29.568  29.925  1.00  0.00     0.034 A 
ATOM     56  C   UNL A   1      45.769  27.832  26.244  1.00  0.00     0.034 A 
ATOM     57  C   UNL A   1      41.097  30.554  29.921  1.00  0.00     0.049 A 
ATOM     58  C   UNL A   1      45.623  29.181  26.906  1.00  0.00     0.074 A 
ATOM     59  C   UNL A   1      41.136  31.775  30.573  1.00  0.00     0.029 A 
ATOM     60  N   UNL A   1      42.290  30.443  29.218  1.00  0.00    -0.354 N 
ATOM     61  N   UNL A   1      44.635  29.642  27.637  1.00  0.00    -0.248 NA
ATOM     62  C   UNL A   1      46.734  30.125  26.730  1.00  0.00     0.031 C 
ATOM     63  C   UNL A   1      42.309  32.438  30.193  1.00  0.00     0.029 A 
ATOM     64  C   UNL A   1      43.050  31.592  29.382  1.00  0.00     0.049 A 
ATOM     65  H   UNL A   1      42.558  29.662  28.681  1.00  0.00     0.167 HD
ATOM     66  C   UNL A   1      45.025  30.917  28.040  1.00  0.00     0.074 A 
ATOM     67  C   UNL A   1      46.342  31.143  27.482  1.00  0.00     0.031 C 
ATOM     68  C   UNL A   1      44.357  31.816  28.808  1.00  0.00     0.034 A 
BRANCH  55  69
ATOM     69  C   UNL A   1      38.740  29.894  30.622  1.00  0.00     0.023 A 
ATOM     70  C   UNL A   1      37.722  30.632  29.992  1.00  0.00     0.031 A 
ATOM     71  C   UNL A   1      38.526  29.487  31.952  1.00  0.00     0.131 A 
ATOM     72  C   UNL A   1      36.583  31.016  30.716  1.00  0.00     0.055 A 
ATOM     73  C   UNL A   1      37.347  29.793  32.636  1.00  0.00     0.041 A 
ATOM     74  F   UNL A   1      39.467  28.799  32.618  1.00  0.00    -0.206 F 
ATOM     75  C   UNL A   1      36.375  30.578  32.025  1.00  0.00     0.022 A 
BRANCH  72  76
ATOM     76  S   UNL A   1      35.461  32.238  29.979  1.00  0.00     0.124 S 
ATOM     77  O   UNL A   1      34.970  31.518  28.806  1.00  0.00    -0.237 OA
ATOM     78  O   UNL A   1      34.492  32.459  31.045  1.00  0.00    -0.237 OA
ATOM     79  O   UNL A   1      36.335  33.371  29.683  1.00  0.00    -0.744 OA
ENDBRANCH  72  76
ENDBRANCH  55  69
BRANCH  56  80
ATOM     80  C   UNL A   1      46.995  27.500  25.462  1.00  0.00     0.023 A 
ATOM     81  C   UNL A   1      47.117  27.884  24.118  1.00  0.00     0.031 A 
ATOM     82  C   UNL A   1      48.042  26.752  26.030  1.00  0.00     0.131 A 
ATOM     83  C   UNL A   1      48.233  27.478  23.370  1.00  0.00     0.055 A 
ATOM     84  C   UNL A   1      49.179  26.402  25.299  1.00  0.00     0.041 A 
ATOM     85  F   UNL A   1      47.979  26.358  27.312  1.00  0.00    -0.206 F 
ATOM     86  C   UNL A   1      49.273  26.753  23.956  1.00  0.00     0.022 A 
BRANCH  83  87
ATOM     87  S   UNL A   1      48.261  27.832  21.591  1.00  0.00     0.124 S 
ATOM     88  O   UNL A   1      46.903  28.311  21.363  1.00  0.00    -0.237 OA
ATOM     89  O   UNL A   1      49.319  28.832  21.498  1.00  0.00    -0.237 OA
ATOM     90  O   UNL A   1      48.577  26.537  20.993  1.00  0.00    -0.744 OA
ENDBRANCH  83  87
ENDBRANCH  56  80
BRANCH  68  91
ATOM     91  C   UNL A   1      45.070  33.110  29.129  1.00  0.00     0.023 A 
ATOM     92  C   UNL A   1      45.893  33.247  30.260  1.00  0.00     0.031 A 
ATOM     93  C   UNL A   1      44.905  34.232  28.295  1.00  0.00     0.131 A 
ATOM     94  C   UNL A   1      46.467  34.491  30.562  1.00  0.00     0.055 A 
ATOM     95  C   UNL A   1      45.538  35.447  28.560  1.00  0.00     0.041 A 
ATOM     96  F   UNL A   1      44.126  34.164  27.203  1.00  0.00    -0.206 F 
ATOM     97  C   UNL A   1      46.312  35.586  29.708  1.00  0.00     0.022 A 
BRANCH  94  98
ATOM     98  S   UNL A   1      47.331  34.692  32.145  1.00  0.00     0.124 S 
ATOM     99  O   UNL A   1      48.039  35.953  31.945  1.00  0.00    -0.237 OA
ATOM    100  O   UNL A   1      46.229  34.724  33.100  1.00  0.00    -0.237 OA
ATOM    101  O   UNL A   1      48.183  33.506  32.222  1.00  0.00    -0.744 OA
ENDBRANCH  94  98
ENDBRANCH  68  91
ENDBRANCH  42  43
ENDBRANCH  34  37
ENDBRANCH  32  33
ENDBRANCH   1  32
TORSDOF 17
ENDMDL
