MODEL 1
REMARK VINA RESULT:     -11.9      0.000      0.000
REMARK SMILES C[C@H](C(=O)NCCCCNC(=O)c1ccc(-c2c3nc(c(-c4cc(S(=O)(=O)[O-])ccc4F)c4ccc([nH]4)c(-c4cc(S(=O)(=O)[O-])ccc4F)c4nc(c(-c5cc(S(=O)(=O)[O-])ccc5F)c5ccc2[nH]5)C=C4)C=C3)cc1)c1ccc2c(c1)OCCO2
REMARK SMILES IDX 8 1 7 2 6 3 5 4 3 5 4 6 2 8 1 9 76 10 77 11 81 12 78 13
REMARK SMILES IDX 80 14 79 15 82 16 85 17 83 18 84 19 9 20 10 21 11 22 12 24
REMARK SMILES IDX 13 25 14 26 75 27 15 28 74 29 16 30 17 31 18 32 68 33 19 34
REMARK SMILES IDX 73 35 67 36 69 37 20 38 72 39 66 40 65 41 21 43 53 44 33 45
REMARK SMILES IDX 52 46 34 47 37 48 51 49 70 50 35 51 36 52 50 54 71 55 38 56
REMARK SMILES IDX 22 57 23 58 31 59 24 60 30 61 32 62 29 63 25 64 26 65 27 66
REMARK SMILES IDX 28 67 54 68 55 69 63 70 56 71 62 72 64 73 61 74 57 75 58 76
REMARK SMILES IDX 59 77 60 78 39 79 40 80 48 81 41 82 47 83 49 84 46 85 42 86
REMARK SMILES IDX 43 87 44 88 45 89
REMARK H PARENT 5 7 10 23 69 42 37 53
REMARK Flexibility Score: inf
ROOT
ATOM      1  C   UNL A   1      31.479  29.249  27.062  1.00  0.00     0.023 C 
ENDROOT
BRANCH   1   2
ATOM      2  C   UNL A   1      31.810  27.771  26.893  1.00  0.00     0.023 C 
BRANCH   2   3
ATOM      3  C   UNL A   1      33.217  27.451  26.385  1.00  0.00     0.116 C 
BRANCH   3   4
ATOM      4  N   UNL A   1      33.196  26.490  25.297  1.00  0.00    -0.356 N 
ATOM      5  C   UNL A   1      32.968  26.671  23.960  1.00  0.00     0.227 C 
ATOM      6  O   UNL A   1      32.968  25.663  23.246  1.00  0.00    -0.274 OA
ATOM      7  H   UNL A   1      33.375  25.559  25.564  1.00  0.00     0.163 HD
BRANCH   5   8
ATOM      8  C   UNL A   1      32.710  28.079  23.380  1.00  0.00     0.105 C 
ATOM      9  C   UNL A   1      33.661  28.341  22.207  1.00  0.00     0.023 C 
BRANCH   8  10
ATOM     10  C   UNL A   1      31.243  28.228  22.990  1.00  0.00    -0.032 A 
ATOM     11  C   UNL A   1      30.237  27.466  23.611  1.00  0.00     0.008 A 
ATOM     12  C   UNL A   1      30.866  29.299  22.165  1.00  0.00     0.055 A 
ATOM     13  C   UNL A   1      28.898  27.858  23.533  1.00  0.00     0.051 A 
ATOM     14  C   UNL A   1      29.553  29.763  22.197  1.00  0.00     0.161 A 
ATOM     15  C   UNL A   1      28.583  29.057  22.907  1.00  0.00     0.161 A 
ATOM     16  O   UNL A   1      29.341  31.008  21.666  1.00  0.00    -0.486 OA
ATOM     17  O   UNL A   1      27.336  29.586  23.128  1.00  0.00    -0.486 OA
ATOM     18  C   UNL A   1      28.139  31.642  22.130  1.00  0.00     0.271 C 
ATOM     19  C   UNL A   1      27.520  30.989  23.361  1.00  0.00     0.271 C 
ENDBRANCH   8  10
ENDBRANCH   5   8
ENDBRANCH   3   4
ENDBRANCH   2   3
ENDBRANCH   1   2
BRANCH   1  20
ATOM     20  C   UNL A   1      32.311  30.201  26.217  1.00  0.00     0.116 C 
BRANCH  20  21
ATOM     21  N   UNL A   1      32.085  31.605  26.526  1.00  0.00    -0.352 N 
ATOM     22  C   UNL A   1      32.866  32.461  27.268  1.00  0.00     0.251 C 
ATOM     23  H   UNL A   1      31.262  31.995  26.153  1.00  0.00     0.163 HD
ATOM     24  O   UNL A   1      32.463  33.596  27.512  1.00  0.00    -0.269 OA
BRANCH  22  25
ATOM     25  C   UNL A   1      34.162  31.993  27.812  1.00  0.00     0.039 A 
ATOM     26  C   UNL A   1      35.203  32.913  27.969  1.00  0.00     0.014 A 
ATOM     27  C   UNL A   1      34.338  30.664  28.207  1.00  0.00     0.014 A 
ATOM     28  C   UNL A   1      36.387  32.518  28.597  1.00  0.00     0.010 A 
ATOM     29  C   UNL A   1      35.481  30.297  28.909  1.00  0.00     0.010 A 
ATOM     30  C   UNL A   1      36.518  31.220  29.114  1.00  0.00    -0.014 A 
BRANCH  30  31
ATOM     31  C   UNL A   1      37.729  30.800  29.868  1.00  0.00     0.031 A 
ATOM     32  C   UNL A   1      38.721  29.863  29.233  1.00  0.00     0.074 A 
ATOM     33  C   UNL A   1      37.892  31.193  31.147  1.00  0.00     0.049 A 
ATOM     34  N   UNL A   1      39.778  29.296  29.755  1.00  0.00    -0.248 NA
ATOM     35  C   UNL A   1      38.464  29.486  27.836  1.00  0.00     0.031 C 
ATOM     36  C   UNL A   1      36.973  32.059  31.890  1.00  0.00     0.029 A 
ATOM     37  N   UNL A   1      38.881  30.907  32.055  1.00  0.00    -0.354 N 
ATOM     38  C   UNL A   1      40.300  28.479  28.757  1.00  0.00     0.074 A 
ATOM     39  C   UNL A   1      39.402  28.577  27.626  1.00  0.00     0.031 C 
ATOM     40  C   UNL A   1      37.454  32.253  33.129  1.00  0.00     0.029 A 
ATOM     41  C   UNL A   1      38.689  31.491  33.286  1.00  0.00     0.049 A 
ATOM     42  H   UNL A   1      39.655  30.336  31.844  1.00  0.00     0.167 HD
ATOM     43  C   UNL A   1      41.436  27.737  28.774  1.00  0.00     0.034 A 
ATOM     44  C   UNL A   1      39.418  31.411  34.416  1.00  0.00     0.034 A 
ATOM     45  C   UNL A   1      42.329  27.668  29.904  1.00  0.00     0.049 A 
ATOM     46  C   UNL A   1      40.672  30.575  34.416  1.00  0.00     0.074 A 
ATOM     47  C   UNL A   1      43.539  27.001  30.010  1.00  0.00     0.029 A 
ATOM     48  N   UNL A   1      42.110  28.285  31.130  1.00  0.00    -0.354 N 
ATOM     49  N   UNL A   1      41.181  29.849  33.448  1.00  0.00    -0.248 NA
ATOM     50  C   UNL A   1      41.455  30.556  35.658  1.00  0.00     0.031 C 
ATOM     51  C   UNL A   1      44.017  27.164  31.316  1.00  0.00     0.029 A 
ATOM     52  C   UNL A   1      43.144  27.991  32.005  1.00  0.00     0.049 A 
ATOM     53  H   UNL A   1      41.332  28.848  31.346  1.00  0.00     0.167 HD
ATOM     54  C   UNL A   1      42.358  29.310  33.956  1.00  0.00     0.074 A 
ATOM     55  C   UNL A   1      42.490  29.806  35.311  1.00  0.00     0.031 C 
ATOM     56  C   UNL A   1      43.254  28.483  33.358  1.00  0.00     0.034 A 
BRANCH  43  57
ATOM     57  C   UNL A   1      41.750  26.928  27.537  1.00  0.00     0.023 A 
ATOM     58  C   UNL A   1      41.455  25.555  27.458  1.00  0.00     0.031 A 
ATOM     59  C   UNL A   1      42.393  27.523  26.437  1.00  0.00     0.131 A 
ATOM     60  C   UNL A   1      41.885  24.807  26.353  1.00  0.00     0.055 A 
ATOM     61  C   UNL A   1      42.739  26.791  25.300  1.00  0.00     0.041 A 
ATOM     62  F   UNL A   1      42.718  28.826  26.458  1.00  0.00    -0.206 F 
ATOM     63  C   UNL A   1      42.502  25.419  25.261  1.00  0.00     0.022 A 
BRANCH  60  64
ATOM     64  S   UNL A   1      41.772  22.998  26.438  1.00  0.00     0.124 S 
ATOM     65  O   UNL A   1      40.325  22.795  26.463  1.00  0.00    -0.237 OA
ATOM     66  O   UNL A   1      42.454  22.582  25.218  1.00  0.00    -0.237 OA
ATOM     67  O   UNL A   1      42.462  22.670  27.683  1.00  0.00    -0.744 OA
ENDBRANCH  60  64
ENDBRANCH  43  57
BRANCH  44  68
ATOM     68  C   UNL A   1      38.986  32.134  35.646  1.00  0.00     0.023 A 
ATOM     69  C   UNL A   1      38.331  31.458  36.687  1.00  0.00     0.031 A 
ATOM     70  C   UNL A   1      39.193  33.518  35.784  1.00  0.00     0.131 A 
ATOM     71  C   UNL A   1      37.867  32.174  37.803  1.00  0.00     0.055 A 
ATOM     72  C   UNL A   1      38.772  34.217  36.917  1.00  0.00     0.041 A 
ATOM     73  F   UNL A   1      39.823  34.210  34.821  1.00  0.00    -0.206 F 
ATOM     74  C   UNL A   1      38.094  33.546  37.930  1.00  0.00     0.022 A 
BRANCH  71  75
ATOM     75  S   UNL A   1      36.897  31.292  39.057  1.00  0.00     0.124 S 
ATOM     76  O   UNL A   1      35.699  32.120  39.141  1.00  0.00    -0.237 OA
ATOM     77  O   UNL A   1      36.728  29.980  38.441  1.00  0.00    -0.237 OA
ATOM     78  O   UNL A   1      37.760  31.319  40.235  1.00  0.00    -0.744 OA
ENDBRANCH  71  75
ENDBRANCH  44  68
BRANCH  56  79
ATOM     79  C   UNL A   1      44.474  28.102  34.160  1.00  0.00     0.023 A 
ATOM     80  C   UNL A   1      44.490  26.965  34.985  1.00  0.00     0.031 A 
ATOM     81  C   UNL A   1      45.632  28.899  34.104  1.00  0.00     0.131 A 
ATOM     82  C   UNL A   1      45.623  26.684  35.764  1.00  0.00     0.055 A 
ATOM     83  C   UNL A   1      46.776  28.582  34.836  1.00  0.00     0.041 A 
ATOM     84  F   UNL A   1      45.668  29.997  33.333  1.00  0.00    -0.206 F 
ATOM     85  C   UNL A   1      46.773  27.476  35.682  1.00  0.00     0.022 A 
BRANCH  82  86
ATOM     86  S   UNL A   1      45.547  25.317  36.953  1.00  0.00     0.124 S 
ATOM     87  O   UNL A   1      46.745  24.555  36.618  1.00  0.00    -0.237 OA
ATOM     88  O   UNL A   1      45.573  26.016  38.234  1.00  0.00    -0.237 OA
ATOM     89  O   UNL A   1      44.282  24.656  36.636  1.00  0.00    -0.744 OA
ENDBRANCH  82  86
ENDBRANCH  56  79
ENDBRANCH  30  31
ENDBRANCH  22  25
ENDBRANCH  20  21
ENDBRANCH   1  20
TORSDOF 15
ENDMDL
MODEL 2
REMARK VINA RESULT:     -11.8      1.299      7.782
REMARK SMILES C[C@H](C(=O)NCCCCNC(=O)c1ccc(-c2c3nc(c(-c4cc(S(=O)(=O)[O-])ccc4F)c4ccc([nH]4)c(-c4cc(S(=O)(=O)[O-])ccc4F)c4nc(c(-c5cc(S(=O)(=O)[O-])ccc5F)c5ccc2[nH]5)C=C4)C=C3)cc1)c1ccc2c(c1)OCCO2
REMARK SMILES IDX 8 1 7 2 6 3 5 4 3 5 4 6 2 8 1 9 76 10 77 11 81 12 78 13
REMARK SMILES IDX 80 14 79 15 82 16 85 17 83 18 84 19 9 20 10 21 11 22 12 24
REMARK SMILES IDX 13 25 14 26 75 27 15 28 74 29 16 30 17 31 18 32 68 33 19 34
REMARK SMILES IDX 73 35 67 36 69 37 20 38 72 39 66 40 65 41 21 43 53 44 33 45
REMARK SMILES IDX 52 46 34 47 37 48 51 49 70 50 35 51 36 52 50 54 71 55 38 56
REMARK SMILES IDX 22 57 23 58 31 59 24 60 30 61 32 62 29 63 25 64 26 65 27 66
REMARK SMILES IDX 28 67 54 68 55 69 63 70 56 71 62 72 64 73 61 74 57 75 58 76
REMARK SMILES IDX 59 77 60 78 39 79 40 80 48 81 41 82 47 83 49 84 46 85 42 86
REMARK SMILES IDX 43 87 44 88 45 89
REMARK H PARENT 5 7 10 23 69 42 37 53
REMARK Flexibility Score: inf
ROOT
ATOM      1  C   UNL A   1      31.804  28.829  27.198  1.00  0.00     0.023 C 
ENDROOT
BRANCH   1   2
ATOM      2  C   UNL A   1      31.739  27.379  26.731  1.00  0.00     0.023 C 
BRANCH   2   3
ATOM      3  C   UNL A   1      33.053  26.772  26.237  1.00  0.00     0.116 C 
BRANCH   3   4
ATOM      4  N   UNL A   1      32.879  26.034  24.999  1.00  0.00    -0.356 N 
ATOM      5  C   UNL A   1      32.575  26.475  23.739  1.00  0.00     0.227 C 
ATOM      6  O   UNL A   1      32.443  25.621  22.858  1.00  0.00    -0.274 OA
ATOM      7  H   UNL A   1      32.998  25.060  25.078  1.00  0.00     0.163 HD
BRANCH   5   8
ATOM      8  C   UNL A   1      32.395  27.982  23.446  1.00  0.00     0.105 C 
ATOM      9  C   UNL A   1      33.425  28.436  22.406  1.00  0.00     0.023 C 
BRANCH   8  10
ATOM     10  C   UNL A   1      30.960  28.266  23.013  1.00  0.00    -0.032 A 
ATOM     11  C   UNL A   1      29.877  27.534  23.532  1.00  0.00     0.008 A 
ATOM     12  C   UNL A   1      30.694  29.422  22.264  1.00  0.00     0.055 A 
ATOM     13  C   UNL A   1      28.574  28.026  23.436  1.00  0.00     0.051 A 
ATOM     14  C   UNL A   1      29.417  29.977  22.283  1.00  0.00     0.161 A 
ATOM     15  C   UNL A   1      28.370  29.290  22.895  1.00  0.00     0.161 A 
ATOM     16  O   UNL A   1      29.315  31.271  21.845  1.00  0.00    -0.486 OA
ATOM     17  O   UNL A   1      27.154  29.889  23.111  1.00  0.00    -0.486 OA
ATOM     18  C   UNL A   1      28.141  31.953  22.313  1.00  0.00     0.271 C 
ATOM     19  C   UNL A   1      27.424  31.253  23.463  1.00  0.00     0.271 C 
ENDBRANCH   8  10
ENDBRANCH   5   8
ENDBRANCH   3   4
ENDBRANCH   2   3
ENDBRANCH   1   2
BRANCH   1  20
ATOM     20  C   UNL A   1      32.930  29.654  26.596  1.00  0.00     0.116 C 
BRANCH  20  21
ATOM     21  N   UNL A   1      32.878  31.063  26.956  1.00  0.00    -0.352 N 
ATOM     22  C   UNL A   1      33.798  31.808  27.659  1.00  0.00     0.251 C 
ATOM     23  H   UNL A   1      32.076  31.549  26.657  1.00  0.00     0.163 HD
ATOM     24  O   UNL A   1      33.536  32.971  27.961  1.00  0.00    -0.269 OA
BRANCH  22  25
ATOM     25  C   UNL A   1      35.072  31.190  28.091  1.00  0.00     0.039 A 
ATOM     26  C   UNL A   1      36.242  31.953  28.054  1.00  0.00     0.014 A 
ATOM     27  C   UNL A   1      35.108  29.878  28.572  1.00  0.00     0.014 A 
ATOM     28  C   UNL A   1      37.428  31.429  28.576  1.00  0.00     0.010 A 
ATOM     29  C   UNL A   1      36.267  29.393  29.170  1.00  0.00     0.010 A 
ATOM     30  C   UNL A   1      37.439  30.163  29.180  1.00  0.00    -0.014 A 
BRANCH  30  31
ATOM     31  C   UNL A   1      38.662  29.618  29.826  1.00  0.00     0.031 A 
ATOM     32  C   UNL A   1      39.094  30.135  31.172  1.00  0.00     0.074 A 
ATOM     33  C   UNL A   1      39.426  28.723  29.168  1.00  0.00     0.049 A 
ATOM     34  N   UNL A   1      40.179  29.871  31.853  1.00  0.00    -0.248 NA
ATOM     35  C   UNL A   1      38.201  31.109  31.816  1.00  0.00     0.031 C 
ATOM     36  C   UNL A   1      39.140  28.183  27.836  1.00  0.00     0.029 A 
ATOM     37  N   UNL A   1      40.605  28.117  29.523  1.00  0.00    -0.354 N 
ATOM     38  C   UNL A   1      40.110  30.662  32.996  1.00  0.00     0.074 A 
ATOM     39  C   UNL A   1      38.909  31.461  32.878  1.00  0.00     0.031 C 
ATOM     40  C   UNL A   1      40.102  27.310  27.499  1.00  0.00     0.029 A 
ATOM     41  C   UNL A   1      41.097  27.260  28.566  1.00  0.00     0.049 A 
ATOM     42  H   UNL A   1      41.057  28.281  30.382  1.00  0.00     0.167 HD
ATOM     43  C   UNL A   1      40.956  30.699  34.056  1.00  0.00     0.034 A 
ATOM     44  C   UNL A   1      42.228  26.526  28.544  1.00  0.00     0.034 A 
ATOM     45  C   UNL A   1      42.137  29.878  34.166  1.00  0.00     0.049 A 
ATOM     46  C   UNL A   1      43.157  26.587  29.728  1.00  0.00     0.074 A 
ATOM     47  C   UNL A   1      43.030  29.785  35.221  1.00  0.00     0.029 A 
ATOM     48  N   UNL A   1      42.597  29.010  33.182  1.00  0.00    -0.354 N 
ATOM     49  N   UNL A   1      43.052  27.301  30.826  1.00  0.00    -0.248 NA
ATOM     50  C   UNL A   1      44.353  25.736  29.676  1.00  0.00     0.031 C 
ATOM     51  C   UNL A   1      44.059  28.911  34.850  1.00  0.00     0.029 A 
ATOM     52  C   UNL A   1      43.773  28.402  33.593  1.00  0.00     0.049 A 
ATOM     53  H   UNL A   1      42.152  28.851  32.319  1.00  0.00     0.167 HD
ATOM     54  C   UNL A   1      44.153  26.963  31.606  1.00  0.00     0.074 A 
ATOM     55  C   UNL A   1      44.901  25.972  30.859  1.00  0.00     0.031 C 
ATOM     56  C   UNL A   1      44.514  27.425  32.831  1.00  0.00     0.034 A 
BRANCH  43  57
ATOM     57  C   UNL A   1      40.634  31.676  35.162  1.00  0.00     0.023 A 
ATOM     58  C   UNL A   1      39.635  31.410  36.116  1.00  0.00     0.031 A 
ATOM     59  C   UNL A   1      41.303  32.911  35.243  1.00  0.00     0.131 A 
ATOM     60  C   UNL A   1      39.268  32.396  37.043  1.00  0.00     0.055 A 
ATOM     61  C   UNL A   1      40.995  33.853  36.226  1.00  0.00     0.041 A 
ATOM     62  F   UNL A   1      42.255  33.232  34.352  1.00  0.00    -0.206 F 
ATOM     63  C   UNL A   1      39.959  33.606  37.122  1.00  0.00     0.022 A 
BRANCH  60  64
ATOM     64  S   UNL A   1      37.771  32.136  38.033  1.00  0.00     0.124 S 
ATOM     65  O   UNL A   1      37.457  30.741  37.731  1.00  0.00    -0.237 OA
ATOM     66  O   UNL A   1      38.237  32.406  39.388  1.00  0.00    -0.237 OA
ATOM     67  O   UNL A   1      36.827  33.110  37.490  1.00  0.00    -0.744 OA
ENDBRANCH  60  64
ENDBRANCH  43  57
BRANCH  44  68
ATOM     68  C   UNL A   1      42.552  25.674  27.365  1.00  0.00     0.023 A 
ATOM     69  C   UNL A   1      42.170  24.324  27.324  1.00  0.00     0.031 A 
ATOM     70  C   UNL A   1      43.278  26.189  26.276  1.00  0.00     0.131 A 
ATOM     71  C   UNL A   1      42.550  23.522  26.237  1.00  0.00     0.055 A 
ATOM     72  C   UNL A   1      43.612  25.398  25.174  1.00  0.00     0.041 A 
ATOM     73  F   UNL A   1      43.659  27.475  26.261  1.00  0.00    -0.206 F 
ATOM     74  C   UNL A   1      43.258  24.053  25.157  1.00  0.00     0.022 A 
BRANCH  71  75
ATOM     75  S   UNL A   1      42.165  21.750  26.289  1.00  0.00     0.124 S 
ATOM     76  O   UNL A   1      43.139  21.206  25.349  1.00  0.00    -0.237 OA
ATOM     77  O   UNL A   1      42.387  21.434  27.697  1.00  0.00    -0.237 OA
ATOM     78  O   UNL A   1      40.772  21.692  25.852  1.00  0.00    -0.744 OA
ENDBRANCH  71  75
ENDBRANCH  44  68
BRANCH  56  79
ATOM     79  C   UNL A   1      45.752  26.826  33.450  1.00  0.00     0.023 A 
ATOM     80  C   UNL A   1      45.702  25.642  34.205  1.00  0.00     0.031 A 
ATOM     81  C   UNL A   1      46.998  27.459  33.290  1.00  0.00     0.131 A 
ATOM     82  C   UNL A   1      46.867  25.154  34.817  1.00  0.00     0.055 A 
ATOM     83  C   UNL A   1      48.164  26.938  33.853  1.00  0.00     0.041 A 
ATOM     84  F   UNL A   1      47.101  28.594  32.580  1.00  0.00    -0.206 F 
ATOM     85  C   UNL A   1      48.101  25.786  34.632  1.00  0.00     0.022 A 
BRANCH  82  86
ATOM     86  S   UNL A   1      46.736  23.730  35.931  1.00  0.00     0.124 S 
ATOM     87  O   UNL A   1      47.550  24.154  37.064  1.00  0.00    -0.237 OA
ATOM     88  O   UNL A   1      45.298  23.653  36.172  1.00  0.00    -0.237 OA
ATOM     89  O   UNL A   1      47.290  22.627  35.147  1.00  0.00    -0.744 OA
ENDBRANCH  82  86
ENDBRANCH  56  79
ENDBRANCH  30  31
ENDBRANCH  22  25
ENDBRANCH  20  21
ENDBRANCH   1  20
TORSDOF 15
ENDMDL
MODEL 3
REMARK VINA RESULT:     -11.7      1.914      2.270
REMARK SMILES C[C@H](C(=O)NCCCCNC(=O)c1ccc(-c2c3nc(c(-c4cc(S(=O)(=O)[O-])ccc4F)c4ccc([nH]4)c(-c4cc(S(=O)(=O)[O-])ccc4F)c4nc(c(-c5cc(S(=O)(=O)[O-])ccc5F)c5ccc2[nH]5)C=C4)C=C3)cc1)c1ccc2c(c1)OCCO2
REMARK SMILES IDX 8 1 7 2 6 3 5 4 3 5 4 6 2 8 1 9 76 10 77 11 81 12 78 13
REMARK SMILES IDX 80 14 79 15 82 16 85 17 83 18 84 19 9 20 10 21 11 22 12 24
REMARK SMILES IDX 13 25 14 26 75 27 15 28 74 29 16 30 17 31 18 32 68 33 19 34
REMARK SMILES IDX 73 35 67 36 69 37 20 38 72 39 66 40 65 41 21 43 53 44 33 45
REMARK SMILES IDX 52 46 34 47 37 48 51 49 70 50 35 51 36 52 50 54 71 55 38 56
REMARK SMILES IDX 22 57 23 58 31 59 24 60 30 61 32 62 29 63 25 64 26 65 27 66
REMARK SMILES IDX 28 67 54 68 55 69 63 70 56 71 62 72 64 73 61 74 57 75 58 76
REMARK SMILES IDX 59 77 60 78 39 79 40 80 48 81 41 82 47 83 49 84 46 85 42 86
REMARK SMILES IDX 43 87 44 88 45 89
REMARK H PARENT 5 7 10 23 69 42 37 53
REMARK Flexibility Score: inf
ROOT
ATOM      1  C   UNL A   1      31.023  31.768  25.938  1.00  0.00     0.023 C 
ENDROOT
BRANCH   1   2
ATOM      2  C   UNL A   1      31.109  30.366  25.345  1.00  0.00     0.023 C 
BRANCH   2   3
ATOM      3  C   UNL A   1      32.393  29.590  25.640  1.00  0.00     0.116 C 
BRANCH   3   4
ATOM      4  N   UNL A   1      33.302  29.594  24.508  1.00  0.00    -0.356 N 
ATOM      5  C   UNL A   1      33.656  28.587  23.651  1.00  0.00     0.227 C 
ATOM      6  O   UNL A   1      34.494  28.851  22.784  1.00  0.00    -0.274 OA
ATOM      7  H   UNL A   1      33.735  30.461  24.327  1.00  0.00     0.163 HD
BRANCH   5   8
ATOM      8  C   UNL A   1      33.034  27.178  23.780  1.00  0.00     0.105 C 
ATOM      9  C   UNL A   1      33.237  26.649  25.204  1.00  0.00     0.023 C 
BRANCH   8  10
ATOM     10  C   UNL A   1      31.565  27.211  23.370  1.00  0.00    -0.032 A 
ATOM     11  C   UNL A   1      30.571  26.592  24.149  1.00  0.00     0.008 A 
ATOM     12  C   UNL A   1      31.172  28.061  22.325  1.00  0.00     0.055 A 
ATOM     13  C   UNL A   1      29.226  26.934  23.988  1.00  0.00     0.051 A 
ATOM     14  C   UNL A   1      29.852  28.499  22.254  1.00  0.00     0.161 A 
ATOM     15  C   UNL A   1      28.892  27.955  23.107  1.00  0.00     0.161 A 
ATOM     16  O   UNL A   1      29.620  29.588  21.456  1.00  0.00    -0.486 OA
ATOM     17  O   UNL A   1      27.636  28.499  23.206  1.00  0.00    -0.486 OA
ATOM     18  C   UNL A   1      28.407  30.291  21.768  1.00  0.00     0.271 C 
ATOM     19  C   UNL A   1      27.796  29.922  23.116  1.00  0.00     0.271 C 
ENDBRANCH   8  10
ENDBRANCH   5   8
ENDBRANCH   3   4
ENDBRANCH   2   3
ENDBRANCH   1   2
BRANCH   1  20
ATOM     20  C   UNL A   1      32.189  32.169  26.827  1.00  0.00     0.116 C 
BRANCH  20  21
ATOM     21  N   UNL A   1      32.133  33.552  27.275  1.00  0.00    -0.352 N 
ATOM     22  C   UNL A   1      32.996  34.225  28.109  1.00  0.00     0.251 C 
ATOM     23  H   UNL A   1      31.374  34.079  26.934  1.00  0.00     0.163 HD
ATOM     24  O   UNL A   1      32.731  35.372  28.462  1.00  0.00    -0.269 OA
BRANCH  22  25
ATOM     25  C   UNL A   1      34.210  33.545  28.618  1.00  0.00     0.039 A 
ATOM     26  C   UNL A   1      35.436  34.211  28.554  1.00  0.00     0.014 A 
ATOM     27  C   UNL A   1      34.134  32.274  29.194  1.00  0.00     0.014 A 
ATOM     28  C   UNL A   1      36.567  33.639  29.143  1.00  0.00     0.010 A 
ATOM     29  C   UNL A   1      35.239  31.747  29.855  1.00  0.00     0.010 A 
ATOM     30  C   UNL A   1      36.468  32.424  29.839  1.00  0.00    -0.014 A 
BRANCH  30  31
ATOM     31  C   UNL A   1      37.632  31.837  30.553  1.00  0.00     0.031 A 
ATOM     32  C   UNL A   1      38.477  30.790  29.879  1.00  0.00     0.074 A 
ATOM     33  C   UNL A   1      37.877  32.184  31.833  1.00  0.00     0.049 A 
ATOM     34  N   UNL A   1      39.464  30.081  30.363  1.00  0.00    -0.248 NA
ATOM     35  C   UNL A   1      38.137  30.474  28.484  1.00  0.00     0.031 C 
ATOM     36  C   UNL A   1      37.099  33.150  32.612  1.00  0.00     0.029 A 
ATOM     37  N   UNL A   1      38.843  31.756  32.709  1.00  0.00    -0.354 N 
ATOM     38  C   UNL A   1      39.849  29.221  29.341  1.00  0.00     0.074 A 
ATOM     39  C   UNL A   1      38.943  29.454  28.236  1.00  0.00     0.031 C 
ATOM     40  C   UNL A   1      37.632  33.258  33.840  1.00  0.00     0.029 A 
ATOM     41  C   UNL A   1      38.761  32.339  33.952  1.00  0.00     0.049 A 
ATOM     42  H   UNL A   1      39.531  31.093  32.469  1.00  0.00     0.167 HD
ATOM     43  C   UNL A   1      40.878  28.337  29.316  1.00  0.00     0.034 A 
ATOM     44  C   UNL A   1      39.502  32.145  35.061  1.00  0.00     0.034 A 
ATOM     45  C   UNL A   1      41.784  28.133  30.420  1.00  0.00     0.049 A 
ATOM     46  C   UNL A   1      40.635  31.154  35.016  1.00  0.00     0.074 A 
ATOM     47  C   UNL A   1      42.898  27.313  30.484  1.00  0.00     0.029 A 
ATOM     48  N   UNL A   1      41.678  28.752  31.660  1.00  0.00    -0.354 N 
ATOM     49  N   UNL A   1      41.020  30.384  34.023  1.00  0.00    -0.248 NA
ATOM     50  C   UNL A   1      41.440  31.012  36.235  1.00  0.00     0.031 C 
ATOM     51  C   UNL A   1      43.426  27.390  31.778  1.00  0.00     0.029 A 
ATOM     52  C   UNL A   1      42.687  28.311  32.502  1.00  0.00     0.049 A 
ATOM     53  H   UNL A   1      40.986  29.408  31.905  1.00  0.00     0.167 HD
ATOM     54  C   UNL A   1      42.130  29.688  34.492  1.00  0.00     0.074 A 
ATOM     55  C   UNL A   1      42.360  30.140  35.850  1.00  0.00     0.031 C 
ATOM     56  C   UNL A   1      42.895  28.762  33.858  1.00  0.00     0.034 A 
BRANCH  43  57
ATOM     57  C   UNL A   1      41.053  27.515  28.060  1.00  0.00     0.023 A 
ATOM     58  C   UNL A   1      40.709  26.151  28.017  1.00  0.00     0.031 A 
ATOM     59  C   UNL A   1      41.611  28.087  26.903  1.00  0.00     0.131 A 
ATOM     60  C   UNL A   1      41.012  25.387  26.881  1.00  0.00     0.055 A 
ATOM     61  C   UNL A   1      41.827  27.341  25.743  1.00  0.00     0.041 A 
ATOM     62  F   UNL A   1      41.976  29.379  26.886  1.00  0.00    -0.206 F 
ATOM     63  C   UNL A   1      41.545  25.977  25.733  1.00  0.00     0.022 A 
BRANCH  60  64
ATOM     64  S   UNL A   1      40.852  23.583  26.985  1.00  0.00     0.124 S 
ATOM     65  O   UNL A   1      41.714  23.148  25.889  1.00  0.00    -0.237 OA
ATOM     66  O   UNL A   1      41.337  23.301  28.331  1.00  0.00    -0.237 OA
ATOM     67  O   UNL A   1      39.424  23.354  26.774  1.00  0.00    -0.744 OA
ENDBRANCH  60  64
ENDBRANCH  43  57
BRANCH  44  68
ATOM     68  C   UNL A   1      39.199  32.898  36.312  1.00  0.00     0.023 A 
ATOM     69  C   UNL A   1      39.726  34.182  36.526  1.00  0.00     0.031 A 
ATOM     70  C   UNL A   1      38.405  32.332  37.325  1.00  0.00     0.131 A 
ATOM     71  C   UNL A   1      39.488  34.842  37.742  1.00  0.00     0.055 A 
ATOM     72  C   UNL A   1      38.132  33.013  38.514  1.00  0.00     0.041 A 
ATOM     73  F   UNL A   1      37.870  31.112  37.166  1.00  0.00    -0.206 F 
ATOM     74  C   UNL A   1      38.685  34.270  38.732  1.00  0.00     0.022 A 
BRANCH  71  75
ATOM     75  S   UNL A   1      40.306  36.433  38.040  1.00  0.00     0.124 S 
ATOM     76  O   UNL A   1      41.435  36.036  38.873  1.00  0.00    -0.237 OA
ATOM     77  O   UNL A   1      40.629  36.865  36.684  1.00  0.00    -0.237 OA
ATOM     78  O   UNL A   1      39.278  37.222  38.715  1.00  0.00    -0.744 OA
ENDBRANCH  71  75
ENDBRANCH  44  68
BRANCH  56  79
ATOM     79  C   UNL A   1      44.074  28.212  34.621  1.00  0.00     0.023 A 
ATOM     80  C   UNL A   1      43.972  27.048  35.402  1.00  0.00     0.031 A 
ATOM     81  C   UNL A   1      45.315  28.872  34.573  1.00  0.00     0.131 A 
ATOM     82  C   UNL A   1      45.077  26.608  36.146  1.00  0.00     0.055 A 
ATOM     83  C   UNL A   1      46.427  28.398  35.270  1.00  0.00     0.041 A 
ATOM     84  F   UNL A   1      45.467  29.989  33.844  1.00  0.00    -0.206 F 
ATOM     85  C   UNL A   1      46.308  27.266  36.073  1.00  0.00     0.022 A 
BRANCH  82  86
ATOM     86  S   UNL A   1      44.861  25.212  37.284  1.00  0.00     0.124 S 
ATOM     87  O   UNL A   1      43.409  25.107  37.364  1.00  0.00    -0.237 OA
ATOM     88  O   UNL A   1      45.542  24.129  36.580  1.00  0.00    -0.237 OA
ATOM     89  O   UNL A   1      45.520  25.662  38.509  1.00  0.00    -0.744 OA
ENDBRANCH  82  86
ENDBRANCH  56  79
ENDBRANCH  30  31
ENDBRANCH  22  25
ENDBRANCH  20  21
ENDBRANCH   1  20
TORSDOF 15
ENDMDL
