MODEL 1
REMARK VINA RESULT:     -12.8      0.000      0.000
REMARK SMILES Cc1nc2scc(C)n2c1CNc1ccc(C(=O)NCCCCNC(=O)c2ccc(-c3c4nc(c(-c5cc(S(=O)(=O)[O-])ccc5F)c5ccc([nH]5)c(-c5cc(S(=O)(=O)[O-])ccc5F)c5nc(c(-c6cc(S(=O)(=O)[O-])ccc6F)c6ccc3[nH]6)C=C5)C=C4)cc2)cc1
REMARK SMILES IDX 21 1 20 2 19 3 17 4 18 5 16 7 13 8 14 9 91 10 15 11 90 12
REMARK SMILES IDX 12 13 11 15 10 16 1 17 2 18 3 19 4 20 9 21 5 22 7 23 6 24
REMARK SMILES IDX 8 25 22 26 23 27 24 28 25 29 26 31 27 32 28 33 89 34 29 35
REMARK SMILES IDX 88 36 30 37 31 38 32 39 82 40 33 41 87 42 81 43 83 44 34 45
REMARK SMILES IDX 86 46 80 47 79 48 35 50 67 51 47 52 66 53 48 54 51 55 65 56
REMARK SMILES IDX 84 57 49 58 50 59 64 61 85 62 52 63 36 64 37 65 45 66 38 67
REMARK SMILES IDX 44 68 46 69 43 70 39 71 40 72 41 73 42 74 68 75 69 76 77 77
REMARK SMILES IDX 70 78 76 79 78 80 75 81 71 82 72 83 73 84 74 85 53 86 54 87
REMARK SMILES IDX 62 88 55 89 61 90 63 91 60 92 56 93 57 94 58 95 59 96
REMARK H PARENT 19 6 12 14 24 30 83 49 51 60
REMARK Flexibility Score: inf
ROOT
ATOM      1  C   UNL A   1      32.411  29.650  26.482  1.00  0.00     0.023 C 
ENDROOT
BRANCH   1   2
ATOM      2  C   UNL A   1      32.562  29.667  24.956  1.00  0.00     0.116 C 
BRANCH   2   3
ATOM      3  N   UNL A   1      31.298  29.970  24.312  1.00  0.00    -0.352 N 
ATOM      4  C   UNL A   1      30.413  29.226  23.575  1.00  0.00     0.251 C 
ATOM      5  O   UNL A   1      29.414  29.807  23.147  1.00  0.00    -0.269 OA
ATOM      6  H   UNL A   1      31.016  30.907  24.429  1.00  0.00     0.163 HD
BRANCH   4   7
ATOM      7  C   UNL A   1      30.557  27.763  23.311  1.00  0.00     0.039 A 
ATOM      8  C   UNL A   1      30.787  24.942  23.115  1.00  0.00     0.034 A 
ATOM      9  C   UNL A   1      29.780  25.522  23.885  1.00  0.00     0.026 A 
ATOM     10  C   UNL A   1      31.615  25.787  22.374  1.00  0.00     0.026 A 
ATOM     11  C   UNL A   1      29.679  26.913  24.000  1.00  0.00     0.016 A 
ATOM     12  C   UNL A   1      31.478  27.181  22.442  1.00  0.00     0.016 A 
BRANCH   8  13
ATOM     13  N   UNL A   1      31.017  23.580  23.215  1.00  0.00    -0.379 N 
ATOM     14  H   UNL A   1      31.138  23.039  22.401  1.00  0.00     0.160 HD
BRANCH  13  15
ATOM     15  C   UNL A   1      31.077  22.955  24.524  1.00  0.00     0.169 C 
BRANCH  15  16
ATOM     16  C   UNL A   1      32.433  23.019  25.125  1.00  0.00     0.066 A 
ATOM     17  C   UNL A   1      32.471  25.350  26.258  1.00  0.00     0.069 C 
ATOM     18  C   UNL A   1      33.037  24.041  25.857  1.00  0.00     0.062 A 
ATOM     19  N   UNL A   1      34.330  23.716  26.209  1.00  0.00    -0.224 NA
ATOM     20  C   UNL A   1      34.483  22.520  25.717  1.00  0.00     0.194 A 
ATOM     21  N   UNL A   1      33.387  22.024  25.065  1.00  0.00    -0.290 N 
ATOM     22  S   UNL A   1      35.806  21.399  25.717  1.00  0.00    -0.105 S 
ATOM     23  C   UNL A   1      33.556  20.738  24.558  1.00  0.00     0.032 A 
ATOM     24  C   UNL A   1      34.790  20.266  24.831  1.00  0.00     0.090 A 
ATOM     25  C   UNL A   1      32.525  19.949  23.834  1.00  0.00     0.066 C 
ENDBRANCH  15  16
ENDBRANCH  13  15
ENDBRANCH   8  13
ENDBRANCH   4   7
ENDBRANCH   2   3
ENDBRANCH   1   2
BRANCH   1  26
ATOM     26  C   UNL A   1      33.289  28.615  27.203  1.00  0.00     0.023 C 
BRANCH  26  27
ATOM     27  C   UNL A   1      34.768  28.981  27.288  1.00  0.00     0.116 C 
BRANCH  27  28
ATOM     28  N   UNL A   1      35.014  30.103  28.191  1.00  0.00    -0.352 N 
ATOM     29  C   UNL A   1      36.065  30.275  29.074  1.00  0.00     0.251 C 
ATOM     30  H   UNL A   1      34.347  30.828  28.168  1.00  0.00     0.163 HD
ATOM     31  O   UNL A   1      35.949  31.016  30.036  1.00  0.00    -0.269 OA
BRANCH  29  32
ATOM     32  C   UNL A   1      37.326  29.550  28.822  1.00  0.00     0.039 A 
ATOM     33  C   UNL A   1      38.093  29.812  27.685  1.00  0.00     0.014 A 
ATOM     34  C   UNL A   1      37.745  28.615  29.767  1.00  0.00     0.014 A 
ATOM     35  C   UNL A   1      39.339  29.196  27.553  1.00  0.00     0.010 A 
ATOM     36  C   UNL A   1      39.013  28.086  29.686  1.00  0.00     0.010 A 
ATOM     37  C   UNL A   1      39.808  28.351  28.572  1.00  0.00    -0.014 A 
BRANCH  37  38
ATOM     38  C   UNL A   1      41.207  27.905  28.591  1.00  0.00     0.031 A 
ATOM     39  C   UNL A   1      41.442  26.652  27.818  1.00  0.00     0.074 A 
ATOM     40  C   UNL A   1      42.226  28.691  29.008  1.00  0.00     0.049 A 
ATOM     41  N   UNL A   1      41.793  25.490  28.261  1.00  0.00    -0.248 NA
ATOM     42  C   UNL A   1      41.066  26.640  26.390  1.00  0.00     0.031 C 
ATOM     43  C   UNL A   1      42.118  30.072  29.498  1.00  0.00     0.029 A 
ATOM     44  N   UNL A   1      43.579  28.497  28.966  1.00  0.00    -0.354 N 
ATOM     45  C   UNL A   1      41.967  24.691  27.131  1.00  0.00     0.074 A 
ATOM     46  C   UNL A   1      41.265  25.360  26.074  1.00  0.00     0.031 C 
ATOM     47  C   UNL A   1      43.331  30.664  29.470  1.00  0.00     0.029 A 
ATOM     48  C   UNL A   1      44.329  29.664  29.135  1.00  0.00     0.049 A 
ATOM     49  H   UNL A   1      43.990  27.612  28.830  1.00  0.00     0.167 HD
ATOM     50  C   UNL A   1      42.949  23.744  27.097  1.00  0.00     0.034 A 
ATOM     51  C   UNL A   1      45.674  29.824  29.013  1.00  0.00     0.034 A 
ATOM     52  C   UNL A   1      43.457  23.516  28.433  1.00  0.00     0.049 A 
ATOM     53  C   UNL A   1      46.286  28.491  29.199  1.00  0.00     0.074 A 
ATOM     54  C   UNL A   1      43.004  22.939  29.597  1.00  0.00     0.029 A 
ATOM     55  N   UNL A   1      44.534  24.304  28.764  1.00  0.00    -0.354 N 
ATOM     56  N   UNL A   1      46.216  27.834  30.323  1.00  0.00    -0.248 NA
ATOM     57  C   UNL A   1      46.650  27.690  28.037  1.00  0.00     0.031 C 
ATOM     58  C   UNL A   1      43.688  23.607  30.658  1.00  0.00     0.029 A 
ATOM     59  C   UNL A   1      44.581  24.530  30.113  1.00  0.00     0.049 A 
ATOM     60  H   UNL A   1      45.186  24.658  28.116  1.00  0.00     0.167 HD
ATOM     61  C   UNL A   1      46.075  26.515  29.944  1.00  0.00     0.074 A 
ATOM     62  C   UNL A   1      46.538  26.467  28.562  1.00  0.00     0.031 C 
ATOM     63  C   UNL A   1      45.294  25.665  30.673  1.00  0.00     0.034 A 
BRANCH  50  64
ATOM     64  C   UNL A   1      43.822  23.411  25.885  1.00  0.00     0.023 A 
ATOM     65  C   UNL A   1      43.845  22.056  25.480  1.00  0.00     0.031 A 
ATOM     66  C   UNL A   1      44.835  24.220  25.326  1.00  0.00     0.131 A 
ATOM     67  C   UNL A   1      44.900  21.541  24.705  1.00  0.00     0.055 A 
ATOM     68  C   UNL A   1      45.859  23.710  24.517  1.00  0.00     0.041 A 
ATOM     69  F   UNL A   1      44.946  25.528  25.570  1.00  0.00    -0.206 F 
ATOM     70  C   UNL A   1      45.919  22.358  24.233  1.00  0.00     0.022 A 
BRANCH  67  71
ATOM     71  S   UNL A   1      45.008  19.746  24.476  1.00  0.00     0.124 S 
ATOM     72  O   UNL A   1      44.546  19.597  23.102  1.00  0.00    -0.237 OA
ATOM     73  O   UNL A   1      46.427  19.500  24.715  1.00  0.00    -0.237 OA
ATOM     74  O   UNL A   1      44.106  19.222  25.499  1.00  0.00    -0.744 OA
ENDBRANCH  67  71
ENDBRANCH  50  64
BRANCH  51  75
ATOM     75  C   UNL A   1      46.436  31.010  28.536  1.00  0.00     0.023 A 
ATOM     76  C   UNL A   1      46.006  31.835  27.472  1.00  0.00     0.031 A 
ATOM     77  C   UNL A   1      47.502  31.497  29.323  1.00  0.00     0.131 A 
ATOM     78  C   UNL A   1      46.624  33.089  27.246  1.00  0.00     0.055 A 
ATOM     79  C   UNL A   1      48.104  32.738  29.099  1.00  0.00     0.041 A 
ATOM     80  F   UNL A   1      47.936  30.816  30.397  1.00  0.00    -0.206 F 
ATOM     81  C   UNL A   1      47.659  33.546  28.066  1.00  0.00     0.022 A 
BRANCH  78  82
ATOM     82  S   UNL A   1      46.029  34.199  25.925  1.00  0.00     0.124 S 
ATOM     83  O   UNL A   1      45.143  33.329  25.162  1.00  0.00    -0.237 OA
ATOM     84  O   UNL A   1      45.396  35.274  26.679  1.00  0.00    -0.237 OA
ATOM     85  O   UNL A   1      47.256  34.587  25.226  1.00  0.00    -0.744 OA
ENDBRANCH  78  82
ENDBRANCH  51  75
BRANCH  63  86
ATOM     86  C   UNL A   1      45.061  26.008  32.123  1.00  0.00     0.023 A 
ATOM     87  C   UNL A   1      43.923  26.667  32.638  1.00  0.00     0.031 A 
ATOM     88  C   UNL A   1      46.050  25.596  33.033  1.00  0.00     0.131 A 
ATOM     89  C   UNL A   1      43.816  26.899  34.024  1.00  0.00     0.055 A 
ATOM     90  C   UNL A   1      45.931  25.808  34.403  1.00  0.00     0.041 A 
ATOM     91  F   UNL A   1      47.148  24.953  32.600  1.00  0.00    -0.206 F 
ATOM     92  C   UNL A   1      44.815  26.468  34.903  1.00  0.00     0.022 A 
BRANCH  89  93
ATOM     93  S   UNL A   1      42.388  27.798  34.710  1.00  0.00     0.124 S 
ATOM     94  O   UNL A   1      42.383  29.054  33.969  1.00  0.00    -0.237 OA
ATOM     95  O   UNL A   1      41.280  26.889  34.429  1.00  0.00    -0.237 OA
ATOM     96  O   UNL A   1      42.719  27.929  36.130  1.00  0.00    -0.744 OA
ENDBRANCH  89  93
ENDBRANCH  63  86
ENDBRANCH  37  38
ENDBRANCH  29  32
ENDBRANCH  27  28
ENDBRANCH  26  27
ENDBRANCH   1  26
TORSDOF 17
ENDMDL
MODEL 2
REMARK VINA RESULT:     -12.6      4.166     10.069
REMARK SMILES Cc1nc2scc(C)n2c1CNc1ccc(C(=O)NCCCCNC(=O)c2ccc(-c3c4nc(c(-c5cc(S(=O)(=O)[O-])ccc5F)c5ccc([nH]5)c(-c5cc(S(=O)(=O)[O-])ccc5F)c5nc(c(-c6cc(S(=O)(=O)[O-])ccc6F)c6ccc3[nH]6)C=C5)C=C4)cc2)cc1
REMARK SMILES IDX 21 1 20 2 19 3 17 4 18 5 16 7 13 8 14 9 91 10 15 11 90 12
REMARK SMILES IDX 12 13 11 15 10 16 1 17 2 18 3 19 4 20 9 21 5 22 7 23 6 24
REMARK SMILES IDX 8 25 22 26 23 27 24 28 25 29 26 31 27 32 28 33 89 34 29 35
REMARK SMILES IDX 88 36 30 37 31 38 32 39 82 40 33 41 87 42 81 43 83 44 34 45
REMARK SMILES IDX 86 46 80 47 79 48 35 50 67 51 47 52 66 53 48 54 51 55 65 56
REMARK SMILES IDX 84 57 49 58 50 59 64 61 85 62 52 63 36 64 37 65 45 66 38 67
REMARK SMILES IDX 44 68 46 69 43 70 39 71 40 72 41 73 42 74 68 75 69 76 77 77
REMARK SMILES IDX 70 78 76 79 78 80 75 81 71 82 72 83 73 84 74 85 53 86 54 87
REMARK SMILES IDX 62 88 55 89 61 90 63 91 60 92 56 93 57 94 58 95 59 96
REMARK H PARENT 19 6 12 14 24 30 83 49 51 60
REMARK Flexibility Score: inf
ROOT
ATOM      1  C   UNL A   1      36.802  22.115  24.832  1.00  0.00     0.023 C 
ENDROOT
BRANCH   1   2
ATOM      2  C   UNL A   1      35.846  21.578  25.903  1.00  0.00     0.116 C 
BRANCH   2   3
ATOM      3  N   UNL A   1      35.104  20.433  25.410  1.00  0.00    -0.352 N 
ATOM      4  C   UNL A   1      33.846  20.280  24.885  1.00  0.00     0.251 C 
ATOM      5  O   UNL A   1      33.506  19.138  24.571  1.00  0.00    -0.269 OA
ATOM      6  H   UNL A   1      35.609  19.589  25.462  1.00  0.00     0.163 HD
BRANCH   4   7
ATOM      7  C   UNL A   1      32.899  21.404  24.624  1.00  0.00     0.039 A 
ATOM      8  C   UNL A   1      31.345  23.702  24.025  1.00  0.00     0.034 A 
ATOM      9  C   UNL A   1      32.304  23.236  23.126  1.00  0.00     0.026 A 
ATOM     10  C   UNL A   1      31.110  22.952  25.179  1.00  0.00     0.026 A 
ATOM     11  C   UNL A   1      33.086  22.117  23.430  1.00  0.00     0.016 A 
ATOM     12  C   UNL A   1      31.853  21.796  25.458  1.00  0.00     0.016 A 
BRANCH   8  13
ATOM     13  N   UNL A   1      30.764  24.941  23.816  1.00  0.00    -0.379 N 
ATOM     14  H   UNL A   1      29.861  25.127  24.161  1.00  0.00     0.160 HD
BRANCH  13  15
ATOM     15  C   UNL A   1      31.492  25.962  23.083  1.00  0.00     0.169 C 
BRANCH  15  16
ATOM     16  C   UNL A   1      31.491  27.272  23.780  1.00  0.00     0.066 A 
ATOM     17  C   UNL A   1      29.473  28.507  22.722  1.00  0.00     0.069 C 
ATOM     18  C   UNL A   1      30.639  28.366  23.624  1.00  0.00     0.062 A 
ATOM     19  N   UNL A   1      31.002  29.412  24.446  1.00  0.00    -0.224 NA
ATOM     20  C   UNL A   1      32.031  28.944  25.091  1.00  0.00     0.194 A 
ATOM     21  N   UNL A   1      32.380  27.662  24.760  1.00  0.00    -0.290 N 
ATOM     22  S   UNL A   1      33.072  29.611  26.307  1.00  0.00    -0.105 S 
ATOM     23  C   UNL A   1      33.472  27.166  25.469  1.00  0.00     0.032 A 
ATOM     24  C   UNL A   1      33.947  28.083  26.336  1.00  0.00     0.090 A 
ATOM     25  C   UNL A   1      34.045  25.801  25.334  1.00  0.00     0.066 C 
ENDBRANCH  15  16
ENDBRANCH  13  15
ENDBRANCH   8  13
ENDBRANCH   4   7
ENDBRANCH   2   3
ENDBRANCH   1   2
BRANCH   1  26
ATOM     26  C   UNL A   1      37.054  23.630  24.899  1.00  0.00     0.023 C 
BRANCH  26  27
ATOM     27  C   UNL A   1      37.754  24.105  26.169  1.00  0.00     0.116 C 
BRANCH  27  28
ATOM     28  N   UNL A   1      39.187  23.825  26.156  1.00  0.00    -0.352 N 
ATOM     29  C   UNL A   1      40.228  24.682  26.464  1.00  0.00     0.251 C 
ATOM     30  H   UNL A   1      39.445  22.911  25.893  1.00  0.00     0.163 HD
ATOM     31  O   UNL A   1      41.350  24.475  26.031  1.00  0.00    -0.269 OA
BRANCH  29  32
ATOM     32  C   UNL A   1      39.954  25.844  27.332  1.00  0.00     0.039 A 
ATOM     33  C   UNL A   1      39.424  25.677  28.614  1.00  0.00     0.014 A 
ATOM     34  C   UNL A   1      40.266  27.113  26.847  1.00  0.00     0.014 A 
ATOM     35  C   UNL A   1      39.301  26.792  29.445  1.00  0.00     0.010 A 
ATOM     36  C   UNL A   1      40.238  28.194  27.699  1.00  0.00     0.010 A 
ATOM     37  C   UNL A   1      39.735  28.049  28.992  1.00  0.00    -0.014 A 
BRANCH  37  38
ATOM     38  C   UNL A   1      39.867  29.177  29.923  1.00  0.00     0.031 A 
ATOM     39  C   UNL A   1      38.615  29.972  30.074  1.00  0.00     0.074 A 
ATOM     40  C   UNL A   1      40.909  29.311  30.776  1.00  0.00     0.049 A 
ATOM     41  N   UNL A   1      38.393  31.194  29.718  1.00  0.00    -0.248 NA
ATOM     42  C   UNL A   1      37.396  29.265  30.516  1.00  0.00     0.031 C 
ATOM     43  C   UNL A   1      42.045  28.392  30.914  1.00  0.00     0.029 A 
ATOM     44  N   UNL A   1      41.124  30.204  31.789  1.00  0.00    -0.354 N 
ATOM     45  C   UNL A   1      37.105  31.490  30.164  1.00  0.00     0.074 A 
ATOM     46  C   UNL A   1      36.475  30.222  30.392  1.00  0.00     0.031 C 
ATOM     47  C   UNL A   1      42.682  28.624  32.082  1.00  0.00     0.029 A 
ATOM     48  C   UNL A   1      42.117  29.815  32.692  1.00  0.00     0.049 A 
ATOM     49  H   UNL A   1      40.623  31.048  31.875  1.00  0.00     0.167 HD
ATOM     50  C   UNL A   1      36.800  32.739  30.622  1.00  0.00     0.034 A 
ATOM     51  C   UNL A   1      42.469  30.410  33.863  1.00  0.00     0.034 A 
ATOM     52  C   UNL A   1      37.846  33.667  30.249  1.00  0.00     0.049 A 
ATOM     53  C   UNL A   1      42.019  31.815  33.785  1.00  0.00     0.074 A 
ATOM     54  C   UNL A   1      38.305  34.254  29.092  1.00  0.00     0.029 A 
ATOM     55  N   UNL A   1      38.836  33.802  31.193  1.00  0.00    -0.354 N 
ATOM     56  N   UNL A   1      42.503  32.664  32.921  1.00  0.00    -0.248 NA
ATOM     57  C   UNL A   1      40.754  32.208  34.395  1.00  0.00     0.031 C 
ATOM     58  C   UNL A   1      39.692  34.515  29.309  1.00  0.00     0.029 A 
ATOM     59  C   UNL A   1      40.029  34.136  30.609  1.00  0.00     0.049 A 
ATOM     60  H   UNL A   1      38.706  33.676  32.161  1.00  0.00     0.167 HD
ATOM     61  C   UNL A   1      41.420  33.436  32.551  1.00  0.00     0.074 A 
ATOM     62  C   UNL A   1      40.439  33.245  33.612  1.00  0.00     0.031 C 
ATOM     63  C   UNL A   1      41.298  33.888  31.268  1.00  0.00     0.034 A 
BRANCH  50  64
ATOM     64  C   UNL A   1      35.898  33.051  31.818  1.00  0.00     0.023 A 
ATOM     65  C   UNL A   1      34.825  33.942  31.581  1.00  0.00     0.031 A 
ATOM     66  C   UNL A   1      36.185  32.810  33.179  1.00  0.00     0.131 A 
ATOM     67  C   UNL A   1      34.211  34.647  32.632  1.00  0.00     0.055 A 
ATOM     68  C   UNL A   1      35.540  33.482  34.226  1.00  0.00     0.041 A 
ATOM     69  F   UNL A   1      37.142  31.974  33.589  1.00  0.00    -0.206 F 
ATOM     70  C   UNL A   1      34.574  34.434  33.956  1.00  0.00     0.022 A 
BRANCH  67  71
ATOM     71  S   UNL A   1      33.052  35.978  32.221  1.00  0.00     0.124 S 
ATOM     72  O   UNL A   1      31.767  35.319  32.414  1.00  0.00    -0.237 OA
ATOM     73  O   UNL A   1      33.412  36.999  33.199  1.00  0.00    -0.237 OA
ATOM     74  O   UNL A   1      33.387  36.299  30.835  1.00  0.00    -0.744 OA
ENDBRANCH  67  71
ENDBRANCH  50  64
BRANCH  51  75
ATOM     75  C   UNL A   1      42.973  29.784  35.116  1.00  0.00     0.023 A 
ATOM     76  C   UNL A   1      42.652  28.466  35.511  1.00  0.00     0.031 A 
ATOM     77  C   UNL A   1      44.014  30.423  35.825  1.00  0.00     0.131 A 
ATOM     78  C   UNL A   1      43.372  27.840  36.559  1.00  0.00     0.055 A 
ATOM     79  C   UNL A   1      44.723  29.798  36.854  1.00  0.00     0.041 A 
ATOM     80  F   UNL A   1      44.435  31.650  35.478  1.00  0.00    -0.206 F 
ATOM     81  C   UNL A   1      44.413  28.498  37.217  1.00  0.00     0.022 A 
BRANCH  78  82
ATOM     82  S   UNL A   1      43.022  26.111  37.029  1.00  0.00     0.124 S 
ATOM     83  O   UNL A   1      44.291  25.680  37.601  1.00  0.00    -0.237 OA
ATOM     84  O   UNL A   1      41.905  26.258  37.955  1.00  0.00    -0.237 OA
ATOM     85  O   UNL A   1      42.677  25.475  35.755  1.00  0.00    -0.744 OA
ENDBRANCH  78  82
ENDBRANCH  51  75
BRANCH  63  86
ATOM     86  C   UNL A   1      42.562  34.013  30.454  1.00  0.00     0.023 A 
ATOM     87  C   UNL A   1      43.018  33.078  29.499  1.00  0.00     0.031 A 
ATOM     88  C   UNL A   1      43.318  35.182  30.642  1.00  0.00     0.131 A 
ATOM     89  C   UNL A   1      44.204  33.332  28.782  1.00  0.00     0.055 A 
ATOM     90  C   UNL A   1      44.477  35.440  29.917  1.00  0.00     0.041 A 
ATOM     91  F   UNL A   1      42.924  36.113  31.528  1.00  0.00    -0.206 F 
ATOM     92  C   UNL A   1      44.928  34.511  28.987  1.00  0.00     0.022 A 
BRANCH  89  93
ATOM     93  S   UNL A   1      44.848  32.118  27.586  1.00  0.00     0.124 S 
ATOM     94  O   UNL A   1      44.160  32.458  26.346  1.00  0.00    -0.237 OA
ATOM     95  O   UNL A   1      46.284  32.382  27.612  1.00  0.00    -0.237 OA
ATOM     96  O   UNL A   1      44.458  30.831  28.166  1.00  0.00    -0.744 OA
ENDBRANCH  89  93
ENDBRANCH  63  86
ENDBRANCH  37  38
ENDBRANCH  29  32
ENDBRANCH  27  28
ENDBRANCH  26  27
ENDBRANCH   1  26
TORSDOF 17
ENDMDL
MODEL 3
REMARK VINA RESULT:     -12.5      1.422      2.043
REMARK SMILES Cc1nc2scc(C)n2c1CNc1ccc(C(=O)NCCCCNC(=O)c2ccc(-c3c4nc(c(-c5cc(S(=O)(=O)[O-])ccc5F)c5ccc([nH]5)c(-c5cc(S(=O)(=O)[O-])ccc5F)c5nc(c(-c6cc(S(=O)(=O)[O-])ccc6F)c6ccc3[nH]6)C=C5)C=C4)cc2)cc1
REMARK SMILES IDX 21 1 20 2 19 3 17 4 18 5 16 7 13 8 14 9 91 10 15 11 90 12
REMARK SMILES IDX 12 13 11 15 10 16 1 17 2 18 3 19 4 20 9 21 5 22 7 23 6 24
REMARK SMILES IDX 8 25 22 26 23 27 24 28 25 29 26 31 27 32 28 33 89 34 29 35
REMARK SMILES IDX 88 36 30 37 31 38 32 39 82 40 33 41 87 42 81 43 83 44 34 45
REMARK SMILES IDX 86 46 80 47 79 48 35 50 67 51 47 52 66 53 48 54 51 55 65 56
REMARK SMILES IDX 84 57 49 58 50 59 64 61 85 62 52 63 36 64 37 65 45 66 38 67
REMARK SMILES IDX 44 68 46 69 43 70 39 71 40 72 41 73 42 74 68 75 69 76 77 77
REMARK SMILES IDX 70 78 76 79 78 80 75 81 71 82 72 83 73 84 74 85 53 86 54 87
REMARK SMILES IDX 62 88 55 89 61 90 63 91 60 92 56 93 57 94 58 95 59 96
REMARK H PARENT 19 6 12 14 24 30 83 49 51 60
REMARK Flexibility Score: inf
ROOT
ATOM      1  C   UNL A   1      32.297  29.513  26.772  1.00  0.00     0.023 C 
ENDROOT
BRANCH   1   2
ATOM      2  C   UNL A   1      32.506  30.003  25.334  1.00  0.00     0.116 C 
BRANCH   2   3
ATOM      3  N   UNL A   1      31.239  30.116  24.635  1.00  0.00    -0.352 N 
ATOM      4  C   UNL A   1      30.497  29.242  23.883  1.00  0.00     0.251 C 
ATOM      5  O   UNL A   1      29.446  29.671  23.403  1.00  0.00    -0.269 OA
ATOM      6  H   UNL A   1      30.827  31.007  24.717  1.00  0.00     0.163 HD
BRANCH   4   7
ATOM      7  C   UNL A   1      30.851  27.809  23.662  1.00  0.00     0.039 A 
ATOM      8  C   UNL A   1      31.511  25.146  22.934  1.00  0.00     0.034 A 
ATOM      9  C   UNL A   1      32.119  26.230  22.300  1.00  0.00     0.026 A 
ATOM     10  C   UNL A   1      30.642  25.411  23.994  1.00  0.00     0.026 A 
ATOM     11  C   UNL A   1      31.779  27.543  22.643  1.00  0.00     0.016 A 
ATOM     12  C   UNL A   1      30.344  26.726  24.378  1.00  0.00     0.016 A 
BRANCH   8  13
ATOM     13  N   UNL A   1      31.678  23.875  22.413  1.00  0.00    -0.379 N 
ATOM     14  H   UNL A   1      30.919  23.409  21.993  1.00  0.00     0.160 HD
BRANCH  13  15
ATOM     15  C   UNL A   1      32.978  23.230  22.492  1.00  0.00     0.169 C 
BRANCH  15  16
ATOM     16  C   UNL A   1      33.079  22.291  23.636  1.00  0.00     0.066 A 
ATOM     17  C   UNL A   1      32.153  20.072  22.667  1.00  0.00     0.069 C 
ATOM     18  C   UNL A   1      32.720  20.945  23.721  1.00  0.00     0.062 A 
ATOM     19  N   UNL A   1      32.947  20.439  24.983  1.00  0.00    -0.224 NA
ATOM     20  C   UNL A   1      33.449  21.453  25.628  1.00  0.00     0.194 A 
ATOM     21  N   UNL A   1      33.575  22.597  24.887  1.00  0.00    -0.290 N 
ATOM     22  S   UNL A   1      34.007  21.664  27.256  1.00  0.00    -0.105 S 
ATOM     23  C   UNL A   1      34.129  23.670  25.581  1.00  0.00     0.032 A 
ATOM     24  C   UNL A   1      34.419  23.328  26.854  1.00  0.00     0.090 A 
ATOM     25  C   UNL A   1      34.406  25.017  25.017  1.00  0.00     0.066 C 
ENDBRANCH  15  16
ENDBRANCH  13  15
ENDBRANCH   8  13
ENDBRANCH   4   7
ENDBRANCH   2   3
ENDBRANCH   1   2
BRANCH   1  26
ATOM     26  C   UNL A   1      33.324  28.476  27.252  1.00  0.00     0.023 C 
BRANCH  26  27
ATOM     27  C   UNL A   1      34.773  28.953  27.229  1.00  0.00     0.116 C 
BRANCH  27  28
ATOM     28  N   UNL A   1      35.008  30.068  28.143  1.00  0.00    -0.352 N 
ATOM     29  C   UNL A   1      36.047  30.232  29.042  1.00  0.00     0.251 C 
ATOM     30  H   UNL A   1      34.344  30.795  28.116  1.00  0.00     0.163 HD
ATOM     31  O   UNL A   1      35.919  30.966  30.008  1.00  0.00    -0.269 OA
BRANCH  29  32
ATOM     32  C   UNL A   1      37.310  29.506  28.803  1.00  0.00     0.039 A 
ATOM     33  C   UNL A   1      38.086  29.764  27.670  1.00  0.00     0.014 A 
ATOM     34  C   UNL A   1      37.722  28.575  29.754  1.00  0.00     0.014 A 
ATOM     35  C   UNL A   1      39.333  29.148  27.551  1.00  0.00     0.010 A 
ATOM     36  C   UNL A   1      38.990  28.045  29.686  1.00  0.00     0.010 A 
ATOM     37  C   UNL A   1      39.795  28.307  28.576  1.00  0.00    -0.014 A 
BRANCH  37  38
ATOM     38  C   UNL A   1      41.193  27.861  28.608  1.00  0.00     0.031 A 
ATOM     39  C   UNL A   1      41.438  26.617  27.824  1.00  0.00     0.074 A 
ATOM     40  C   UNL A   1      42.207  28.643  29.047  1.00  0.00     0.049 A 
ATOM     41  N   UNL A   1      41.785  25.450  28.259  1.00  0.00    -0.248 NA
ATOM     42  C   UNL A   1      41.081  26.620  26.392  1.00  0.00     0.031 C 
ATOM     43  C   UNL A   1      42.091  30.018  29.550  1.00  0.00     0.029 A 
ATOM     44  N   UNL A   1      43.560  28.450  29.020  1.00  0.00    -0.354 N 
ATOM     45  C   UNL A   1      41.974  24.664  27.123  1.00  0.00     0.074 A 
ATOM     46  C   UNL A   1      41.284  25.343  26.065  1.00  0.00     0.031 C 
ATOM     47  C   UNL A   1      43.305  30.611  29.544  1.00  0.00     0.029 A 
ATOM     48  C   UNL A   1      44.308  29.615  29.210  1.00  0.00     0.049 A 
ATOM     49  H   UNL A   1      43.973  27.567  28.878  1.00  0.00     0.167 HD
ATOM     50  C   UNL A   1      42.956  23.717  27.092  1.00  0.00     0.034 A 
ATOM     51  C   UNL A   1      45.654  29.777  29.106  1.00  0.00     0.034 A 
ATOM     52  C   UNL A   1      43.448  23.475  28.431  1.00  0.00     0.049 A 
ATOM     53  C   UNL A   1      46.264  28.443  29.286  1.00  0.00     0.074 A 
ATOM     54  C   UNL A   1      42.980  22.885  29.583  1.00  0.00     0.029 A 
ATOM     55  N   UNL A   1      44.520  24.260  28.783  1.00  0.00    -0.354 N 
ATOM     56  N   UNL A   1      46.181  27.773  30.402  1.00  0.00    -0.248 NA
ATOM     57  C   UNL A   1      46.642  27.655  28.119  1.00  0.00     0.031 C 
ATOM     58  C   UNL A   1      43.651  23.542  30.659  1.00  0.00     0.029 A 
ATOM     59  C   UNL A   1      44.550  24.471  30.136  1.00  0.00     0.049 A 
ATOM     60  H   UNL A   1      45.179  24.621  28.148  1.00  0.00     0.167 HD
ATOM     61  C   UNL A   1      46.045  26.458  30.006  1.00  0.00     0.074 A 
ATOM     62  C   UNL A   1      46.525  26.425  28.630  1.00  0.00     0.031 C 
ATOM     63  C   UNL A   1      45.255  25.600  30.716  1.00  0.00     0.034 A 
BRANCH  50  64
ATOM     64  C   UNL A   1      43.844  23.398  25.887  1.00  0.00     0.023 A 
ATOM     65  C   UNL A   1      43.878  22.046  25.471  1.00  0.00     0.031 A 
ATOM     66  C   UNL A   1      44.859  24.215  25.345  1.00  0.00     0.131 A 
ATOM     67  C   UNL A   1      44.944  21.541  24.704  1.00  0.00     0.055 A 
ATOM     68  C   UNL A   1      45.896  23.716  24.545  1.00  0.00     0.041 A 
ATOM     69  F   UNL A   1      44.962  25.522  25.601  1.00  0.00    -0.206 F 
ATOM     70  C   UNL A   1      45.965  22.367  24.251  1.00  0.00     0.022 A 
BRANCH  67  71
ATOM     71  S   UNL A   1      45.063  19.749  24.463  1.00  0.00     0.124 S 
ATOM     72  O   UNL A   1      46.498  19.529  24.599  1.00  0.00    -0.237 OA
ATOM     73  O   UNL A   1      44.223  19.246  25.544  1.00  0.00    -0.237 OA
ATOM     74  O   UNL A   1      44.528  19.555  23.117  1.00  0.00    -0.744 OA
ENDBRANCH  67  71
ENDBRANCH  50  64
BRANCH  51  75
ATOM     75  C   UNL A   1      46.421  30.969  28.652  1.00  0.00     0.023 A 
ATOM     76  C   UNL A   1      47.318  31.679  29.481  1.00  0.00     0.031 A 
ATOM     77  C   UNL A   1      46.460  31.268  27.272  1.00  0.00     0.131 A 
ATOM     78  C   UNL A   1      48.212  32.625  28.920  1.00  0.00     0.055 A 
ATOM     79  C   UNL A   1      47.348  32.198  26.724  1.00  0.00     0.041 A 
ATOM     80  F   UNL A   1      45.693  30.598  26.397  1.00  0.00    -0.206 F 
ATOM     81  C   UNL A   1      48.236  32.872  27.545  1.00  0.00     0.022 A 
BRANCH  78  82
ATOM     82  S   UNL A   1      49.429  33.494  29.966  1.00  0.00     0.124 S 
ATOM     83  O   UNL A   1      49.690  32.518  31.017  1.00  0.00    -0.237 OA
ATOM     84  O   UNL A   1      50.518  33.753  29.032  1.00  0.00    -0.237 OA
ATOM     85  O   UNL A   1      48.708  34.690  30.407  1.00  0.00    -0.744 OA
ENDBRANCH  78  82
ENDBRANCH  51  75
BRANCH  63  86
ATOM     86  C   UNL A   1      45.004  25.928  32.167  1.00  0.00     0.023 A 
ATOM     87  C   UNL A   1      43.845  26.553  32.680  1.00  0.00     0.031 A 
ATOM     88  C   UNL A   1      45.997  25.536  33.082  1.00  0.00     0.131 A 
ATOM     89  C   UNL A   1      43.724  26.773  34.066  1.00  0.00     0.055 A 
ATOM     90  C   UNL A   1      45.864  25.736  34.451  1.00  0.00     0.041 A 
ATOM     91  F   UNL A   1      47.115  24.925  32.652  1.00  0.00    -0.206 F 
ATOM     92  C   UNL A   1      44.729  26.363  34.949  1.00  0.00     0.022 A 
BRANCH  89  93
ATOM     93  S   UNL A   1      42.268  27.629  34.748  1.00  0.00     0.124 S 
ATOM     94  O   UNL A   1      42.247  28.898  34.030  1.00  0.00    -0.237 OA
ATOM     95  O   UNL A   1      41.183  26.703  34.436  1.00  0.00    -0.237 OA
ATOM     96  O   UNL A   1      42.577  27.742  36.175  1.00  0.00    -0.744 OA
ENDBRANCH  89  93
ENDBRANCH  63  86
ENDBRANCH  37  38
ENDBRANCH  29  32
ENDBRANCH  27  28
ENDBRANCH  26  27
ENDBRANCH   1  26
TORSDOF 17
ENDMDL
