MODEL 1
REMARK VINA RESULT:     -11.3      0.000      0.000
REMARK SMILES CCOC(=O)[C@H](C)NC(=O)N1CC[C@H](C(=O)NCCCCNC(=O)c2ccc(-c3c4nc(c(-c5cc(S(=O)(=O)[O-])ccc5F)c5ccc([nH]5)c(-c5cc(S(=O)(=O)[O-])ccc5F)c5nc(c(-c6cc(S(=O)(=O)[O-])ccc6F)c6ccc3[nH]6)C=C5)C=C4)cc2)[C@@H]1C
REMARK SMILES IDX 18 1 17 2 15 3 16 4 14 6 11 7 12 8 88 9 13 10 89 11 9 12
REMARK SMILES IDX 8 13 10 15 6 16 7 17 4 18 5 19 3 20 2 21 1 22 19 23 20 24
REMARK SMILES IDX 21 25 22 26 23 27 24 29 25 30 26 31 87 32 27 33 86 34 28 35
REMARK SMILES IDX 29 36 30 37 80 38 31 39 85 40 79 41 81 42 32 43 84 44 78 45
REMARK SMILES IDX 77 46 33 48 65 49 45 50 64 51 46 52 49 53 63 54 82 55 47 56
REMARK SMILES IDX 48 57 62 59 83 60 50 61 34 62 35 63 43 64 36 65 42 66 44 67
REMARK SMILES IDX 41 68 37 69 38 70 39 71 40 72 66 73 67 74 75 75 68 76 74 77
REMARK SMILES IDX 76 78 73 79 69 80 70 81 71 82 72 83 51 84 52 85 60 86 53 87
REMARK SMILES IDX 59 88 61 89 58 90 54 91 55 92 56 93 57 94
REMARK H PARENT 17 5 8 14 22 28 81 47 49 58
REMARK Flexibility Score: inf
ROOT
ATOM      1  C   UNL A   1      31.490  29.609  25.060  1.00  0.00     0.116 C 
ENDROOT
BRANCH   1   2
ATOM      2  N   UNL A   1      32.308  28.779  24.193  1.00  0.00    -0.356 N 
ATOM      3  C   UNL A   1      32.124  27.476  23.817  1.00  0.00     0.225 C 
ATOM      4  O   UNL A   1      32.936  27.004  23.025  1.00  0.00    -0.275 OA
ATOM      5  H   UNL A   1      33.108  29.217  23.823  1.00  0.00     0.163 HD
BRANCH   3   6
ATOM      6  C   UNL A   1      30.999  26.670  24.465  1.00  0.00     0.102 C 
ATOM      7  N   UNL A   1      30.693  24.628  25.672  1.00  0.00    -0.321 N 
ATOM      8  C   UNL A   1      30.802  24.260  24.285  1.00  0.00     0.122 C 
ATOM      9  C   UNL A   1      31.234  25.991  25.848  1.00  0.00     0.096 C 
ATOM     10  C   UNL A   1      30.468  25.539  23.564  1.00  0.00     0.037 C 
ATOM     11  C   UNL A   1      32.665  25.917  26.380  1.00  0.00     0.032 C 
BRANCH   7  12
ATOM     12  C   UNL A   1      30.480  23.636  26.575  1.00  0.00     0.318 C 
ATOM     13  N   UNL A   1      31.328  22.605  26.698  1.00  0.00    -0.325 N 
ATOM     14  H   UNL A   1      30.917  21.798  27.086  1.00  0.00     0.166 HD
ATOM     15  O   UNL A   1      29.523  23.656  27.350  1.00  0.00    -0.249 OA
BRANCH  13  16
ATOM     16  C   UNL A   1      32.738  22.443  26.369  1.00  0.00     0.190 C 
ATOM     17  C   UNL A   1      33.573  22.230  27.627  1.00  0.00     0.043 C 
BRANCH  16  18
ATOM     18  C   UNL A   1      32.819  21.221  25.466  1.00  0.00     0.328 C 
ATOM     19  O   UNL A   1      32.023  20.288  25.497  1.00  0.00    -0.250 OA
BRANCH  18  20
ATOM     20  O   UNL A   1      33.861  21.340  24.597  1.00  0.00    -0.464 OA
BRANCH  20  21
ATOM     21  C   UNL A   1      34.927  20.404  24.794  1.00  0.00     0.229 C 
ATOM     22  C   UNL A   1      36.113  21.082  25.454  1.00  0.00     0.049 C 
ENDBRANCH  20  21
ENDBRANCH  18  20
ENDBRANCH  16  18
ENDBRANCH  13  16
ENDBRANCH   7  12
ENDBRANCH   3   6
ENDBRANCH   1   2
BRANCH   1  23
ATOM     23  C   UNL A   1      32.203  30.070  26.325  1.00  0.00     0.023 C 
BRANCH  23  24
ATOM     24  C   UNL A   1      31.845  31.475  26.810  1.00  0.00     0.023 C 
BRANCH  24  25
ATOM     25  C   UNL A   1      32.992  32.284  27.412  1.00  0.00     0.116 C 
BRANCH  25  26
ATOM     26  N   UNL A   1      32.640  33.671  27.667  1.00  0.00    -0.352 N 
ATOM     27  C   UNL A   1      33.152  34.557  28.590  1.00  0.00     0.251 C 
ATOM     28  H   UNL A   1      31.926  34.034  27.093  1.00  0.00     0.163 HD
ATOM     29  O   UNL A   1      32.620  35.646  28.746  1.00  0.00    -0.269 OA
BRANCH  27  30
ATOM     30  C   UNL A   1      34.320  34.166  29.413  1.00  0.00     0.039 A 
ATOM     31  C   UNL A   1      34.104  33.446  30.591  1.00  0.00     0.014 A 
ATOM     32  C   UNL A   1      35.618  34.477  29.008  1.00  0.00     0.014 A 
ATOM     33  C   UNL A   1      35.197  32.957  31.311  1.00  0.00     0.010 A 
ATOM     34  C   UNL A   1      36.703  33.917  29.679  1.00  0.00     0.010 A 
ATOM     35  C   UNL A   1      36.504  33.144  30.834  1.00  0.00    -0.014 A 
BRANCH  35  36
ATOM     36  C   UNL A   1      37.677  32.533  31.517  1.00  0.00     0.031 A 
ATOM     37  C   UNL A   1      38.413  31.390  30.871  1.00  0.00     0.074 A 
ATOM     38  C   UNL A   1      38.027  32.951  32.751  1.00  0.00     0.049 A 
ATOM     39  N   UNL A   1      39.386  30.655  31.347  1.00  0.00    -0.248 NA
ATOM     40  C   UNL A   1      37.970  31.000  29.524  1.00  0.00     0.031 C 
ATOM     41  C   UNL A   1      37.363  34.019  33.502  1.00  0.00     0.029 A 
ATOM     42  N   UNL A   1      39.020  32.523  33.598  1.00  0.00    -0.354 N 
ATOM     43  C   UNL A   1      39.657  29.704  30.368  1.00  0.00     0.074 A 
ATOM     44  C   UNL A   1      38.703  29.920  29.301  1.00  0.00     0.031 C 
ATOM     45  C   UNL A   1      37.979  34.175  34.685  1.00  0.00     0.029 A 
ATOM     46  C   UNL A   1      39.048  33.189  34.801  1.00  0.00     0.049 A 
ATOM     47  H   UNL A   1      39.651  31.804  33.366  1.00  0.00     0.167 HD
ATOM     48  C   UNL A   1      40.625  28.755  30.351  1.00  0.00     0.034 A 
ATOM     49  C   UNL A   1      39.835  33.016  35.883  1.00  0.00     0.034 A 
ATOM     50  C   UNL A   1      41.580  28.567  31.416  1.00  0.00     0.049 A 
ATOM     51  C   UNL A   1      40.897  31.947  35.847  1.00  0.00     0.074 A 
ATOM     52  C   UNL A   1      42.643  27.682  31.474  1.00  0.00     0.029 A 
ATOM     53  N   UNL A   1      41.587  29.271  32.614  1.00  0.00    -0.354 N 
ATOM     54  N   UNL A   1      41.175  31.092  34.891  1.00  0.00    -0.248 NA
ATOM     55  C   UNL A   1      41.757  31.826  37.032  1.00  0.00     0.031 C 
ATOM     56  C   UNL A   1      43.248  27.802  32.730  1.00  0.00     0.029 A 
ATOM     57  C   UNL A   1      42.614  28.818  33.428  1.00  0.00     0.049 A 
ATOM     58  H   UNL A   1      40.955  29.987  32.851  1.00  0.00     0.167 HD
ATOM     59  C   UNL A   1      42.264  30.353  35.348  1.00  0.00     0.074 A 
ATOM     60  C   UNL A   1      42.597  30.873  36.658  1.00  0.00     0.031 C 
ATOM     61  C   UNL A   1      42.929  29.340  34.737  1.00  0.00     0.034 A 
BRANCH  48  62
ATOM     62  C   UNL A   1      40.679  27.837  29.153  1.00  0.00     0.023 A 
ATOM     63  C   UNL A   1      41.607  28.032  28.114  1.00  0.00     0.031 A 
ATOM     64  C   UNL A   1      39.772  26.770  29.031  1.00  0.00     0.131 A 
ATOM     65  C   UNL A   1      41.556  27.226  26.967  1.00  0.00     0.055 A 
ATOM     66  C   UNL A   1      39.782  25.918  27.925  1.00  0.00     0.041 A 
ATOM     67  F   UNL A   1      38.849  26.546  29.980  1.00  0.00    -0.206 F 
ATOM     68  C   UNL A   1      40.666  26.153  26.876  1.00  0.00     0.022 A 
BRANCH  65  69
ATOM     69  S   UNL A   1      42.565  27.694  25.535  1.00  0.00     0.124 S 
ATOM     70  O   UNL A   1      42.469  26.496  24.703  1.00  0.00    -0.237 OA
ATOM     71  O   UNL A   1      41.874  28.875  25.035  1.00  0.00    -0.237 OA
ATOM     72  O   UNL A   1      43.885  27.940  26.112  1.00  0.00    -0.744 OA
ENDBRANCH  65  69
ENDBRANCH  48  62
BRANCH  49  73
ATOM     73  C   UNL A   1      39.647  33.862  37.098  1.00  0.00     0.023 A 
ATOM     74  C   UNL A   1      39.025  33.350  38.248  1.00  0.00     0.031 A 
ATOM     75  C   UNL A   1      40.051  35.209  37.113  1.00  0.00     0.131 A 
ATOM     76  C   UNL A   1      38.783  34.191  39.346  1.00  0.00     0.055 A 
ATOM     77  C   UNL A   1      39.856  36.027  38.227  1.00  0.00     0.041 A 
ATOM     78  F   UNL A   1      40.656  35.748  36.042  1.00  0.00    -0.206 F 
ATOM     79  C   UNL A   1      39.205  35.521  39.348  1.00  0.00     0.022 A 
BRANCH  76  80
ATOM     80  S   UNL A   1      37.829  33.539  40.744  1.00  0.00     0.124 S 
ATOM     81  O   UNL A   1      37.034  34.699  41.129  1.00  0.00    -0.237 OA
ATOM     82  O   UNL A   1      37.100  32.437  40.126  1.00  0.00    -0.237 OA
ATOM     83  O   UNL A   1      38.859  33.141  41.703  1.00  0.00    -0.744 OA
ENDBRANCH  76  80
ENDBRANCH  49  73
BRANCH  61  84
ATOM     84  C   UNL A   1      44.118  28.762  35.466  1.00  0.00     0.023 A 
ATOM     85  C   UNL A   1      43.984  27.706  36.383  1.00  0.00     0.031 A 
ATOM     86  C   UNL A   1      45.405  29.283  35.239  1.00  0.00     0.131 A 
ATOM     87  C   UNL A   1      45.110  27.237  37.079  1.00  0.00     0.055 A 
ATOM     88  C   UNL A   1      46.530  28.774  35.889  1.00  0.00     0.041 A 
ATOM     89  F   UNL A   1      45.590  30.294  34.376  1.00  0.00    -0.206 F 
ATOM     90  C   UNL A   1      46.384  27.753  36.825  1.00  0.00     0.022 A 
BRANCH  87  91
ATOM     91  S   UNL A   1      44.876  26.003  38.388  1.00  0.00     0.124 S 
ATOM     92  O   UNL A   1      43.804  26.600  39.179  1.00  0.00    -0.237 OA
ATOM     93  O   UNL A   1      44.520  24.808  37.630  1.00  0.00    -0.237 OA
ATOM     94  O   UNL A   1      46.179  25.952  39.047  1.00  0.00    -0.744 OA
ENDBRANCH  87  91
ENDBRANCH  61  84
ENDBRANCH  35  36
ENDBRANCH  27  30
ENDBRANCH  25  26
ENDBRANCH  24  25
ENDBRANCH  23  24
ENDBRANCH   1  23
TORSDOF 19
ENDMDL
MODEL 2
REMARK VINA RESULT:     -10.6      1.848      7.834
REMARK SMILES CCOC(=O)[C@H](C)NC(=O)N1CC[C@H](C(=O)NCCCCNC(=O)c2ccc(-c3c4nc(c(-c5cc(S(=O)(=O)[O-])ccc5F)c5ccc([nH]5)c(-c5cc(S(=O)(=O)[O-])ccc5F)c5nc(c(-c6cc(S(=O)(=O)[O-])ccc6F)c6ccc3[nH]6)C=C5)C=C4)cc2)[C@@H]1C
REMARK SMILES IDX 18 1 17 2 15 3 16 4 14 6 11 7 12 8 88 9 13 10 89 11 9 12
REMARK SMILES IDX 8 13 10 15 6 16 7 17 4 18 5 19 3 20 2 21 1 22 19 23 20 24
REMARK SMILES IDX 21 25 22 26 23 27 24 29 25 30 26 31 87 32 27 33 86 34 28 35
REMARK SMILES IDX 29 36 30 37 80 38 31 39 85 40 79 41 81 42 32 43 84 44 78 45
REMARK SMILES IDX 77 46 33 48 65 49 45 50 64 51 46 52 49 53 63 54 82 55 47 56
REMARK SMILES IDX 48 57 62 59 83 60 50 61 34 62 35 63 43 64 36 65 42 66 44 67
REMARK SMILES IDX 41 68 37 69 38 70 39 71 40 72 66 73 67 74 75 75 68 76 74 77
REMARK SMILES IDX 76 78 73 79 69 80 70 81 71 82 72 83 51 84 52 85 60 86 53 87
REMARK SMILES IDX 59 88 61 89 58 90 54 91 55 92 56 93 57 94
REMARK H PARENT 17 5 8 14 22 28 81 47 49 58
REMARK Flexibility Score: inf
ROOT
ATOM      1  C   UNL A   1      32.274  29.560  27.277  1.00  0.00     0.116 C 
ENDROOT
BRANCH   1   2
ATOM      2  N   UNL A   1      31.492  28.338  27.336  1.00  0.00    -0.356 N 
ATOM      3  C   UNL A   1      31.542  27.238  26.523  1.00  0.00     0.225 C 
ATOM      4  O   UNL A   1      30.807  26.298  26.811  1.00  0.00    -0.275 OA
ATOM      5  H   UNL A   1      30.832  28.294  28.065  1.00  0.00     0.163 HD
BRANCH   3   6
ATOM      6  C   UNL A   1      32.423  27.280  25.275  1.00  0.00     0.102 C 
ATOM      7  N   UNL A   1      33.140  25.831  23.512  1.00  0.00    -0.321 N 
ATOM      8  C   UNL A   1      33.952  25.503  24.654  1.00  0.00     0.122 C 
ATOM      9  C   UNL A   1      31.947  26.570  23.971  1.00  0.00     0.096 C 
ATOM     10  C   UNL A   1      33.843  26.733  25.517  1.00  0.00     0.037 C 
ATOM     11  C   UNL A   1      30.751  25.621  24.063  1.00  0.00     0.032 C 
BRANCH   7  12
ATOM     12  C   UNL A   1      33.376  25.159  22.355  1.00  0.00     0.318 C 
ATOM     13  N   UNL A   1      33.440  23.821  22.321  1.00  0.00    -0.325 N 
ATOM     14  H   UNL A   1      33.957  23.468  21.561  1.00  0.00     0.166 HD
ATOM     15  O   UNL A   1      33.502  25.743  21.278  1.00  0.00    -0.249 OA
BRANCH  13  16
ATOM     16  C   UNL A   1      32.894  22.785  23.188  1.00  0.00     0.190 C 
ATOM     17  C   UNL A   1      32.073  21.778  22.391  1.00  0.00     0.043 C 
BRANCH  16  18
ATOM     18  C   UNL A   1      34.093  22.102  23.829  1.00  0.00     0.328 C 
ATOM     19  O   UNL A   1      35.258  22.437  23.642  1.00  0.00    -0.250 OA
BRANCH  18  20
ATOM     20  O   UNL A   1      33.684  21.109  24.668  1.00  0.00    -0.464 OA
BRANCH  20  21
ATOM     21  C   UNL A   1      34.690  20.148  25.008  1.00  0.00     0.229 C 
ATOM     22  C   UNL A   1      34.280  18.764  24.542  1.00  0.00     0.049 C 
ENDBRANCH  20  21
ENDBRANCH  18  20
ENDBRANCH  16  18
ENDBRANCH  13  16
ENDBRANCH   7  12
ENDBRANCH   3   6
ENDBRANCH   1   2
BRANCH   1  23
ATOM     23  C   UNL A   1      31.757  30.576  26.266  1.00  0.00     0.023 C 
BRANCH  23  24
ATOM     24  C   UNL A   1      31.560  31.996  26.798  1.00  0.00     0.023 C 
BRANCH  24  25
ATOM     25  C   UNL A   1      32.794  32.655  27.411  1.00  0.00     0.116 C 
BRANCH  25  26
ATOM     26  N   UNL A   1      32.593  34.060  27.726  1.00  0.00    -0.352 N 
ATOM     27  C   UNL A   1      33.201  34.846  28.680  1.00  0.00     0.251 C 
ATOM     28  H   UNL A   1      31.921  34.520  27.174  1.00  0.00     0.163 HD
ATOM     29  O   UNL A   1      32.789  35.979  28.886  1.00  0.00    -0.269 OA
BRANCH  27  30
ATOM     30  C   UNL A   1      34.323  34.298  29.477  1.00  0.00     0.039 A 
ATOM     31  C   UNL A   1      34.035  33.507  30.593  1.00  0.00     0.014 A 
ATOM     32  C   UNL A   1      35.647  34.534  29.108  1.00  0.00     0.014 A 
ATOM     33  C   UNL A   1      35.076  32.876  31.279  1.00  0.00     0.010 A 
ATOM     34  C   UNL A   1      36.675  33.837  29.738  1.00  0.00     0.010 A 
ATOM     35  C   UNL A   1      36.400  32.994  30.827  1.00  0.00    -0.014 A 
BRANCH  35  36
ATOM     36  C   UNL A   1      37.511  32.238  31.467  1.00  0.00     0.031 A 
ATOM     37  C   UNL A   1      38.039  32.669  32.808  1.00  0.00     0.074 A 
ATOM     38  C   UNL A   1      38.096  31.218  30.805  1.00  0.00     0.049 A 
ATOM     39  N   UNL A   1      39.065  32.213  33.481  1.00  0.00    -0.248 NA
ATOM     40  C   UNL A   1      37.341  33.786  33.462  1.00  0.00     0.031 C 
ATOM     41  C   UNL A   1      37.705  30.735  29.479  1.00  0.00     0.029 A 
ATOM     42  N   UNL A   1      39.152  30.410  31.150  1.00  0.00    -0.354 N 
ATOM     43  C   UNL A   1      39.148  32.999  34.626  1.00  0.00     0.074 A 
ATOM     44  C   UNL A   1      38.106  33.998  34.522  1.00  0.00     0.031 C 
ATOM     45  C   UNL A   1      38.494  29.705  29.135  1.00  0.00     0.029 A 
ATOM     46  C   UNL A   1      39.479  29.483  30.188  1.00  0.00     0.049 A 
ATOM     47  H   UNL A   1      39.631  30.489  32.007  1.00  0.00     0.167 HD
ATOM     48  C   UNL A   1      39.998  32.884  35.676  1.00  0.00     0.034 A 
ATOM     49  C   UNL A   1      40.469  28.568  30.150  1.00  0.00     0.034 A 
ATOM     50  C   UNL A   1      41.019  31.868  35.771  1.00  0.00     0.049 A 
ATOM     51  C   UNL A   1      41.410  28.466  31.323  1.00  0.00     0.074 A 
ATOM     52  C   UNL A   1      41.891  31.618  36.817  1.00  0.00     0.029 A 
ATOM     53  N   UNL A   1      41.312  30.937  34.782  1.00  0.00    -0.354 N 
ATOM     54  N   UNL A   1      41.441  29.182  32.422  1.00  0.00    -0.248 NA
ATOM     55  C   UNL A   1      42.446  27.425  31.253  1.00  0.00     0.031 C 
ATOM     56  C   UNL A   1      42.752  30.585  36.434  1.00  0.00     0.029 A 
ATOM     57  C   UNL A   1      42.369  30.134  35.181  1.00  0.00     0.049 A 
ATOM     58  H   UNL A   1      40.837  30.859  33.924  1.00  0.00     0.167 HD
ATOM     59  C   UNL A   1      42.478  28.657  33.189  1.00  0.00     0.074 A 
ATOM     60  C   UNL A   1      43.038  27.556  32.431  1.00  0.00     0.031 C 
ATOM     61  C   UNL A   1      42.924  29.046  34.410  1.00  0.00     0.034 A 
BRANCH  48  62
ATOM     62  C   UNL A   1      39.872  33.897  36.789  1.00  0.00     0.023 A 
ATOM     63  C   UNL A   1      40.825  34.914  36.975  1.00  0.00     0.031 A 
ATOM     64  C   UNL A   1      38.800  33.828  37.696  1.00  0.00     0.131 A 
ATOM     65  C   UNL A   1      40.732  35.769  38.083  1.00  0.00     0.055 A 
ATOM     66  C   UNL A   1      38.667  34.736  38.749  1.00  0.00     0.041 A 
ATOM     67  F   UNL A   1      37.869  32.867  37.583  1.00  0.00    -0.206 F 
ATOM     68  C   UNL A   1      39.645  35.703  38.958  1.00  0.00     0.022 A 
BRANCH  65  69
ATOM     69  S   UNL A   1      42.130  36.865  38.449  1.00  0.00     0.124 S 
ATOM     70  O   UNL A   1      41.451  38.023  39.028  1.00  0.00    -0.237 OA
ATOM     71  O   UNL A   1      42.925  36.065  39.372  1.00  0.00    -0.237 OA
ATOM     72  O   UNL A   1      42.736  37.096  37.140  1.00  0.00    -0.744 OA
ENDBRANCH  65  69
ENDBRANCH  48  62
BRANCH  49  73
ATOM     73  C   UNL A   1      40.635  27.682  28.960  1.00  0.00     0.023 A 
ATOM     74  C   UNL A   1      41.566  27.986  27.954  1.00  0.00     0.031 A 
ATOM     75  C   UNL A   1      39.835  26.537  28.793  1.00  0.00     0.131 A 
ATOM     76  C   UNL A   1      41.641  27.184  26.805  1.00  0.00     0.055 A 
ATOM     77  C   UNL A   1      39.952  25.713  27.673  1.00  0.00     0.041 A 
ATOM     78  F   UNL A   1      38.933  26.196  29.727  1.00  0.00    -0.206 F 
ATOM     79  C   UNL A   1      40.850  26.043  26.664  1.00  0.00     0.022 A 
BRANCH  76  80
ATOM     80  S   UNL A   1      42.735  27.704  25.454  1.00  0.00     0.124 S 
ATOM     81  O   UNL A   1      43.994  27.919  26.158  1.00  0.00    -0.237 OA
ATOM     82  O   UNL A   1      42.686  26.550  24.564  1.00  0.00    -0.237 OA
ATOM     83  O   UNL A   1      42.092  28.912  24.941  1.00  0.00    -0.744 OA
ENDBRANCH  76  80
ENDBRANCH  49  73
BRANCH  61  84
ATOM     84  C   UNL A   1      44.044  28.240  35.021  1.00  0.00     0.023 A 
ATOM     85  C   UNL A   1      43.800  27.060  35.745  1.00  0.00     0.031 A 
ATOM     86  C   UNL A   1      45.377  28.666  34.879  1.00  0.00     0.131 A 
ATOM     87  C   UNL A   1      44.869  26.373  36.342  1.00  0.00     0.055 A 
ATOM     88  C   UNL A   1      46.441  27.947  35.424  1.00  0.00     0.041 A 
ATOM     89  F   UNL A   1      45.667  29.787  34.200  1.00  0.00    -0.206 F 
ATOM     90  C   UNL A   1      46.189  26.800  36.172  1.00  0.00     0.022 A 
BRANCH  87  91
ATOM     91  S   UNL A   1      44.505  24.961  37.421  1.00  0.00     0.124 S 
ATOM     92  O   UNL A   1      45.022  25.421  38.707  1.00  0.00    -0.237 OA
ATOM     93  O   UNL A   1      43.053  24.856  37.319  1.00  0.00    -0.237 OA
ATOM     94  O   UNL A   1      45.249  23.862  36.811  1.00  0.00    -0.744 OA
ENDBRANCH  87  91
ENDBRANCH  61  84
ENDBRANCH  35  36
ENDBRANCH  27  30
ENDBRANCH  25  26
ENDBRANCH  24  25
ENDBRANCH  23  24
ENDBRANCH   1  23
TORSDOF 19
ENDMDL
MODEL 3
REMARK VINA RESULT:     -10.6      5.315      9.314
REMARK SMILES CCOC(=O)[C@H](C)NC(=O)N1CC[C@H](C(=O)NCCCCNC(=O)c2ccc(-c3c4nc(c(-c5cc(S(=O)(=O)[O-])ccc5F)c5ccc([nH]5)c(-c5cc(S(=O)(=O)[O-])ccc5F)c5nc(c(-c6cc(S(=O)(=O)[O-])ccc6F)c6ccc3[nH]6)C=C5)C=C4)cc2)[C@@H]1C
REMARK SMILES IDX 18 1 17 2 15 3 16 4 14 6 11 7 12 8 88 9 13 10 89 11 9 12
REMARK SMILES IDX 8 13 10 15 6 16 7 17 4 18 5 19 3 20 2 21 1 22 19 23 20 24
REMARK SMILES IDX 21 25 22 26 23 27 24 29 25 30 26 31 87 32 27 33 86 34 28 35
REMARK SMILES IDX 29 36 30 37 80 38 31 39 85 40 79 41 81 42 32 43 84 44 78 45
REMARK SMILES IDX 77 46 33 48 65 49 45 50 64 51 46 52 49 53 63 54 82 55 47 56
REMARK SMILES IDX 48 57 62 59 83 60 50 61 34 62 35 63 43 64 36 65 42 66 44 67
REMARK SMILES IDX 41 68 37 69 38 70 39 71 40 72 66 73 67 74 75 75 68 76 74 77
REMARK SMILES IDX 76 78 73 79 69 80 70 81 71 82 72 83 51 84 52 85 60 86 53 87
REMARK SMILES IDX 59 88 61 89 58 90 54 91 55 92 56 93 57 94
REMARK H PARENT 17 5 8 14 22 28 81 47 49 58
REMARK Flexibility Score: inf
ROOT
ATOM      1  C   UNL A   1      36.715  21.418  24.930  1.00  0.00     0.116 C 
ENDROOT
BRANCH   1   2
ATOM      2  N   UNL A   1      35.806  20.286  24.973  1.00  0.00    -0.356 N 
ATOM      3  C   UNL A   1      34.441  20.267  24.876  1.00  0.00     0.225 C 
ATOM      4  O   UNL A   1      33.897  19.167  24.889  1.00  0.00    -0.275 OA
ATOM      5  H   UNL A   1      36.234  19.406  25.089  1.00  0.00     0.163 HD
BRANCH   3   6
ATOM      6  C   UNL A   1      33.683  21.593  24.852  1.00  0.00     0.102 C 
ATOM      7  N   UNL A   1      31.971  22.726  26.081  1.00  0.00    -0.321 N 
ATOM      8  C   UNL A   1      31.295  21.778  25.235  1.00  0.00     0.122 C 
ATOM      9  C   UNL A   1      33.393  22.340  26.189  1.00  0.00     0.096 C 
ATOM     10  C   UNL A   1      32.310  21.494  24.159  1.00  0.00     0.037 C 
ATOM     11  C   UNL A   1      33.628  21.587  27.500  1.00  0.00     0.032 C 
BRANCH   7  12
ATOM     12  C   UNL A   1      31.208  23.527  26.868  1.00  0.00     0.318 C 
ATOM     13  N   UNL A   1      31.356  24.859  26.868  1.00  0.00    -0.325 N 
ATOM     14  H   UNL A   1      31.043  25.293  27.694  1.00  0.00     0.166 HD
ATOM     15  O   UNL A   1      30.318  23.073  27.590  1.00  0.00    -0.249 OA
BRANCH  13  16
ATOM     16  C   UNL A   1      31.890  25.791  25.883  1.00  0.00     0.190 C 
ATOM     17  C   UNL A   1      30.856  26.105  24.809  1.00  0.00     0.043 C 
BRANCH  16  18
ATOM     18  C   UNL A   1      32.251  27.051  26.655  1.00  0.00     0.328 C 
ATOM     19  O   UNL A   1      31.496  27.623  27.434  1.00  0.00    -0.250 OA
BRANCH  18  20
ATOM     20  O   UNL A   1      33.538  27.417  26.395  1.00  0.00    -0.464 OA
BRANCH  20  21
ATOM     21  C   UNL A   1      33.726  28.802  26.083  1.00  0.00     0.229 C 
ATOM     22  C   UNL A   1      33.013  29.156  24.793  1.00  0.00     0.049 C 
ENDBRANCH  20  21
ENDBRANCH  18  20
ENDBRANCH  16  18
ENDBRANCH  13  16
ENDBRANCH   7  12
ENDBRANCH   3   6
ENDBRANCH   1   2
BRANCH   1  23
ATOM     23  C   UNL A   1      38.134  21.089  25.376  1.00  0.00     0.023 C 
BRANCH  23  24
ATOM     24  C   UNL A   1      38.861  22.197  26.136  1.00  0.00     0.023 C 
BRANCH  24  25
ATOM     25  C   UNL A   1      40.090  21.764  26.932  1.00  0.00     0.116 C 
BRANCH  25  26
ATOM     26  N   UNL A   1      41.285  21.637  26.113  1.00  0.00    -0.352 N 
ATOM     27  C   UNL A   1      42.217  22.587  25.757  1.00  0.00     0.251 C 
ATOM     28  H   UNL A   1      41.454  20.734  25.758  1.00  0.00     0.163 HD
ATOM     29  O   UNL A   1      43.081  22.312  24.936  1.00  0.00    -0.269 OA
BRANCH  27  30
ATOM     30  C   UNL A   1      42.141  23.945  26.342  1.00  0.00     0.039 A 
ATOM     31  C   UNL A   1      42.385  24.107  27.708  1.00  0.00     0.014 A 
ATOM     32  C   UNL A   1      41.863  25.055  25.543  1.00  0.00     0.014 A 
ATOM     33  C   UNL A   1      42.444  25.392  28.252  1.00  0.00     0.010 A 
ATOM     34  C   UNL A   1      42.007  26.337  26.068  1.00  0.00     0.010 A 
ATOM     35  C   UNL A   1      42.307  26.520  27.427  1.00  0.00    -0.014 A 
BRANCH  35  36
ATOM     36  C   UNL A   1      42.484  27.900  27.958  1.00  0.00     0.031 A 
ATOM     37  C   UNL A   1      43.862  28.497  28.054  1.00  0.00     0.074 A 
ATOM     38  C   UNL A   1      41.418  28.579  28.428  1.00  0.00     0.049 A 
ATOM     39  N   UNL A   1      44.237  29.634  28.584  1.00  0.00    -0.248 NA
ATOM     40  C   UNL A   1      44.967  27.692  27.515  1.00  0.00     0.031 C 
ATOM     41  C   UNL A   1      40.037  28.088  28.433  1.00  0.00     0.029 A 
ATOM     42  N   UNL A   1      41.326  29.822  29.004  1.00  0.00    -0.354 N 
ATOM     43  C   UNL A   1      45.623  29.671  28.460  1.00  0.00     0.074 A 
ATOM     44  C   UNL A   1      46.022  28.415  27.861  1.00  0.00     0.031 C 
ATOM     45  C   UNL A   1      39.238  29.027  28.963  1.00  0.00     0.029 A 
ATOM     46  C   UNL A   1      40.049  30.165  29.383  1.00  0.00     0.049 A 
ATOM     47  H   UNL A   1      42.103  30.412  29.135  1.00  0.00     0.167 HD
ATOM     48  C   UNL A   1      46.479  30.668  28.793  1.00  0.00     0.034 A 
ATOM     49  C   UNL A   1      39.584  31.264  30.011  1.00  0.00     0.034 A 
ATOM     50  C   UNL A   1      46.060  31.922  29.370  1.00  0.00     0.049 A 
ATOM     51  C   UNL A   1      40.555  32.355  30.383  1.00  0.00     0.074 A 
ATOM     52  C   UNL A   1      46.834  33.027  29.685  1.00  0.00     0.029 A 
ATOM     53  N   UNL A   1      44.755  32.240  29.727  1.00  0.00    -0.354 N 
ATOM     54  N   UNL A   1      41.856  32.397  30.210  1.00  0.00    -0.248 NA
ATOM     55  C   UNL A   1      39.995  33.551  31.027  1.00  0.00     0.031 C 
ATOM     56  C   UNL A   1      46.011  33.981  30.293  1.00  0.00     0.029 A 
ATOM     57  C   UNL A   1      44.709  33.507  30.287  1.00  0.00     0.049 A 
ATOM     58  H   UNL A   1      43.978  31.650  29.602  1.00  0.00     0.167 HD
ATOM     59  C   UNL A   1      42.264  33.637  30.695  1.00  0.00     0.074 A 
ATOM     60  C   UNL A   1      41.069  34.316  31.155  1.00  0.00     0.031 C 
ATOM     61  C   UNL A   1      43.511  34.168  30.750  1.00  0.00     0.034 A 
BRANCH  48  62
ATOM     62  C   UNL A   1      47.952  30.428  28.560  1.00  0.00     0.023 A 
ATOM     63  C   UNL A   1      48.733  29.690  29.467  1.00  0.00     0.031 A 
ATOM     64  C   UNL A   1      48.592  30.969  27.431  1.00  0.00     0.131 A 
ATOM     65  C   UNL A   1      50.118  29.580  29.273  1.00  0.00     0.055 A 
ATOM     66  C   UNL A   1      49.957  30.784  27.199  1.00  0.00     0.041 A 
ATOM     67  F   UNL A   1      47.904  31.700  26.540  1.00  0.00    -0.206 F 
ATOM     68  C   UNL A   1      50.732  30.100  28.132  1.00  0.00     0.022 A 
BRANCH  65  69
ATOM     69  S   UNL A   1      51.125  28.879  30.609  1.00  0.00     0.124 S 
ATOM     70  O   UNL A   1      51.076  27.453  30.297  1.00  0.00    -0.237 OA
ATOM     71  O   UNL A   1      52.413  29.533  30.408  1.00  0.00    -0.237 OA
ATOM     72  O   UNL A   1      50.408  29.270  31.821  1.00  0.00    -0.744 OA
ENDBRANCH  65  69
ENDBRANCH  48  62
BRANCH  49  73
ATOM     73  C   UNL A   1      38.134  31.390  30.343  1.00  0.00     0.023 A 
ATOM     74  C   UNL A   1      37.213  31.871  29.398  1.00  0.00     0.031 A 
ATOM     75  C   UNL A   1      37.654  31.068  31.625  1.00  0.00     0.131 A 
ATOM     76  C   UNL A   1      35.872  32.062  29.763  1.00  0.00     0.055 A 
ATOM     77  C   UNL A   1      36.308  31.210  31.966  1.00  0.00     0.041 A 
ATOM     78  F   UNL A   1      38.490  30.599  32.566  1.00  0.00    -0.206 F 
ATOM     79  C   UNL A   1      35.410  31.723  31.035  1.00  0.00     0.022 A 
BRANCH  76  80
ATOM     80  S   UNL A   1      34.751  32.842  28.568  1.00  0.00     0.124 S 
ATOM     81  O   UNL A   1      35.689  33.414  27.610  1.00  0.00    -0.237 OA
ATOM     82  O   UNL A   1      33.968  31.703  28.099  1.00  0.00    -0.237 OA
ATOM     83  O   UNL A   1      34.013  33.811  29.377  1.00  0.00    -0.744 OA
ENDBRANCH  76  80
ENDBRANCH  49  73
BRANCH  61  84
ATOM     84  C   UNL A   1      43.636  35.574  31.286  1.00  0.00     0.023 A 
ATOM     85  C   UNL A   1      43.717  36.688  30.434  1.00  0.00     0.031 A 
ATOM     86  C   UNL A   1      43.679  35.797  32.675  1.00  0.00     0.131 A 
ATOM     87  C   UNL A   1      43.888  37.972  30.977  1.00  0.00     0.055 A 
ATOM     88  C   UNL A   1      43.789  37.081  33.210  1.00  0.00     0.041 A 
ATOM     89  F   UNL A   1      43.609  34.769  33.534  1.00  0.00    -0.206 F 
ATOM     90  C   UNL A   1      43.908  38.176  32.359  1.00  0.00     0.022 A 
BRANCH  87  91
ATOM     91  S   UNL A   1      44.175  39.364  29.850  1.00  0.00     0.124 S 
ATOM     92  O   UNL A   1      44.736  38.696  28.679  1.00  0.00    -0.237 OA
ATOM     93  O   UNL A   1      42.834  39.915  29.687  1.00  0.00    -0.237 OA
ATOM     94  O   UNL A   1      45.108  40.214  30.586  1.00  0.00    -0.744 OA
ENDBRANCH  87  91
ENDBRANCH  61  84
ENDBRANCH  35  36
ENDBRANCH  27  30
ENDBRANCH  25  26
ENDBRANCH  24  25
ENDBRANCH  23  24
ENDBRANCH   1  23
TORSDOF 19
ENDMDL
