MODEL 1
REMARK VINA RESULT:     -11.9      0.000      0.000
REMARK SMILES O=C(CCCOc1ccc(Cl)cc1Cl)Nc1cccc(C(=O)NCCCCNC(=O)c2ccc(-c3c4nc(c(-c5cc(S(=O)(=O)[O-])ccc5F)c5ccc([nH]5)c(-c5cc(S(=O)(=O)[O-])ccc5F)c5nc(c(-c6cc(S(=O)(=O)[O-])ccc6F)c6ccc3[nH]6)C=C5)C=C4)cc2)c1
REMARK SMILES IDX 24 1 23 2 21 3 22 4 20 6 16 7 17 8 94 9 18 10 19 11 15 12
REMARK SMILES IDX 1 13 2 14 3 16 4 17 5 18 6 19 7 20 8 21 13 22 9 23 12 24
REMARK SMILES IDX 14 25 10 26 11 27 25 28 26 29 27 30 28 31 29 32 30 34 31 35
REMARK SMILES IDX 32 36 93 37 33 38 92 39 34 40 35 41 36 42 86 43 37 44 91 45
REMARK SMILES IDX 85 46 87 47 38 48 90 49 84 50 83 51 39 53 71 54 51 55 70 56
REMARK SMILES IDX 52 57 55 58 69 59 88 60 53 61 54 62 68 64 89 65 56 66 40 67
REMARK SMILES IDX 41 68 49 69 42 70 48 71 50 72 47 73 43 74 44 75 45 76 46 77
REMARK SMILES IDX 72 78 73 79 81 80 74 81 80 82 82 83 79 84 75 85 76 86 77 87
REMARK SMILES IDX 78 88 57 89 58 90 66 91 59 92 65 93 67 94 64 95 60 96 61 97
REMARK SMILES IDX 62 98 63 99
REMARK H PARENT 23 5 15 15 28 33 87 52 55 63
REMARK Flexibility Score: inf
ROOT
ATOM      1  C   UNL A   1      32.057  29.437  25.407  1.00  0.00     0.116 C 
ENDROOT
BRANCH   1   2
ATOM      2  N   UNL A   1      31.057  29.968  24.491  1.00  0.00    -0.352 N 
ATOM      3  C   UNL A   1      30.300  29.329  23.532  1.00  0.00     0.251 C 
ATOM      4  O   UNL A   1      29.524  29.975  22.833  1.00  0.00    -0.269 OA
ATOM      5  H   UNL A   1      30.895  30.937  24.570  1.00  0.00     0.163 HD
BRANCH   3   6
ATOM      6  C   UNL A   1      30.469  27.877  23.274  1.00  0.00     0.041 A 
ATOM      7  C   UNL A   1      30.255  25.584  24.018  1.00  0.00     0.041 A 
ATOM      8  C   UNL A   1      31.149  25.193  23.014  1.00  0.00     0.026 A 
ATOM      9  C   UNL A   1      29.846  26.916  24.073  1.00  0.00     0.040 A 
ATOM     10  C   UNL A   1      31.656  26.130  22.108  1.00  0.00     0.003 A 
ATOM     11  C   UNL A   1      31.336  27.478  22.253  1.00  0.00     0.014 A 
BRANCH   7  12
ATOM     12  N   UNL A   1      29.938  24.649  25.030  1.00  0.00    -0.326 N 
ATOM     13  O   UNL A   1      31.175  25.433  26.818  1.00  0.00    -0.275 OA
ATOM     14  C   UNL A   1      30.588  24.520  26.241  1.00  0.00     0.224 C 
ATOM     15  H   UNL A   1      29.188  24.035  24.856  1.00  0.00     0.169 HD
BRANCH  14  16
ATOM     16  C   UNL A   1      30.711  23.100  26.782  1.00  0.00     0.104 C 
BRANCH  16  17
ATOM     17  C   UNL A   1      31.721  22.150  26.146  1.00  0.00     0.051 C 
BRANCH  17  18
ATOM     18  C   UNL A   1      32.969  22.806  25.541  1.00  0.00     0.230 C 
BRANCH  18  19
ATOM     19  O   UNL A   1      33.310  22.271  24.257  1.00  0.00    -0.492 OA
BRANCH  19  20
ATOM     20  C   UNL A   1      33.449  20.911  24.211  1.00  0.00     0.137 A 
ATOM     21  C   UNL A   1      32.439  20.239  23.512  1.00  0.00     0.049 A 
ATOM     22  C   UNL A   1      34.531  20.186  24.728  1.00  0.00     0.084 A 
ATOM     23  C   UNL A   1      32.460  18.848  23.403  1.00  0.00     0.024 A 
ATOM     24  C   UNL A   1      34.553  18.791  24.618  1.00  0.00     0.045 A 
ATOM     25  Cl  UNL A   1      35.904  20.947  25.447  1.00  0.00    -0.080 Cl
ATOM     26  C   UNL A   1      33.516  18.131  23.961  1.00  0.00     0.042 A 
ATOM     27  Cl  UNL A   1      33.559  16.419  23.806  1.00  0.00    -0.084 Cl
ENDBRANCH  19  20
ENDBRANCH  18  19
ENDBRANCH  17  18
ENDBRANCH  16  17
ENDBRANCH  14  16
ENDBRANCH   7  12
ENDBRANCH   3   6
ENDBRANCH   1   2
BRANCH   1  28
ATOM     28  C   UNL A   1      32.055  30.084  26.785  1.00  0.00     0.023 C 
BRANCH  28  29
ATOM     29  C   UNL A   1      31.780  31.581  26.829  1.00  0.00     0.023 C 
BRANCH  29  30
ATOM     30  C   UNL A   1      32.943  32.455  27.279  1.00  0.00     0.116 C 
BRANCH  30  31
ATOM     31  N   UNL A   1      32.562  33.826  27.593  1.00  0.00    -0.352 N 
ATOM     32  C   UNL A   1      33.110  34.697  28.508  1.00  0.00     0.251 C 
ATOM     33  H   UNL A   1      31.803  34.180  27.076  1.00  0.00     0.163 HD
ATOM     34  O   UNL A   1      32.587  35.787  28.704  1.00  0.00    -0.269 OA
BRANCH  32  35
ATOM     35  C   UNL A   1      34.303  34.286  29.285  1.00  0.00     0.039 A 
ATOM     36  C   UNL A   1      34.127  33.576  30.476  1.00  0.00     0.014 A 
ATOM     37  C   UNL A   1      35.590  34.552  28.812  1.00  0.00     0.014 A 
ATOM     38  C   UNL A   1      35.239  33.046  31.138  1.00  0.00     0.010 A 
ATOM     39  C   UNL A   1      36.687  33.954  29.426  1.00  0.00     0.010 A 
ATOM     40  C   UNL A   1      36.523  33.185  30.589  1.00  0.00    -0.014 A 
BRANCH  40  41
ATOM     41  C   UNL A   1      37.715  32.538  31.202  1.00  0.00     0.031 A 
ATOM     42  C   UNL A   1      38.457  31.469  30.447  1.00  0.00     0.074 A 
ATOM     43  C   UNL A   1      38.069  32.840  32.468  1.00  0.00     0.049 A 
ATOM     44  N   UNL A   1      39.416  30.678  30.853  1.00  0.00    -0.248 NA
ATOM     45  C   UNL A   1      38.029  31.233  29.060  1.00  0.00     0.031 C 
ATOM     46  C   UNL A   1      37.405  33.827  33.322  1.00  0.00     0.029 A 
ATOM     47  N   UNL A   1      39.063  32.331  33.267  1.00  0.00    -0.354 N 
ATOM     48  C   UNL A   1      39.689  29.833  29.783  1.00  0.00     0.074 A 
ATOM     49  C   UNL A   1      38.752  30.174  28.733  1.00  0.00     0.031 C 
ATOM     50  C   UNL A   1      38.020  33.863  34.515  1.00  0.00     0.029 A 
ATOM     51  C   UNL A   1      39.089  32.871  34.532  1.00  0.00     0.049 A 
ATOM     52  H   UNL A   1      39.699  31.644  32.961  1.00  0.00     0.167 HD
ATOM     53  C   UNL A   1      40.645  28.877  29.677  1.00  0.00     0.034 A 
ATOM     54  C   UNL A   1      39.873  32.586  35.592  1.00  0.00     0.034 A 
ATOM     55  C   UNL A   1      41.588  28.567  30.723  1.00  0.00     0.049 A 
ATOM     56  C   UNL A   1      40.928  31.518  35.454  1.00  0.00     0.074 A 
ATOM     57  C   UNL A   1      42.632  27.657  30.704  1.00  0.00     0.029 A 
ATOM     58  N   UNL A   1      41.602  29.157  31.981  1.00  0.00    -0.354 N 
ATOM     59  N   UNL A   1      41.199  30.752  34.422  1.00  0.00    -0.248 NA
ATOM     60  C   UNL A   1      41.790  31.283  36.620  1.00  0.00     0.031 C 
ATOM     61  C   UNL A   1      43.240  27.659  31.964  1.00  0.00     0.029 A 
ATOM     62  C   UNL A   1      42.622  28.618  32.750  1.00  0.00     0.049 A 
ATOM     63  H   UNL A   1      40.978  29.857  32.282  1.00  0.00     0.167 HD
ATOM     64  C   UNL A   1      42.284  29.969  34.805  1.00  0.00     0.074 A 
ATOM     65  C   UNL A   1      42.622  30.361  36.157  1.00  0.00     0.031 C 
ATOM     66  C   UNL A   1      42.946  29.018  34.099  1.00  0.00     0.034 A 
BRANCH  53  67
ATOM     67  C   UNL A   1      40.694  28.088  28.390  1.00  0.00     0.023 A 
ATOM     68  C   UNL A   1      40.023  26.859  28.253  1.00  0.00     0.031 A 
ATOM     69  C   UNL A   1      41.455  28.546  27.301  1.00  0.00     0.131 A 
ATOM     70  C   UNL A   1      40.197  26.092  27.092  1.00  0.00     0.055 A 
ATOM     71  C   UNL A   1      41.553  27.818  26.113  1.00  0.00     0.041 A 
ATOM     72  F   UNL A   1      42.132  29.702  27.377  1.00  0.00    -0.206 F 
ATOM     73  C   UNL A   1      40.937  26.574  26.010  1.00  0.00     0.022 A 
BRANCH  70  74
ATOM     74  S   UNL A   1      39.569  24.390  27.080  1.00  0.00     0.124 S 
ATOM     75  O   UNL A   1      38.756  24.385  25.866  1.00  0.00    -0.237 OA
ATOM     76  O   UNL A   1      40.795  23.602  27.031  1.00  0.00    -0.237 OA
ATOM     77  O   UNL A   1      38.815  24.294  28.328  1.00  0.00    -0.744 OA
ENDBRANCH  70  74
ENDBRANCH  53  67
BRANCH  54  78
ATOM     78  C   UNL A   1      39.692  33.310  36.882  1.00  0.00     0.023 A 
ATOM     79  C   UNL A   1      38.902  32.766  37.909  1.00  0.00     0.031 A 
ATOM     80  C   UNL A   1      40.270  34.574  37.094  1.00  0.00     0.131 A 
ATOM     81  C   UNL A   1      38.675  33.503  39.082  1.00  0.00     0.055 A 
ATOM     82  C   UNL A   1      40.081  35.281  38.282  1.00  0.00     0.041 A 
ATOM     83  F   UNL A   1      41.040  35.134  36.148  1.00  0.00    -0.206 F 
ATOM     84  C   UNL A   1      39.268  34.752  39.280  1.00  0.00     0.022 A 
BRANCH  81  85
ATOM     85  S   UNL A   1      37.525  32.837  40.316  1.00  0.00     0.124 S 
ATOM     86  O   UNL A   1      37.546  33.879  41.337  1.00  0.00    -0.237 OA
ATOM     87  O   UNL A   1      36.291  32.717  39.546  1.00  0.00    -0.237 OA
ATOM     88  O   UNL A   1      38.140  31.569  40.705  1.00  0.00    -0.744 OA
ENDBRANCH  81  85
ENDBRANCH  54  78
BRANCH  66  89
ATOM     89  C   UNL A   1      44.142  28.381  34.761  1.00  0.00     0.023 A 
ATOM     90  C   UNL A   1      44.037  27.184  35.489  1.00  0.00     0.031 A 
ATOM     91  C   UNL A   1      45.406  28.989  34.659  1.00  0.00     0.131 A 
ATOM     92  C   UNL A   1      45.170  26.656  36.128  1.00  0.00     0.055 A 
ATOM     93  C   UNL A   1      46.538  28.431  35.252  1.00  0.00     0.041 A 
ATOM     94  F   UNL A   1      45.559  30.135  33.976  1.00  0.00    -0.206 F 
ATOM     95  C   UNL A   1      46.422  27.264  36.001  1.00  0.00     0.022 A 
BRANCH  92  96
ATOM     96  S   UNL A   1      44.973  25.200  37.190  1.00  0.00     0.124 S 
ATOM     97  O   UNL A   1      44.160  25.726  38.281  1.00  0.00    -0.237 OA
ATOM     98  O   UNL A   1      44.310  24.250  36.301  1.00  0.00    -0.237 OA
ATOM     99  O   UNL A   1      46.345  24.850  37.553  1.00  0.00    -0.744 OA
ENDBRANCH  92  96
ENDBRANCH  66  89
ENDBRANCH  40  41
ENDBRANCH  32  35
ENDBRANCH  30  31
ENDBRANCH  29  30
ENDBRANCH  28  29
ENDBRANCH   1  28
TORSDOF 20
ENDMDL
MODEL 2
REMARK VINA RESULT:     -11.8      2.375      7.895
REMARK SMILES O=C(CCCOc1ccc(Cl)cc1Cl)Nc1cccc(C(=O)NCCCCNC(=O)c2ccc(-c3c4nc(c(-c5cc(S(=O)(=O)[O-])ccc5F)c5ccc([nH]5)c(-c5cc(S(=O)(=O)[O-])ccc5F)c5nc(c(-c6cc(S(=O)(=O)[O-])ccc6F)c6ccc3[nH]6)C=C5)C=C4)cc2)c1
REMARK SMILES IDX 24 1 23 2 21 3 22 4 20 6 16 7 17 8 94 9 18 10 19 11 15 12
REMARK SMILES IDX 1 13 2 14 3 16 4 17 5 18 6 19 7 20 8 21 13 22 9 23 12 24
REMARK SMILES IDX 14 25 10 26 11 27 25 28 26 29 27 30 28 31 29 32 30 34 31 35
REMARK SMILES IDX 32 36 93 37 33 38 92 39 34 40 35 41 36 42 86 43 37 44 91 45
REMARK SMILES IDX 85 46 87 47 38 48 90 49 84 50 83 51 39 53 71 54 51 55 70 56
REMARK SMILES IDX 52 57 55 58 69 59 88 60 53 61 54 62 68 64 89 65 56 66 40 67
REMARK SMILES IDX 41 68 49 69 42 70 48 71 50 72 47 73 43 74 44 75 45 76 46 77
REMARK SMILES IDX 72 78 73 79 81 80 74 81 80 82 82 83 79 84 75 85 76 86 77 87
REMARK SMILES IDX 78 88 57 89 58 90 66 91 59 92 65 93 67 94 64 95 60 96 61 97
REMARK SMILES IDX 62 98 63 99
REMARK H PARENT 23 5 15 15 28 33 87 52 55 63
REMARK Flexibility Score: inf
ROOT
ATOM      1  C   UNL A   1      31.104  26.441  26.241  1.00  0.00     0.116 C 
ENDROOT
BRANCH   1   2
ATOM      2  N   UNL A   1      29.873  26.312  25.472  1.00  0.00    -0.352 N 
ATOM      3  C   UNL A   1      29.683  26.003  24.142  1.00  0.00     0.251 C 
ATOM      4  O   UNL A   1      28.547  25.976  23.675  1.00  0.00    -0.269 OA
ATOM      5  H   UNL A   1      29.046  26.471  25.984  1.00  0.00     0.163 HD
BRANCH   3   6
ATOM      6  C   UNL A   1      30.841  25.781  23.241  1.00  0.00     0.041 A 
ATOM      7  C   UNL A   1      32.853  24.556  22.687  1.00  0.00     0.041 A 
ATOM      8  C   UNL A   1      33.234  25.599  21.834  1.00  0.00     0.026 A 
ATOM      9  C   UNL A   1      31.607  24.615  23.308  1.00  0.00     0.040 A 
ATOM     10  C   UNL A   1      32.395  26.701  21.640  1.00  0.00     0.003 A 
ATOM     11  C   UNL A   1      31.208  26.805  22.363  1.00  0.00     0.014 A 
BRANCH   7  12
ATOM     12  N   UNL A   1      33.818  23.575  23.012  1.00  0.00    -0.326 N 
ATOM     13  O   UNL A   1      35.108  24.666  24.590  1.00  0.00    -0.275 OA
ATOM     14  C   UNL A   1      34.971  23.786  23.741  1.00  0.00     0.224 C 
ATOM     15  H   UNL A   1      33.654  22.659  22.689  1.00  0.00     0.169 HD
BRANCH  14  16
ATOM     16  C   UNL A   1      36.186  22.969  23.317  1.00  0.00     0.104 C 
BRANCH  16  17
ATOM     17  C   UNL A   1      36.709  21.881  24.250  1.00  0.00     0.051 C 
BRANCH  17  18
ATOM     18  C   UNL A   1      36.351  22.040  25.733  1.00  0.00     0.230 C 
BRANCH  18  19
ATOM     19  O   UNL A   1      35.413  21.058  26.185  1.00  0.00    -0.492 OA
BRANCH  19  20
ATOM     20  C   UNL A   1      34.116  21.487  26.275  1.00  0.00     0.137 A 
ATOM     21  C   UNL A   1      33.879  22.443  27.269  1.00  0.00     0.049 A 
ATOM     22  C   UNL A   1      33.073  21.106  25.420  1.00  0.00     0.084 A 
ATOM     23  C   UNL A   1      32.595  22.952  27.469  1.00  0.00     0.024 A 
ATOM     24  C   UNL A   1      31.786  21.616  25.620  1.00  0.00     0.045 A 
ATOM     25  Cl  UNL A   1      33.315  20.070  24.059  1.00  0.00    -0.080 Cl
ATOM     26  C   UNL A   1      31.555  22.531  26.645  1.00  0.00     0.042 A 
ATOM     27  Cl  UNL A   1      29.976  23.176  26.870  1.00  0.00    -0.084 Cl
ENDBRANCH  19  20
ENDBRANCH  18  19
ENDBRANCH  17  18
ENDBRANCH  16  17
ENDBRANCH  14  16
ENDBRANCH   7  12
ENDBRANCH   3   6
ENDBRANCH   1   2
BRANCH   1  28
ATOM     28  C   UNL A   1      32.053  27.516  25.731  1.00  0.00     0.023 C 
BRANCH  28  29
ATOM     29  C   UNL A   1      31.826  28.926  26.261  1.00  0.00     0.023 C 
BRANCH  29  30
ATOM     30  C   UNL A   1      32.805  29.983  25.770  1.00  0.00     0.116 C 
BRANCH  30  31
ATOM     31  N   UNL A   1      32.560  31.312  26.316  1.00  0.00    -0.352 N 
ATOM     32  C   UNL A   1      33.283  32.019  27.251  1.00  0.00     0.251 C 
ATOM     33  H   UNL A   1      31.761  31.770  25.967  1.00  0.00     0.163 HD
ATOM     34  O   UNL A   1      32.863  33.093  27.664  1.00  0.00    -0.269 OA
BRANCH  32  35
ATOM     35  C   UNL A   1      34.542  31.450  27.785  1.00  0.00     0.039 A 
ATOM     36  C   UNL A   1      35.616  32.304  28.052  1.00  0.00     0.014 A 
ATOM     37  C   UNL A   1      34.643  30.087  28.074  1.00  0.00     0.014 A 
ATOM     38  C   UNL A   1      36.751  31.809  28.701  1.00  0.00     0.010 A 
ATOM     39  C   UNL A   1      35.737  29.614  28.793  1.00  0.00     0.010 A 
ATOM     40  C   UNL A   1      36.799  30.472  29.125  1.00  0.00    -0.014 A 
BRANCH  40  41
ATOM     41  C   UNL A   1      37.938  29.939  29.919  1.00  0.00     0.031 A 
ATOM     42  C   UNL A   1      38.186  30.452  31.311  1.00  0.00     0.074 A 
ATOM     43  C   UNL A   1      38.804  29.071  29.356  1.00  0.00     0.049 A 
ATOM     44  N   UNL A   1      39.200  30.237  32.109  1.00  0.00    -0.248 NA
ATOM     45  C   UNL A   1      37.170  31.363  31.860  1.00  0.00     0.031 C 
ATOM     46  C   UNL A   1      38.700  28.530  27.998  1.00  0.00     0.029 A 
ATOM     47  N   UNL A   1      39.955  28.506  29.847  1.00  0.00    -0.354 N 
ATOM     48  C   UNL A   1      38.960  31.006  33.242  1.00  0.00     0.074 A 
ATOM     49  C   UNL A   1      37.733  31.735  33.000  1.00  0.00     0.031 C 
ATOM     50  C   UNL A   1      39.733  27.701  27.774  1.00  0.00     0.029 A 
ATOM     51  C   UNL A   1      40.599  27.687  28.948  1.00  0.00     0.049 A 
ATOM     52  H   UNL A   1      40.289  28.672  30.759  1.00  0.00     0.167 HD
ATOM     53  C   UNL A   1      39.684  31.082  34.387  1.00  0.00     0.034 A 
ATOM     54  C   UNL A   1      41.764  27.015  29.050  1.00  0.00     0.034 A 
ATOM     55  C   UNL A   1      40.891  30.330  34.623  1.00  0.00     0.049 A 
ATOM     56  C   UNL A   1      42.554  27.115  30.331  1.00  0.00     0.074 A 
ATOM     57  C   UNL A   1      41.674  30.288  35.765  1.00  0.00     0.029 A 
ATOM     58  N   UNL A   1      41.496  29.487  33.699  1.00  0.00    -0.354 N 
ATOM     59  N   UNL A   1      42.295  27.818  31.409  1.00  0.00    -0.248 NA
ATOM     60  C   UNL A   1      43.789  26.323  30.412  1.00  0.00     0.031 C 
ATOM     61  C   UNL A   1      42.776  29.464  35.513  1.00  0.00     0.029 A 
ATOM     62  C   UNL A   1      42.648  28.936  34.238  1.00  0.00     0.049 A 
ATOM     63  H   UNL A   1      41.154  29.306  32.793  1.00  0.00     0.167 HD
ATOM     64  C   UNL A   1      43.317  27.526  32.308  1.00  0.00     0.074 A 
ATOM     65  C   UNL A   1      44.190  26.577  31.648  1.00  0.00     0.031 C 
ATOM     66  C   UNL A   1      43.511  27.993  33.567  1.00  0.00     0.034 A 
BRANCH  53  67
ATOM     67  C   UNL A   1      39.192  32.031  35.453  1.00  0.00     0.023 A 
ATOM     68  C   UNL A   1      39.612  33.373  35.497  1.00  0.00     0.031 A 
ATOM     69  C   UNL A   1      38.326  31.582  36.465  1.00  0.00     0.131 A 
ATOM     70  C   UNL A   1      39.240  34.189  36.575  1.00  0.00     0.055 A 
ATOM     71  C   UNL A   1      37.888  32.424  37.489  1.00  0.00     0.041 A 
ATOM     72  F   UNL A   1      37.904  30.307  36.488  1.00  0.00    -0.206 F 
ATOM     73  C   UNL A   1      38.360  33.732  37.559  1.00  0.00     0.022 A 
BRANCH  70  74
ATOM     74  S   UNL A   1      40.046  35.804  36.753  1.00  0.00     0.124 S 
ATOM     75  O   UNL A   1      39.652  36.468  35.512  1.00  0.00    -0.237 OA
ATOM     76  O   UNL A   1      39.442  36.326  37.975  1.00  0.00    -0.237 OA
ATOM     77  O   UNL A   1      41.465  35.471  36.851  1.00  0.00    -0.744 OA
ENDBRANCH  70  74
ENDBRANCH  53  67
BRANCH  54  78
ATOM     78  C   UNL A   1      42.266  26.195  27.913  1.00  0.00     0.023 A 
ATOM     79  C   UNL A   1      41.803  24.884  27.709  1.00  0.00     0.031 A 
ATOM     80  C   UNL A   1      43.248  26.692  27.037  1.00  0.00     0.131 A 
ATOM     81  C   UNL A   1      42.354  24.100  26.683  1.00  0.00     0.055 A 
ATOM     82  C   UNL A   1      43.757  25.924  25.988  1.00  0.00     0.041 A 
ATOM     83  F   UNL A   1      43.718  27.940  27.183  1.00  0.00    -0.206 F 
ATOM     84  C   UNL A   1      43.319  24.614  25.815  1.00  0.00     0.022 A 
BRANCH  81  85
ATOM     85  S   UNL A   1      41.844  22.363  26.551  1.00  0.00     0.124 S 
ATOM     86  O   UNL A   1      42.582  21.926  25.371  1.00  0.00    -0.237 OA
ATOM     87  O   UNL A   1      42.293  21.819  27.828  1.00  0.00    -0.237 OA
ATOM     88  O   UNL A   1      40.394  22.446  26.386  1.00  0.00    -0.744 OA
ENDBRANCH  81  85
ENDBRANCH  54  78
BRANCH  66  89
ATOM     89  C   UNL A   1      44.684  27.433  34.333  1.00  0.00     0.023 A 
ATOM     90  C   UNL A   1      44.578  26.260  35.100  1.00  0.00     0.031 A 
ATOM     91  C   UNL A   1      45.926  28.091  34.292  1.00  0.00     0.131 A 
ATOM     92  C   UNL A   1      45.684  25.807  35.834  1.00  0.00     0.055 A 
ATOM     93  C   UNL A   1      47.037  27.605  34.981  1.00  0.00     0.041 A 
ATOM     94  F   UNL A   1      46.079  29.216  33.575  1.00  0.00    -0.206 F 
ATOM     95  C   UNL A   1      46.917  26.462  35.766  1.00  0.00     0.022 A 
BRANCH  92  96
ATOM     96  S   UNL A   1      45.474  24.383  36.938  1.00  0.00     0.124 S 
ATOM     97  O   UNL A   1      44.632  23.500  36.138  1.00  0.00    -0.237 OA
ATOM     98  O   UNL A   1      46.850  23.940  37.143  1.00  0.00    -0.237 OA
ATOM     99  O   UNL A   1      44.828  24.955  38.117  1.00  0.00    -0.744 OA
ENDBRANCH  92  96
ENDBRANCH  66  89
ENDBRANCH  40  41
ENDBRANCH  32  35
ENDBRANCH  30  31
ENDBRANCH  29  30
ENDBRANCH  28  29
ENDBRANCH   1  28
TORSDOF 20
ENDMDL
MODEL 3
REMARK VINA RESULT:     -11.7      2.390      3.440
REMARK SMILES O=C(CCCOc1ccc(Cl)cc1Cl)Nc1cccc(C(=O)NCCCCNC(=O)c2ccc(-c3c4nc(c(-c5cc(S(=O)(=O)[O-])ccc5F)c5ccc([nH]5)c(-c5cc(S(=O)(=O)[O-])ccc5F)c5nc(c(-c6cc(S(=O)(=O)[O-])ccc6F)c6ccc3[nH]6)C=C5)C=C4)cc2)c1
REMARK SMILES IDX 24 1 23 2 21 3 22 4 20 6 16 7 17 8 94 9 18 10 19 11 15 12
REMARK SMILES IDX 1 13 2 14 3 16 4 17 5 18 6 19 7 20 8 21 13 22 9 23 12 24
REMARK SMILES IDX 14 25 10 26 11 27 25 28 26 29 27 30 28 31 29 32 30 34 31 35
REMARK SMILES IDX 32 36 93 37 33 38 92 39 34 40 35 41 36 42 86 43 37 44 91 45
REMARK SMILES IDX 85 46 87 47 38 48 90 49 84 50 83 51 39 53 71 54 51 55 70 56
REMARK SMILES IDX 52 57 55 58 69 59 88 60 53 61 54 62 68 64 89 65 56 66 40 67
REMARK SMILES IDX 41 68 49 69 42 70 48 71 50 72 47 73 43 74 44 75 45 76 46 77
REMARK SMILES IDX 72 78 73 79 81 80 74 81 80 82 82 83 79 84 75 85 76 86 77 87
REMARK SMILES IDX 78 88 57 89 58 90 66 91 59 92 65 93 67 94 64 95 60 96 61 97
REMARK SMILES IDX 62 98 63 99
REMARK H PARENT 23 5 15 15 28 33 87 52 55 63
REMARK Flexibility Score: inf
ROOT
ATOM      1  C   UNL A   1      30.796  26.134  25.844  1.00  0.00     0.116 C 
ENDROOT
BRANCH   1   2
ATOM      2  N   UNL A   1      30.511  26.736  24.548  1.00  0.00    -0.352 N 
ATOM      3  C   UNL A   1      30.991  26.418  23.295  1.00  0.00     0.251 C 
ATOM      4  O   UNL A   1      30.644  27.080  22.320  1.00  0.00    -0.269 OA
ATOM      5  H   UNL A   1      29.875  27.488  24.570  1.00  0.00     0.163 HD
BRANCH   3   6
ATOM      6  C   UNL A   1      31.989  25.334  23.117  1.00  0.00     0.041 A 
ATOM      7  C   UNL A   1      32.545  22.979  23.150  1.00  0.00     0.041 A 
ATOM      8  C   UNL A   1      33.903  23.317  23.208  1.00  0.00     0.026 A 
ATOM      9  C   UNL A   1      31.604  23.997  23.004  1.00  0.00     0.040 A 
ATOM     10  C   UNL A   1      34.305  24.656  23.162  1.00  0.00     0.003 A 
ATOM     11  C   UNL A   1      33.346  25.668  23.141  1.00  0.00     0.014 A 
BRANCH   7  12
ATOM     12  N   UNL A   1      32.181  21.638  23.411  1.00  0.00    -0.326 N 
ATOM     13  O   UNL A   1      31.498  21.741  25.616  1.00  0.00    -0.275 OA
ATOM     14  C   UNL A   1      31.917  21.101  24.655  1.00  0.00     0.224 C 
ATOM     15  H   UNL A   1      32.110  21.034  22.637  1.00  0.00     0.169 HD
BRANCH  14  16
ATOM     16  C   UNL A   1      32.351  19.654  24.860  1.00  0.00     0.104 C 
BRANCH  16  17
ATOM     17  C   UNL A   1      33.658  19.176  24.234  1.00  0.00     0.051 C 
BRANCH  17  18
ATOM     18  C   UNL A   1      34.936  19.836  24.768  1.00  0.00     0.230 C 
BRANCH  18  19
ATOM     19  O   UNL A   1      34.673  20.834  25.760  1.00  0.00    -0.492 OA
BRANCH  19  20
ATOM     20  C   UNL A   1      35.648  21.783  25.906  1.00  0.00     0.137 A 
ATOM     21  C   UNL A   1      36.931  21.372  25.525  1.00  0.00     0.049 A 
ATOM     22  C   UNL A   1      35.440  23.105  26.320  1.00  0.00     0.084 A 
ATOM     23  C   UNL A   1      38.015  22.244  25.638  1.00  0.00     0.024 A 
ATOM     24  C   UNL A   1      36.526  23.980  26.432  1.00  0.00     0.045 A 
ATOM     25  Cl  UNL A   1      33.868  23.746  26.638  1.00  0.00    -0.080 Cl
ATOM     26  C   UNL A   1      37.806  23.543  26.095  1.00  0.00     0.042 A 
ATOM     27  Cl  UNL A   1      39.134  24.629  26.210  1.00  0.00    -0.084 Cl
ENDBRANCH  19  20
ENDBRANCH  18  19
ENDBRANCH  17  18
ENDBRANCH  16  17
ENDBRANCH  14  16
ENDBRANCH   7  12
ENDBRANCH   3   6
ENDBRANCH   1   2
BRANCH   1  28
ATOM     28  C   UNL A   1      32.008  26.719  26.556  1.00  0.00     0.023 C 
BRANCH  28  29
ATOM     29  C   UNL A   1      31.896  28.172  26.999  1.00  0.00     0.023 C 
BRANCH  29  30
ATOM     30  C   UNL A   1      32.745  29.169  26.221  1.00  0.00     0.116 C 
BRANCH  30  31
ATOM     31  N   UNL A   1      32.406  30.561  26.483  1.00  0.00    -0.352 N 
ATOM     32  C   UNL A   1      33.127  31.524  27.155  1.00  0.00     0.251 C 
ATOM     33  H   UNL A   1      31.536  30.856  26.129  1.00  0.00     0.163 HD
ATOM     34  O   UNL A   1      32.631  32.625  27.362  1.00  0.00    -0.269 OA
BRANCH  32  35
ATOM     35  C   UNL A   1      34.481  31.203  27.663  1.00  0.00     0.039 A 
ATOM     36  C   UNL A   1      35.434  32.222  27.751  1.00  0.00     0.014 A 
ATOM     37  C   UNL A   1      34.791  29.914  28.103  1.00  0.00     0.014 A 
ATOM     38  C   UNL A   1      36.661  31.971  28.372  1.00  0.00     0.010 A 
ATOM     39  C   UNL A   1      35.978  29.689  28.794  1.00  0.00     0.010 A 
ATOM     40  C   UNL A   1      36.922  30.717  28.947  1.00  0.00    -0.014 A 
BRANCH  40  41
ATOM     41  C   UNL A   1      38.167  30.448  29.716  1.00  0.00     0.031 A 
ATOM     42  C   UNL A   1      39.203  29.511  29.157  1.00  0.00     0.074 A 
ATOM     43  C   UNL A   1      38.320  30.965  30.952  1.00  0.00     0.049 A 
ATOM     44  N   UNL A   1      40.276  29.025  29.724  1.00  0.00    -0.248 NA
ATOM     45  C   UNL A   1      38.974  29.027  27.788  1.00  0.00     0.031 C 
ATOM     46  C   UNL A   1      37.369  31.853  31.624  1.00  0.00     0.029 A 
ATOM     47  N   UNL A   1      39.326  30.803  31.874  1.00  0.00    -0.354 N 
ATOM     48  C   UNL A   1      40.836  28.157  28.794  1.00  0.00     0.074 A 
ATOM     49  C   UNL A   1      39.949  28.143  27.649  1.00  0.00     0.031 C 
ATOM     50  C   UNL A   1      37.844  32.168  32.840  1.00  0.00     0.029 A 
ATOM     51  C   UNL A   1      39.107  31.469  33.057  1.00  0.00     0.049 A 
ATOM     52  H   UNL A   1      40.128  30.258  31.703  1.00  0.00     0.167 HD
ATOM     53  C   UNL A   1      41.992  27.452  28.877  1.00  0.00     0.034 A 
ATOM     54  C   UNL A   1      39.831  31.501  34.193  1.00  0.00     0.034 A 
ATOM     55  C   UNL A   1      42.878  27.496  30.014  1.00  0.00     0.049 A 
ATOM     56  C   UNL A   1      41.112  30.709  34.265  1.00  0.00     0.074 A 
ATOM     57  C   UNL A   1      44.100  26.867  30.181  1.00  0.00     0.029 A 
ATOM     58  N   UNL A   1      42.637  28.208  31.182  1.00  0.00    -0.354 N 
ATOM     59  N   UNL A   1      41.648  29.921  33.362  1.00  0.00    -0.248 NA
ATOM     60  C   UNL A   1      41.891  30.819  35.506  1.00  0.00     0.031 C 
ATOM     61  C   UNL A   1      44.571  27.156  31.468  1.00  0.00     0.029 A 
ATOM     62  C   UNL A   1      43.677  28.019  32.079  1.00  0.00     0.049 A 
ATOM     63  H   UNL A   1      41.843  28.767  31.348  1.00  0.00     0.167 HD
ATOM     64  C   UNL A   1      42.843  29.470  33.914  1.00  0.00     0.074 A 
ATOM     65  C   UNL A   1      42.953  30.079  35.223  1.00  0.00     0.031 C 
ATOM     66  C   UNL A   1      43.770  28.633  33.383  1.00  0.00     0.034 A 
BRANCH  53  67
ATOM     67  C   UNL A   1      42.343  26.560  27.710  1.00  0.00     0.023 A 
ATOM     68  C   UNL A   1      42.170  25.165  27.770  1.00  0.00     0.031 A 
ATOM     69  C   UNL A   1      42.897  27.102  26.537  1.00  0.00     0.131 A 
ATOM     70  C   UNL A   1      42.628  24.357  26.719  1.00  0.00     0.055 A 
ATOM     71  C   UNL A   1      43.270  26.298  25.458  1.00  0.00     0.041 A 
ATOM     72  F   UNL A   1      43.103  28.424  26.426  1.00  0.00    -0.206 F 
ATOM     73  C   UNL A   1      43.154  24.915  25.552  1.00  0.00     0.022 A 
BRANCH  70  74
ATOM     74  S   UNL A   1      42.667  22.560  26.967  1.00  0.00     0.124 S 
ATOM     75  O   UNL A   1      44.010  22.227  26.498  1.00  0.00    -0.237 OA
ATOM     76  O   UNL A   1      42.443  22.434  28.403  1.00  0.00    -0.237 OA
ATOM     77  O   UNL A   1      41.580  22.073  26.121  1.00  0.00    -0.744 OA
ENDBRANCH  70  74
ENDBRANCH  53  67
BRANCH  54  78
ATOM     78  C   UNL A   1      39.367  32.299  35.364  1.00  0.00     0.023 A 
ATOM     79  C   UNL A   1      39.764  33.637  35.527  1.00  0.00     0.031 A 
ATOM     80  C   UNL A   1      38.556  31.725  36.359  1.00  0.00     0.131 A 
ATOM     81  C   UNL A   1      39.386  34.342  36.681  1.00  0.00     0.055 A 
ATOM     82  C   UNL A   1      38.143  32.446  37.480  1.00  0.00     0.041 A 
ATOM     83  F   UNL A   1      38.144  30.452  36.247  1.00  0.00    -0.206 F 
ATOM     84  C   UNL A   1      38.570  33.760  37.653  1.00  0.00     0.022 A 
BRANCH  81  85
ATOM     85  S   UNL A   1      40.046  36.014  36.930  1.00  0.00     0.124 S 
ATOM     86  O   UNL A   1      39.857  36.608  35.612  1.00  0.00    -0.237 OA
ATOM     87  O   UNL A   1      39.187  36.523  37.994  1.00  0.00    -0.237 OA
ATOM     88  O   UNL A   1      41.437  35.776  37.314  1.00  0.00    -0.744 OA
ENDBRANCH  81  85
ENDBRANCH  54  78
BRANCH  66  89
ATOM     89  C   UNL A   1      45.013  28.380  34.199  1.00  0.00     0.023 A 
ATOM     90  C   UNL A   1      45.103  27.304  35.100  1.00  0.00     0.031 A 
ATOM     91  C   UNL A   1      46.122  29.234  34.071  1.00  0.00     0.131 A 
ATOM     92  C   UNL A   1      46.263  27.139  35.873  1.00  0.00     0.055 A 
ATOM     93  C   UNL A   1      47.292  29.034  34.804  1.00  0.00     0.041 A 
ATOM     94  F   UNL A   1      46.087  30.277  33.226  1.00  0.00    -0.206 F 
ATOM     95  C   UNL A   1      47.363  27.987  35.718  1.00  0.00     0.022 A 
BRANCH  92  96
ATOM     96  S   UNL A   1      46.290  25.840  37.138  1.00  0.00     0.124 S 
ATOM     97  O   UNL A   1      47.526  26.139  37.854  1.00  0.00    -0.237 OA
ATOM     98  O   UNL A   1      45.053  26.090  37.871  1.00  0.00    -0.237 OA
ATOM     99  O   UNL A   1      46.307  24.603  36.360  1.00  0.00    -0.744 OA
ENDBRANCH  92  96
ENDBRANCH  66  89
ENDBRANCH  40  41
ENDBRANCH  32  35
ENDBRANCH  30  31
ENDBRANCH  29  30
ENDBRANCH  28  29
ENDBRANCH   1  28
TORSDOF 20
ENDMDL
