MODEL 1
REMARK VINA RESULT:     -10.7      0.000      0.000
REMARK SMILES CC(C)COc1ccc(CC(=O)NCCCCNC(=O)c2ccc(-c3c4nc(c(-c5cc(S(=O)(=O)[O-])ccc5F)c5ccc([nH]5)c(-c5cc(S(=O)(=O)[O-])ccc5F)c5nc(c(-c6cc(S(=O)(=O)[O-])ccc6F)c6ccc3[nH]6)C=C5)C=C4)cc2)cc1
REMARK SMILES IDX 15 1 14 2 13 3 11 4 12 5 10 7 9 8 6 9 7 10 85 11 8 12 84 13
REMARK SMILES IDX 5 14 4 15 2 16 1 17 3 18 16 19 17 20 18 21 19 22 20 24 21 25
REMARK SMILES IDX 22 26 83 27 23 28 82 29 24 30 25 31 26 32 76 33 27 34 81 35
REMARK SMILES IDX 75 36 77 37 28 38 80 39 74 40 73 41 29 43 61 44 41 45 60 46
REMARK SMILES IDX 42 47 45 48 59 49 78 50 43 51 44 52 58 54 79 55 46 56 30 57
REMARK SMILES IDX 31 58 39 59 32 60 38 61 40 62 37 63 33 64 34 65 35 66 36 67
REMARK SMILES IDX 62 68 63 69 71 70 64 71 70 72 72 73 69 74 65 75 66 76 67 77
REMARK SMILES IDX 68 78 47 79 48 80 56 81 49 82 55 83 57 84 54 85 50 86 51 87
REMARK SMILES IDX 52 88 53 89
REMARK H PARENT 13 6 18 23 77 42 45 53
REMARK Flexibility Score: inf
ROOT
ATOM      1  C   UNL A   1      32.019  27.945  27.158  1.00  0.00     0.023 C 
ENDROOT
BRANCH   1   2
ATOM      2  C   UNL A   1      31.478  26.793  26.306  1.00  0.00     0.116 C 
BRANCH   2   3
ATOM      3  N   UNL A   1      31.994  26.837  24.953  1.00  0.00    -0.356 N 
ATOM      4  C   UNL A   1      33.206  26.428  24.472  1.00  0.00     0.224 C 
ATOM      5  O   UNL A   1      33.457  26.623  23.281  1.00  0.00    -0.275 OA
ATOM      6  H   UNL A   1      31.382  27.218  24.281  1.00  0.00     0.163 HD
BRANCH   4   7
ATOM      7  C   UNL A   1      34.191  25.689  25.364  1.00  0.00     0.135 C 
BRANCH   7   8
ATOM      8  C   UNL A   1      34.210  24.192  25.179  1.00  0.00    -0.038 A 
ATOM      9  C   UNL A   1      34.254  21.402  24.969  1.00  0.00     0.119 A 
ATOM     10  C   UNL A   1      35.166  22.161  24.241  1.00  0.00     0.047 A 
ATOM     11  C   UNL A   1      33.393  22.023  25.862  1.00  0.00     0.047 A 
ATOM     12  C   UNL A   1      35.158  23.558  24.362  1.00  0.00     0.008 A 
ATOM     13  C   UNL A   1      33.298  23.405  25.889  1.00  0.00     0.008 A 
BRANCH   9  14
ATOM     14  O   UNL A   1      34.235  20.041  24.849  1.00  0.00    -0.493 OA
BRANCH  14  15
ATOM     15  C   UNL A   1      32.921  19.536  24.516  1.00  0.00     0.232 C 
BRANCH  15  16
ATOM     16  C   UNL A   1      32.945  18.103  23.932  1.00  0.00     0.020 C 
ATOM     17  C   UNL A   1      32.527  18.071  22.451  1.00  0.00     0.011 C 
ATOM     18  C   UNL A   1      34.330  17.466  24.044  1.00  0.00     0.011 C 
ENDBRANCH  15  16
ENDBRANCH  14  15
ENDBRANCH   9  14
ENDBRANCH   7   8
ENDBRANCH   4   7
ENDBRANCH   2   3
ENDBRANCH   1   2
BRANCH   1  19
ATOM     19  C   UNL A   1      31.483  29.323  26.773  1.00  0.00     0.023 C 
BRANCH  19  20
ATOM     20  C   UNL A   1      32.507  30.249  26.134  1.00  0.00     0.116 C 
BRANCH  20  21
ATOM     21  N   UNL A   1      32.309  31.645  26.484  1.00  0.00    -0.352 N 
ATOM     22  C   UNL A   1      33.055  32.431  27.332  1.00  0.00     0.251 C 
ATOM     23  H   UNL A   1      31.539  32.087  26.058  1.00  0.00     0.163 HD
ATOM     24  O   UNL A   1      32.665  33.552  27.623  1.00  0.00    -0.269 OA
BRANCH  22  25
ATOM     25  C   UNL A   1      34.304  31.888  27.915  1.00  0.00     0.039 A 
ATOM     26  C   UNL A   1      35.403  32.736  28.056  1.00  0.00     0.014 A 
ATOM     27  C   UNL A   1      34.383  30.559  28.341  1.00  0.00     0.014 A 
ATOM     28  C   UNL A   1      36.564  32.265  28.672  1.00  0.00     0.010 A 
ATOM     29  C   UNL A   1      35.507  30.118  29.033  1.00  0.00     0.010 A 
ATOM     30  C   UNL A   1      36.615  30.962  29.196  1.00  0.00    -0.014 A 
BRANCH  30  31
ATOM     31  C   UNL A   1      37.829  30.468  29.898  1.00  0.00     0.031 A 
ATOM     32  C   UNL A   1      38.110  30.901  31.312  1.00  0.00     0.074 A 
ATOM     33  C   UNL A   1      38.692  29.659  29.251  1.00  0.00     0.049 A 
ATOM     34  N   UNL A   1      39.124  30.601  32.083  1.00  0.00    -0.248 NA
ATOM     35  C   UNL A   1      37.138  31.814  31.931  1.00  0.00     0.031 C 
ATOM     36  C   UNL A   1      38.547  29.206  27.866  1.00  0.00     0.029 A 
ATOM     37  N   UNL A   1      39.859  29.073  29.670  1.00  0.00    -0.354 N 
ATOM     38  C   UNL A   1      38.913  31.289  33.273  1.00  0.00     0.074 A 
ATOM     39  C   UNL A   1      37.716  32.081  33.092  1.00  0.00     0.031 C 
ATOM     40  C   UNL A   1      39.563  28.382  27.564  1.00  0.00     0.029 A 
ATOM     41  C   UNL A   1      40.459  28.286  28.713  1.00  0.00     0.049 A 
ATOM     42  H   UNL A   1      40.233  29.202  30.571  1.00  0.00     0.167 HD
ATOM     43  C   UNL A   1      39.634  31.243  34.421  1.00  0.00     0.034 A 
ATOM     44  C   UNL A   1      41.603  27.574  28.753  1.00  0.00     0.034 A 
ATOM     45  C   UNL A   1      40.824  30.443  34.585  1.00  0.00     0.049 A 
ATOM     46  C   UNL A   1      42.410  27.572  30.028  1.00  0.00     0.074 A 
ATOM     47  C   UNL A   1      41.604  30.284  35.717  1.00  0.00     0.029 A 
ATOM     48  N   UNL A   1      41.413  29.676  33.588  1.00  0.00    -0.354 N 
ATOM     49  N   UNL A   1      42.165  28.184  31.165  1.00  0.00    -0.248 NA
ATOM     50  C   UNL A   1      43.642  26.772  30.029  1.00  0.00     0.031 C 
ATOM     51  C   UNL A   1      42.704  29.488  35.384  1.00  0.00     0.029 A 
ATOM     52  C   UNL A   1      42.565  29.073  34.069  1.00  0.00     0.049 A 
ATOM     53  H   UNL A   1      41.062  29.575  32.673  1.00  0.00     0.167 HD
ATOM     54  C   UNL A   1      43.197  27.815  32.023  1.00  0.00     0.074 A 
ATOM     55  C   UNL A   1      44.053  26.913  31.280  1.00  0.00     0.031 C 
ATOM     56  C   UNL A   1      43.418  28.185  33.311  1.00  0.00     0.034 A 
BRANCH  43  57
ATOM     57  C   UNL A   1      39.165  32.100  35.573  1.00  0.00     0.023 A 
ATOM     58  C   UNL A   1      39.570  33.440  35.712  1.00  0.00     0.031 A 
ATOM     59  C   UNL A   1      38.318  31.567  36.560  1.00  0.00     0.131 A 
ATOM     60  C   UNL A   1      39.197  34.174  36.848  1.00  0.00     0.055 A 
ATOM     61  C   UNL A   1      37.877  32.330  37.644  1.00  0.00     0.041 A 
ATOM     62  F   UNL A   1      37.914  30.288  36.499  1.00  0.00    -0.206 F 
ATOM     63  C   UNL A   1      38.329  33.637  37.801  1.00  0.00     0.022 A 
BRANCH  60  64
ATOM     64  S   UNL A   1      39.984  35.782  37.138  1.00  0.00     0.124 S 
ATOM     65  O   UNL A   1      39.309  36.225  38.355  1.00  0.00    -0.237 OA
ATOM     66  O   UNL A   1      41.390  35.423  37.281  1.00  0.00    -0.237 OA
ATOM     67  O   UNL A   1      39.653  36.546  35.937  1.00  0.00    -0.744 OA
ENDBRANCH  60  64
ENDBRANCH  43  57
BRANCH  44  68
ATOM     68  C   UNL A   1      42.067  26.812  27.557  1.00  0.00     0.023 A 
ATOM     69  C   UNL A   1      41.807  25.438  27.429  1.00  0.00     0.031 A 
ATOM     70  C   UNL A   1      42.822  27.434  26.548  1.00  0.00     0.131 A 
ATOM     71  C   UNL A   1      42.344  24.721  26.348  1.00  0.00     0.055 A 
ATOM     72  C   UNL A   1      43.303  26.730  25.442  1.00  0.00     0.041 A 
ATOM     73  F   UNL A   1      43.100  28.747  26.618  1.00  0.00    -0.206 F 
ATOM     74  C   UNL A   1      43.077  25.361  25.345  1.00  0.00     0.022 A 
BRANCH  71  75
ATOM     75  S   UNL A   1      42.159  22.916  26.325  1.00  0.00     0.124 S 
ATOM     76  O   UNL A   1      43.005  22.518  27.443  1.00  0.00    -0.237 OA
ATOM     77  O   UNL A   1      40.721  22.758  26.518  1.00  0.00    -0.237 OA
ATOM     78  O   UNL A   1      42.654  22.541  25.002  1.00  0.00    -0.744 OA
ENDBRANCH  71  75
ENDBRANCH  44  68
BRANCH  56  79
ATOM     79  C   UNL A   1      44.612  27.575  34.007  1.00  0.00     0.023 A 
ATOM     80  C   UNL A   1      44.516  26.368  34.722  1.00  0.00     0.031 A 
ATOM     81  C   UNL A   1      45.861  28.219  33.964  1.00  0.00     0.131 A 
ATOM     82  C   UNL A   1      45.631  25.878  35.419  1.00  0.00     0.055 A 
ATOM     83  C   UNL A   1      46.985  27.689  34.600  1.00  0.00     0.041 A 
ATOM     84  F   UNL A   1      46.012  29.377  33.299  1.00  0.00    -0.206 F 
ATOM     85  C   UNL A   1      46.869  26.521  35.346  1.00  0.00     0.022 A 
BRANCH  82  86
ATOM     86  S   UNL A   1      45.413  24.447  36.512  1.00  0.00     0.124 S 
ATOM     87  O   UNL A   1      44.045  24.041  36.212  1.00  0.00    -0.237 OA
ATOM     88  O   UNL A   1      46.463  23.543  36.054  1.00  0.00    -0.237 OA
ATOM     89  O   UNL A   1      45.616  25.003  37.849  1.00  0.00    -0.744 OA
ENDBRANCH  82  86
ENDBRANCH  56  79
ENDBRANCH  30  31
ENDBRANCH  22  25
ENDBRANCH  20  21
ENDBRANCH  19  20
ENDBRANCH   1  19
TORSDOF 18
ENDMDL
MODEL 2
REMARK VINA RESULT:     -10.5      1.738      2.064
REMARK SMILES CC(C)COc1ccc(CC(=O)NCCCCNC(=O)c2ccc(-c3c4nc(c(-c5cc(S(=O)(=O)[O-])ccc5F)c5ccc([nH]5)c(-c5cc(S(=O)(=O)[O-])ccc5F)c5nc(c(-c6cc(S(=O)(=O)[O-])ccc6F)c6ccc3[nH]6)C=C5)C=C4)cc2)cc1
REMARK SMILES IDX 15 1 14 2 13 3 11 4 12 5 10 7 9 8 6 9 7 10 85 11 8 12 84 13
REMARK SMILES IDX 5 14 4 15 2 16 1 17 3 18 16 19 17 20 18 21 19 22 20 24 21 25
REMARK SMILES IDX 22 26 83 27 23 28 82 29 24 30 25 31 26 32 76 33 27 34 81 35
REMARK SMILES IDX 75 36 77 37 28 38 80 39 74 40 73 41 29 43 61 44 41 45 60 46
REMARK SMILES IDX 42 47 45 48 59 49 78 50 43 51 44 52 58 54 79 55 46 56 30 57
REMARK SMILES IDX 31 58 39 59 32 60 38 61 40 62 37 63 33 64 34 65 35 66 36 67
REMARK SMILES IDX 62 68 63 69 71 70 64 71 70 72 72 73 69 74 65 75 66 76 67 77
REMARK SMILES IDX 68 78 47 79 48 80 56 81 49 82 55 83 57 84 54 85 50 86 51 87
REMARK SMILES IDX 52 88 53 89
REMARK H PARENT 13 6 18 23 77 42 45 53
REMARK Flexibility Score: inf
ROOT
ATOM      1  C   UNL A   1      31.791  27.491  25.764  1.00  0.00     0.023 C 
ENDROOT
BRANCH   1   2
ATOM      2  C   UNL A   1      31.470  27.798  24.299  1.00  0.00     0.116 C 
BRANCH   2   3
ATOM      3  N   UNL A   1      32.578  27.464  23.426  1.00  0.00    -0.356 N 
ATOM      4  C   UNL A   1      32.735  26.391  22.594  1.00  0.00     0.224 C 
ATOM      5  O   UNL A   1      33.800  26.276  21.985  1.00  0.00    -0.275 OA
ATOM      6  H   UNL A   1      33.327  28.103  23.433  1.00  0.00     0.163 HD
BRANCH   4   7
ATOM      7  C   UNL A   1      31.600  25.404  22.370  1.00  0.00     0.135 C 
BRANCH   7   8
ATOM      8  C   UNL A   1      31.846  24.022  22.923  1.00  0.00    -0.038 A 
ATOM      9  C   UNL A   1      32.356  21.515  24.056  1.00  0.00     0.119 A 
ATOM     10  C   UNL A   1      32.807  21.792  22.767  1.00  0.00     0.047 A 
ATOM     11  C   UNL A   1      31.739  22.508  24.803  1.00  0.00     0.047 A 
ATOM     12  C   UNL A   1      32.570  23.055  22.208  1.00  0.00     0.008 A 
ATOM     13  C   UNL A   1      31.394  23.711  24.208  1.00  0.00     0.008 A 
BRANCH   9  14
ATOM     14  O   UNL A   1      32.561  20.282  24.610  1.00  0.00    -0.493 OA
BRANCH  14  15
ATOM     15  C   UNL A   1      32.455  19.216  23.638  1.00  0.00     0.232 C 
BRANCH  15  16
ATOM     16  C   UNL A   1      32.580  17.805  24.261  1.00  0.00     0.020 C 
ATOM     17  C   UNL A   1      33.825  17.055  23.757  1.00  0.00     0.011 C 
ATOM     18  C   UNL A   1      32.650  17.860  25.787  1.00  0.00     0.011 C 
ENDBRANCH  15  16
ENDBRANCH  14  15
ENDBRANCH   9  14
ENDBRANCH   7   8
ENDBRANCH   4   7
ENDBRANCH   2   3
ENDBRANCH   1   2
BRANCH   1  19
ATOM     19  C   UNL A   1      31.974  28.726  26.645  1.00  0.00     0.023 C 
BRANCH  19  20
ATOM     20  C   UNL A   1      33.044  29.696  26.168  1.00  0.00     0.116 C 
BRANCH  20  21
ATOM     21  N   UNL A   1      32.814  31.061  26.609  1.00  0.00    -0.352 N 
ATOM     22  C   UNL A   1      33.558  31.816  27.486  1.00  0.00     0.251 C 
ATOM     23  H   UNL A   1      32.020  31.503  26.231  1.00  0.00     0.163 HD
ATOM     24  O   UNL A   1      33.141  32.905  27.856  1.00  0.00    -0.269 OA
BRANCH  22  25
ATOM     25  C   UNL A   1      34.837  31.280  28.004  1.00  0.00     0.039 A 
ATOM     26  C   UNL A   1      35.952  32.119  28.042  1.00  0.00     0.014 A 
ATOM     27  C   UNL A   1      34.932  29.964  28.469  1.00  0.00     0.014 A 
ATOM     28  C   UNL A   1      37.146  31.655  28.597  1.00  0.00     0.010 A 
ATOM     29  C   UNL A   1      36.095  29.533  29.100  1.00  0.00     0.010 A 
ATOM     30  C   UNL A   1      37.220  30.370  29.161  1.00  0.00    -0.014 A 
BRANCH  30  31
ATOM     31  C   UNL A   1      38.472  29.885  29.797  1.00  0.00     0.031 A 
ATOM     32  C   UNL A   1      38.878  30.403  31.152  1.00  0.00     0.074 A 
ATOM     33  C   UNL A   1      39.259  29.009  29.142  1.00  0.00     0.049 A 
ATOM     34  N   UNL A   1      39.942  30.123  31.859  1.00  0.00    -0.248 NA
ATOM     35  C   UNL A   1      37.983  31.385  31.781  1.00  0.00     0.031 C 
ATOM     36  C   UNL A   1      38.992  28.469  27.806  1.00  0.00     0.029 A 
ATOM     37  N   UNL A   1      40.441  28.415  29.508  1.00  0.00    -0.354 N 
ATOM     38  C   UNL A   1      39.847  30.896  33.012  1.00  0.00     0.074 A 
ATOM     39  C   UNL A   1      38.659  31.711  32.871  1.00  0.00     0.031 C 
ATOM     40  C   UNL A   1      39.958  27.595  27.484  1.00  0.00     0.029 A 
ATOM     41  C   UNL A   1      40.941  27.547  28.562  1.00  0.00     0.049 A 
ATOM     42  H   UNL A   1      40.889  28.591  30.365  1.00  0.00     0.167 HD
ATOM     43  C   UNL A   1      40.656  30.903  34.100  1.00  0.00     0.034 A 
ATOM     44  C   UNL A   1      42.066  26.804  28.561  1.00  0.00     0.034 A 
ATOM     45  C   UNL A   1      41.834  30.079  34.225  1.00  0.00     0.049 A 
ATOM     46  C   UNL A   1      42.972  26.861  29.766  1.00  0.00     0.074 A 
ATOM     47  C   UNL A   1      42.698  29.971  35.301  1.00  0.00     0.029 A 
ATOM     48  N   UNL A   1      42.320  29.228  33.240  1.00  0.00    -0.354 N 
ATOM     49  N   UNL A   1      42.835  27.555  30.874  1.00  0.00    -0.248 NA
ATOM     50  C   UNL A   1      44.179  26.025  29.726  1.00  0.00     0.031 C 
ATOM     51  C   UNL A   1      43.746  29.120  34.937  1.00  0.00     0.029 A 
ATOM     52  C   UNL A   1      43.492  28.623  33.669  1.00  0.00     0.049 A 
ATOM     53  H   UNL A   1      41.894  29.078  32.365  1.00  0.00     0.167 HD
ATOM     54  C   UNL A   1      43.924  27.212  31.672  1.00  0.00     0.074 A 
ATOM     55  C   UNL A   1      44.692  26.235  30.927  1.00  0.00     0.031 C 
ATOM     56  C   UNL A   1      44.257  27.660  32.910  1.00  0.00     0.034 A 
BRANCH  43  57
ATOM     57  C   UNL A   1      40.303  31.850  35.224  1.00  0.00     0.023 A 
ATOM     58  C   UNL A   1      39.405  31.485  36.242  1.00  0.00     0.031 A 
ATOM     59  C   UNL A   1      40.854  33.142  35.267  1.00  0.00     0.131 A 
ATOM     60  C   UNL A   1      39.023  32.425  37.212  1.00  0.00     0.055 A 
ATOM     61  C   UNL A   1      40.538  34.044  36.286  1.00  0.00     0.041 A 
ATOM     62  F   UNL A   1      41.700  33.559  34.313  1.00  0.00    -0.206 F 
ATOM     63  C   UNL A   1      39.605  33.693  37.258  1.00  0.00     0.022 A 
BRANCH  60  64
ATOM     64  S   UNL A   1      37.643  32.017  38.316  1.00  0.00     0.124 S 
ATOM     65  O   UNL A   1      38.276  32.120  39.629  1.00  0.00    -0.237 OA
ATOM     66  O   UNL A   1      36.666  33.051  37.995  1.00  0.00    -0.237 OA
ATOM     67  O   UNL A   1      37.273  30.661  37.916  1.00  0.00    -0.744 OA
ENDBRANCH  60  64
ENDBRANCH  43  57
BRANCH  44  68
ATOM     68  C   UNL A   1      42.411  25.949  27.388  1.00  0.00     0.023 A 
ATOM     69  C   UNL A   1      42.038  24.596  27.344  1.00  0.00     0.031 A 
ATOM     70  C   UNL A   1      43.164  26.459  26.316  1.00  0.00     0.131 A 
ATOM     71  C   UNL A   1      42.467  23.786  26.280  1.00  0.00     0.055 A 
ATOM     72  C   UNL A   1      43.535  25.664  25.229  1.00  0.00     0.041 A 
ATOM     73  F   UNL A   1      43.547  27.746  26.305  1.00  0.00    -0.206 F 
ATOM     74  C   UNL A   1      43.199  24.315  25.214  1.00  0.00     0.022 A 
BRANCH  71  75
ATOM     75  S   UNL A   1      42.140  22.003  26.359  1.00  0.00     0.124 S 
ATOM     76  O   UNL A   1      43.129  21.480  25.425  1.00  0.00    -0.237 OA
ATOM     77  O   UNL A   1      42.374  21.716  27.771  1.00  0.00    -0.237 OA
ATOM     78  O   UNL A   1      40.749  21.893  25.924  1.00  0.00    -0.744 OA
ENDBRANCH  71  75
ENDBRANCH  44  68
BRANCH  56  79
ATOM     79  C   UNL A   1      45.486  27.060  33.550  1.00  0.00     0.023 A 
ATOM     80  C   UNL A   1      45.419  25.900  34.342  1.00  0.00     0.031 A 
ATOM     81  C   UNL A   1      46.743  27.668  33.376  1.00  0.00     0.131 A 
ATOM     82  C   UNL A   1      46.572  25.422  34.982  1.00  0.00     0.055 A 
ATOM     83  C   UNL A   1      47.899  27.147  33.957  1.00  0.00     0.041 A 
ATOM     84  F   UNL A   1      46.868  28.780  32.633  1.00  0.00    -0.206 F 
ATOM     85  C   UNL A   1      47.816  26.026  34.779  1.00  0.00     0.022 A 
BRANCH  82  86
ATOM     86  S   UNL A   1      46.407  24.063  36.171  1.00  0.00     0.124 S 
ATOM     87  O   UNL A   1      47.721  24.054  36.806  1.00  0.00    -0.237 OA
ATOM     88  O   UNL A   1      45.298  24.513  37.007  1.00  0.00    -0.237 OA
ATOM     89  O   UNL A   1      46.117  22.904  35.330  1.00  0.00    -0.744 OA
ENDBRANCH  82  86
ENDBRANCH  56  79
ENDBRANCH  30  31
ENDBRANCH  22  25
ENDBRANCH  20  21
ENDBRANCH  19  20
ENDBRANCH   1  19
TORSDOF 18
ENDMDL
MODEL 3
REMARK VINA RESULT:     -10.5      2.868      3.666
REMARK SMILES CC(C)COc1ccc(CC(=O)NCCCCNC(=O)c2ccc(-c3c4nc(c(-c5cc(S(=O)(=O)[O-])ccc5F)c5ccc([nH]5)c(-c5cc(S(=O)(=O)[O-])ccc5F)c5nc(c(-c6cc(S(=O)(=O)[O-])ccc6F)c6ccc3[nH]6)C=C5)C=C4)cc2)cc1
REMARK SMILES IDX 15 1 14 2 13 3 11 4 12 5 10 7 9 8 6 9 7 10 85 11 8 12 84 13
REMARK SMILES IDX 5 14 4 15 2 16 1 17 3 18 16 19 17 20 18 21 19 22 20 24 21 25
REMARK SMILES IDX 22 26 83 27 23 28 82 29 24 30 25 31 26 32 76 33 27 34 81 35
REMARK SMILES IDX 75 36 77 37 28 38 80 39 74 40 73 41 29 43 61 44 41 45 60 46
REMARK SMILES IDX 42 47 45 48 59 49 78 50 43 51 44 52 58 54 79 55 46 56 30 57
REMARK SMILES IDX 31 58 39 59 32 60 38 61 40 62 37 63 33 64 34 65 35 66 36 67
REMARK SMILES IDX 62 68 63 69 71 70 64 71 70 72 72 73 69 74 65 75 66 76 67 77
REMARK SMILES IDX 68 78 47 79 48 80 56 81 49 82 55 83 57 84 54 85 50 86 51 87
REMARK SMILES IDX 52 88 53 89
REMARK H PARENT 13 6 18 23 77 42 45 53
REMARK Flexibility Score: inf
ROOT
ATOM      1  C   UNL A   1      31.785  29.892  25.546  1.00  0.00     0.023 C 
ENDROOT
BRANCH   1   2
ATOM      2  C   UNL A   1      32.315  29.231  24.271  1.00  0.00     0.116 C 
BRANCH   2   3
ATOM      3  N   UNL A   1      31.412  29.418  23.153  1.00  0.00    -0.356 N 
ATOM      4  C   UNL A   1      30.427  28.594  22.686  1.00  0.00     0.224 C 
ATOM      5  O   UNL A   1      29.817  28.933  21.669  1.00  0.00    -0.275 OA
ATOM      6  H   UNL A   1      31.524  30.262  22.658  1.00  0.00     0.163 HD
BRANCH   4   7
ATOM      7  C   UNL A   1      30.043  27.330  23.438  1.00  0.00     0.135 C 
BRANCH   7   8
ATOM      8  C   UNL A   1      30.928  26.139  23.166  1.00  0.00    -0.038 A 
ATOM      9  C   UNL A   1      32.596  23.923  22.793  1.00  0.00     0.119 A 
ATOM     10  C   UNL A   1      32.819  25.084  22.056  1.00  0.00     0.047 A 
ATOM     11  C   UNL A   1      31.611  23.901  23.769  1.00  0.00     0.047 A 
ATOM     12  C   UNL A   1      31.997  26.201  22.259  1.00  0.00     0.008 A 
ATOM     13  C   UNL A   1      30.720  24.957  23.882  1.00  0.00     0.008 A 
BRANCH   9  14
ATOM     14  O   UNL A   1      33.374  22.818  22.595  1.00  0.00    -0.493 OA
BRANCH  14  15
ATOM     15  C   UNL A   1      33.750  22.178  23.838  1.00  0.00     0.232 C 
BRANCH  15  16
ATOM     16  C   UNL A   1      35.181  22.537  24.304  1.00  0.00     0.020 C 
ATOM     17  C   UNL A   1      36.081  22.975  23.134  1.00  0.00     0.011 C 
ATOM     18  C   UNL A   1      35.177  23.661  25.340  1.00  0.00     0.011 C 
ENDBRANCH  15  16
ENDBRANCH  14  15
ENDBRANCH   9  14
ENDBRANCH   7   8
ENDBRANCH   4   7
ENDBRANCH   2   3
ENDBRANCH   1   2
BRANCH   1  19
ATOM     19  C   UNL A   1      32.245  29.229  26.842  1.00  0.00     0.023 C 
BRANCH  19  20
ATOM     20  C   UNL A   1      33.607  29.685  27.343  1.00  0.00     0.116 C 
BRANCH  20  21
ATOM     21  N   UNL A   1      33.612  31.062  27.807  1.00  0.00    -0.352 N 
ATOM     22  C   UNL A   1      34.556  31.704  28.577  1.00  0.00     0.251 C 
ATOM     23  H   UNL A   1      32.840  31.607  27.536  1.00  0.00     0.163 HD
ATOM     24  O   UNL A   1      34.334  32.831  28.996  1.00  0.00    -0.269 OA
BRANCH  22  25
ATOM     25  C   UNL A   1      35.813  31.001  28.923  1.00  0.00     0.039 A 
ATOM     26  C   UNL A   1      37.018  31.492  28.417  1.00  0.00     0.014 A 
ATOM     27  C   UNL A   1      35.806  29.880  29.758  1.00  0.00     0.014 A 
ATOM     28  C   UNL A   1      38.220  30.889  28.793  1.00  0.00     0.010 A 
ATOM     29  C   UNL A   1      37.009  29.336  30.200  1.00  0.00     0.010 A 
ATOM     30  C   UNL A   1      38.229  29.827  29.713  1.00  0.00    -0.014 A 
BRANCH  30  31
ATOM     31  C   UNL A   1      39.507  29.212  30.156  1.00  0.00     0.031 A 
ATOM     32  C   UNL A   1      40.220  29.747  31.370  1.00  0.00     0.074 A 
ATOM     33  C   UNL A   1      40.041  28.196  29.449  1.00  0.00     0.049 A 
ATOM     34  N   UNL A   1      41.354  29.364  31.899  1.00  0.00    -0.248 NA
ATOM     35  C   UNL A   1      39.590  30.881  32.062  1.00  0.00     0.031 C 
ATOM     36  C   UNL A   1      39.463  27.620  28.232  1.00  0.00     0.029 A 
ATOM     37  N   UNL A   1      41.185  27.466  29.648  1.00  0.00    -0.354 N 
ATOM     38  C   UNL A   1      41.574  30.210  32.981  1.00  0.00     0.074 A 
ATOM     39  C   UNL A   1      40.494  31.173  32.984  1.00  0.00     0.031 C 
ATOM     40  C   UNL A   1      40.233  26.602  27.818  1.00  0.00     0.029 A 
ATOM     41  C   UNL A   1      41.386  26.482  28.706  1.00  0.00     0.049 A 
ATOM     42  H   UNL A   1      41.804  27.629  30.395  1.00  0.00     0.167 HD
ATOM     43  C   UNL A   1      42.566  30.170  33.904  1.00  0.00     0.034 A 
ATOM     44  C   UNL A   1      42.388  25.590  28.569  1.00  0.00     0.034 A 
ATOM     45  C   UNL A   1      43.633  29.198  33.888  1.00  0.00     0.049 A 
ATOM     46  C   UNL A   1      43.503  25.592  29.586  1.00  0.00     0.074 A 
ATOM     47  C   UNL A   1      44.662  29.035  34.799  1.00  0.00     0.029 A 
ATOM     48  N   UNL A   1      43.815  28.231  32.907  1.00  0.00    -0.354 N 
ATOM     49  N   UNL A   1      43.664  26.364  30.637  1.00  0.00    -0.248 NA
ATOM     50  C   UNL A   1      44.565  24.595  29.403  1.00  0.00     0.031 C 
ATOM     51  C   UNL A   1      45.508  28.026  34.329  1.00  0.00     0.029 A 
ATOM     52  C   UNL A   1      44.960  27.495  33.172  1.00  0.00     0.049 A 
ATOM     53  H   UNL A   1      43.218  28.089  32.137  1.00  0.00     0.167 HD
ATOM     54  C   UNL A   1      44.830  25.920  31.256  1.00  0.00     0.074 A 
ATOM     55  C   UNL A   1      45.317  24.803  30.473  1.00  0.00     0.031 C 
ATOM     56  C   UNL A   1      45.443  26.390  32.373  1.00  0.00     0.034 A 
BRANCH  43  57
ATOM     57  C   UNL A   1      42.552  31.222  34.988  1.00  0.00     0.023 A 
ATOM     58  C   UNL A   1      43.149  32.482  34.804  1.00  0.00     0.031 A 
ATOM     59  C   UNL A   1      41.954  30.956  36.232  1.00  0.00     0.131 A 
ATOM     60  C   UNL A   1      43.206  33.395  35.868  1.00  0.00     0.055 A 
ATOM     61  C   UNL A   1      41.936  31.903  37.259  1.00  0.00     0.041 A 
ATOM     62  F   UNL A   1      41.387  29.765  36.479  1.00  0.00    -0.206 F 
ATOM     63  C   UNL A   1      42.578  33.126  37.086  1.00  0.00     0.022 A 
BRANCH  60  64
ATOM     64  S   UNL A   1      44.243  34.872  35.687  1.00  0.00     0.124 S 
ATOM     65  O   UNL A   1      43.468  35.869  36.423  1.00  0.00    -0.237 OA
ATOM     66  O   UNL A   1      45.496  34.454  36.303  1.00  0.00    -0.237 OA
ATOM     67  O   UNL A   1      44.296  35.078  34.241  1.00  0.00    -0.744 OA
ENDBRANCH  60  64
ENDBRANCH  43  57
BRANCH  44  68
ATOM     68  C   UNL A   1      42.397  24.627  27.429  1.00  0.00     0.023 A 
ATOM     69  C   UNL A   1      41.595  23.475  27.449  1.00  0.00     0.031 A 
ATOM     70  C   UNL A   1      43.247  24.817  26.326  1.00  0.00     0.131 A 
ATOM     71  C   UNL A   1      41.701  22.530  26.416  1.00  0.00     0.055 A 
ATOM     72  C   UNL A   1      43.303  23.905  25.270  1.00  0.00     0.041 A 
ATOM     73  F   UNL A   1      44.036  25.902  26.254  1.00  0.00    -0.206 F 
ATOM     74  C   UNL A   1      42.537  22.745  25.318  1.00  0.00     0.022 A 
BRANCH  71  75
ATOM     75  S   UNL A   1      40.803  20.962  26.578  1.00  0.00     0.124 S 
ATOM     76  O   UNL A   1      41.639  20.060  25.794  1.00  0.00    -0.237 OA
ATOM     77  O   UNL A   1      40.813  20.755  28.022  1.00  0.00    -0.237 OA
ATOM     78  O   UNL A   1      39.493  21.259  26.001  1.00  0.00    -0.744 OA
ENDBRANCH  71  75
ENDBRANCH  44  68
BRANCH  56  79
ATOM     79  C   UNL A   1      46.684  25.664  32.834  1.00  0.00     0.023 A 
ATOM     80  C   UNL A   1      47.933  25.868  32.219  1.00  0.00     0.031 A 
ATOM     81  C   UNL A   1      46.613  24.744  33.895  1.00  0.00     0.131 A 
ATOM     82  C   UNL A   1      49.044  25.114  32.627  1.00  0.00     0.055 A 
ATOM     83  C   UNL A   1      47.738  24.050  34.343  1.00  0.00     0.041 A 
ATOM     84  F   UNL A   1      45.447  24.506  34.518  1.00  0.00    -0.206 F 
ATOM     85  C   UNL A   1      48.959  24.221  33.698  1.00  0.00     0.022 A 
BRANCH  82  86
ATOM     86  S   UNL A   1      50.577  25.237  31.667  1.00  0.00     0.124 S 
ATOM     87  O   UNL A   1      51.365  26.165  32.470  1.00  0.00    -0.237 OA
ATOM     88  O   UNL A   1      51.045  23.854  31.648  1.00  0.00    -0.237 OA
ATOM     89  O   UNL A   1      50.133  25.756  30.375  1.00  0.00    -0.744 OA
ENDBRANCH  82  86
ENDBRANCH  56  79
ENDBRANCH  30  31
ENDBRANCH  22  25
ENDBRANCH  20  21
ENDBRANCH  19  20
ENDBRANCH   1  19
TORSDOF 18
ENDMDL
