MODEL 1
REMARK VINA RESULT:     -10.2      0.000      0.000
REMARK SMILES CC(C)[C@@H](C[NH+](C)C)C(=O)NCCCCNC(=O)c1ccc(-c2c3nc(c(-c4cc(S(=O)(=O)[O-])ccc4F)c4ccc([nH]4)c(-c4cc(S(=O)(=O)[O-])ccc4F)c4nc(c(-c5cc(S(=O)(=O)[O-])ccc5F)c5ccc2[nH]5)C=C4)C=C3)cc1
REMARK SMILES IDX 14 1 13 2 12 3 11 4 9 5 10 6 4 8 2 9 1 10 3 11 5 12 6 13
REMARK SMILES IDX 7 14 8 15 15 17 16 18 17 19 18 21 19 22 20 23 81 24 21 25
REMARK SMILES IDX 80 26 22 27 23 28 24 29 74 30 25 31 79 32 73 33 75 34 26 35
REMARK SMILES IDX 78 36 72 37 71 38 27 40 59 41 39 42 58 43 40 44 43 45 57 46
REMARK SMILES IDX 76 47 41 48 42 49 56 51 77 52 44 53 28 54 29 55 37 56 30 57
REMARK SMILES IDX 36 58 38 59 35 60 31 61 32 62 33 63 34 64 60 65 61 66 69 67
REMARK SMILES IDX 62 68 68 69 70 70 67 71 63 72 64 73 65 74 66 75 45 76 46 77
REMARK SMILES IDX 54 78 47 79 53 80 55 81 52 82 48 83 49 84 50 85 51 86
REMARK H PARENT 11 7 6 16 16 20 75 39 43 50
REMARK Flexibility Score: inf
ROOT
ATOM      1  C   UNL A   1      35.492  21.648  25.980  1.00  0.00     0.023 C 
ENDROOT
BRANCH   1   2
ATOM      2  C   UNL A   1      34.317  22.476  25.482  1.00  0.00     0.023 C 
BRANCH   2   3
ATOM      3  C   UNL A   1      34.018  23.728  26.294  1.00  0.00     0.116 C 
BRANCH   3   4
ATOM      4  N   UNL A   1      32.703  23.739  26.892  1.00  0.00    -0.356 N 
ATOM      5  C   UNL A   1      31.581  24.378  26.461  1.00  0.00     0.229 C 
ATOM      6  O   UNL A   1      30.516  24.108  27.029  1.00  0.00    -0.275 OA
ATOM      7  H   UNL A   1      32.607  23.217  27.721  1.00  0.00     0.163 HD
BRANCH   5   8
ATOM      8  C   UNL A   1      31.605  25.435  25.347  1.00  0.00     0.136 C 
BRANCH   8   9
ATOM      9  C   UNL A   1      31.295  24.865  23.938  1.00  0.00     0.001 C 
ATOM     10  C   UNL A   1      32.468  25.052  22.971  1.00  0.00     0.008 C 
ATOM     11  C   UNL A   1      30.967  23.362  24.004  1.00  0.00     0.008 C 
ENDBRANCH   8   9
BRANCH   8  12
ATOM     12  C   UNL A   1      30.948  26.775  25.798  1.00  0.00     0.275 C 
BRANCH  12  13
ATOM     13  N   UNL A   1      31.786  27.918  26.206  1.00  0.00    -0.339 N 
ATOM     14  C   UNL A   1      31.686  28.150  27.652  1.00  0.00     0.332 C 
ATOM     15  C   UNL A   1      33.200  27.778  25.851  1.00  0.00     0.332 C 
ATOM     16  H   UNL A   1      31.420  28.716  25.686  1.00  0.00     0.347 HD
ENDBRANCH  12  13
ENDBRANCH   8  12
ENDBRANCH   5   8
ENDBRANCH   3   4
ENDBRANCH   2   3
ENDBRANCH   1   2
BRANCH   1  17
ATOM     17  C   UNL A   1      36.842  21.984  25.358  1.00  0.00     0.116 C 
BRANCH  17  18
ATOM     18  N   UNL A   1      37.850  20.947  25.535  1.00  0.00    -0.352 N 
ATOM     19  C   UNL A   1      39.124  21.062  26.041  1.00  0.00     0.251 C 
ATOM     20  H   UNL A   1      37.583  20.041  25.255  1.00  0.00     0.163 HD
ATOM     21  O   UNL A   1      39.881  20.096  26.032  1.00  0.00    -0.269 OA
BRANCH  19  22
ATOM     22  C   UNL A   1      39.582  22.373  26.550  1.00  0.00     0.039 A 
ATOM     23  C   UNL A   1      40.599  22.412  27.506  1.00  0.00     0.014 A 
ATOM     24  C   UNL A   1      39.051  23.559  26.037  1.00  0.00     0.014 A 
ATOM     25  C   UNL A   1      41.133  23.644  27.892  1.00  0.00     0.010 A 
ATOM     26  C   UNL A   1      39.647  24.775  26.352  1.00  0.00     0.010 A 
ATOM     27  C   UNL A   1      40.690  24.832  27.288  1.00  0.00    -0.014 A 
BRANCH  27  28
ATOM     28  C   UNL A   1      41.288  26.146  27.644  1.00  0.00     0.031 A 
ATOM     29  C   UNL A   1      42.675  26.491  27.167  1.00  0.00     0.074 A 
ATOM     30  C   UNL A   1      40.611  27.000  28.440  1.00  0.00     0.049 A 
ATOM     31  N   UNL A   1      43.393  27.559  27.408  1.00  0.00    -0.248 NA
ATOM     32  C   UNL A   1      43.359  25.486  26.339  1.00  0.00     0.031 C 
ATOM     33  C   UNL A   1      39.289  26.749  29.019  1.00  0.00     0.029 A 
ATOM     34  N   UNL A   1      40.943  28.247  28.906  1.00  0.00    -0.354 N 
ATOM     35  C   UNL A   1      44.616  27.342  26.783  1.00  0.00     0.074 A 
ATOM     36  C   UNL A   1      44.565  26.015  26.210  1.00  0.00     0.031 C 
ATOM     37  C   UNL A   1      38.911  27.821  29.735  1.00  0.00     0.029 A 
ATOM     38  C   UNL A   1      39.974  28.819  29.700  1.00  0.00     0.049 A 
ATOM     39  H   UNL A   1      41.794  28.692  28.692  1.00  0.00     0.167 HD
ATOM     40  C   UNL A   1      45.673  28.183  26.670  1.00  0.00     0.034 A 
ATOM     41  C   UNL A   1      39.948  30.012  30.327  1.00  0.00     0.034 A 
ATOM     42  C   UNL A   1      45.697  29.515  27.222  1.00  0.00     0.049 A 
ATOM     43  C   UNL A   1      41.124  30.943  30.160  1.00  0.00     0.074 A 
ATOM     44  C   UNL A   1      46.689  30.475  27.119  1.00  0.00     0.029 A 
ATOM     45  N   UNL A   1      44.680  30.077  27.984  1.00  0.00    -0.354 N 
ATOM     46  N   UNL A   1      42.247  30.749  29.507  1.00  0.00    -0.248 NA
ATOM     47  C   UNL A   1      41.015  32.264  30.791  1.00  0.00     0.031 C 
ATOM     48  C   UNL A   1      46.299  31.592  27.867  1.00  0.00     0.029 A 
ATOM     49  C   UNL A   1      45.029  31.362  28.372  1.00  0.00     0.049 A 
ATOM     50  H   UNL A   1      43.834  29.629  28.215  1.00  0.00     0.167 HD
ATOM     51  C   UNL A   1      42.961  31.940  29.620  1.00  0.00     0.074 A 
ATOM     52  C   UNL A   1      42.132  32.848  30.383  1.00  0.00     0.031 C 
ATOM     53  C   UNL A   1      44.191  32.256  29.137  1.00  0.00     0.034 A 
BRANCH  40  54
ATOM     54  C   UNL A   1      46.892  27.675  25.936  1.00  0.00     0.023 A 
ATOM     55  C   UNL A   1      47.139  28.002  24.590  1.00  0.00     0.031 A 
ATOM     56  C   UNL A   1      47.811  26.828  26.583  1.00  0.00     0.131 A 
ATOM     57  C   UNL A   1      48.226  27.428  23.915  1.00  0.00     0.055 A 
ATOM     58  C   UNL A   1      48.939  26.328  25.930  1.00  0.00     0.041 A 
ATOM     59  F   UNL A   1      47.620  26.463  27.861  1.00  0.00    -0.206 F 
ATOM     60  C   UNL A   1      49.144  26.615  24.583  1.00  0.00     0.022 A 
BRANCH  57  61
ATOM     61  S   UNL A   1      48.347  27.648  22.119  1.00  0.00     0.124 S 
ATOM     62  O   UNL A   1      49.490  28.551  22.009  1.00  0.00    -0.237 OA
ATOM     63  O   UNL A   1      48.563  26.284  21.648  1.00  0.00    -0.237 OA
ATOM     64  O   UNL A   1      47.060  28.236  21.757  1.00  0.00    -0.744 OA
ENDBRANCH  57  61
ENDBRANCH  40  54
BRANCH  41  65
ATOM     65  C   UNL A   1      38.779  30.409  31.165  1.00  0.00     0.023 A 
ATOM     66  C   UNL A   1      37.667  31.055  30.602  1.00  0.00     0.031 A 
ATOM     67  C   UNL A   1      38.781  30.198  32.556  1.00  0.00     0.131 A 
ATOM     68  C   UNL A   1      36.633  31.523  31.428  1.00  0.00     0.055 A 
ATOM     69  C   UNL A   1      37.724  30.614  33.368  1.00  0.00     0.041 A 
ATOM     70  F   UNL A   1      39.814  29.577  33.147  1.00  0.00    -0.206 F 
ATOM     71  C   UNL A   1      36.648  31.296  32.807  1.00  0.00     0.022 A 
BRANCH  68  72
ATOM     72  S   UNL A   1      35.313  32.524  30.688  1.00  0.00     0.124 S 
ATOM     73  O   UNL A   1      35.959  33.826  30.568  1.00  0.00    -0.237 OA
ATOM     74  O   UNL A   1      35.062  31.814  29.438  1.00  0.00    -0.237 OA
ATOM     75  O   UNL A   1      34.236  32.447  31.673  1.00  0.00    -0.744 OA
ENDBRANCH  68  72
ENDBRANCH  41  65
BRANCH  53  76
ATOM     76  C   UNL A   1      44.677  33.666  29.374  1.00  0.00     0.023 A 
ATOM     77  C   UNL A   1      44.371  34.715  28.491  1.00  0.00     0.031 A 
ATOM     78  C   UNL A   1      45.489  33.954  30.487  1.00  0.00     0.131 A 
ATOM     79  C   UNL A   1      44.935  35.984  28.691  1.00  0.00     0.055 A 
ATOM     80  C   UNL A   1      45.990  35.235  30.718  1.00  0.00     0.041 A 
ATOM     81  F   UNL A   1      45.814  32.990  31.363  1.00  0.00    -0.206 F 
ATOM     82  C   UNL A   1      45.730  36.255  29.808  1.00  0.00     0.022 A 
BRANCH  79  83
ATOM     83  S   UNL A   1      44.722  37.243  27.403  1.00  0.00     0.124 S 
ATOM     84  O   UNL A   1      44.700  38.477  28.183  1.00  0.00    -0.237 OA
ATOM     85  O   UNL A   1      45.902  37.038  26.568  1.00  0.00    -0.237 OA
ATOM     86  O   UNL A   1      43.450  36.882  26.778  1.00  0.00    -0.744 OA
ENDBRANCH  79  83
ENDBRANCH  53  76
ENDBRANCH  27  28
ENDBRANCH  19  22
ENDBRANCH  17  18
ENDBRANCH   1  17
TORSDOF 17
ENDMDL
MODEL 2
REMARK VINA RESULT:     -10.2      5.027     10.438
REMARK SMILES CC(C)[C@@H](C[NH+](C)C)C(=O)NCCCCNC(=O)c1ccc(-c2c3nc(c(-c4cc(S(=O)(=O)[O-])ccc4F)c4ccc([nH]4)c(-c4cc(S(=O)(=O)[O-])ccc4F)c4nc(c(-c5cc(S(=O)(=O)[O-])ccc5F)c5ccc2[nH]5)C=C4)C=C3)cc1
REMARK SMILES IDX 14 1 13 2 12 3 11 4 9 5 10 6 4 8 2 9 1 10 3 11 5 12 6 13
REMARK SMILES IDX 7 14 8 15 15 17 16 18 17 19 18 21 19 22 20 23 81 24 21 25
REMARK SMILES IDX 80 26 22 27 23 28 24 29 74 30 25 31 79 32 73 33 75 34 26 35
REMARK SMILES IDX 78 36 72 37 71 38 27 40 59 41 39 42 58 43 40 44 43 45 57 46
REMARK SMILES IDX 76 47 41 48 42 49 56 51 77 52 44 53 28 54 29 55 37 56 30 57
REMARK SMILES IDX 36 58 38 59 35 60 31 61 32 62 33 63 34 64 60 65 61 66 69 67
REMARK SMILES IDX 62 68 68 69 70 70 67 71 63 72 64 73 65 74 66 75 45 76 46 77
REMARK SMILES IDX 54 78 47 79 53 80 55 81 52 82 48 83 49 84 50 85 51 86
REMARK H PARENT 11 7 6 16 16 20 75 39 43 50
REMARK Flexibility Score: inf
ROOT
ATOM      1  C   UNL A   1      31.776  28.956  26.654  1.00  0.00     0.023 C 
ENDROOT
BRANCH   1   2
ATOM      2  C   UNL A   1      31.411  27.834  25.693  1.00  0.00     0.023 C 
BRANCH   2   3
ATOM      3  C   UNL A   1      31.773  26.434  26.166  1.00  0.00     0.116 C 
BRANCH   3   4
ATOM      4  N   UNL A   1      33.115  26.026  25.822  1.00  0.00    -0.356 N 
ATOM      5  C   UNL A   1      33.512  24.950  25.089  1.00  0.00     0.229 C 
ATOM      6  O   UNL A   1      34.704  24.887  24.765  1.00  0.00    -0.275 OA
ATOM      7  H   UNL A   1      33.837  26.602  26.162  1.00  0.00     0.163 HD
BRANCH   5   8
ATOM      8  C   UNL A   1      32.556  23.811  24.702  1.00  0.00     0.136 C 
BRANCH   8   9
ATOM      9  C   UNL A   1      32.171  23.803  23.199  1.00  0.00     0.001 C 
ATOM     10  C   UNL A   1      31.770  25.195  22.700  1.00  0.00     0.008 C 
ATOM     11  C   UNL A   1      33.337  23.302  22.328  1.00  0.00     0.008 C 
ENDBRANCH   8   9
BRANCH   8  12
ATOM     12  C   UNL A   1      32.922  22.473  25.412  1.00  0.00     0.275 C 
BRANCH  12  13
ATOM     13  N   UNL A   1      34.154  22.366  26.216  1.00  0.00    -0.339 N 
ATOM     14  C   UNL A   1      33.841  22.043  27.613  1.00  0.00     0.332 C 
ATOM     15  C   UNL A   1      35.112  21.380  25.711  1.00  0.00     0.332 C 
ATOM     16  H   UNL A   1      34.597  23.282  26.148  1.00  0.00     0.347 HD
ENDBRANCH  12  13
ENDBRANCH   8  12
ENDBRANCH   5   8
ENDBRANCH   3   4
ENDBRANCH   2   3
ENDBRANCH   1   2
BRANCH   1  17
ATOM     17  C   UNL A   1      32.888  29.886  26.185  1.00  0.00     0.116 C 
BRANCH  17  18
ATOM     18  N   UNL A   1      32.721  31.270  26.610  1.00  0.00    -0.352 N 
ATOM     19  C   UNL A   1      33.537  32.026  27.419  1.00  0.00     0.251 C 
ATOM     20  H   UNL A   1      31.915  31.725  26.273  1.00  0.00     0.163 HD
ATOM     21  O   UNL A   1      33.197  33.156  27.756  1.00  0.00    -0.269 OA
BRANCH  19  22
ATOM     22  C   UNL A   1      34.804  31.443  27.912  1.00  0.00     0.039 A 
ATOM     23  C   UNL A   1      35.938  32.253  27.994  1.00  0.00     0.014 A 
ATOM     24  C   UNL A   1      34.852  30.117  28.351  1.00  0.00     0.014 A 
ATOM     25  C   UNL A   1      37.100  31.752  28.585  1.00  0.00     0.010 A 
ATOM     26  C   UNL A   1      35.977  29.653  29.022  1.00  0.00     0.010 A 
ATOM     27  C   UNL A   1      37.117  30.462  29.141  1.00  0.00    -0.014 A 
BRANCH  27  28
ATOM     28  C   UNL A   1      38.327  29.935  29.826  1.00  0.00     0.031 A 
ATOM     29  C   UNL A   1      38.663  30.403  31.218  1.00  0.00     0.074 A 
ATOM     30  C   UNL A   1      39.149  29.084  29.178  1.00  0.00     0.049 A 
ATOM     31  N   UNL A   1      39.694  30.104  31.966  1.00  0.00    -0.248 NA
ATOM     32  C   UNL A   1      37.735  31.364  31.834  1.00  0.00     0.031 C 
ATOM     33  C   UNL A   1      38.965  28.610  27.804  1.00  0.00     0.029 A 
ATOM     34  N   UNL A   1      40.307  28.471  29.585  1.00  0.00    -0.354 N 
ATOM     35  C   UNL A   1      39.549  30.856  33.128  1.00  0.00     0.074 A 
ATOM     36  C   UNL A   1      38.368  31.673  32.954  1.00  0.00     0.031 C 
ATOM     37  C   UNL A   1      39.956  27.758  27.495  1.00  0.00     0.029 A 
ATOM     38  C   UNL A   1      40.867  27.651  28.629  1.00  0.00     0.049 A 
ATOM     39  H   UNL A   1      40.702  28.604  30.476  1.00  0.00     0.167 HD
ATOM     40  C   UNL A   1      40.313  30.844  34.248  1.00  0.00     0.034 A 
ATOM     41  C   UNL A   1      41.986  26.902  28.666  1.00  0.00     0.034 A 
ATOM     42  C   UNL A   1      41.471  30.001  34.416  1.00  0.00     0.049 A 
ATOM     43  C   UNL A   1      42.802  26.881  29.936  1.00  0.00     0.074 A 
ATOM     44  C   UNL A   1      42.284  29.863  35.528  1.00  0.00     0.029 A 
ATOM     45  N   UNL A   1      41.983  29.151  33.443  1.00  0.00    -0.354 N 
ATOM     46  N   UNL A   1      42.613  27.547  31.052  1.00  0.00    -0.248 NA
ATOM     47  C   UNL A   1      43.965  25.986  29.959  1.00  0.00     0.031 C 
ATOM     48  C   UNL A   1      43.320  28.978  35.208  1.00  0.00     0.029 A 
ATOM     49  C   UNL A   1      43.110  28.502  33.923  1.00  0.00     0.049 A 
ATOM     50  H   UNL A   1      41.602  29.029  32.544  1.00  0.00     0.167 HD
ATOM     51  C   UNL A   1      43.615  27.121  31.922  1.00  0.00     0.074 A 
ATOM     52  C   UNL A   1      44.387  26.127  31.206  1.00  0.00     0.031 C 
ATOM     53  C   UNL A   1      43.873  27.514  33.196  1.00  0.00     0.034 A 
BRANCH  40  54
ATOM     54  C   UNL A   1      39.924  31.784  35.366  1.00  0.00     0.023 A 
ATOM     55  C   UNL A   1      39.058  31.388  36.401  1.00  0.00     0.031 A 
ATOM     56  C   UNL A   1      40.407  33.105  35.384  1.00  0.00     0.131 A 
ATOM     57  C   UNL A   1      38.641  32.320  37.363  1.00  0.00     0.055 A 
ATOM     58  C   UNL A   1      40.055  34.004  36.393  1.00  0.00     0.041 A 
ATOM     59  F   UNL A   1      41.220  33.549  34.413  1.00  0.00    -0.206 F 
ATOM     60  C   UNL A   1      39.155  33.618  37.382  1.00  0.00     0.022 A 
BRANCH  57  61
ATOM     61  S   UNL A   1      37.312  31.852  38.506  1.00  0.00     0.124 S 
ATOM     62  O   UNL A   1      36.267  32.808  38.147  1.00  0.00    -0.237 OA
ATOM     63  O   UNL A   1      37.059  30.462  38.143  1.00  0.00    -0.237 OA
ATOM     64  O   UNL A   1      37.906  32.056  39.825  1.00  0.00    -0.744 OA
ENDBRANCH  57  61
ENDBRANCH  40  54
BRANCH  41  65
ATOM     65  C   UNL A   1      42.410  26.103  27.479  1.00  0.00     0.023 A 
ATOM     66  C   UNL A   1      42.009  24.766  27.323  1.00  0.00     0.031 A 
ATOM     67  C   UNL A   1      43.270  26.648  26.509  1.00  0.00     0.131 A 
ATOM     68  C   UNL A   1      42.515  24.001  26.260  1.00  0.00     0.055 A 
ATOM     69  C   UNL A   1      43.726  25.900  25.422  1.00  0.00     0.041 A 
ATOM     70  F   UNL A   1      43.678  27.924  26.603  1.00  0.00    -0.206 F 
ATOM     71  C   UNL A   1      43.362  24.563  25.302  1.00  0.00     0.022 A 
BRANCH  68  72
ATOM     72  S   UNL A   1      42.131  22.228  26.205  1.00  0.00     0.124 S 
ATOM     73  O   UNL A   1      42.836  21.809  24.999  1.00  0.00    -0.237 OA
ATOM     74  O   UNL A   1      42.687  21.760  27.469  1.00  0.00    -0.237 OA
ATOM     75  O   UNL A   1      40.672  22.200  26.119  1.00  0.00    -0.744 OA
ENDBRANCH  68  72
ENDBRANCH  41  65
BRANCH  53  76
ATOM     76  C   UNL A   1      45.006  26.815  33.910  1.00  0.00     0.023 A 
ATOM     77  C   UNL A   1      44.787  25.702  34.739  1.00  0.00     0.031 A 
ATOM     78  C   UNL A   1      46.322  27.296  33.782  1.00  0.00     0.131 A 
ATOM     79  C   UNL A   1      45.852  25.155  35.469  1.00  0.00     0.055 A 
ATOM     80  C   UNL A   1      47.389  26.703  34.458  1.00  0.00     0.041 A 
ATOM     81  F   UNL A   1      46.590  28.357  33.005  1.00  0.00    -0.206 F 
ATOM     82  C   UNL A   1      47.155  25.637  35.321  1.00  0.00     0.022 A 
BRANCH  79  83
ATOM     83  S   UNL A   1      45.491  23.885  36.713  1.00  0.00     0.124 S 
ATOM     84  O   UNL A   1      46.824  23.563  37.216  1.00  0.00    -0.237 OA
ATOM     85  O   UNL A   1      44.616  24.596  37.639  1.00  0.00    -0.237 OA
ATOM     86  O   UNL A   1      44.847  22.823  35.942  1.00  0.00    -0.744 OA
ENDBRANCH  79  83
ENDBRANCH  53  76
ENDBRANCH  27  28
ENDBRANCH  19  22
ENDBRANCH  17  18
ENDBRANCH   1  17
TORSDOF 17
ENDMDL
MODEL 3
REMARK VINA RESULT:     -10.2      1.477      1.985
REMARK SMILES CC(C)[C@@H](C[NH+](C)C)C(=O)NCCCCNC(=O)c1ccc(-c2c3nc(c(-c4cc(S(=O)(=O)[O-])ccc4F)c4ccc([nH]4)c(-c4cc(S(=O)(=O)[O-])ccc4F)c4nc(c(-c5cc(S(=O)(=O)[O-])ccc5F)c5ccc2[nH]5)C=C4)C=C3)cc1
REMARK SMILES IDX 14 1 13 2 12 3 11 4 9 5 10 6 4 8 2 9 1 10 3 11 5 12 6 13
REMARK SMILES IDX 7 14 8 15 15 17 16 18 17 19 18 21 19 22 20 23 81 24 21 25
REMARK SMILES IDX 80 26 22 27 23 28 24 29 74 30 25 31 79 32 73 33 75 34 26 35
REMARK SMILES IDX 78 36 72 37 71 38 27 40 59 41 39 42 58 43 40 44 43 45 57 46
REMARK SMILES IDX 76 47 41 48 42 49 56 51 77 52 44 53 28 54 29 55 37 56 30 57
REMARK SMILES IDX 36 58 38 59 35 60 31 61 32 62 33 63 34 64 60 65 61 66 69 67
REMARK SMILES IDX 62 68 68 69 70 70 67 71 63 72 64 73 65 74 66 75 45 76 46 77
REMARK SMILES IDX 54 78 47 79 53 80 55 81 52 82 48 83 49 84 50 85 51 86
REMARK H PARENT 11 7 6 16 16 20 75 39 43 50
REMARK Flexibility Score: inf
ROOT
ATOM      1  C   UNL A   1      36.669  21.971  24.215  1.00  0.00     0.023 C 
ENDROOT
BRANCH   1   2
ATOM      2  C   UNL A   1      36.362  23.268  23.480  1.00  0.00     0.023 C 
BRANCH   2   3
ATOM      3  C   UNL A   1      34.908  23.715  23.537  1.00  0.00     0.116 C 
BRANCH   3   4
ATOM      4  N   UNL A   1      34.017  22.913  22.732  1.00  0.00    -0.356 N 
ATOM      5  C   UNL A   1      32.908  22.226  23.122  1.00  0.00     0.229 C 
ATOM      6  O   UNL A   1      32.188  21.750  22.236  1.00  0.00    -0.275 OA
ATOM      7  H   UNL A   1      34.241  22.855  21.775  1.00  0.00     0.163 HD
BRANCH   5   8
ATOM      8  C   UNL A   1      32.556  21.990  24.599  1.00  0.00     0.136 C 
BRANCH   8   9
ATOM      9  C   UNL A   1      33.540  21.040  25.331  1.00  0.00     0.001 C 
ATOM     10  C   UNL A   1      33.588  21.310  26.838  1.00  0.00     0.008 C 
ATOM     11  C   UNL A   1      33.150  19.565  25.123  1.00  0.00     0.008 C 
ENDBRANCH   8   9
BRANCH   8  12
ATOM     12  C   UNL A   1      32.078  23.296  25.303  1.00  0.00     0.275 C 
BRANCH  12  13
ATOM     13  N   UNL A   1      30.708  23.801  25.092  1.00  0.00    -0.339 N 
ATOM     14  C   UNL A   1      30.143  24.320  26.343  1.00  0.00     0.332 C 
ATOM     15  C   UNL A   1      30.607  24.840  24.066  1.00  0.00     0.332 C 
ATOM     16  H   UNL A   1      30.176  22.996  24.762  1.00  0.00     0.347 HD
ENDBRANCH  12  13
ENDBRANCH   8  12
ENDBRANCH   5   8
ENDBRANCH   3   4
ENDBRANCH   2   3
ENDBRANCH   1   2
BRANCH   1  17
ATOM     17  C   UNL A   1      37.333  22.131  25.577  1.00  0.00     0.116 C 
BRANCH  17  18
ATOM     18  N   UNL A   1      38.409  21.180  25.826  1.00  0.00    -0.352 N 
ATOM     19  C   UNL A   1      39.648  21.408  26.378  1.00  0.00     0.251 C 
ATOM     20  H   UNL A   1      38.224  20.249  25.564  1.00  0.00     0.163 HD
ATOM     21  O   UNL A   1      40.477  20.504  26.429  1.00  0.00    -0.269 OA
BRANCH  19  22
ATOM     22  C   UNL A   1      39.984  22.765  26.862  1.00  0.00     0.039 A 
ATOM     23  C   UNL A   1      40.846  22.902  27.952  1.00  0.00     0.014 A 
ATOM     24  C   UNL A   1      39.495  23.895  26.203  1.00  0.00     0.014 A 
ATOM     25  C   UNL A   1      41.277  24.176  28.331  1.00  0.00     0.010 A 
ATOM     26  C   UNL A   1      39.998  25.151  26.522  1.00  0.00     0.010 A 
ATOM     27  C   UNL A   1      40.889  25.307  27.594  1.00  0.00    -0.014 A 
BRANCH  27  28
ATOM     28  C   UNL A   1      41.385  26.664  27.948  1.00  0.00     0.031 A 
ATOM     29  C   UNL A   1      42.792  27.065  27.587  1.00  0.00     0.074 A 
ATOM     30  C   UNL A   1      40.595  27.509  28.642  1.00  0.00     0.049 A 
ATOM     31  N   UNL A   1      43.430  28.177  27.848  1.00  0.00    -0.248 NA
ATOM     32  C   UNL A   1      43.599  26.067  26.868  1.00  0.00     0.031 C 
ATOM     33  C   UNL A   1      39.239  27.209  29.107  1.00  0.00     0.029 A 
ATOM     34  N   UNL A   1      40.819  28.789  29.083  1.00  0.00    -0.354 N 
ATOM     35  C   UNL A   1      44.716  28.003  27.347  1.00  0.00     0.074 A 
ATOM     36  C   UNL A   1      44.784  26.654  26.828  1.00  0.00     0.031 C 
ATOM     37  C   UNL A   1      38.742  28.285  29.740  1.00  0.00     0.029 A 
ATOM     38  C   UNL A   1      39.752  29.337  29.760  1.00  0.00     0.049 A 
ATOM     39  H   UNL A   1      41.664  29.270  28.931  1.00  0.00     0.167 HD
ATOM     40  C   UNL A   1      45.736  28.895  27.296  1.00  0.00     0.034 A 
ATOM     41  C   UNL A   1      39.609  30.549  30.332  1.00  0.00     0.034 A 
ATOM     42  C   UNL A   1      45.641  30.245  27.792  1.00  0.00     0.049 A 
ATOM     43  C   UNL A   1      40.747  31.535  30.235  1.00  0.00     0.074 A 
ATOM     44  C   UNL A   1      46.589  31.253  27.740  1.00  0.00     0.029 A 
ATOM     45  N   UNL A   1      44.530  30.780  28.433  1.00  0.00    -0.354 N 
ATOM     46  N   UNL A   1      41.935  31.377  29.696  1.00  0.00    -0.248 NA
ATOM     47  C   UNL A   1      40.514  32.871  30.797  1.00  0.00     0.031 C 
ATOM     48  C   UNL A   1      46.076  32.374  28.402  1.00  0.00     0.029 A 
ATOM     49  C   UNL A   1      44.777  32.095  28.797  1.00  0.00     0.049 A 
ATOM     50  H   UNL A   1      43.690  30.296  28.604  1.00  0.00     0.167 HD
ATOM     51  C   UNL A   1      42.575  32.608  29.825  1.00  0.00     0.074 A 
ATOM     52  C   UNL A   1      41.633  33.498  30.470  1.00  0.00     0.031 C 
ATOM     53  C   UNL A   1      43.828  32.971  29.443  1.00  0.00     0.034 A 
BRANCH  40  54
ATOM     54  C   UNL A   1      47.042  28.425  26.699  1.00  0.00     0.023 A 
ATOM     55  C   UNL A   1      47.225  28.312  25.310  1.00  0.00     0.031 A 
ATOM     56  C   UNL A   1      48.114  28.059  27.533  1.00  0.00     0.131 A 
ATOM     57  C   UNL A   1      48.416  27.776  24.799  1.00  0.00     0.055 A 
ATOM     58  C   UNL A   1      49.330  27.607  27.015  1.00  0.00     0.041 A 
ATOM     59  F   UNL A   1      47.995  28.126  28.869  1.00  0.00    -0.206 F 
ATOM     60  C   UNL A   1      49.481  27.448  25.640  1.00  0.00     0.022 A 
BRANCH  57  61
ATOM     61  S   UNL A   1      48.503  27.383  23.030  1.00  0.00     0.124 S 
ATOM     62  O   UNL A   1      49.845  27.852  22.690  1.00  0.00    -0.237 OA
ATOM     63  O   UNL A   1      48.310  25.938  23.018  1.00  0.00    -0.237 OA
ATOM     64  O   UNL A   1      47.413  28.165  22.450  1.00  0.00    -0.744 OA
ENDBRANCH  57  61
ENDBRANCH  40  54
BRANCH  41  65
ATOM     65  C   UNL A   1      38.348  30.914  31.042  1.00  0.00     0.023 A 
ATOM     66  C   UNL A   1      37.306  31.580  30.377  1.00  0.00     0.031 A 
ATOM     67  C   UNL A   1      38.188  30.651  32.415  1.00  0.00     0.131 A 
ATOM     68  C   UNL A   1      36.180  32.016  31.093  1.00  0.00     0.055 A 
ATOM     69  C   UNL A   1      37.041  31.036  33.112  1.00  0.00     0.041 A 
ATOM     70  F   UNL A   1      39.148  30.009  33.099  1.00  0.00    -0.206 F 
ATOM     71  C   UNL A   1      36.036  31.738  32.455  1.00  0.00     0.022 A 
BRANCH  68  72
ATOM     72  S   UNL A   1      34.951  33.043  30.242  1.00  0.00     0.124 S 
ATOM     73  O   UNL A   1      35.779  34.119  29.710  1.00  0.00    -0.237 OA
ATOM     74  O   UNL A   1      34.405  32.110  29.263  1.00  0.00    -0.237 OA
ATOM     75  O   UNL A   1      34.033  33.430  31.310  1.00  0.00    -0.744 OA
ENDBRANCH  68  72
ENDBRANCH  41  65
BRANCH  53  76
ATOM     76  C   UNL A   1      44.218  34.413  29.665  1.00  0.00     0.023 A 
ATOM     77  C   UNL A   1      43.983  35.403  28.696  1.00  0.00     0.031 A 
ATOM     78  C   UNL A   1      44.868  34.792  30.854  1.00  0.00     0.131 A 
ATOM     79  C   UNL A   1      44.463  36.706  28.898  1.00  0.00     0.055 A 
ATOM     80  C   UNL A   1      45.280  36.106  31.078  1.00  0.00     0.041 A 
ATOM     81  F   UNL A   1      45.119  33.888  31.814  1.00  0.00    -0.206 F 
ATOM     82  C   UNL A   1      45.095  37.068  30.090  1.00  0.00     0.022 A 
BRANCH  79  83
ATOM     83  S   UNL A   1      44.363  37.891  27.528  1.00  0.00     0.124 S 
ATOM     84  O   UNL A   1      45.574  37.585  26.772  1.00  0.00    -0.237 OA
ATOM     85  O   UNL A   1      43.103  37.523  26.889  1.00  0.00    -0.237 OA
ATOM     86  O   UNL A   1      44.362  39.190  28.198  1.00  0.00    -0.744 OA
ENDBRANCH  79  83
ENDBRANCH  53  76
ENDBRANCH  27  28
ENDBRANCH  19  22
ENDBRANCH  17  18
ENDBRANCH   1  17
TORSDOF 17
ENDMDL
