MODEL 1
REMARK VINA RESULT:     -12.4      0.000      0.000
REMARK SMILES O=C(NCCCCNC(=O)c1ccc(-c2c3nc(c(-c4cc(S(=O)(=O)[O-])ccc4F)c4ccc([nH]4)c(-c4cc(S(=O)(=O)[O-])ccc4F)c4nc(c(-c5cc(S(=O)(=O)[O-])ccc5F)c5ccc2[nH]5)C=C4)C=C3)cc1)C1=Cc2cc(Cl)ccc2O[C@@H]1C(F)(F)F
REMARK SMILES IDX 6 1 5 2 4 3 3 4 1 5 2 6 74 8 75 9 84 10 76 11 83 12 77 13
REMARK SMILES IDX 82 14 78 15 81 16 79 17 80 18 85 19 86 20 87 21 88 22 7 23
REMARK SMILES IDX 8 24 9 25 10 27 11 28 12 29 73 30 13 31 72 32 14 33 15 34
REMARK SMILES IDX 16 35 66 36 17 37 71 38 65 39 67 40 18 41 70 42 64 43 63 44
REMARK SMILES IDX 19 46 51 47 31 48 50 49 32 50 35 51 49 52 68 53 33 54 34 55
REMARK SMILES IDX 48 57 69 58 36 59 20 60 21 61 29 62 22 63 28 64 30 65 27 66
REMARK SMILES IDX 23 67 24 68 25 69 26 70 52 71 53 72 61 73 54 74 60 75 62 76
REMARK SMILES IDX 59 77 55 78 56 79 57 80 58 81 37 82 38 83 46 84 39 85 45 86
REMARK SMILES IDX 47 87 44 88 40 89 41 90 42 91 43 92
REMARK H PARENT 3 7 8 26 67 45 35 56
REMARK Flexibility Score: inf
ROOT
ATOM      1  C   UNL A   1      31.748  29.046  26.302  1.00  0.00     0.023 C 
ENDROOT
BRANCH   1   2
ATOM      2  C   UNL A   1      31.696  27.692  27.011  1.00  0.00     0.023 C 
BRANCH   2   3
ATOM      3  C   UNL A   1      31.410  26.497  26.101  1.00  0.00     0.116 C 
BRANCH   3   4
ATOM      4  N   UNL A   1      31.155  25.247  26.819  1.00  0.00    -0.352 N 
ATOM      5  O   UNL A   1      31.549  23.110  27.468  1.00  0.00    -0.270 OA
ATOM      6  C   UNL A   1      31.688  23.992  26.628  1.00  0.00     0.251 C 
ATOM      7  H   UNL A   1      30.501  25.315  27.552  1.00  0.00     0.163 HD
BRANCH   6   8
ATOM      8  C   UNL A   1      32.550  23.774  25.448  1.00  0.00     0.067 C 
ATOM      9  C   UNL A   1      33.637  24.528  25.232  1.00  0.00     0.025 C 
ATOM     10  C   UNL A   1      32.337  22.504  24.680  1.00  0.00     0.314 C 
ATOM     11  C   UNL A   1      34.838  23.680  25.077  1.00  0.00     0.019 A 
ATOM     12  O   UNL A   1      33.503  21.648  24.728  1.00  0.00    -0.475 OA
ATOM     13  C   UNL A   1      36.071  24.208  25.483  1.00  0.00     0.032 A 
ATOM     14  C   UNL A   1      34.703  22.282  24.944  1.00  0.00     0.128 A 
ATOM     15  C   UNL A   1      37.127  23.347  25.791  1.00  0.00     0.041 A 
ATOM     16  C   UNL A   1      35.777  21.434  25.217  1.00  0.00     0.048 A 
ATOM     17  Cl  UNL A   1      38.584  23.995  26.437  1.00  0.00    -0.084 Cl
ATOM     18  C   UNL A   1      36.986  21.967  25.662  1.00  0.00     0.024 A 
BRANCH  10  19
ATOM     19  C   UNL A   1      31.938  22.803  23.221  1.00  0.00     0.429 C 
ATOM     20  F   UNL A   1      30.844  23.601  23.165  1.00  0.00    -0.167 F 
ATOM     21  F   UNL A   1      32.923  23.444  22.548  1.00  0.00    -0.167 F 
ATOM     22  F   UNL A   1      31.645  21.681  22.519  1.00  0.00    -0.167 F 
ENDBRANCH  10  19
ENDBRANCH   6   8
ENDBRANCH   3   4
ENDBRANCH   2   3
ENDBRANCH   1   2
BRANCH   1  23
ATOM     23  C   UNL A   1      33.064  29.816  26.398  1.00  0.00     0.116 C 
BRANCH  23  24
ATOM     24  N   UNL A   1      32.943  31.174  26.907  1.00  0.00    -0.352 N 
ATOM     25  C   UNL A   1      33.849  31.887  27.663  1.00  0.00     0.251 C 
ATOM     26  H   UNL A   1      32.106  31.642  26.685  1.00  0.00     0.163 HD
ATOM     27  O   UNL A   1      33.572  33.022  28.046  1.00  0.00    -0.269 OA
BRANCH  25  28
ATOM     28  C   UNL A   1      35.132  31.258  28.053  1.00  0.00     0.039 A 
ATOM     29  C   UNL A   1      36.299  32.027  28.031  1.00  0.00     0.014 A 
ATOM     30  C   UNL A   1      35.173  29.936  28.503  1.00  0.00     0.014 A 
ATOM     31  C   UNL A   1      37.486  31.497  28.544  1.00  0.00     0.010 A 
ATOM     32  C   UNL A   1      36.335  29.440  29.088  1.00  0.00     0.010 A 
ATOM     33  C   UNL A   1      37.506  30.215  29.119  1.00  0.00    -0.014 A 
BRANCH  33  34
ATOM     34  C   UNL A   1      38.742  29.662  29.736  1.00  0.00     0.031 A 
ATOM     35  C   UNL A   1      39.206  30.176  31.074  1.00  0.00     0.074 A 
ATOM     36  C   UNL A   1      39.478  28.745  29.074  1.00  0.00     0.049 A 
ATOM     37  N   UNL A   1      40.291  29.887  31.744  1.00  0.00    -0.248 NA
ATOM     38  C   UNL A   1      38.346  31.176  31.725  1.00  0.00     0.031 C 
ATOM     39  C   UNL A   1      39.168  28.208  27.746  1.00  0.00     0.029 A 
ATOM     40  N   UNL A   1      40.642  28.105  29.422  1.00  0.00    -0.354 N 
ATOM     41  C   UNL A   1      40.248  30.673  32.891  1.00  0.00     0.074 A 
ATOM     42  C   UNL A   1      39.071  31.507  32.783  1.00  0.00     0.031 C 
ATOM     43  C   UNL A   1      40.104  27.307  27.405  1.00  0.00     0.029 A 
ATOM     44  C   UNL A   1      41.098  27.222  28.470  1.00  0.00     0.049 A 
ATOM     45  H   UNL A   1      41.107  28.263  30.275  1.00  0.00     0.167 HD
ATOM     46  C   UNL A   1      41.091  30.677  33.954  1.00  0.00     0.034 A 
ATOM     47  C   UNL A   1      42.194  26.436  28.457  1.00  0.00     0.034 A 
ATOM     48  C   UNL A   1      42.256  29.833  34.057  1.00  0.00     0.049 A 
ATOM     49  C   UNL A   1      43.105  26.440  29.662  1.00  0.00     0.074 A 
ATOM     50  C   UNL A   1      43.182  29.756  35.084  1.00  0.00     0.029 A 
ATOM     51  N   UNL A   1      42.648  28.906  33.101  1.00  0.00    -0.354 N 
ATOM     52  N   UNL A   1      43.031  27.171  30.751  1.00  0.00    -0.248 NA
ATOM     53  C   UNL A   1      44.226  25.493  29.648  1.00  0.00     0.031 C 
ATOM     54  C   UNL A   1      44.153  28.811  34.730  1.00  0.00     0.029 A 
ATOM     55  C   UNL A   1      43.798  28.251  33.515  1.00  0.00     0.049 A 
ATOM     56  H   UNL A   1      42.178  28.738  32.252  1.00  0.00     0.167 HD
ATOM     57  C   UNL A   1      44.074  26.739  31.567  1.00  0.00     0.074 A 
ATOM     58  C   UNL A   1      44.745  25.674  30.852  1.00  0.00     0.031 C 
ATOM     59  C   UNL A   1      44.446  27.181  32.795  1.00  0.00     0.034 A 
BRANCH  46  60
ATOM     60  C   UNL A   1      40.771  31.632  35.080  1.00  0.00     0.023 A 
ATOM     61  C   UNL A   1      39.726  31.368  35.984  1.00  0.00     0.031 A 
ATOM     62  C   UNL A   1      41.483  32.833  35.231  1.00  0.00     0.131 A 
ATOM     63  C   UNL A   1      39.367  32.328  36.941  1.00  0.00     0.055 A 
ATOM     64  C   UNL A   1      41.177  33.747  36.244  1.00  0.00     0.041 A 
ATOM     65  F   UNL A   1      42.477  33.151  34.388  1.00  0.00    -0.206 F 
ATOM     66  C   UNL A   1      40.103  33.505  37.095  1.00  0.00     0.022 A 
BRANCH  63  67
ATOM     67  S   UNL A   1      37.839  32.079  37.884  1.00  0.00     0.124 S 
ATOM     68  O   UNL A   1      37.425  30.755  37.424  1.00  0.00    -0.237 OA
ATOM     69  O   UNL A   1      38.299  32.160  39.265  1.00  0.00    -0.237 OA
ATOM     70  O   UNL A   1      36.982  33.179  37.446  1.00  0.00    -0.744 OA
ENDBRANCH  63  67
ENDBRANCH  46  60
BRANCH  47  71
ATOM     71  C   UNL A   1      42.502  25.569  27.281  1.00  0.00     0.023 A 
ATOM     72  C   UNL A   1      42.084  24.229  27.238  1.00  0.00     0.031 A 
ATOM     73  C   UNL A   1      43.283  26.048  26.214  1.00  0.00     0.131 A 
ATOM     74  C   UNL A   1      42.507  23.395  26.191  1.00  0.00     0.055 A 
ATOM     75  C   UNL A   1      43.652  25.230  25.144  1.00  0.00     0.041 A 
ATOM     76  F   UNL A   1      43.702  27.324  26.198  1.00  0.00    -0.206 F 
ATOM     77  C   UNL A   1      43.280  23.889  25.138  1.00  0.00     0.022 A 
BRANCH  74  78
ATOM     78  S   UNL A   1      42.129  21.623  26.287  1.00  0.00     0.124 S 
ATOM     79  O   UNL A   1      42.405  21.335  27.690  1.00  0.00    -0.237 OA
ATOM     80  O   UNL A   1      40.726  21.593  25.889  1.00  0.00    -0.237 OA
ATOM     81  O   UNL A   1      43.060  21.025  25.331  1.00  0.00    -0.744 OA
ENDBRANCH  74  78
ENDBRANCH  47  71
BRANCH  59  82
ATOM     82  C   UNL A   1      45.588  26.458  33.465  1.00  0.00     0.023 A 
ATOM     83  C   UNL A   1      45.386  25.295  34.228  1.00  0.00     0.031 A 
ATOM     84  C   UNL A   1      46.896  26.965  33.364  1.00  0.00     0.131 A 
ATOM     85  C   UNL A   1      46.462  24.718  34.920  1.00  0.00     0.055 A 
ATOM     86  C   UNL A   1      47.973  26.351  34.004  1.00  0.00     0.041 A 
ATOM     87  F   UNL A   1      47.146  28.072  32.647  1.00  0.00    -0.206 F 
ATOM     88  C   UNL A   1      47.757  25.231  34.802  1.00  0.00     0.022 A 
BRANCH  85  89
ATOM     89  S   UNL A   1      46.126  23.355  36.069  1.00  0.00     0.124 S 
ATOM     90  O   UNL A   1      46.669  23.872  37.322  1.00  0.00    -0.237 OA
ATOM     91  O   UNL A   1      44.673  23.245  36.003  1.00  0.00    -0.237 OA
ATOM     92  O   UNL A   1      46.861  22.231  35.493  1.00  0.00    -0.744 OA
ENDBRANCH  85  89
ENDBRANCH  59  82
ENDBRANCH  33  34
ENDBRANCH  25  28
ENDBRANCH  23  24
ENDBRANCH   1  23
TORSDOF 15
ENDMDL
MODEL 2
REMARK VINA RESULT:     -12.4      1.711      2.466
REMARK SMILES O=C(NCCCCNC(=O)c1ccc(-c2c3nc(c(-c4cc(S(=O)(=O)[O-])ccc4F)c4ccc([nH]4)c(-c4cc(S(=O)(=O)[O-])ccc4F)c4nc(c(-c5cc(S(=O)(=O)[O-])ccc5F)c5ccc2[nH]5)C=C4)C=C3)cc1)C1=Cc2cc(Cl)ccc2O[C@@H]1C(F)(F)F
REMARK SMILES IDX 6 1 5 2 4 3 3 4 1 5 2 6 74 8 75 9 84 10 76 11 83 12 77 13
REMARK SMILES IDX 82 14 78 15 81 16 79 17 80 18 85 19 86 20 87 21 88 22 7 23
REMARK SMILES IDX 8 24 9 25 10 27 11 28 12 29 73 30 13 31 72 32 14 33 15 34
REMARK SMILES IDX 16 35 66 36 17 37 71 38 65 39 67 40 18 41 70 42 64 43 63 44
REMARK SMILES IDX 19 46 51 47 31 48 50 49 32 50 35 51 49 52 68 53 33 54 34 55
REMARK SMILES IDX 48 57 69 58 36 59 20 60 21 61 29 62 22 63 28 64 30 65 27 66
REMARK SMILES IDX 23 67 24 68 25 69 26 70 52 71 53 72 61 73 54 74 60 75 62 76
REMARK SMILES IDX 59 77 55 78 56 79 57 80 58 81 37 82 38 83 46 84 39 85 45 86
REMARK SMILES IDX 47 87 44 88 40 89 41 90 42 91 43 92
REMARK H PARENT 3 7 8 26 67 45 35 56
REMARK Flexibility Score: inf
ROOT
ATOM      1  C   UNL A   1      31.773  28.644  27.217  1.00  0.00     0.023 C 
ENDROOT
BRANCH   1   2
ATOM      2  C   UNL A   1      31.333  27.428  26.402  1.00  0.00     0.023 C 
BRANCH   2   3
ATOM      3  C   UNL A   1      32.205  26.184  26.576  1.00  0.00     0.116 C 
BRANCH   3   4
ATOM      4  N   UNL A   1      31.455  24.926  26.586  1.00  0.00    -0.352 N 
ATOM      5  O   UNL A   1      30.791  22.902  25.809  1.00  0.00    -0.270 OA
ATOM      6  C   UNL A   1      31.236  24.019  25.573  1.00  0.00     0.251 C 
ATOM      7  H   UNL A   1      31.045  24.694  27.450  1.00  0.00     0.163 HD
BRANCH   6   8
ATOM      8  C   UNL A   1      31.680  24.377  24.210  1.00  0.00     0.067 C 
ATOM      9  C   UNL A   1      30.859  25.000  23.352  1.00  0.00     0.025 C 
ATOM     10  C   UNL A   1      33.151  24.292  23.932  1.00  0.00     0.314 C 
ATOM     11  C   UNL A   1      31.476  26.246  22.851  1.00  0.00     0.019 A 
ATOM     12  O   UNL A   1      33.713  25.589  23.624  1.00  0.00    -0.475 OA
ATOM     13  C   UNL A   1      30.627  27.308  22.511  1.00  0.00     0.032 A 
ATOM     14  C   UNL A   1      32.837  26.515  23.111  1.00  0.00     0.128 A 
ATOM     15  C   UNL A   1      31.125  28.612  22.476  1.00  0.00     0.041 A 
ATOM     16  C   UNL A   1      33.332  27.817  23.036  1.00  0.00     0.048 A 
ATOM     17  Cl  UNL A   1      30.044  29.923  22.210  1.00  0.00    -0.084 Cl
ATOM     18  C   UNL A   1      32.470  28.871  22.739  1.00  0.00     0.024 A 
BRANCH  10  19
ATOM     19  C   UNL A   1      33.440  23.286  22.800  1.00  0.00     0.429 C 
ATOM     20  F   UNL A   1      32.666  22.180  22.915  1.00  0.00    -0.167 F 
ATOM     21  F   UNL A   1      33.187  23.813  21.579  1.00  0.00    -0.167 F 
ATOM     22  F   UNL A   1      34.729  22.867  22.790  1.00  0.00    -0.167 F 
ENDBRANCH  10  19
ENDBRANCH   6   8
ENDBRANCH   3   4
ENDBRANCH   2   3
ENDBRANCH   1   2
BRANCH   1  23
ATOM     23  C   UNL A   1      32.851  29.530  26.595  1.00  0.00     0.116 C 
BRANCH  23  24
ATOM     24  N   UNL A   1      32.743  30.944  26.919  1.00  0.00    -0.352 N 
ATOM     25  C   UNL A   1      33.677  31.754  27.532  1.00  0.00     0.251 C 
ATOM     26  H   UNL A   1      31.895  31.378  26.671  1.00  0.00     0.163 HD
ATOM     27  O   UNL A   1      33.409  32.931  27.768  1.00  0.00    -0.269 OA
BRANCH  25  28
ATOM     28  C   UNL A   1      34.979  31.184  27.950  1.00  0.00     0.039 A 
ATOM     29  C   UNL A   1      36.105  32.010  27.968  1.00  0.00     0.014 A 
ATOM     30  C   UNL A   1      35.072  29.860  28.385  1.00  0.00     0.014 A 
ATOM     31  C   UNL A   1      37.304  31.532  28.508  1.00  0.00     0.010 A 
ATOM     32  C   UNL A   1      36.242  29.415  28.996  1.00  0.00     0.010 A 
ATOM     33  C   UNL A   1      37.371  30.246  29.068  1.00  0.00    -0.014 A 
BRANCH  33  34
ATOM     34  C   UNL A   1      38.617  29.746  29.712  1.00  0.00     0.031 A 
ATOM     35  C   UNL A   1      39.033  30.285  31.056  1.00  0.00     0.074 A 
ATOM     36  C   UNL A   1      39.402  28.856  29.070  1.00  0.00     0.049 A 
ATOM     37  N   UNL A   1      40.116  30.045  31.748  1.00  0.00    -0.248 NA
ATOM     38  C   UNL A   1      38.121  31.254  31.684  1.00  0.00     0.031 C 
ATOM     39  C   UNL A   1      39.139  28.300  27.740  1.00  0.00     0.029 A 
ATOM     40  N   UNL A   1      40.583  28.265  29.444  1.00  0.00    -0.354 N 
ATOM     41  C   UNL A   1      40.019  30.834  32.890  1.00  0.00     0.074 A 
ATOM     42  C   UNL A   1      38.811  31.619  32.753  1.00  0.00     0.031 C 
ATOM     43  C   UNL A   1      40.118  27.436  27.422  1.00  0.00     0.029 A 
ATOM     44  C   UNL A   1      41.094  27.397  28.507  1.00  0.00     0.049 A 
ATOM     45  H   UNL A   1      41.025  28.447  30.305  1.00  0.00     0.167 HD
ATOM     46  C   UNL A   1      40.840  30.878  33.969  1.00  0.00     0.034 A 
ATOM     47  C   UNL A   1      42.220  26.655  28.520  1.00  0.00     0.034 A 
ATOM     48  C   UNL A   1      42.035  30.082  34.100  1.00  0.00     0.049 A 
ATOM     49  C   UNL A   1      43.106  26.703  29.742  1.00  0.00     0.074 A 
ATOM     50  C   UNL A   1      42.944  30.048  35.144  1.00  0.00     0.029 A 
ATOM     51  N   UNL A   1      42.483  29.166  33.157  1.00  0.00    -0.354 N 
ATOM     52  N   UNL A   1      42.982  27.436  30.825  1.00  0.00    -0.248 NA
ATOM     53  C   UNL A   1      44.265  25.802  29.756  1.00  0.00     0.031 C 
ATOM     54  C   UNL A   1      43.959  29.141  34.816  1.00  0.00     0.029 A 
ATOM     55  C   UNL A   1      43.650  28.561  33.597  1.00  0.00     0.049 A 
ATOM     56  H   UNL A   1      42.037  28.975  32.300  1.00  0.00     0.167 HD
ATOM     57  C   UNL A   1      44.025  27.051  31.664  1.00  0.00     0.074 A 
ATOM     58  C   UNL A   1      44.753  26.010  30.969  1.00  0.00     0.031 C 
ATOM     59  C   UNL A   1      44.355  27.514  32.896  1.00  0.00     0.034 A 
BRANCH  46  60
ATOM     60  C   UNL A   1      40.460  31.825  35.083  1.00  0.00     0.023 A 
ATOM     61  C   UNL A   1      39.513  31.460  36.058  1.00  0.00     0.031 A 
ATOM     62  C   UNL A   1      41.011  33.115  35.152  1.00  0.00     0.131 A 
ATOM     63  C   UNL A   1      39.084  32.400  37.005  1.00  0.00     0.055 A 
ATOM     64  C   UNL A   1      40.643  34.019  36.153  1.00  0.00     0.041 A 
ATOM     65  F   UNL A   1      41.903  33.528  34.239  1.00  0.00    -0.206 F 
ATOM     66  C   UNL A   1      39.662  33.669  37.077  1.00  0.00     0.022 A 
BRANCH  63  67
ATOM     67  S   UNL A   1      37.660  31.988  38.049  1.00  0.00     0.124 S 
ATOM     68  O   UNL A   1      36.669  32.956  37.585  1.00  0.00    -0.237 OA
ATOM     69  O   UNL A   1      37.403  30.596  37.702  1.00  0.00    -0.237 OA
ATOM     70  O   UNL A   1      38.154  32.212  39.406  1.00  0.00    -0.744 OA
ENDBRANCH  63  67
ENDBRANCH  46  60
BRANCH  47  71
ATOM     71  C   UNL A   1      42.586  25.796  27.355  1.00  0.00     0.023 A 
ATOM     72  C   UNL A   1      42.121  24.474  27.254  1.00  0.00     0.031 A 
ATOM     73  C   UNL A   1      43.466  26.260  26.362  1.00  0.00     0.131 A 
ATOM     74  C   UNL A   1      42.592  23.641  26.228  1.00  0.00     0.055 A 
ATOM     75  C   UNL A   1      43.887  25.445  25.308  1.00  0.00     0.041 A 
ATOM     76  F   UNL A   1      43.934  27.518  26.403  1.00  0.00    -0.206 F 
ATOM     77  C   UNL A   1      43.464  24.120  25.249  1.00  0.00     0.022 A 
BRANCH  74  78
ATOM     78  S   UNL A   1      42.139  21.884  26.261  1.00  0.00     0.124 S 
ATOM     79  O   UNL A   1      42.989  21.337  25.210  1.00  0.00    -0.237 OA
ATOM     80  O   UNL A   1      42.487  21.510  27.628  1.00  0.00    -0.237 OA
ATOM     81  O   UNL A   1      40.707  21.897  25.965  1.00  0.00    -0.744 OA
ENDBRANCH  74  78
ENDBRANCH  47  71
BRANCH  59  82
ATOM     82  C   UNL A   1      45.512  26.841  33.592  1.00  0.00     0.023 A 
ATOM     83  C   UNL A   1      45.331  25.724  34.425  1.00  0.00     0.031 A 
ATOM     84  C   UNL A   1      46.814  27.353  33.444  1.00  0.00     0.131 A 
ATOM     85  C   UNL A   1      46.420  25.197  35.136  1.00  0.00     0.055 A 
ATOM     86  C   UNL A   1      47.905  26.786  34.106  1.00  0.00     0.041 A 
ATOM     87  F   UNL A   1      47.045  28.418  32.660  1.00  0.00    -0.206 F 
ATOM     88  C   UNL A   1      47.708  25.714  34.971  1.00  0.00     0.022 A 
BRANCH  85  89
ATOM     89  S   UNL A   1      46.111  23.902  36.368  1.00  0.00     0.124 S 
ATOM     90  O   UNL A   1      45.681  24.679  37.525  1.00  0.00    -0.237 OA
ATOM     91  O   UNL A   1      45.080  23.099  35.721  1.00  0.00    -0.237 OA
ATOM     92  O   UNL A   1      47.410  23.247  36.509  1.00  0.00    -0.744 OA
ENDBRANCH  85  89
ENDBRANCH  59  82
ENDBRANCH  33  34
ENDBRANCH  25  28
ENDBRANCH  23  24
ENDBRANCH   1  23
TORSDOF 15
ENDMDL
MODEL 3
REMARK VINA RESULT:     -12.4      2.217      2.918
REMARK SMILES O=C(NCCCCNC(=O)c1ccc(-c2c3nc(c(-c4cc(S(=O)(=O)[O-])ccc4F)c4ccc([nH]4)c(-c4cc(S(=O)(=O)[O-])ccc4F)c4nc(c(-c5cc(S(=O)(=O)[O-])ccc5F)c5ccc2[nH]5)C=C4)C=C3)cc1)C1=Cc2cc(Cl)ccc2O[C@@H]1C(F)(F)F
REMARK SMILES IDX 6 1 5 2 4 3 3 4 1 5 2 6 74 8 75 9 84 10 76 11 83 12 77 13
REMARK SMILES IDX 82 14 78 15 81 16 79 17 80 18 85 19 86 20 87 21 88 22 7 23
REMARK SMILES IDX 8 24 9 25 10 27 11 28 12 29 73 30 13 31 72 32 14 33 15 34
REMARK SMILES IDX 16 35 66 36 17 37 71 38 65 39 67 40 18 41 70 42 64 43 63 44
REMARK SMILES IDX 19 46 51 47 31 48 50 49 32 50 35 51 49 52 68 53 33 54 34 55
REMARK SMILES IDX 48 57 69 58 36 59 20 60 21 61 29 62 22 63 28 64 30 65 27 66
REMARK SMILES IDX 23 67 24 68 25 69 26 70 52 71 53 72 61 73 54 74 60 75 62 76
REMARK SMILES IDX 59 77 55 78 56 79 57 80 58 81 37 82 38 83 46 84 39 85 45 86
REMARK SMILES IDX 47 87 44 88 40 89 41 90 42 91 43 92
REMARK H PARENT 3 7 8 26 67 45 35 56
REMARK Flexibility Score: inf
ROOT
ATOM      1  C   UNL A   1      31.531  28.935  25.981  1.00  0.00     0.023 C 
ENDROOT
BRANCH   1   2
ATOM      2  C   UNL A   1      31.647  27.841  27.043  1.00  0.00     0.023 C 
BRANCH   2   3
ATOM      3  C   UNL A   1      32.267  26.531  26.554  1.00  0.00     0.116 C 
BRANCH   3   4
ATOM      4  N   UNL A   1      31.476  25.341  26.876  1.00  0.00    -0.352 N 
ATOM      5  O   UNL A   1      30.632  23.263  26.548  1.00  0.00    -0.270 OA
ATOM      6  C   UNL A   1      31.083  24.296  26.070  1.00  0.00     0.251 C 
ATOM      7  H   UNL A   1      31.181  25.279  27.813  1.00  0.00     0.163 HD
BRANCH   6   8
ATOM      8  C   UNL A   1      31.346  24.398  24.619  1.00  0.00     0.067 C 
ATOM      9  C   UNL A   1      30.502  25.044  23.803  1.00  0.00     0.025 C 
ATOM     10  C   UNL A   1      32.721  24.023  24.153  1.00  0.00     0.314 C 
ATOM     11  C   UNL A   1      31.212  26.091  23.038  1.00  0.00     0.019 A 
ATOM     12  O   UNL A   1      33.417  25.153  23.577  1.00  0.00    -0.475 OA
ATOM     13  C   UNL A   1      30.492  27.234  22.666  1.00  0.00     0.032 A 
ATOM     14  C   UNL A   1      32.622  26.148  23.060  1.00  0.00     0.128 A 
ATOM     15  C   UNL A   1      31.172  28.416  22.366  1.00  0.00     0.041 A 
ATOM     16  C   UNL A   1      33.292  27.323  22.722  1.00  0.00     0.048 A 
ATOM     17  Cl  UNL A   1      30.276  29.853  22.061  1.00  0.00    -0.084 Cl
ATOM     18  C   UNL A   1      32.565  28.467  22.394  1.00  0.00     0.024 A 
BRANCH  10  19
ATOM     19  C   UNL A   1      32.663  22.850  23.155  1.00  0.00     0.429 C 
ATOM     20  F   UNL A   1      33.341  21.773  23.621  1.00  0.00    -0.167 F 
ATOM     21  F   UNL A   1      31.391  22.440  22.930  1.00  0.00    -0.167 F 
ATOM     22  F   UNL A   1      33.197  23.161  21.949  1.00  0.00    -0.167 F 
ENDBRANCH  10  19
ENDBRANCH   6   8
ENDBRANCH   3   4
ENDBRANCH   2   3
ENDBRANCH   1   2
BRANCH   1  23
ATOM     23  C   UNL A   1      32.692  29.925  25.892  1.00  0.00     0.116 C 
BRANCH  23  24
ATOM     24  N   UNL A   1      32.402  31.255  26.406  1.00  0.00    -0.352 N 
ATOM     25  C   UNL A   1      33.166  32.027  27.256  1.00  0.00     0.251 C 
ATOM     26  H   UNL A   1      31.551  31.654  26.112  1.00  0.00     0.163 HD
ATOM     27  O   UNL A   1      32.754  33.125  27.627  1.00  0.00    -0.269 OA
BRANCH  25  28
ATOM     28  C   UNL A   1      34.458  31.504  27.758  1.00  0.00     0.039 A 
ATOM     29  C   UNL A   1      35.507  32.397  27.991  1.00  0.00     0.014 A 
ATOM     30  C   UNL A   1      34.610  30.149  28.062  1.00  0.00     0.014 A 
ATOM     31  C   UNL A   1      36.675  31.945  28.612  1.00  0.00     0.010 A 
ATOM     32  C   UNL A   1      35.740  29.719  28.753  1.00  0.00     0.010 A 
ATOM     33  C   UNL A   1      36.785  30.612  29.039  1.00  0.00    -0.014 A 
BRANCH  33  34
ATOM     34  C   UNL A   1      37.991  30.129  29.766  1.00  0.00     0.031 A 
ATOM     35  C   UNL A   1      38.268  30.617  31.165  1.00  0.00     0.074 A 
ATOM     36  C   UNL A   1      38.866  29.302  29.155  1.00  0.00     0.049 A 
ATOM     37  N   UNL A   1      39.297  30.384  31.938  1.00  0.00    -0.248 NA
ATOM     38  C   UNL A   1      37.265  31.517  31.754  1.00  0.00     0.031 C 
ATOM     39  C   UNL A   1      38.742  28.804  27.783  1.00  0.00     0.029 A 
ATOM     40  N   UNL A   1      40.035  28.740  29.604  1.00  0.00    -0.354 N 
ATOM     41  C   UNL A   1      39.068  31.111  33.102  1.00  0.00     0.074 A 
ATOM     42  C   UNL A   1      37.845  31.855  32.896  1.00  0.00     0.031 C 
ATOM     43  C   UNL A   1      39.780  27.994  27.513  1.00  0.00     0.029 A 
ATOM     44  C   UNL A   1      40.660  27.939  28.676  1.00  0.00     0.049 A 
ATOM     45  H   UNL A   1      40.393  28.895  30.508  1.00  0.00     0.167 HD
ATOM     46  C   UNL A   1      39.792  31.133  34.249  1.00  0.00     0.034 A 
ATOM     47  C   UNL A   1      41.812  27.241  28.753  1.00  0.00     0.034 A 
ATOM     48  C   UNL A   1      41.004  30.378  34.447  1.00  0.00     0.049 A 
ATOM     49  C   UNL A   1      42.587  27.263  30.049  1.00  0.00     0.074 A 
ATOM     50  C   UNL A   1      41.821  30.328  35.565  1.00  0.00     0.029 A 
ATOM     51  N   UNL A   1      41.570  29.528  33.506  1.00  0.00    -0.354 N 
ATOM     52  N   UNL A   1      42.340  27.936  31.150  1.00  0.00    -0.248 NA
ATOM     53  C   UNL A   1      43.778  26.407  30.123  1.00  0.00     0.031 C 
ATOM     54  C   UNL A   1      42.898  29.477  35.285  1.00  0.00     0.029 A 
ATOM     55  C   UNL A   1      42.719  28.947  34.018  1.00  0.00     0.049 A 
ATOM     56  H   UNL A   1      41.207  29.363  32.605  1.00  0.00     0.167 HD
ATOM     57  C   UNL A   1      43.323  27.550  32.058  1.00  0.00     0.074 A 
ATOM     58  C   UNL A   1      44.150  26.573  31.382  1.00  0.00     0.031 C 
ATOM     59  C   UNL A   1      43.526  27.964  33.335  1.00  0.00     0.034 A 
BRANCH  46  60
ATOM     60  C   UNL A   1      39.278  32.009  35.368  1.00  0.00     0.023 A 
ATOM     61  C   UNL A   1      39.669  33.356  35.477  1.00  0.00     0.031 A 
ATOM     62  C   UNL A   1      38.427  31.489  36.357  1.00  0.00     0.131 A 
ATOM     63  C   UNL A   1      39.279  34.111  36.592  1.00  0.00     0.055 A 
ATOM     64  C   UNL A   1      37.971  32.273  37.420  1.00  0.00     0.041 A 
ATOM     65  F   UNL A   1      38.035  30.206  36.318  1.00  0.00    -0.206 F 
ATOM     66  C   UNL A   1      38.411  33.587  37.552  1.00  0.00     0.022 A 
BRANCH  63  67
ATOM     67  S   UNL A   1      40.040  35.737  36.843  1.00  0.00     0.124 S 
ATOM     68  O   UNL A   1      39.393  36.174  38.079  1.00  0.00    -0.237 OA
ATOM     69  O   UNL A   1      41.458  35.414  36.944  1.00  0.00    -0.237 OA
ATOM     70  O   UNL A   1      39.654  36.484  35.648  1.00  0.00    -0.744 OA
ENDBRANCH  63  67
ENDBRANCH  46  60
BRANCH  47  71
ATOM     71  C   UNL A   1      42.312  26.455  27.587  1.00  0.00     0.023 A 
ATOM     72  C   UNL A   1      41.934  25.116  27.399  1.00  0.00     0.031 A 
ATOM     73  C   UNL A   1      43.234  27.011  26.682  1.00  0.00     0.131 A 
ATOM     74  C   UNL A   1      42.527  24.355  26.379  1.00  0.00     0.055 A 
ATOM     75  C   UNL A   1      43.778  26.267  25.633  1.00  0.00     0.041 A 
ATOM     76  F   UNL A   1      43.623  28.290  26.808  1.00  0.00    -0.206 F 
ATOM     77  C   UNL A   1      43.439  24.924  25.489  1.00  0.00     0.022 A 
BRANCH  74  78
ATOM     78  S   UNL A   1      42.177  22.577  26.309  1.00  0.00     0.124 S 
ATOM     79  O   UNL A   1      40.723  22.553  26.425  1.00  0.00    -0.237 OA
ATOM     80  O   UNL A   1      42.722  22.215  25.004  1.00  0.00    -0.237 OA
ATOM     81  O   UNL A   1      42.906  22.041  27.458  1.00  0.00    -0.744 OA
ENDBRANCH  74  78
ENDBRANCH  47  71
BRANCH  59  82
ATOM     82  C   UNL A   1      44.646  27.302  34.097  1.00  0.00     0.023 A 
ATOM     83  C   UNL A   1      44.422  26.204  34.945  1.00  0.00     0.031 A 
ATOM     84  C   UNL A   1      45.956  27.806  33.999  1.00  0.00     0.131 A 
ATOM     85  C   UNL A   1      45.476  25.690  35.716  1.00  0.00     0.055 A 
ATOM     86  C   UNL A   1      47.013  27.250  34.721  1.00  0.00     0.041 A 
ATOM     87  F   UNL A   1      46.228  28.853  33.203  1.00  0.00    -0.206 F 
ATOM     88  C   UNL A   1      46.772  26.198  35.600  1.00  0.00     0.022 A 
BRANCH  85  89
ATOM     89  S   UNL A   1      45.104  24.423  36.960  1.00  0.00     0.124 S 
ATOM     90  O   UNL A   1      45.055  23.208  36.153  1.00  0.00    -0.237 OA
ATOM     91  O   UNL A   1      46.240  24.539  37.868  1.00  0.00    -0.237 OA
ATOM     92  O   UNL A   1      43.821  24.851  37.513  1.00  0.00    -0.744 OA
ENDBRANCH  85  89
ENDBRANCH  59  82
ENDBRANCH  33  34
ENDBRANCH  25  28
ENDBRANCH  23  24
ENDBRANCH   1  23
TORSDOF 15
ENDMDL
