MODEL 1
REMARK VINA RESULT:     -12.2      0.000      0.000
REMARK SMILES Cc1ccc(-c2ncccc2C(=O)NCCCCNC(=O)c2ccc(-c3c4nc(c(-c5cc(S(=O)(=O)[O-])ccc5F)c5ccc([nH]5)c(-c5cc(S(=O)(=O)[O-])ccc5F)c5nc(c(-c6cc(S(=O)(=O)[O-])ccc6F)c6ccc3[nH]6)C=C5)C=C4)cc2)c(C)c1
REMARK SMILES IDX 17 1 16 2 15 3 14 4 12 5 13 6 11 8 6 9 7 10 8 11 10 12 9 13
REMARK SMILES IDX 5 14 1 15 2 16 3 17 87 18 4 19 85 20 86 21 18 22 19 23 20 24
REMARK SMILES IDX 21 26 22 27 23 28 84 29 24 30 83 31 25 32 26 33 27 34 77 35
REMARK SMILES IDX 28 36 82 37 76 38 78 39 29 40 81 41 75 42 74 43 30 45 62 46
REMARK SMILES IDX 42 47 61 48 43 49 46 50 60 51 79 52 44 53 45 54 59 56 80 57
REMARK SMILES IDX 47 58 31 59 32 60 40 61 33 62 39 63 41 64 38 65 34 66 35 67
REMARK SMILES IDX 36 68 37 69 63 70 64 71 72 72 65 73 71 74 73 75 70 76 66 77
REMARK SMILES IDX 67 78 68 79 69 80 48 81 49 82 57 83 50 84 56 85 58 86 55 87
REMARK SMILES IDX 51 88 52 89 53 90 54 91
REMARK H PARENT 14 7 19 25 78 44 46 55
REMARK Flexibility Score: inf
ROOT
ATOM      1  C   UNL A   1      31.090  31.990  26.481  1.00  0.00     0.023 C 
ENDROOT
BRANCH   1   2
ATOM      2  C   UNL A   1      31.157  30.832  25.474  1.00  0.00     0.023 C 
BRANCH   2   3
ATOM      3  C   UNL A   1      32.245  29.801  25.775  1.00  0.00     0.116 C 
BRANCH   3   4
ATOM      4  N   UNL A   1      31.675  28.604  26.355  1.00  0.00    -0.352 N 
ATOM      5  C   UNL A   1      31.667  27.265  26.053  1.00  0.00     0.253 C 
ATOM      6  O   UNL A   1      31.037  26.591  26.868  1.00  0.00    -0.269 OA
ATOM      7  H   UNL A   1      31.163  28.799  27.174  1.00  0.00     0.163 HD
BRANCH   5   8
ATOM      8  C   UNL A   1      32.368  26.618  24.890  1.00  0.00     0.066 A 
ATOM      9  C   UNL A   1      31.882  26.772  23.571  1.00  0.00     0.083 A 
ATOM     10  N   UNL A   1      32.416  26.103  22.498  1.00  0.00    -0.255 NA
ATOM     11  C   UNL A   1      33.467  25.293  22.708  1.00  0.00     0.112 A 
ATOM     12  C   UNL A   1      33.514  25.825  25.028  1.00  0.00     0.018 A 
ATOM     13  C   UNL A   1      34.058  25.139  23.940  1.00  0.00     0.021 A 
BRANCH   9  14
ATOM     14  C   UNL A   1      30.816  27.706  23.152  1.00  0.00     0.004 A 
ATOM     15  C   UNL A   1      27.838  30.610  21.937  1.00  0.00     0.044 C 
ATOM     16  C   UNL A   1      28.873  29.599  22.327  1.00  0.00    -0.051 A 
ATOM     17  C   UNL A   1      30.221  29.812  22.051  1.00  0.00     0.004 A 
ATOM     18  C   UNL A   1      28.493  28.419  22.979  1.00  0.00     0.007 A 
ATOM     19  C   UNL A   1      31.175  28.872  22.445  1.00  0.00     0.011 A 
ATOM     20  C   UNL A   1      29.446  27.472  23.403  1.00  0.00    -0.041 A 
ATOM     21  C   UNL A   1      28.947  26.220  24.072  1.00  0.00     0.045 C 
ENDBRANCH   9  14
ENDBRANCH   5   8
ENDBRANCH   3   4
ENDBRANCH   2   3
ENDBRANCH   1   2
BRANCH   1  22
ATOM     22  C   UNL A   1      32.431  32.433  27.063  1.00  0.00     0.116 C 
BRANCH  22  23
ATOM     23  N   UNL A   1      32.432  33.815  27.515  1.00  0.00    -0.352 N 
ATOM     24  C   UNL A   1      33.303  34.439  28.378  1.00  0.00     0.251 C 
ATOM     25  H   UNL A   1      31.710  34.381  27.156  1.00  0.00     0.163 HD
ATOM     26  O   UNL A   1      33.091  35.589  28.733  1.00  0.00    -0.269 OA
BRANCH  24  27
ATOM     27  C   UNL A   1      34.465  33.688  28.900  1.00  0.00     0.039 A 
ATOM     28  C   UNL A   1      35.745  34.211  28.698  1.00  0.00     0.014 A 
ATOM     29  C   UNL A   1      34.292  32.495  29.605  1.00  0.00     0.014 A 
ATOM     30  C   UNL A   1      36.848  33.571  29.267  1.00  0.00     0.010 A 
ATOM     31  C   UNL A   1      35.385  31.894  30.222  1.00  0.00     0.010 A 
ATOM     32  C   UNL A   1      36.672  32.429  30.064  1.00  0.00    -0.014 A 
BRANCH  32  33
ATOM     33  C   UNL A   1      37.824  31.780  30.741  1.00  0.00     0.031 A 
ATOM     34  C   UNL A   1      38.624  30.729  30.025  1.00  0.00     0.074 A 
ATOM     35  C   UNL A   1      38.106  32.093  32.021  1.00  0.00     0.049 A 
ATOM     36  N   UNL A   1      39.618  30.000  30.465  1.00  0.00    -0.248 NA
ATOM     37  C   UNL A   1      38.228  30.438  28.640  1.00  0.00     0.031 C 
ATOM     38  C   UNL A   1      37.375  33.071  32.830  1.00  0.00     0.029 A 
ATOM     39  N   UNL A   1      39.075  31.620  32.866  1.00  0.00    -0.354 N 
ATOM     40  C   UNL A   1      39.964  29.159  29.413  1.00  0.00     0.074 A 
ATOM     41  C   UNL A   1      39.021  29.420  28.345  1.00  0.00     0.031 C 
ATOM     42  C   UNL A   1      37.944  33.146  34.045  1.00  0.00     0.029 A 
ATOM     43  C   UNL A   1      39.049  32.196  34.114  1.00  0.00     0.049 A 
ATOM     44  H   UNL A   1      39.731  30.933  32.603  1.00  0.00     0.167 HD
ATOM     45  C   UNL A   1      40.989  28.272  29.334  1.00  0.00     0.034 A 
ATOM     46  C   UNL A   1      39.825  31.978  35.194  1.00  0.00     0.034 A 
ATOM     47  C   UNL A   1      41.916  28.024  30.412  1.00  0.00     0.049 A 
ATOM     48  C   UNL A   1      40.931  30.958  35.102  1.00  0.00     0.074 A 
ATOM     49  C   UNL A   1      43.012  27.179  30.434  1.00  0.00     0.029 A 
ATOM     50  N   UNL A   1      41.849  28.614  31.670  1.00  0.00    -0.354 N 
ATOM     51  N   UNL A   1      41.273  30.200  34.087  1.00  0.00    -0.248 NA
ATOM     52  C   UNL A   1      41.758  30.775  36.300  1.00  0.00     0.031 C 
ATOM     53  C   UNL A   1      43.568  27.212  31.719  1.00  0.00     0.029 A 
ATOM     54  C   UNL A   1      42.865  28.131  32.481  1.00  0.00     0.049 A 
ATOM     55  H   UNL A   1      41.176  29.278  31.944  1.00  0.00     0.167 HD
ATOM     56  C   UNL A   1      42.378  29.470  34.517  1.00  0.00     0.074 A 
ATOM     57  C   UNL A   1      42.647  29.889  35.878  1.00  0.00     0.031 C 
ATOM     58  C   UNL A   1      43.109  28.544  33.844  1.00  0.00     0.034 A 
BRANCH  45  59
ATOM     59  C   UNL A   1      41.125  27.497  28.043  1.00  0.00     0.023 A 
ATOM     60  C   UNL A   1      40.774  26.138  27.964  1.00  0.00     0.031 A 
ATOM     61  C   UNL A   1      41.674  28.099  26.898  1.00  0.00     0.131 A 
ATOM     62  C   UNL A   1      41.074  25.401  26.808  1.00  0.00     0.055 A 
ATOM     63  C   UNL A   1      41.881  27.383  25.717  1.00  0.00     0.041 A 
ATOM     64  F   UNL A   1      42.046  29.389  26.914  1.00  0.00    -0.206 F 
ATOM     65  C   UNL A   1      41.602  26.020  25.674  1.00  0.00     0.022 A 
BRANCH  62  66
ATOM     66  S   UNL A   1      40.938  23.593  26.880  1.00  0.00     0.124 S 
ATOM     67  O   UNL A   1      39.514  23.394  26.615  1.00  0.00    -0.237 OA
ATOM     68  O   UNL A   1      41.850  23.165  25.825  1.00  0.00    -0.237 OA
ATOM     69  O   UNL A   1      41.361  23.271  28.241  1.00  0.00    -0.744 OA
ENDBRANCH  62  66
ENDBRANCH  45  59
BRANCH  46  70
ATOM     70  C   UNL A   1      39.596  32.743  36.450  1.00  0.00     0.023 A 
ATOM     71  C   UNL A   1      38.655  32.305  37.395  1.00  0.00     0.031 A 
ATOM     72  C   UNL A   1      40.297  33.933  36.716  1.00  0.00     0.131 A 
ATOM     73  C   UNL A   1      38.412  33.071  38.545  1.00  0.00     0.055 A 
ATOM     74  C   UNL A   1      40.082  34.668  37.883  1.00  0.00     0.041 A 
ATOM     75  F   UNL A   1      41.213  34.389  35.848  1.00  0.00    -0.206 F 
ATOM     76  C   UNL A   1      39.126  34.243  38.801  1.00  0.00     0.022 A 
BRANCH  73  77
ATOM     77  S   UNL A   1      37.100  32.539  39.680  1.00  0.00     0.124 S 
ATOM     78  O   UNL A   1      37.518  31.180  40.002  1.00  0.00    -0.237 OA
ATOM     79  O   UNL A   1      37.215  33.519  40.755  1.00  0.00    -0.237 OA
ATOM     80  O   UNL A   1      35.887  32.646  38.871  1.00  0.00    -0.744 OA
ENDBRANCH  73  77
ENDBRANCH  46  70
BRANCH  58  81
ATOM     81  C   UNL A   1      44.296  27.958  34.568  1.00  0.00     0.023 A 
ATOM     82  C   UNL A   1      44.219  26.725  35.240  1.00  0.00     0.031 A 
ATOM     83  C   UNL A   1      45.517  28.656  34.601  1.00  0.00     0.131 A 
ATOM     84  C   UNL A   1      45.326  26.254  35.963  1.00  0.00     0.055 A 
ATOM     85  C   UNL A   1      46.632  28.154  35.274  1.00  0.00     0.041 A 
ATOM     86  F   UNL A   1      45.645  29.839  33.979  1.00  0.00    -0.206 F 
ATOM     87  C   UNL A   1      46.536  26.954  35.971  1.00  0.00     0.022 A 
BRANCH  84  88
ATOM     88  S   UNL A   1      45.137  24.758  36.971  1.00  0.00     0.124 S 
ATOM     89  O   UNL A   1      44.761  25.312  38.268  1.00  0.00    -0.237 OA
ATOM     90  O   UNL A   1      44.089  24.033  36.260  1.00  0.00    -0.237 OA
ATOM     91  O   UNL A   1      46.460  24.140  36.921  1.00  0.00    -0.744 OA
ENDBRANCH  84  88
ENDBRANCH  58  81
ENDBRANCH  32  33
ENDBRANCH  24  27
ENDBRANCH  22  23
ENDBRANCH   1  22
TORSDOF 15
ENDMDL
MODEL 2
REMARK VINA RESULT:     -12.2      1.814      3.144
REMARK SMILES Cc1ccc(-c2ncccc2C(=O)NCCCCNC(=O)c2ccc(-c3c4nc(c(-c5cc(S(=O)(=O)[O-])ccc5F)c5ccc([nH]5)c(-c5cc(S(=O)(=O)[O-])ccc5F)c5nc(c(-c6cc(S(=O)(=O)[O-])ccc6F)c6ccc3[nH]6)C=C5)C=C4)cc2)c(C)c1
REMARK SMILES IDX 17 1 16 2 15 3 14 4 12 5 13 6 11 8 6 9 7 10 8 11 10 12 9 13
REMARK SMILES IDX 5 14 1 15 2 16 3 17 87 18 4 19 85 20 86 21 18 22 19 23 20 24
REMARK SMILES IDX 21 26 22 27 23 28 84 29 24 30 83 31 25 32 26 33 27 34 77 35
REMARK SMILES IDX 28 36 82 37 76 38 78 39 29 40 81 41 75 42 74 43 30 45 62 46
REMARK SMILES IDX 42 47 61 48 43 49 46 50 60 51 79 52 44 53 45 54 59 56 80 57
REMARK SMILES IDX 47 58 31 59 32 60 40 61 33 62 39 63 41 64 38 65 34 66 35 67
REMARK SMILES IDX 36 68 37 69 63 70 64 71 72 72 65 73 71 74 73 75 70 76 66 77
REMARK SMILES IDX 67 78 68 79 69 80 48 81 49 82 57 83 50 84 56 85 58 86 55 87
REMARK SMILES IDX 51 88 52 89 53 90 54 91
REMARK H PARENT 14 7 19 25 78 44 46 55
REMARK Flexibility Score: inf
ROOT
ATOM      1  C   UNL A   1      31.842  31.513  26.672  1.00  0.00     0.023 C 
ENDROOT
BRANCH   1   2
ATOM      2  C   UNL A   1      31.962  29.983  26.736  1.00  0.00     0.023 C 
BRANCH   2   3
ATOM      3  C   UNL A   1      33.368  29.451  26.453  1.00  0.00     0.116 C 
BRANCH   3   4
ATOM      4  N   UNL A   1      33.657  29.484  25.036  1.00  0.00    -0.352 N 
ATOM      5  C   UNL A   1      33.021  29.084  23.888  1.00  0.00     0.253 C 
ATOM      6  O   UNL A   1      33.665  29.334  22.868  1.00  0.00    -0.269 OA
ATOM      7  H   UNL A   1      34.531  29.897  24.848  1.00  0.00     0.163 HD
BRANCH   5   8
ATOM      8  C   UNL A   1      31.664  28.442  23.808  1.00  0.00     0.066 A 
ATOM      9  C   UNL A   1      31.513  27.041  23.927  1.00  0.00     0.083 A 
ATOM     10  N   UNL A   1      30.314  26.402  23.739  1.00  0.00    -0.255 NA
ATOM     11  C   UNL A   1      29.230  27.145  23.462  1.00  0.00     0.112 A 
ATOM     12  C   UNL A   1      30.482  29.165  23.599  1.00  0.00     0.018 A 
ATOM     13  C   UNL A   1      29.259  28.518  23.404  1.00  0.00     0.021 A 
BRANCH   9  14
ATOM     14  C   UNL A   1      32.573  26.096  24.337  1.00  0.00     0.004 A 
ATOM     15  C   UNL A   1      35.686  23.427  25.739  1.00  0.00     0.044 C 
ATOM     16  C   UNL A   1      34.588  24.328  25.262  1.00  0.00    -0.051 A 
ATOM     17  C   UNL A   1      33.696  24.906  26.161  1.00  0.00     0.004 A 
ATOM     18  C   UNL A   1      34.446  24.602  23.895  1.00  0.00     0.007 A 
ATOM     19  C   UNL A   1      32.695  25.764  25.702  1.00  0.00     0.011 A 
ATOM     20  C   UNL A   1      33.456  25.484  23.420  1.00  0.00    -0.041 A 
ATOM     21  C   UNL A   1      33.358  25.700  21.934  1.00  0.00     0.045 C 
ENDBRANCH   9  14
ENDBRANCH   5   8
ENDBRANCH   3   4
ENDBRANCH   2   3
ENDBRANCH   1   2
BRANCH   1  22
ATOM     22  C   UNL A   1      32.952  32.289  27.378  1.00  0.00     0.116 C 
BRANCH  22  23
ATOM     23  N   UNL A   1      32.612  33.681  27.625  1.00  0.00    -0.352 N 
ATOM     24  C   UNL A   1      33.162  34.554  28.535  1.00  0.00     0.251 C 
ATOM     25  H   UNL A   1      31.889  34.048  27.066  1.00  0.00     0.163 HD
ATOM     26  O   UNL A   1      32.678  35.667  28.680  1.00  0.00    -0.269 OA
BRANCH  24  27
ATOM     27  C   UNL A   1      34.309  34.114  29.357  1.00  0.00     0.039 A 
ATOM     28  C   UNL A   1      34.057  33.383  30.520  1.00  0.00     0.014 A 
ATOM     29  C   UNL A   1      35.621  34.397  28.969  1.00  0.00     0.014 A 
ATOM     30  C   UNL A   1      35.126  32.873  31.259  1.00  0.00     0.010 A 
ATOM     31  C   UNL A   1      36.683  33.835  29.672  1.00  0.00     0.010 A 
ATOM     32  C   UNL A   1      36.447  33.064  30.820  1.00  0.00    -0.014 A 
BRANCH  32  33
ATOM     33  C   UNL A   1      37.593  32.463  31.549  1.00  0.00     0.031 A 
ATOM     34  C   UNL A   1      38.338  31.302  30.955  1.00  0.00     0.074 A 
ATOM     35  C   UNL A   1      37.918  32.924  32.772  1.00  0.00     0.049 A 
ATOM     36  N   UNL A   1      39.318  30.598  31.461  1.00  0.00    -0.248 NA
ATOM     37  C   UNL A   1      37.897  30.855  29.626  1.00  0.00     0.031 C 
ATOM     38  C   UNL A   1      37.242  34.022  33.468  1.00  0.00     0.029 A 
ATOM     39  N   UNL A   1      38.893  32.525  33.649  1.00  0.00    -0.354 N 
ATOM     40  C   UNL A   1      39.608  29.619  30.516  1.00  0.00     0.074 A 
ATOM     41  C   UNL A   1      38.647  29.779  29.444  1.00  0.00     0.031 C 
ATOM     42  C   UNL A   1      37.845  34.227  34.650  1.00  0.00     0.029 A 
ATOM     43  C   UNL A   1      38.918  33.253  34.815  1.00  0.00     0.049 A 
ATOM     44  H   UNL A   1      39.518  31.787  33.462  1.00  0.00     0.167 HD
ATOM     45  C   UNL A   1      40.599  28.693  30.528  1.00  0.00     0.034 A 
ATOM     46  C   UNL A   1      39.715  33.144  35.897  1.00  0.00     0.034 A 
ATOM     47  C   UNL A   1      41.545  28.547  31.609  1.00  0.00     0.049 A 
ATOM     48  C   UNL A   1      40.782  32.081  35.911  1.00  0.00     0.074 A 
ATOM     49  C   UNL A   1      42.613  27.672  31.714  1.00  0.00     0.029 A 
ATOM     50  N   UNL A   1      41.531  29.292  32.783  1.00  0.00    -0.354 N 
ATOM     51  N   UNL A   1      41.072  31.189  34.992  1.00  0.00    -0.248 NA
ATOM     52  C   UNL A   1      41.633  32.019  37.105  1.00  0.00     0.031 C 
ATOM     53  C   UNL A   1      43.202  27.845  32.972  1.00  0.00     0.029 A 
ATOM     54  C   UNL A   1      42.551  28.878  33.627  1.00  0.00     0.049 A 
ATOM     55  H   UNL A   1      40.888  30.010  32.986  1.00  0.00     0.167 HD
ATOM     56  C   UNL A   1      42.162  30.479  35.487  1.00  0.00     0.074 A 
ATOM     57  C   UNL A   1      42.480  31.054  36.779  1.00  0.00     0.031 C 
ATOM     58  C   UNL A   1      42.844  29.449  34.922  1.00  0.00     0.034 A 
BRANCH  45  59
ATOM     59  C   UNL A   1      40.676  27.757  29.343  1.00  0.00     0.023 A 
ATOM     60  C   UNL A   1      41.634  27.937  28.328  1.00  0.00     0.031 A 
ATOM     61  C   UNL A   1      39.744  26.717  29.186  1.00  0.00     0.131 A 
ATOM     62  C   UNL A   1      41.571  27.165  27.158  1.00  0.00     0.055 A 
ATOM     63  C   UNL A   1      39.747  25.889  28.062  1.00  0.00     0.041 A 
ATOM     64  F   UNL A   1      38.793  26.504  30.110  1.00  0.00    -0.206 F 
ATOM     65  C   UNL A   1      40.650  26.124  27.029  1.00  0.00     0.022 A 
BRANCH  62  66
ATOM     66  S   UNL A   1      42.585  27.667  25.740  1.00  0.00     0.124 S 
ATOM     67  O   UNL A   1      42.108  29.028  25.503  1.00  0.00    -0.237 OA
ATOM     68  O   UNL A   1      43.941  27.547  26.263  1.00  0.00    -0.237 OA
ATOM     69  O   UNL A   1      42.226  26.701  24.704  1.00  0.00    -0.744 OA
ENDBRANCH  62  66
ENDBRANCH  45  59
BRANCH  46  70
ATOM     70  C   UNL A   1      39.544  34.069  37.052  1.00  0.00     0.023 A 
ATOM     71  C   UNL A   1      38.973  33.619  38.252  1.00  0.00     0.031 A 
ATOM     72  C   UNL A   1      39.928  35.419  36.965  1.00  0.00     0.131 A 
ATOM     73  C   UNL A   1      38.768  34.519  39.308  1.00  0.00     0.055 A 
ATOM     74  C   UNL A   1      39.761  36.300  38.035  1.00  0.00     0.041 A 
ATOM     75  F   UNL A   1      40.487  35.895  35.842  1.00  0.00    -0.206 F 
ATOM     76  C   UNL A   1      39.168  35.854  39.212  1.00  0.00     0.022 A 
BRANCH  73  77
ATOM     77  S   UNL A   1      37.913  33.931  40.796  1.00  0.00     0.124 S 
ATOM     78  O   UNL A   1      36.784  33.207  40.224  1.00  0.00    -0.237 OA
ATOM     79  O   UNL A   1      38.943  33.116  41.433  1.00  0.00    -0.237 OA
ATOM     80  O   UNL A   1      37.573  35.164  41.503  1.00  0.00    -0.744 OA
ENDBRANCH  73  77
ENDBRANCH  46  70
BRANCH  58  81
ATOM     81  C   UNL A   1      44.029  28.915  35.688  1.00  0.00     0.023 A 
ATOM     82  C   UNL A   1      43.919  27.802  36.540  1.00  0.00     0.031 A 
ATOM     83  C   UNL A   1      45.282  29.544  35.577  1.00  0.00     0.131 A 
ATOM     84  C   UNL A   1      45.030  27.386  37.290  1.00  0.00     0.055 A 
ATOM     85  C   UNL A   1      46.397  29.090  36.282  1.00  0.00     0.041 A 
ATOM     86  F   UNL A   1      45.442  30.613  34.781  1.00  0.00    -0.206 F 
ATOM     87  C   UNL A   1      46.271  28.013  37.155  1.00  0.00     0.022 A 
BRANCH  84  88
ATOM     88  S   UNL A   1      44.808  26.069  38.518  1.00  0.00     0.124 S 
ATOM     89  O   UNL A   1      43.953  25.127  37.802  1.00  0.00    -0.237 OA
ATOM     90  O   UNL A   1      46.180  25.630  38.755  1.00  0.00    -0.237 OA
ATOM     91  O   UNL A   1      44.174  26.750  39.644  1.00  0.00    -0.744 OA
ENDBRANCH  84  88
ENDBRANCH  58  81
ENDBRANCH  32  33
ENDBRANCH  24  27
ENDBRANCH  22  23
ENDBRANCH   1  22
TORSDOF 15
ENDMDL
MODEL 3
REMARK VINA RESULT:     -12.1      2.013      2.257
REMARK SMILES Cc1ccc(-c2ncccc2C(=O)NCCCCNC(=O)c2ccc(-c3c4nc(c(-c5cc(S(=O)(=O)[O-])ccc5F)c5ccc([nH]5)c(-c5cc(S(=O)(=O)[O-])ccc5F)c5nc(c(-c6cc(S(=O)(=O)[O-])ccc6F)c6ccc3[nH]6)C=C5)C=C4)cc2)c(C)c1
REMARK SMILES IDX 17 1 16 2 15 3 14 4 12 5 13 6 11 8 6 9 7 10 8 11 10 12 9 13
REMARK SMILES IDX 5 14 1 15 2 16 3 17 87 18 4 19 85 20 86 21 18 22 19 23 20 24
REMARK SMILES IDX 21 26 22 27 23 28 84 29 24 30 83 31 25 32 26 33 27 34 77 35
REMARK SMILES IDX 28 36 82 37 76 38 78 39 29 40 81 41 75 42 74 43 30 45 62 46
REMARK SMILES IDX 42 47 61 48 43 49 46 50 60 51 79 52 44 53 45 54 59 56 80 57
REMARK SMILES IDX 47 58 31 59 32 60 40 61 33 62 39 63 41 64 38 65 34 66 35 67
REMARK SMILES IDX 36 68 37 69 63 70 64 71 72 72 65 73 71 74 73 75 70 76 66 77
REMARK SMILES IDX 67 78 68 79 69 80 48 81 49 82 57 83 50 84 56 85 58 86 55 87
REMARK SMILES IDX 51 88 52 89 53 90 54 91
REMARK H PARENT 14 7 19 25 78 44 46 55
REMARK Flexibility Score: inf
ROOT
ATOM      1  C   UNL A   1      31.411  32.055  26.882  1.00  0.00     0.023 C 
ENDROOT
BRANCH   1   2
ATOM      2  C   UNL A   1      31.418  31.003  25.763  1.00  0.00     0.023 C 
BRANCH   2   3
ATOM      3  C   UNL A   1      32.442  29.884  25.960  1.00  0.00     0.116 C 
BRANCH   3   4
ATOM      4  N   UNL A   1      31.833  28.732  26.590  1.00  0.00    -0.352 N 
ATOM      5  C   UNL A   1      31.819  27.378  26.373  1.00  0.00     0.253 C 
ATOM      6  O   UNL A   1      31.147  26.763  27.201  1.00  0.00    -0.269 OA
ATOM      7  H   UNL A   1      31.290  28.985  27.372  1.00  0.00     0.163 HD
BRANCH   5   8
ATOM      8  C   UNL A   1      32.559  26.651  25.284  1.00  0.00     0.066 A 
ATOM      9  C   UNL A   1      32.094  26.672  23.949  1.00  0.00     0.083 A 
ATOM     10  N   UNL A   1      32.666  25.926  22.949  1.00  0.00    -0.255 NA
ATOM     11  C   UNL A   1      33.735  25.169  23.247  1.00  0.00     0.112 A 
ATOM     12  C   UNL A   1      33.724  25.907  25.510  1.00  0.00     0.018 A 
ATOM     13  C   UNL A   1      34.307  25.143  24.496  1.00  0.00     0.021 A 
BRANCH   9  14
ATOM     14  C   UNL A   1      31.010  27.533  23.430  1.00  0.00     0.004 A 
ATOM     15  C   UNL A   1      27.969  30.232  21.932  1.00  0.00     0.044 C 
ATOM     16  C   UNL A   1      29.028  29.292  22.421  1.00  0.00    -0.051 A 
ATOM     17  C   UNL A   1      30.379  29.578  22.238  1.00  0.00     0.004 A 
ATOM     18  C   UNL A   1      28.669  28.104  23.072  1.00  0.00     0.007 A 
ATOM     19  C   UNL A   1      31.353  28.704  22.723  1.00  0.00     0.011 A 
ATOM     20  C   UNL A   1      29.641  27.224  23.587  1.00  0.00    -0.041 A 
ATOM     21  C   UNL A   1      29.166  25.959  24.249  1.00  0.00     0.045 C 
ENDBRANCH   9  14
ENDBRANCH   5   8
ENDBRANCH   3   4
ENDBRANCH   2   3
ENDBRANCH   1   2
BRANCH   1  22
ATOM     22  C   UNL A   1      32.775  32.645  27.238  1.00  0.00     0.116 C 
BRANCH  22  23
ATOM     23  N   UNL A   1      32.698  34.010  27.734  1.00  0.00    -0.352 N 
ATOM     24  C   UNL A   1      33.470  34.622  28.694  1.00  0.00     0.251 C 
ATOM     25  H   UNL A   1      31.997  34.571  27.329  1.00  0.00     0.163 HD
ATOM     26  O   UNL A   1      33.195  35.754  29.065  1.00  0.00    -0.269 OA
BRANCH  24  27
ATOM     27  C   UNL A   1      34.599  33.881  29.296  1.00  0.00     0.039 A 
ATOM     28  C   UNL A   1      35.901  34.262  28.967  1.00  0.00     0.014 A 
ATOM     29  C   UNL A   1      34.373  32.838  30.198  1.00  0.00     0.014 A 
ATOM     30  C   UNL A   1      36.982  33.642  29.598  1.00  0.00     0.010 A 
ATOM     31  C   UNL A   1      35.448  32.265  30.871  1.00  0.00     0.010 A 
ATOM     32  C   UNL A   1      36.762  32.664  30.582  1.00  0.00    -0.014 A 
BRANCH  32  33
ATOM     33  C   UNL A   1      37.894  32.050  31.320  1.00  0.00     0.031 A 
ATOM     34  C   UNL A   1      38.681  30.933  30.697  1.00  0.00     0.074 A 
ATOM     35  C   UNL A   1      38.169  32.456  32.575  1.00  0.00     0.049 A 
ATOM     36  N   UNL A   1      39.658  30.223  31.202  1.00  0.00    -0.248 NA
ATOM     37  C   UNL A   1      38.295  30.543  29.333  1.00  0.00     0.031 C 
ATOM     38  C   UNL A   1      37.448  33.506  33.299  1.00  0.00     0.029 A 
ATOM     39  N   UNL A   1      39.121  32.033  33.465  1.00  0.00    -0.354 N 
ATOM     40  C   UNL A   1      39.998  29.296  30.222  1.00  0.00     0.074 A 
ATOM     41  C   UNL A   1      39.072  29.491  29.126  1.00  0.00     0.031 C 
ATOM     42  C   UNL A   1      38.006  33.664  34.510  1.00  0.00     0.029 A 
ATOM     43  C   UNL A   1      39.093  32.703  34.665  1.00  0.00     0.049 A 
ATOM     44  H   UNL A   1      39.766  31.316  33.264  1.00  0.00     0.167 HD
ATOM     45  C   UNL A   1      41.007  28.389  30.224  1.00  0.00     0.034 A 
ATOM     46  C   UNL A   1      39.854  32.555  35.767  1.00  0.00     0.034 A 
ATOM     47  C   UNL A   1      41.919  28.208  31.328  1.00  0.00     0.049 A 
ATOM     48  C   UNL A   1      40.941  31.512  35.766  1.00  0.00     0.074 A 
ATOM     49  C   UNL A   1      43.000  27.348  31.427  1.00  0.00     0.029 A 
ATOM     50  N   UNL A   1      41.850  28.894  32.535  1.00  0.00    -0.354 N 
ATOM     51  N   UNL A   1      41.280  30.672  34.816  1.00  0.00    -0.248 NA
ATOM     52  C   UNL A   1      41.753  31.408  36.985  1.00  0.00     0.031 C 
ATOM     53  C   UNL A   1      43.543  27.470  32.712  1.00  0.00     0.029 A 
ATOM     54  C   UNL A   1      42.849  28.457  33.393  1.00  0.00     0.049 A 
ATOM     55  H   UNL A   1      41.187  29.590  32.750  1.00  0.00     0.167 HD
ATOM     56  C   UNL A   1      42.367  29.958  35.314  1.00  0.00     0.074 A 
ATOM     57  C   UNL A   1      42.629  30.475  36.642  1.00  0.00     0.031 C 
ATOM     58  C   UNL A   1      43.087  28.970  34.723  1.00  0.00     0.034 A 
BRANCH  45  59
ATOM     59  C   UNL A   1      41.142  27.514  28.998  1.00  0.00     0.023 A 
ATOM     60  C   UNL A   1      42.151  27.740  28.043  1.00  0.00     0.031 A 
ATOM     61  C   UNL A   1      40.217  26.487  28.742  1.00  0.00     0.131 A 
ATOM     62  C   UNL A   1      42.146  27.029  26.834  1.00  0.00     0.055 A 
ATOM     63  C   UNL A   1      40.276  25.716  27.578  1.00  0.00     0.041 A 
ATOM     64  F   UNL A   1      39.221  26.233  29.604  1.00  0.00    -0.206 F 
ATOM     65  C   UNL A   1      41.231  26.000  26.605  1.00  0.00     0.022 A 
BRANCH  62  66
ATOM     66  S   UNL A   1      43.232  27.596  25.496  1.00  0.00     0.124 S 
ATOM     67  O   UNL A   1      43.761  26.331  24.989  1.00  0.00    -0.237 OA
ATOM     68  O   UNL A   1      42.307  28.301  24.616  1.00  0.00    -0.237 OA
ATOM     69  O   UNL A   1      44.209  28.440  26.183  1.00  0.00    -0.744 OA
ENDBRANCH  62  66
ENDBRANCH  45  59
BRANCH  46  70
ATOM     70  C   UNL A   1      39.627  33.419  36.958  1.00  0.00     0.023 A 
ATOM     71  C   UNL A   1      40.429  34.547  37.189  1.00  0.00     0.031 A 
ATOM     72  C   UNL A   1      38.620  33.119  37.893  1.00  0.00     0.131 A 
ATOM     73  C   UNL A   1      40.236  35.316  38.347  1.00  0.00     0.055 A 
ATOM     74  C   UNL A   1      38.405  33.912  39.021  1.00  0.00     0.041 A 
ATOM     75  F   UNL A   1      37.821  32.056  37.713  1.00  0.00    -0.206 F 
ATOM     76  C   UNL A   1      39.223  35.013  39.259  1.00  0.00     0.022 A 
BRANCH  73  77
ATOM     77  S   UNL A   1      41.374  36.691  38.674  1.00  0.00     0.124 S 
ATOM     78  O   UNL A   1      42.205  36.141  39.739  1.00  0.00    -0.237 OA
ATOM     79  O   UNL A   1      42.021  36.863  37.378  1.00  0.00    -0.237 OA
ATOM     80  O   UNL A   1      40.485  37.780  39.074  1.00  0.00    -0.744 OA
ENDBRANCH  73  77
ENDBRANCH  46  70
BRANCH  58  81
ATOM     81  C   UNL A   1      44.256  28.421  35.504  1.00  0.00     0.023 A 
ATOM     82  C   UNL A   1      44.099  27.386  36.442  1.00  0.00     0.031 A 
ATOM     83  C   UNL A   1      45.543  28.957  35.317  1.00  0.00     0.131 A 
ATOM     84  C   UNL A   1      45.200  26.958  37.199  1.00  0.00     0.055 A 
ATOM     85  C   UNL A   1      46.645  28.486  36.031  1.00  0.00     0.041 A 
ATOM     86  F   UNL A   1      45.749  29.948  34.435  1.00  0.00    -0.206 F 
ATOM     87  C   UNL A   1      46.475  27.491  36.989  1.00  0.00     0.022 A 
BRANCH  84  88
ATOM     88  S   UNL A   1      44.929  25.756  38.531  1.00  0.00     0.124 S 
ATOM     89  O   UNL A   1      44.117  26.523  39.471  1.00  0.00    -0.237 OA
ATOM     90  O   UNL A   1      44.244  24.670  37.836  1.00  0.00    -0.237 OA
ATOM     91  O   UNL A   1      46.279  25.441  38.991  1.00  0.00    -0.744 OA
ENDBRANCH  84  88
ENDBRANCH  58  81
ENDBRANCH  32  33
ENDBRANCH  24  27
ENDBRANCH  22  23
ENDBRANCH   1  22
TORSDOF 15
ENDMDL
