MODEL 1
REMARK VINA RESULT:     -11.3      0.000      0.000
REMARK SMILES Cn1c(SCC(=O)NCCCCNC(=O)c2ccc(-c3c4nc(c(-c5cc(S(=O)(=O)[O-])ccc5F)c5ccc([nH]5)c(-c5cc(S(=O)(=O)[O-])ccc5F)c5nc(c(-c6cc(S(=O)(=O)[O-])ccc6F)c6ccc3[nH]6)C=C5)C=C4)cc2)nnc1-c1ccccc1Br
REMARK SMILES IDX 10 1 9 2 8 3 6 4 7 5 5 7 4 8 3 9 1 10 2 11 81 12 79 13 80 14
REMARK SMILES IDX 82 15 83 16 87 17 84 18 86 19 88 20 85 21 11 22 12 23 13 24
REMARK SMILES IDX 14 25 15 27 16 28 17 29 78 30 18 31 77 32 19 33 20 34 21 35
REMARK SMILES IDX 71 36 22 37 76 38 70 39 72 40 23 41 75 42 69 43 68 44 24 46
REMARK SMILES IDX 56 47 36 48 55 49 37 50 40 51 54 52 73 53 38 54 39 55 53 57
REMARK SMILES IDX 74 58 41 59 25 60 26 61 34 62 27 63 33 64 35 65 32 66 28 67
REMARK SMILES IDX 29 68 30 69 31 70 57 71 58 72 66 73 59 74 65 75 67 76 64 77
REMARK SMILES IDX 60 78 61 79 62 80 63 81 42 82 43 83 51 84 44 85 50 86 52 87
REMARK SMILES IDX 49 88 45 89 46 90 47 91 48 92
REMARK H PARENT 8 6 13 26 72 45 40 56
REMARK Flexibility Score: inf
ROOT
ATOM      1  C   UNL A   1      31.025  30.011  24.881  1.00  0.00     0.023 C 
ENDROOT
BRANCH   1   2
ATOM      2  C   UNL A   1      30.084  29.717  23.714  1.00  0.00     0.116 C 
BRANCH   2   3
ATOM      3  N   UNL A   1      30.661  28.768  22.783  1.00  0.00    -0.355 N 
ATOM      4  C   UNL A   1      30.475  27.425  22.688  1.00  0.00     0.230 C 
ATOM      5  O   UNL A   1      30.999  26.841  21.735  1.00  0.00    -0.274 OA
ATOM      6  H   UNL A   1      31.279  29.152  22.120  1.00  0.00     0.163 HD
BRANCH   4   7
ATOM      7  C   UNL A   1      29.576  26.671  23.636  1.00  0.00     0.178 C 
BRANCH   7   8
ATOM      8  S   UNL A   1      30.318  26.016  25.123  1.00  0.00    -0.076 SA
BRANCH   8   9
ATOM      9  C   UNL A   1      31.445  24.748  24.815  1.00  0.00     0.191 A 
ATOM     10  C   UNL A   1      33.691  25.571  25.691  1.00  0.00     0.154 C 
ATOM     11  N   UNL A   1      32.785  24.642  25.074  1.00  0.00    -0.305 N 
ATOM     12  C   UNL A   1      33.179  23.424  24.539  1.00  0.00     0.165 A 
ATOM     13  N   UNL A   1      31.066  23.695  24.120  1.00  0.00    -0.123 NA
ATOM     14  N   UNL A   1      32.146  22.877  23.933  1.00  0.00    -0.129 NA
BRANCH  12  15
ATOM     15  C   UNL A   1      34.537  22.888  24.549  1.00  0.00     0.034 A 
ATOM     16  C   UNL A   1      35.339  23.105  23.417  1.00  0.00     0.013 A 
ATOM     17  C   UNL A   1      35.082  22.192  25.640  1.00  0.00     0.029 A 
ATOM     18  C   UNL A   1      36.670  22.684  23.392  1.00  0.00     0.001 A 
ATOM     19  C   UNL A   1      36.419  21.779  25.615  1.00  0.00     0.016 A 
ATOM     20  Br  UNL A   1      34.060  21.747  27.181  1.00  0.00    -0.050 Br
ATOM     21  C   UNL A   1      37.213  22.033  24.496  1.00  0.00     0.001 A 
ENDBRANCH  12  15
ENDBRANCH   8   9
ENDBRANCH   7   8
ENDBRANCH   4   7
ENDBRANCH   2   3
ENDBRANCH   1   2
BRANCH   1  22
ATOM     22  C   UNL A   1      32.357  29.253  24.848  1.00  0.00     0.023 C 
BRANCH  22  23
ATOM     23  C   UNL A   1      33.357  29.618  25.942  1.00  0.00     0.116 C 
BRANCH  23  24
ATOM     24  N   UNL A   1      33.124  30.936  26.507  1.00  0.00    -0.352 N 
ATOM     25  C   UNL A   1      33.824  31.615  27.472  1.00  0.00     0.251 C 
ATOM     26  H   UNL A   1      32.345  31.415  26.142  1.00  0.00     0.163 HD
ATOM     27  O   UNL A   1      33.370  32.674  27.904  1.00  0.00    -0.269 OA
BRANCH  25  28
ATOM     28  C   UNL A   1      35.092  31.075  28.015  1.00  0.00     0.039 A 
ATOM     29  C   UNL A   1      36.227  31.890  27.990  1.00  0.00     0.014 A 
ATOM     30  C   UNL A   1      35.181  29.777  28.527  1.00  0.00     0.014 A 
ATOM     31  C   UNL A   1      37.431  31.424  28.525  1.00  0.00     0.010 A 
ATOM     32  C   UNL A   1      36.362  29.344  29.132  1.00  0.00     0.010 A 
ATOM     33  C   UNL A   1      37.503  30.161  29.134  1.00  0.00    -0.014 A 
BRANCH  33  34
ATOM     34  C   UNL A   1      38.766  29.698  29.770  1.00  0.00     0.031 A 
ATOM     35  C   UNL A   1      39.182  30.221  31.120  1.00  0.00     0.074 A 
ATOM     36  C   UNL A   1      39.553  28.819  29.117  1.00  0.00     0.049 A 
ATOM     37  N   UNL A   1      40.242  29.927  31.831  1.00  0.00    -0.248 NA
ATOM     38  C   UNL A   1      38.305  31.224  31.741  1.00  0.00     0.031 C 
ATOM     39  C   UNL A   1      39.283  28.275  27.784  1.00  0.00     0.029 A 
ATOM     40  N   UNL A   1      40.733  28.221  29.483  1.00  0.00    -0.354 N 
ATOM     41  C   UNL A   1      40.160  30.707  32.979  1.00  0.00     0.074 A 
ATOM     42  C   UNL A   1      38.984  31.540  32.833  1.00  0.00     0.031 C 
ATOM     43  C   UNL A   1      40.242  27.393  27.464  1.00  0.00     0.029 A 
ATOM     44  C   UNL A   1      41.223  27.342  28.544  1.00  0.00     0.049 A 
ATOM     45  H   UNL A   1      41.187  28.404  30.337  1.00  0.00     0.167 HD
ATOM     46  C   UNL A   1      40.974  30.713  34.066  1.00  0.00     0.034 A 
ATOM     47  C   UNL A   1      42.336  26.581  28.548  1.00  0.00     0.034 A 
ATOM     48  C   UNL A   1      42.145  29.876  34.195  1.00  0.00     0.049 A 
ATOM     49  C   UNL A   1      43.238  26.622  29.756  1.00  0.00     0.074 A 
ATOM     50  C   UNL A   1      43.013  29.769  35.268  1.00  0.00     0.029 A 
ATOM     51  N   UNL A   1      42.619  29.009  33.216  1.00  0.00    -0.354 N 
ATOM     52  N   UNL A   1      43.114  27.326  30.859  1.00  0.00    -0.248 NA
ATOM     53  C   UNL A   1      44.421  25.754  29.724  1.00  0.00     0.031 C 
ATOM     54  C   UNL A   1      44.050  28.900  34.910  1.00  0.00     0.029 A 
ATOM     55  C   UNL A   1      43.784  28.392  33.649  1.00  0.00     0.049 A 
ATOM     56  H   UNL A   1      42.190  28.855  32.344  1.00  0.00     0.167 HD
ATOM     57  C   UNL A   1      44.189  26.956  31.665  1.00  0.00     0.074 A 
ATOM     58  C   UNL A   1      44.931  25.953  30.931  1.00  0.00     0.031 C 
ATOM     59  C   UNL A   1      44.530  27.405  32.902  1.00  0.00     0.034 A 
BRANCH  46  60
ATOM     60  C   UNL A   1      40.636  31.672  35.184  1.00  0.00     0.023 A 
ATOM     61  C   UNL A   1      39.613  31.399  36.110  1.00  0.00     0.031 A 
ATOM     62  C   UNL A   1      41.333  32.887  35.319  1.00  0.00     0.131 A 
ATOM     63  C   UNL A   1      39.263  32.357  37.074  1.00  0.00     0.055 A 
ATOM     64  C   UNL A   1      41.039  33.798  36.336  1.00  0.00     0.041 A 
ATOM     65  F   UNL A   1      42.306  33.217  34.454  1.00  0.00    -0.206 F 
ATOM     66  C   UNL A   1      39.988  33.543  37.212  1.00  0.00     0.022 A 
BRANCH  63  67
ATOM     67  S   UNL A   1      37.751  32.100  38.043  1.00  0.00     0.124 S 
ATOM     68  O   UNL A   1      38.223  32.359  39.401  1.00  0.00    -0.237 OA
ATOM     69  O   UNL A   1      36.843  33.093  37.482  1.00  0.00    -0.237 OA
ATOM     70  O   UNL A   1      37.400  30.707  37.770  1.00  0.00    -0.744 OA
ENDBRANCH  63  67
ENDBRANCH  46  60
BRANCH  47  71
ATOM     71  C   UNL A   1      42.668  25.715  27.379  1.00  0.00     0.023 A 
ATOM     72  C   UNL A   1      42.194  24.396  27.294  1.00  0.00     0.031 A 
ATOM     73  C   UNL A   1      43.508  26.179  26.350  1.00  0.00     0.131 A 
ATOM     74  C   UNL A   1      42.605  23.571  26.236  1.00  0.00     0.055 A 
ATOM     75  C   UNL A   1      43.865  25.374  25.268  1.00  0.00     0.041 A 
ATOM     76  F   UNL A   1      43.989  27.432  26.379  1.00  0.00    -0.206 F 
ATOM     77  C   UNL A   1      43.424  24.055  25.214  1.00  0.00     0.022 A 
BRANCH  74  78
ATOM     78  S   UNL A   1      42.134  21.818  26.266  1.00  0.00     0.124 S 
ATOM     79  O   UNL A   1      42.981  21.266  25.215  1.00  0.00    -0.237 OA
ATOM     80  O   UNL A   1      42.476  21.437  27.633  1.00  0.00    -0.237 OA
ATOM     81  O   UNL A   1      40.705  21.846  25.968  1.00  0.00    -0.744 OA
ENDBRANCH  74  78
ENDBRANCH  47  71
BRANCH  59  82
ATOM     82  C   UNL A   1      45.741  26.772  33.548  1.00  0.00     0.023 A 
ATOM     83  C   UNL A   1      45.637  25.624  34.354  1.00  0.00     0.031 A 
ATOM     84  C   UNL A   1      47.013  27.351  33.390  1.00  0.00     0.131 A 
ATOM     85  C   UNL A   1      46.765  25.141  35.034  1.00  0.00     0.055 A 
ATOM     86  C   UNL A   1      48.146  26.821  34.008  1.00  0.00     0.041 A 
ATOM     87  F   UNL A   1      47.175  28.451  32.636  1.00  0.00    -0.206 F 
ATOM     88  C   UNL A   1      48.023  25.721  34.851  1.00  0.00     0.022 A 
BRANCH  85  89
ATOM     89  S   UNL A   1      46.541  23.830  36.268  1.00  0.00     0.124 S 
ATOM     90  O   UNL A   1      45.551  22.975  35.623  1.00  0.00    -0.237 OA
ATOM     91  O   UNL A   1      47.887  23.275  36.381  1.00  0.00    -0.237 OA
ATOM     92  O   UNL A   1      46.066  24.548  37.450  1.00  0.00    -0.744 OA
ENDBRANCH  85  89
ENDBRANCH  59  82
ENDBRANCH  33  34
ENDBRANCH  25  28
ENDBRANCH  23  24
ENDBRANCH  22  23
ENDBRANCH   1  22
TORSDOF 17
ENDMDL
MODEL 2
REMARK VINA RESULT:     -11.3      5.761      8.764
REMARK SMILES Cn1c(SCC(=O)NCCCCNC(=O)c2ccc(-c3c4nc(c(-c5cc(S(=O)(=O)[O-])ccc5F)c5ccc([nH]5)c(-c5cc(S(=O)(=O)[O-])ccc5F)c5nc(c(-c6cc(S(=O)(=O)[O-])ccc6F)c6ccc3[nH]6)C=C5)C=C4)cc2)nnc1-c1ccccc1Br
REMARK SMILES IDX 10 1 9 2 8 3 6 4 7 5 5 7 4 8 3 9 1 10 2 11 81 12 79 13 80 14
REMARK SMILES IDX 82 15 83 16 87 17 84 18 86 19 88 20 85 21 11 22 12 23 13 24
REMARK SMILES IDX 14 25 15 27 16 28 17 29 78 30 18 31 77 32 19 33 20 34 21 35
REMARK SMILES IDX 71 36 22 37 76 38 70 39 72 40 23 41 75 42 69 43 68 44 24 46
REMARK SMILES IDX 56 47 36 48 55 49 37 50 40 51 54 52 73 53 38 54 39 55 53 57
REMARK SMILES IDX 74 58 41 59 25 60 26 61 34 62 27 63 33 64 35 65 32 66 28 67
REMARK SMILES IDX 29 68 30 69 31 70 57 71 58 72 66 73 59 74 65 75 67 76 64 77
REMARK SMILES IDX 60 78 61 79 62 80 63 81 42 82 43 83 51 84 44 85 50 86 52 87
REMARK SMILES IDX 49 88 45 89 46 90 47 91 48 92
REMARK H PARENT 8 6 13 26 72 45 40 56
REMARK Flexibility Score: inf
ROOT
ATOM      1  C   UNL A   1      37.396  20.791  24.463  1.00  0.00     0.023 C 
ENDROOT
BRANCH   1   2
ATOM      2  C   UNL A   1      36.289  21.373  25.339  1.00  0.00     0.116 C 
BRANCH   2   3
ATOM      3  N   UNL A   1      35.025  21.448  24.633  1.00  0.00    -0.355 N 
ATOM      4  C   UNL A   1      33.759  21.322  25.108  1.00  0.00     0.230 C 
ATOM      5  O   UNL A   1      32.830  21.533  24.322  1.00  0.00    -0.274 OA
ATOM      6  H   UNL A   1      35.095  21.615  23.665  1.00  0.00     0.163 HD
BRANCH   4   7
ATOM      7  C   UNL A   1      33.471  21.045  26.563  1.00  0.00     0.178 C 
BRANCH   7   8
ATOM      8  S   UNL A   1      33.155  22.450  27.618  1.00  0.00    -0.076 SA
BRANCH   8   9
ATOM      9  C   UNL A   1      32.154  23.642  26.876  1.00  0.00     0.191 A 
ATOM     10  C   UNL A   1      33.703  25.075  25.448  1.00  0.00     0.154 C 
ATOM     11  N   UNL A   1      32.447  24.664  26.013  1.00  0.00    -0.305 N 
ATOM     12  C   UNL A   1      31.253  25.341  25.808  1.00  0.00     0.165 A 
ATOM     13  N   UNL A   1      30.885  23.729  27.216  1.00  0.00    -0.123 NA
ATOM     14  N   UNL A   1      30.326  24.795  26.566  1.00  0.00    -0.129 NA
BRANCH  12  15
ATOM     15  C   UNL A   1      31.078  26.529  24.978  1.00  0.00     0.034 A 
ATOM     16  C   UNL A   1      30.630  26.352  23.659  1.00  0.00     0.013 A 
ATOM     17  C   UNL A   1      31.312  27.833  25.442  1.00  0.00     0.029 A 
ATOM     18  C   UNL A   1      30.371  27.450  22.837  1.00  0.00     0.001 A 
ATOM     19  C   UNL A   1      31.044  28.933  24.619  1.00  0.00     0.016 A 
ATOM     20  Br  UNL A   1      32.021  28.190  27.170  1.00  0.00    -0.050 Br
ATOM     21  C   UNL A   1      30.565  28.740  23.323  1.00  0.00     0.001 A 
ENDBRANCH  12  15
ENDBRANCH   8   9
ENDBRANCH   7   8
ENDBRANCH   4   7
ENDBRANCH   2   3
ENDBRANCH   1   2
BRANCH   1  22
ATOM     22  C   UNL A   1      38.241  19.696  25.125  1.00  0.00     0.023 C 
BRANCH  22  23
ATOM     23  C   UNL A   1      39.412  20.183  25.974  1.00  0.00     0.116 C 
BRANCH  23  24
ATOM     24  N   UNL A   1      40.489  19.212  26.066  1.00  0.00    -0.352 N 
ATOM     25  C   UNL A   1      41.837  19.408  26.231  1.00  0.00     0.251 C 
ATOM     26  H   UNL A   1      40.209  18.270  25.999  1.00  0.00     0.163 HD
ATOM     27  O   UNL A   1      42.594  18.441  26.145  1.00  0.00    -0.269 OA
BRANCH  25  28
ATOM     28  C   UNL A   1      42.385  20.761  26.477  1.00  0.00     0.039 A 
ATOM     29  C   UNL A   1      42.667  21.576  25.376  1.00  0.00     0.014 A 
ATOM     30  C   UNL A   1      42.643  21.229  27.769  1.00  0.00     0.014 A 
ATOM     31  C   UNL A   1      43.153  22.870  25.574  1.00  0.00     0.010 A 
ATOM     32  C   UNL A   1      43.053  22.548  27.966  1.00  0.00     0.010 A 
ATOM     33  C   UNL A   1      43.318  23.383  26.871  1.00  0.00    -0.014 A 
BRANCH  33  34
ATOM     34  C   UNL A   1      43.764  24.788  27.078  1.00  0.00     0.031 A 
ATOM     35  C   UNL A   1      42.817  25.820  27.632  1.00  0.00     0.074 A 
ATOM     36  C   UNL A   1      45.022  25.139  26.743  1.00  0.00     0.049 A 
ATOM     37  N   UNL A   1      43.030  27.086  27.886  1.00  0.00    -0.248 NA
ATOM     38  C   UNL A   1      41.444  25.377  27.913  1.00  0.00     0.031 C 
ATOM     39  C   UNL A   1      46.019  24.242  26.153  1.00  0.00     0.029 A 
ATOM     40  N   UNL A   1      45.683  26.336  26.855  1.00  0.00    -0.354 N 
ATOM     41  C   UNL A   1      41.822  27.591  28.356  1.00  0.00     0.074 A 
ATOM     42  C   UNL A   1      40.863  26.508  28.279  1.00  0.00     0.031 C 
ATOM     43  C   UNL A   1      47.174  24.907  25.998  1.00  0.00     0.029 A 
ATOM     44  C   UNL A   1      46.992  26.289  26.429  1.00  0.00     0.049 A 
ATOM     45  H   UNL A   1      45.262  27.153  27.207  1.00  0.00     0.167 HD
ATOM     46  C   UNL A   1      41.543  28.832  28.829  1.00  0.00     0.034 A 
ATOM     47  C   UNL A   1      47.938  27.248  26.387  1.00  0.00     0.034 A 
ATOM     48  C   UNL A   1      42.512  29.901  28.897  1.00  0.00     0.049 A 
ATOM     49  C   UNL A   1      47.597  28.627  26.896  1.00  0.00     0.074 A 
ATOM     50  C   UNL A   1      42.349  31.181  29.399  1.00  0.00     0.029 A 
ATOM     51  N   UNL A   1      43.823  29.821  28.441  1.00  0.00    -0.354 N 
ATOM     52  N   UNL A   1      46.463  29.070  27.389  1.00  0.00    -0.248 NA
ATOM     53  C   UNL A   1      48.670  29.627  26.856  1.00  0.00     0.031 C 
ATOM     54  C   UNL A   1      43.532  31.895  29.176  1.00  0.00     0.029 A 
ATOM     55  C   UNL A   1      44.466  31.038  28.619  1.00  0.00     0.049 A 
ATOM     56  H   UNL A   1      44.236  29.018  28.050  1.00  0.00     0.167 HD
ATOM     57  C   UNL A   1      46.700  30.395  27.749  1.00  0.00     0.074 A 
ATOM     58  C   UNL A   1      48.089  30.665  27.439  1.00  0.00     0.031 C 
ATOM     59  C   UNL A   1      45.848  31.305  28.290  1.00  0.00     0.034 A 
BRANCH  46  60
ATOM     60  C   UNL A   1      40.126  29.102  29.284  1.00  0.00     0.023 A 
ATOM     61  C   UNL A   1      39.774  29.104  30.646  1.00  0.00     0.031 A 
ATOM     62  C   UNL A   1      39.108  29.342  28.344  1.00  0.00     0.131 A 
ATOM     63  C   UNL A   1      38.432  29.261  31.025  1.00  0.00     0.055 A 
ATOM     64  C   UNL A   1      37.788  29.586  28.733  1.00  0.00     0.041 A 
ATOM     65  F   UNL A   1      39.374  29.332  27.029  1.00  0.00    -0.206 F 
ATOM     66  C   UNL A   1      37.440  29.530  30.079  1.00  0.00     0.022 A 
BRANCH  63  67
ATOM     67  S   UNL A   1      37.978  28.954  32.754  1.00  0.00     0.124 S 
ATOM     68  O   UNL A   1      37.992  27.495  32.809  1.00  0.00    -0.237 OA
ATOM     69  O   UNL A   1      39.043  29.632  33.485  1.00  0.00    -0.237 OA
ATOM     70  O   UNL A   1      36.654  29.561  32.874  1.00  0.00    -0.744 OA
ENDBRANCH  63  67
ENDBRANCH  46  60
BRANCH  47  71
ATOM     71  C   UNL A   1      49.297  26.950  25.847  1.00  0.00     0.023 A 
ATOM     72  C   UNL A   1      49.668  27.350  24.553  1.00  0.00     0.031 A 
ATOM     73  C   UNL A   1      50.229  26.214  26.600  1.00  0.00     0.131 A 
ATOM     74  C   UNL A   1      50.914  26.968  24.032  1.00  0.00     0.055 A 
ATOM     75  C   UNL A   1      51.491  25.889  26.101  1.00  0.00     0.041 A 
ATOM     76  F   UNL A   1      49.928  25.806  27.844  1.00  0.00    -0.206 F 
ATOM     77  C   UNL A   1      51.834  26.254  24.803  1.00  0.00     0.022 A 
BRANCH  74  78
ATOM     78  S   UNL A   1      51.278  27.331  22.292  1.00  0.00     0.124 S 
ATOM     79  O   UNL A   1      49.993  27.057  21.658  1.00  0.00    -0.237 OA
ATOM     80  O   UNL A   1      51.678  28.733  22.353  1.00  0.00    -0.237 OA
ATOM     81  O   UNL A   1      52.348  26.393  21.966  1.00  0.00    -0.744 OA
ENDBRANCH  74  78
ENDBRANCH  47  71
BRANCH  59  82
ATOM     82  C   UNL A   1      46.419  32.666  28.616  1.00  0.00     0.023 A 
ATOM     83  C   UNL A   1      46.399  33.722  27.686  1.00  0.00     0.031 A 
ATOM     84  C   UNL A   1      47.033  32.898  29.860  1.00  0.00     0.131 A 
ATOM     85  C   UNL A   1      47.049  34.929  27.982  1.00  0.00     0.055 A 
ATOM     86  C   UNL A   1      47.611  34.127  30.178  1.00  0.00     0.041 A 
ATOM     87  F   UNL A   1      47.088  31.928  30.787  1.00  0.00    -0.206 F 
ATOM     88  C   UNL A   1      47.639  35.145  29.230  1.00  0.00     0.022 A 
BRANCH  85  89
ATOM     89  S   UNL A   1      47.234  36.162  26.665  1.00  0.00     0.124 S 
ATOM     90  O   UNL A   1      47.037  35.356  25.465  1.00  0.00    -0.237 OA
ATOM     91  O   UNL A   1      46.170  37.112  26.977  1.00  0.00    -0.237 OA
ATOM     92  O   UNL A   1      48.592  36.669  26.856  1.00  0.00    -0.744 OA
ENDBRANCH  85  89
ENDBRANCH  59  82
ENDBRANCH  33  34
ENDBRANCH  25  28
ENDBRANCH  23  24
ENDBRANCH  22  23
ENDBRANCH   1  22
TORSDOF 17
ENDMDL
MODEL 3
REMARK VINA RESULT:     -11.3      1.981      2.643
REMARK SMILES Cn1c(SCC(=O)NCCCCNC(=O)c2ccc(-c3c4nc(c(-c5cc(S(=O)(=O)[O-])ccc5F)c5ccc([nH]5)c(-c5cc(S(=O)(=O)[O-])ccc5F)c5nc(c(-c6cc(S(=O)(=O)[O-])ccc6F)c6ccc3[nH]6)C=C5)C=C4)cc2)nnc1-c1ccccc1Br
REMARK SMILES IDX 10 1 9 2 8 3 6 4 7 5 5 7 4 8 3 9 1 10 2 11 81 12 79 13 80 14
REMARK SMILES IDX 82 15 83 16 87 17 84 18 86 19 88 20 85 21 11 22 12 23 13 24
REMARK SMILES IDX 14 25 15 27 16 28 17 29 78 30 18 31 77 32 19 33 20 34 21 35
REMARK SMILES IDX 71 36 22 37 76 38 70 39 72 40 23 41 75 42 69 43 68 44 24 46
REMARK SMILES IDX 56 47 36 48 55 49 37 50 40 51 54 52 73 53 38 54 39 55 53 57
REMARK SMILES IDX 74 58 41 59 25 60 26 61 34 62 27 63 33 64 35 65 32 66 28 67
REMARK SMILES IDX 29 68 30 69 31 70 57 71 58 72 66 73 59 74 65 75 67 76 64 77
REMARK SMILES IDX 60 78 61 79 62 80 63 81 42 82 43 83 51 84 44 85 50 86 52 87
REMARK SMILES IDX 49 88 45 89 46 90 47 91 48 92
REMARK H PARENT 8 6 13 26 72 45 40 56
REMARK Flexibility Score: inf
ROOT
ATOM      1  C   UNL A   1      31.536  30.351  26.669  1.00  0.00     0.023 C 
ENDROOT
BRANCH   1   2
ATOM      2  C   UNL A   1      32.065  29.722  25.382  1.00  0.00     0.116 C 
BRANCH   2   3
ATOM      3  N   UNL A   1      31.127  29.867  24.286  1.00  0.00    -0.355 N 
ATOM      4  C   UNL A   1      30.633  28.927  23.439  1.00  0.00     0.230 C 
ATOM      5  O   UNL A   1      29.755  29.278  22.644  1.00  0.00    -0.274 OA
ATOM      6  H   UNL A   1      30.798  30.782  24.134  1.00  0.00     0.163 HD
BRANCH   4   7
ATOM      7  C   UNL A   1      31.046  27.478  23.518  1.00  0.00     0.178 C 
BRANCH   7   8
ATOM      8  S   UNL A   1      31.430  26.650  21.984  1.00  0.00    -0.076 SA
BRANCH   8   9
ATOM      9  C   UNL A   1      32.196  25.122  22.212  1.00  0.00     0.191 A 
ATOM     10  C   UNL A   1      30.947  23.984  24.118  1.00  0.00     0.154 C 
ATOM     11  N   UNL A   1      31.943  24.103  23.090  1.00  0.00    -0.305 N 
ATOM     12  C   UNL A   1      32.927  23.152  22.859  1.00  0.00     0.165 A 
ATOM     13  N   UNL A   1      33.290  24.836  21.537  1.00  0.00    -0.123 NA
ATOM     14  N   UNL A   1      33.757  23.618  21.950  1.00  0.00    -0.129 NA
BRANCH  12  15
ATOM     15  C   UNL A   1      33.083  21.893  23.583  1.00  0.00     0.034 A 
ATOM     16  C   UNL A   1      32.383  20.770  23.111  1.00  0.00     0.013 A 
ATOM     17  C   UNL A   1      33.913  21.749  24.706  1.00  0.00     0.029 A 
ATOM     18  C   UNL A   1      32.547  19.521  23.713  1.00  0.00     0.001 A 
ATOM     19  C   UNL A   1      34.082  20.494  25.301  1.00  0.00     0.016 A 
ATOM     20  Br  UNL A   1      34.825  23.218  25.497  1.00  0.00    -0.050 Br
ATOM     21  C   UNL A   1      33.406  19.381  24.799  1.00  0.00     0.001 A 
ENDBRANCH  12  15
ENDBRANCH   8   9
ENDBRANCH   7   8
ENDBRANCH   4   7
ENDBRANCH   2   3
ENDBRANCH   1   2
BRANCH   1  22
ATOM     22  C   UNL A   1      31.500  31.883  26.676  1.00  0.00     0.023 C 
BRANCH  22  23
ATOM     23  C   UNL A   1      32.798  32.577  27.081  1.00  0.00     0.116 C 
BRANCH  23  24
ATOM     24  N   UNL A   1      32.582  33.888  27.668  1.00  0.00    -0.352 N 
ATOM     25  C   UNL A   1      33.252  34.514  28.689  1.00  0.00     0.251 C 
ATOM     26  H   UNL A   1      31.843  34.405  27.275  1.00  0.00     0.163 HD
ATOM     27  O   UNL A   1      32.813  35.578  29.125  1.00  0.00    -0.269 OA
BRANCH  25  28
ATOM     28  C   UNL A   1      34.466  33.913  29.286  1.00  0.00     0.039 A 
ATOM     29  C   UNL A   1      34.309  32.919  30.256  1.00  0.00     0.014 A 
ATOM     30  C   UNL A   1      35.751  34.325  28.918  1.00  0.00     0.014 A 
ATOM     31  C   UNL A   1      35.433  32.306  30.815  1.00  0.00     0.010 A 
ATOM     32  C   UNL A   1      36.869  33.657  29.419  1.00  0.00     0.010 A 
ATOM     33  C   UNL A   1      36.724  32.643  30.377  1.00  0.00    -0.014 A 
BRANCH  33  34
ATOM     34  C   UNL A   1      37.916  31.936  30.920  1.00  0.00     0.031 A 
ATOM     35  C   UNL A   1      38.447  32.265  32.290  1.00  0.00     0.074 A 
ATOM     36  C   UNL A   1      38.536  31.007  30.163  1.00  0.00     0.049 A 
ATOM     37  N   UNL A   1      39.466  31.748  32.929  1.00  0.00    -0.248 NA
ATOM     38  C   UNL A   1      37.757  33.332  33.029  1.00  0.00     0.031 C 
ATOM     39  C   UNL A   1      38.146  30.633  28.801  1.00  0.00     0.029 A 
ATOM     40  N   UNL A   1      39.616  30.204  30.428  1.00  0.00    -0.354 N 
ATOM     41  C   UNL A   1      39.540  32.426  34.141  1.00  0.00     0.074 A 
ATOM     42  C   UNL A   1      38.507  33.440  34.114  1.00  0.00     0.031 C 
ATOM     43  C   UNL A   1      38.945  29.645  28.369  1.00  0.00     0.029 A 
ATOM     44  C   UNL A   1      39.935  29.346  29.399  1.00  0.00     0.049 A 
ATOM     45  H   UNL A   1      40.117  30.237  31.274  1.00  0.00     0.167 HD
ATOM     46  C   UNL A   1      40.375  32.208  35.190  1.00  0.00     0.034 A 
ATOM     47  C   UNL A   1      40.913  28.425  29.293  1.00  0.00     0.034 A 
ATOM     48  C   UNL A   1      41.402  31.191  35.199  1.00  0.00     0.049 A 
ATOM     49  C   UNL A   1      41.844  28.218  30.461  1.00  0.00     0.074 A 
ATOM     50  C   UNL A   1      42.272  30.856  36.222  1.00  0.00     0.029 A 
ATOM     51  N   UNL A   1      41.706  30.353  34.133  1.00  0.00    -0.354 N 
ATOM     52  N   UNL A   1      41.863  28.831  31.624  1.00  0.00    -0.248 NA
ATOM     53  C   UNL A   1      42.873  27.184  30.308  1.00  0.00     0.031 C 
ATOM     54  C   UNL A   1      43.148  29.873  35.751  1.00  0.00     0.029 A 
ATOM     55  C   UNL A   1      42.770  29.527  34.463  1.00  0.00     0.049 A 
ATOM     56  H   UNL A   1      41.234  30.346  33.269  1.00  0.00     0.167 HD
ATOM     57  C   UNL A   1      42.888  28.229  32.351  1.00  0.00     0.074 A 
ATOM     58  C   UNL A   1      43.441  27.192  31.505  1.00  0.00     0.031 C 
ATOM     59  C   UNL A   1      43.330  28.507  33.606  1.00  0.00     0.034 A 
BRANCH  46  60
ATOM     60  C   UNL A   1      40.225  33.104  36.398  1.00  0.00     0.023 A 
ATOM     61  C   UNL A   1      39.499  32.700  37.533  1.00  0.00     0.031 A 
ATOM     62  C   UNL A   1      40.797  34.389  36.411  1.00  0.00     0.131 A 
ATOM     63  C   UNL A   1      39.299  33.596  38.595  1.00  0.00     0.055 A 
ATOM     64  C   UNL A   1      40.669  35.243  37.508  1.00  0.00     0.041 A 
ATOM     65  F   UNL A   1      41.483  34.843  35.350  1.00  0.00    -0.206 F 
ATOM     66  C   UNL A   1      39.902  34.855  38.603  1.00  0.00     0.022 A 
BRANCH  63  67
ATOM     67  S   UNL A   1      38.112  33.150  39.893  1.00  0.00     0.124 S 
ATOM     68  O   UNL A   1      38.730  31.954  40.459  1.00  0.00    -0.237 OA
ATOM     69  O   UNL A   1      38.115  34.335  40.744  1.00  0.00    -0.237 OA
ATOM     70  O   UNL A   1      36.872  32.912  39.158  1.00  0.00    -0.744 OA
ENDBRANCH  63  67
ENDBRANCH  46  60
BRANCH  47  71
ATOM     71  C   UNL A   1      41.071  27.626  28.042  1.00  0.00     0.023 A 
ATOM     72  C   UNL A   1      40.714  26.269  27.997  1.00  0.00     0.031 A 
ATOM     73  C   UNL A   1      41.632  28.197  26.885  1.00  0.00     0.131 A 
ATOM     74  C   UNL A   1      40.968  25.516  26.840  1.00  0.00     0.055 A 
ATOM     75  C   UNL A   1      41.826  27.460  25.717  1.00  0.00     0.041 A 
ATOM     76  F   UNL A   1      41.992  29.491  26.872  1.00  0.00    -0.206 F 
ATOM     77  C   UNL A   1      41.508  26.105  25.695  1.00  0.00     0.022 A 
BRANCH  74  78
ATOM     78  S   UNL A   1      40.677  23.726  26.888  1.00  0.00     0.124 S 
ATOM     79  O   UNL A   1      39.266  23.645  26.526  1.00  0.00    -0.237 OA
ATOM     80  O   UNL A   1      41.625  23.238  25.890  1.00  0.00    -0.237 OA
ATOM     81  O   UNL A   1      40.990  23.367  28.269  1.00  0.00    -0.744 OA
ENDBRANCH  74  78
ENDBRANCH  47  71
BRANCH  59  82
ATOM     82  C   UNL A   1      44.443  27.639  34.145  1.00  0.00     0.023 A 
ATOM     83  C   UNL A   1      44.187  26.399  34.758  1.00  0.00     0.031 A 
ATOM     84  C   UNL A   1      45.778  28.078  34.085  1.00  0.00     0.131 A 
ATOM     85  C   UNL A   1      45.235  25.683  35.356  1.00  0.00     0.055 A 
ATOM     86  C   UNL A   1      46.827  27.325  34.613  1.00  0.00     0.041 A 
ATOM     87  F   UNL A   1      46.086  29.255  33.516  1.00  0.00    -0.206 F 
ATOM     88  C   UNL A   1      46.556  26.128  35.270  1.00  0.00     0.022 A 
BRANCH  85  89
ATOM     89  S   UNL A   1      44.831  24.230  36.364  1.00  0.00     0.124 S 
ATOM     90  O   UNL A   1      46.043  23.427  36.237  1.00  0.00    -0.237 OA
ATOM     91  O   UNL A   1      44.591  24.819  37.678  1.00  0.00    -0.237 OA
ATOM     92  O   UNL A   1      43.648  23.674  35.709  1.00  0.00    -0.744 OA
ENDBRANCH  85  89
ENDBRANCH  59  82
ENDBRANCH  33  34
ENDBRANCH  25  28
ENDBRANCH  23  24
ENDBRANCH  22  23
ENDBRANCH   1  22
TORSDOF 17
ENDMDL
