MODEL 1
REMARK VINA RESULT:     -12.0      0.000      0.000
REMARK SMILES C[C@@H]1CCCC[C@@H]1NC(=O)[C@@H](C)n1cc(C(=O)NCCCCNC(=O)c2ccc(-c3c4nc(c(-c5cc(S(=O)(=O)[O-])ccc5F)c5ccc([nH]5)c(-c5cc(S(=O)(=O)[O-])ccc5F)c5nc(c(-c6cc(S(=O)(=O)[O-])ccc6F)c6ccc3[nH]6)C=C5)C=C4)cc2)cn1
REMARK SMILES IDX 20 1 19 2 18 3 16 4 17 5 15 7 13 8 14 9 90 10 89 11 11 12
REMARK SMILES IDX 12 13 9 14 8 15 10 17 7 18 1 19 2 20 3 21 4 22 6 23 5 24
REMARK SMILES IDX 21 25 22 26 23 27 24 28 25 30 26 31 27 32 88 33 28 34 87 35
REMARK SMILES IDX 29 36 30 37 31 38 81 39 32 40 86 41 80 42 82 43 33 44 85 45
REMARK SMILES IDX 79 46 78 47 34 49 66 50 46 51 65 52 47 53 50 54 64 55 83 56
REMARK SMILES IDX 48 57 49 58 63 60 84 61 51 62 35 63 36 64 44 65 37 66 43 67
REMARK SMILES IDX 45 68 42 69 38 70 39 71 40 72 41 73 67 74 68 75 76 76 69 77
REMARK SMILES IDX 75 78 77 79 74 80 70 81 71 82 72 83 73 84 52 85 53 86 61 87
REMARK SMILES IDX 54 88 60 89 62 90 59 91 55 92 56 93 57 94 58 95
REMARK H PARENT 18 6 8 16 23 29 82 48 50 59
REMARK Flexibility Score: inf
ROOT
ATOM      1  C   UNL A   1      39.061  22.245  26.206  1.00  0.00     0.023 C 
ENDROOT
BRANCH   1   2
ATOM      2  C   UNL A   1      37.811  23.016  25.798  1.00  0.00     0.116 C 
BRANCH   2   3
ATOM      3  N   UNL A   1      37.580  23.104  24.373  1.00  0.00    -0.352 N 
ATOM      4  C   UNL A   1      36.381  23.193  23.716  1.00  0.00     0.254 C 
ATOM      5  O   UNL A   1      36.350  23.150  22.487  1.00  0.00    -0.269 OA
ATOM      6  H   UNL A   1      38.384  23.101  23.805  1.00  0.00     0.163 HD
BRANCH   4   7
ATOM      7  C   UNL A   1      35.179  23.187  24.511  1.00  0.00     0.077 A 
ATOM      8  N   UNL A   1      33.110  23.141  25.279  1.00  0.00    -0.260 N 
ATOM      9  C   UNL A   1      33.874  22.872  24.172  1.00  0.00     0.123 A 
ATOM     10  N   UNL A   1      33.849  23.657  26.287  1.00  0.00    -0.180 NA
ATOM     11  C   UNL A   1      35.106  23.557  25.860  1.00  0.00     0.149 A 
BRANCH   8  12
ATOM     12  C   UNL A   1      31.647  23.147  25.355  1.00  0.00     0.193 C 
ATOM     13  C   UNL A   1      30.971  23.473  24.022  1.00  0.00     0.044 C 
BRANCH  12  14
ATOM     14  C   UNL A   1      31.048  23.984  26.489  1.00  0.00     0.244 C 
ATOM     15  N   UNL A   1      31.011  25.351  26.490  1.00  0.00    -0.351 N 
ATOM     16  H   UNL A   1      30.348  25.762  27.091  1.00  0.00     0.163 HD
ATOM     17  O   UNL A   1      30.442  23.419  27.408  1.00  0.00    -0.273 OA
BRANCH  15  18
ATOM     18  C   UNL A   1      31.825  26.275  25.719  1.00  0.00     0.084 C 
ATOM     19  C   UNL A   1      31.684  28.167  27.462  1.00  0.00     0.010 C 
ATOM     20  C   UNL A   1      32.596  27.252  26.633  1.00  0.00     0.008 C 
ATOM     21  C   UNL A   1      33.581  28.084  25.794  1.00  0.00     0.005 C 
ATOM     22  C   UNL A   1      32.943  28.727  24.559  1.00  0.00     0.000 C 
ATOM     23  C   UNL A   1      31.068  27.015  24.618  1.00  0.00     0.025 C 
ATOM     24  C   UNL A   1      32.088  27.754  23.746  1.00  0.00     0.002 C 
ENDBRANCH  15  18
ENDBRANCH  12  14
ENDBRANCH   8  12
ENDBRANCH   4   7
ENDBRANCH   2   3
ENDBRANCH   1   2
BRANCH   1  25
ATOM     25  C   UNL A   1      39.318  20.905  25.505  1.00  0.00     0.023 C 
BRANCH  25  26
ATOM     26  C   UNL A   1      39.768  19.736  26.383  1.00  0.00     0.116 C 
BRANCH  26  27
ATOM     27  N   UNL A   1      41.008  19.090  25.946  1.00  0.00    -0.352 N 
ATOM     28  C   UNL A   1      42.222  19.694  25.638  1.00  0.00     0.251 C 
ATOM     29  H   UNL A   1      40.979  18.109  25.861  1.00  0.00     0.163 HD
ATOM     30  O   UNL A   1      43.033  19.131  24.913  1.00  0.00    -0.269 OA
BRANCH  28  31
ATOM     31  C   UNL A   1      42.524  21.012  26.232  1.00  0.00     0.039 A 
ATOM     32  C   UNL A   1      42.807  22.157  25.493  1.00  0.00     0.014 A 
ATOM     33  C   UNL A   1      42.487  21.077  27.614  1.00  0.00     0.014 A 
ATOM     34  C   UNL A   1      42.936  23.374  26.173  1.00  0.00     0.010 A 
ATOM     35  C   UNL A   1      42.420  22.276  28.265  1.00  0.00     0.010 A 
ATOM     36  C   UNL A   1      42.715  23.428  27.562  1.00  0.00    -0.014 A 
BRANCH  36  37
ATOM     37  C   UNL A   1      42.666  24.686  28.299  1.00  0.00     0.031 A 
ATOM     38  C   UNL A   1      41.347  25.366  28.249  1.00  0.00     0.074 A 
ATOM     39  C   UNL A   1      43.622  25.073  29.175  1.00  0.00     0.049 A 
ATOM     40  N   UNL A   1      41.038  26.442  27.607  1.00  0.00    -0.248 NA
ATOM     41  C   UNL A   1      40.187  24.682  28.844  1.00  0.00     0.031 C 
ATOM     42  C   UNL A   1      44.818  24.337  29.607  1.00  0.00     0.029 A 
ATOM     43  N   UNL A   1      43.660  26.178  29.967  1.00  0.00    -0.354 N 
ATOM     44  C   UNL A   1      39.713  26.714  27.933  1.00  0.00     0.074 A 
ATOM     45  C   UNL A   1      39.190  25.492  28.482  1.00  0.00     0.031 C 
ATOM     46  C   UNL A   1      45.321  24.897  30.730  1.00  0.00     0.029 A 
ATOM     47  C   UNL A   1      44.607  26.133  30.988  1.00  0.00     0.049 A 
ATOM     48  H   UNL A   1      43.064  26.949  29.829  1.00  0.00     0.167 HD
ATOM     49  C   UNL A   1      39.248  27.996  27.966  1.00  0.00     0.034 A 
ATOM     50  C   UNL A   1      44.792  27.041  31.985  1.00  0.00     0.034 A 
ATOM     51  C   UNL A   1      40.178  28.892  27.309  1.00  0.00     0.049 A 
ATOM     52  C   UNL A   1      44.175  28.308  31.520  1.00  0.00     0.074 A 
ATOM     53  C   UNL A   1      40.728  28.955  26.041  1.00  0.00     0.029 A 
ATOM     54  N   UNL A   1      41.002  29.663  28.101  1.00  0.00    -0.354 N 
ATOM     55  N   UNL A   1      44.612  28.977  30.487  1.00  0.00    -0.248 NA
ATOM     56  C   UNL A   1      42.786  28.559  31.873  1.00  0.00     0.031 C 
ATOM     57  C   UNL A   1      42.096  29.302  26.256  1.00  0.00     0.029 A 
ATOM     58  C   UNL A   1      42.282  29.527  27.622  1.00  0.00     0.049 A 
ATOM     59  H   UNL A   1      40.723  30.212  28.869  1.00  0.00     0.167 HD
ATOM     60  C   UNL A   1      43.471  29.378  29.807  1.00  0.00     0.074 A 
ATOM     61  C   UNL A   1      42.380  29.181  30.761  1.00  0.00     0.031 C 
ATOM     62  C   UNL A   1      43.476  29.556  28.452  1.00  0.00     0.034 A 
BRANCH  49  63
ATOM     63  C   UNL A   1      38.168  28.513  28.898  1.00  0.00     0.023 A 
ATOM     64  C   UNL A   1      37.235  29.416  28.351  1.00  0.00     0.031 A 
ATOM     65  C   UNL A   1      38.160  28.409  30.307  1.00  0.00     0.131 A 
ATOM     66  C   UNL A   1      36.448  30.238  29.178  1.00  0.00     0.055 A 
ATOM     67  C   UNL A   1      37.325  29.179  31.124  1.00  0.00     0.041 A 
ATOM     68  F   UNL A   1      39.008  27.630  30.987  1.00  0.00    -0.206 F 
ATOM     69  C   UNL A   1      36.489  30.127  30.564  1.00  0.00     0.022 A 
BRANCH  66  70
ATOM     70  S   UNL A   1      35.515  31.585  28.407  1.00  0.00     0.124 S 
ATOM     71  O   UNL A   1      34.714  32.062  29.529  1.00  0.00    -0.237 OA
ATOM     72  O   UNL A   1      36.584  32.468  27.955  1.00  0.00    -0.237 OA
ATOM     73  O   UNL A   1      34.768  30.913  27.347  1.00  0.00    -0.744 OA
ENDBRANCH  66  70
ENDBRANCH  49  63
BRANCH  50  74
ATOM     74  C   UNL A   1      45.148  26.756  33.403  1.00  0.00     0.023 A 
ATOM     75  C   UNL A   1      44.194  26.545  34.420  1.00  0.00     0.031 A 
ATOM     76  C   UNL A   1      46.492  26.452  33.722  1.00  0.00     0.131 A 
ATOM     77  C   UNL A   1      44.599  26.053  35.686  1.00  0.00     0.055 A 
ATOM     78  C   UNL A   1      46.886  25.967  34.971  1.00  0.00     0.041 A 
ATOM     79  F   UNL A   1      47.460  26.541  32.794  1.00  0.00    -0.206 F 
ATOM     80  C   UNL A   1      45.938  25.758  35.958  1.00  0.00     0.022 A 
BRANCH  77  81
ATOM     81  S   UNL A   1      43.368  25.717  36.992  1.00  0.00     0.124 S 
ATOM     82  O   UNL A   1      42.159  25.452  36.222  1.00  0.00    -0.237 OA
ATOM     83  O   UNL A   1      43.957  24.579  37.689  1.00  0.00    -0.237 OA
ATOM     84  O   UNL A   1      43.340  26.959  37.765  1.00  0.00    -0.744 OA
ENDBRANCH  77  81
ENDBRANCH  50  74
BRANCH  62  85
ATOM     85  C   UNL A   1      44.812  29.593  27.728  1.00  0.00     0.023 A 
ATOM     86  C   UNL A   1      45.369  28.525  26.986  1.00  0.00     0.031 A 
ATOM     87  C   UNL A   1      45.486  30.827  27.694  1.00  0.00     0.131 A 
ATOM     88  C   UNL A   1      46.561  28.719  26.256  1.00  0.00     0.055 A 
ATOM     89  C   UNL A   1      46.652  31.020  26.955  1.00  0.00     0.041 A 
ATOM     90  F   UNL A   1      44.995  31.889  28.357  1.00  0.00    -0.206 F 
ATOM     91  C   UNL A   1      47.196  29.964  26.235  1.00  0.00     0.022 A 
BRANCH  88  92
ATOM     92  S   UNL A   1      47.323  27.348  25.324  1.00  0.00     0.124 S 
ATOM     93  O   UNL A   1      47.811  26.454  26.367  1.00  0.00    -0.237 OA
ATOM     94  O   UNL A   1      46.209  26.850  24.524  1.00  0.00    -0.237 OA
ATOM     95  O   UNL A   1      48.377  28.008  24.550  1.00  0.00    -0.744 OA
ENDBRANCH  88  92
ENDBRANCH  62  85
ENDBRANCH  36  37
ENDBRANCH  28  31
ENDBRANCH  26  27
ENDBRANCH  25  26
ENDBRANCH   1  25
TORSDOF 17
ENDMDL
MODEL 2
REMARK VINA RESULT:     -11.7      3.070      8.225
REMARK SMILES C[C@@H]1CCCC[C@@H]1NC(=O)[C@@H](C)n1cc(C(=O)NCCCCNC(=O)c2ccc(-c3c4nc(c(-c5cc(S(=O)(=O)[O-])ccc5F)c5ccc([nH]5)c(-c5cc(S(=O)(=O)[O-])ccc5F)c5nc(c(-c6cc(S(=O)(=O)[O-])ccc6F)c6ccc3[nH]6)C=C5)C=C4)cc2)cn1
REMARK SMILES IDX 20 1 19 2 18 3 16 4 17 5 15 7 13 8 14 9 90 10 89 11 11 12
REMARK SMILES IDX 12 13 9 14 8 15 10 17 7 18 1 19 2 20 3 21 4 22 6 23 5 24
REMARK SMILES IDX 21 25 22 26 23 27 24 28 25 30 26 31 27 32 88 33 28 34 87 35
REMARK SMILES IDX 29 36 30 37 31 38 81 39 32 40 86 41 80 42 82 43 33 44 85 45
REMARK SMILES IDX 79 46 78 47 34 49 66 50 46 51 65 52 47 53 50 54 64 55 83 56
REMARK SMILES IDX 48 57 49 58 63 60 84 61 51 62 35 63 36 64 44 65 37 66 43 67
REMARK SMILES IDX 45 68 42 69 38 70 39 71 40 72 41 73 67 74 68 75 76 76 69 77
REMARK SMILES IDX 75 78 77 79 74 80 70 81 71 82 72 83 73 84 52 85 53 86 61 87
REMARK SMILES IDX 54 88 60 89 62 90 59 91 55 92 56 93 57 94 58 95
REMARK H PARENT 18 6 8 16 23 29 82 48 50 59
REMARK Flexibility Score: inf
ROOT
ATOM      1  C   UNL A   1      32.476  30.726  26.863  1.00  0.00     0.023 C 
ENDROOT
BRANCH   1   2
ATOM      2  C   UNL A   1      32.174  29.824  25.672  1.00  0.00     0.116 C 
BRANCH   2   3
ATOM      3  N   UNL A   1      31.064  30.247  24.846  1.00  0.00    -0.352 N 
ATOM      4  C   UNL A   1      30.445  29.550  23.842  1.00  0.00     0.254 C 
ATOM      5  O   UNL A   1      29.581  30.096  23.158  1.00  0.00    -0.269 OA
ATOM      6  H   UNL A   1      30.709  31.147  25.029  1.00  0.00     0.163 HD
BRANCH   4   7
ATOM      7  C   UNL A   1      30.944  28.233  23.534  1.00  0.00     0.077 A 
ATOM      8  N   UNL A   1      31.488  26.094  23.501  1.00  0.00    -0.260 N 
ATOM      9  C   UNL A   1      30.647  27.002  24.093  1.00  0.00     0.123 A 
ATOM     10  N   UNL A   1      32.338  26.688  22.632  1.00  0.00    -0.180 NA
ATOM     11  C   UNL A   1      31.914  27.948  22.565  1.00  0.00     0.149 A 
BRANCH   8  12
ATOM     12  C   UNL A   1      31.686  24.697  23.891  1.00  0.00     0.193 C 
ATOM     13  C   UNL A   1      30.629  23.751  23.319  1.00  0.00     0.044 C 
BRANCH  12  14
ATOM     14  C   UNL A   1      31.884  24.450  25.389  1.00  0.00     0.244 C 
ATOM     15  N   UNL A   1      33.062  24.033  25.944  1.00  0.00    -0.351 N 
ATOM     16  H   UNL A   1      33.168  24.205  26.908  1.00  0.00     0.163 HD
ATOM     17  O   UNL A   1      30.985  24.759  26.181  1.00  0.00    -0.273 OA
BRANCH  15  18
ATOM     18  C   UNL A   1      34.179  23.369  25.294  1.00  0.00     0.084 C 
ATOM     19  C   UNL A   1      34.466  21.602  27.148  1.00  0.00     0.010 C 
ATOM     20  C   UNL A   1      34.234  21.868  25.653  1.00  0.00     0.008 C 
ATOM     21  C   UNL A   1      35.309  21.168  24.805  1.00  0.00     0.005 C 
ATOM     22  C   UNL A   1      36.664  21.883  24.821  1.00  0.00     0.000 C 
ATOM     23  C   UNL A   1      35.530  24.049  25.510  1.00  0.00     0.025 C 
ATOM     24  C   UNL A   1      36.554  23.389  24.580  1.00  0.00     0.002 C 
ENDBRANCH  15  18
ENDBRANCH  12  14
ENDBRANCH   8  12
ENDBRANCH   4   7
ENDBRANCH   2   3
ENDBRANCH   1   2
BRANCH   1  25
ATOM     25  C   UNL A   1      33.913  30.726  27.397  1.00  0.00     0.023 C 
BRANCH  25  26
ATOM     26  C   UNL A   1      34.553  32.087  27.676  1.00  0.00     0.116 C 
BRANCH  26  27
ATOM     27  N   UNL A   1      34.471  32.522  29.072  1.00  0.00    -0.352 N 
ATOM     28  C   UNL A   1      35.186  32.035  30.161  1.00  0.00     0.251 C 
ATOM     29  H   UNL A   1      33.833  33.248  29.263  1.00  0.00     0.163 HD
ATOM     30  O   UNL A   1      34.758  32.173  31.301  1.00  0.00    -0.269 OA
BRANCH  28  31
ATOM     31  C   UNL A   1      36.487  31.381  29.915  1.00  0.00     0.039 A 
ATOM     32  C   UNL A   1      37.662  32.063  29.614  1.00  0.00     0.014 A 
ATOM     33  C   UNL A   1      36.502  30.001  30.027  1.00  0.00     0.014 A 
ATOM     34  C   UNL A   1      38.855  31.336  29.543  1.00  0.00     0.010 A 
ATOM     35  C   UNL A   1      37.676  29.314  30.150  1.00  0.00     0.010 A 
ATOM     36  C   UNL A   1      38.857  29.960  29.840  1.00  0.00    -0.014 A 
BRANCH  36  37
ATOM     37  C   UNL A   1      40.087  29.184  29.950  1.00  0.00     0.031 A 
ATOM     38  C   UNL A   1      40.447  28.814  31.343  1.00  0.00     0.074 A 
ATOM     39  C   UNL A   1      40.702  28.608  28.891  1.00  0.00     0.049 A 
ATOM     40  N   UNL A   1      41.408  29.288  32.061  1.00  0.00    -0.248 NA
ATOM     41  C   UNL A   1      39.529  27.939  32.091  1.00  0.00     0.031 C 
ATOM     42  C   UNL A   1      40.269  28.579  27.487  1.00  0.00     0.029 A 
ATOM     43  N   UNL A   1      41.804  27.811  28.871  1.00  0.00    -0.354 N 
ATOM     44  C   UNL A   1      41.378  28.577  33.256  1.00  0.00     0.074 A 
ATOM     45  C   UNL A   1      40.082  27.957  33.306  1.00  0.00     0.031 C 
ATOM     46  C   UNL A   1      40.954  27.627  26.815  1.00  0.00     0.029 A 
ATOM     47  C   UNL A   1      42.000  27.115  27.680  1.00  0.00     0.049 A 
ATOM     48  H   UNL A   1      42.416  27.733  29.638  1.00  0.00     0.167 HD
ATOM     49  C   UNL A   1      42.520  28.350  33.967  1.00  0.00     0.034 A 
ATOM     50  C   UNL A   1      42.948  26.174  27.419  1.00  0.00     0.034 A 
ATOM     51  C   UNL A   1      43.589  29.208  33.499  1.00  0.00     0.049 A 
ATOM     52  C   UNL A   1      44.030  26.380  28.414  1.00  0.00     0.074 A 
ATOM     53  C   UNL A   1      43.748  30.577  33.375  1.00  0.00     0.029 A 
ATOM     54  N   UNL A   1      44.546  28.657  32.673  1.00  0.00    -0.354 N 
ATOM     55  N   UNL A   1      44.758  27.463  28.463  1.00  0.00    -0.248 NA
ATOM     56  C   UNL A   1      43.965  25.625  29.656  1.00  0.00     0.031 C 
ATOM     57  C   UNL A   1      44.403  30.755  32.120  1.00  0.00     0.029 A 
ATOM     58  C   UNL A   1      44.696  29.495  31.595  1.00  0.00     0.049 A 
ATOM     59  H   UNL A   1      45.034  27.816  32.829  1.00  0.00     0.167 HD
ATOM     60  C   UNL A   1      44.871  27.761  29.813  1.00  0.00     0.074 A 
ATOM     61  C   UNL A   1      44.452  26.540  30.501  1.00  0.00     0.031 C 
ATOM     62  C   UNL A   1      45.016  29.048  30.248  1.00  0.00     0.034 A 
BRANCH  49  63
ATOM     63  C   UNL A   1      42.798  27.121  34.811  1.00  0.00     0.023 A 
ATOM     64  C   UNL A   1      43.610  26.124  34.236  1.00  0.00     0.031 A 
ATOM     65  C   UNL A   1      42.113  26.743  35.988  1.00  0.00     0.131 A 
ATOM     66  C   UNL A   1      43.622  24.813  34.745  1.00  0.00     0.055 A 
ATOM     67  C   UNL A   1      42.182  25.456  36.532  1.00  0.00     0.041 A 
ATOM     68  F   UNL A   1      41.270  27.555  36.636  1.00  0.00    -0.206 F 
ATOM     69  C   UNL A   1      42.910  24.471  35.890  1.00  0.00     0.022 A 
BRANCH  66  70
ATOM     70  S   UNL A   1      44.434  23.523  33.768  1.00  0.00     0.124 S 
ATOM     71  O   UNL A   1      45.826  23.956  33.813  1.00  0.00    -0.237 OA
ATOM     72  O   UNL A   1      44.106  22.321  34.527  1.00  0.00    -0.237 OA
ATOM     73  O   UNL A   1      43.788  23.633  32.462  1.00  0.00    -0.744 OA
ENDBRANCH  66  70
ENDBRANCH  49  63
BRANCH  50  74
ATOM     74  C   UNL A   1      42.785  24.937  26.606  1.00  0.00     0.023 A 
ATOM     75  C   UNL A   1      43.748  24.476  25.683  1.00  0.00     0.031 A 
ATOM     76  C   UNL A   1      41.732  24.045  26.921  1.00  0.00     0.131 A 
ATOM     77  C   UNL A   1      43.633  23.180  25.121  1.00  0.00     0.055 A 
ATOM     78  C   UNL A   1      41.624  22.770  26.364  1.00  0.00     0.041 A 
ATOM     79  F   UNL A   1      40.815  24.361  27.851  1.00  0.00    -0.206 F 
ATOM     80  C   UNL A   1      42.580  22.328  25.466  1.00  0.00     0.022 A 
BRANCH  77  81
ATOM     81  S   UNL A   1      44.903  22.547  23.973  1.00  0.00     0.124 S 
ATOM     82  O   UNL A   1      45.376  21.350  24.658  1.00  0.00    -0.237 OA
ATOM     83  O   UNL A   1      44.140  22.337  22.749  1.00  0.00    -0.237 OA
ATOM     84  O   UNL A   1      45.878  23.637  23.905  1.00  0.00    -0.744 OA
ENDBRANCH  77  81
ENDBRANCH  50  74
BRANCH  62  85
ATOM     85  C   UNL A   1      45.340  30.128  29.229  1.00  0.00     0.023 A 
ATOM     86  C   UNL A   1      46.637  30.448  28.761  1.00  0.00     0.031 A 
ATOM     87  C   UNL A   1      44.251  30.774  28.615  1.00  0.00     0.131 A 
ATOM     88  C   UNL A   1      46.800  31.389  27.722  1.00  0.00     0.055 A 
ATOM     89  C   UNL A   1      44.416  31.686  27.574  1.00  0.00     0.041 A 
ATOM     90  F   UNL A   1      42.992  30.495  28.995  1.00  0.00    -0.206 F 
ATOM     91  C   UNL A   1      45.692  32.001  27.126  1.00  0.00     0.022 A 
BRANCH  88  92
ATOM     92  S   UNL A   1      48.462  31.851  27.127  1.00  0.00     0.124 S 
ATOM     93  O   UNL A   1      49.132  32.337  28.327  1.00  0.00    -0.237 OA
ATOM     94  O   UNL A   1      48.963  30.594  26.579  1.00  0.00    -0.237 OA
ATOM     95  O   UNL A   1      48.190  32.883  26.125  1.00  0.00    -0.744 OA
ENDBRANCH  88  92
ENDBRANCH  62  85
ENDBRANCH  36  37
ENDBRANCH  28  31
ENDBRANCH  26  27
ENDBRANCH  25  26
ENDBRANCH   1  25
TORSDOF 17
ENDMDL
MODEL 3
REMARK VINA RESULT:     -11.5      2.505      7.059
REMARK SMILES C[C@@H]1CCCC[C@@H]1NC(=O)[C@@H](C)n1cc(C(=O)NCCCCNC(=O)c2ccc(-c3c4nc(c(-c5cc(S(=O)(=O)[O-])ccc5F)c5ccc([nH]5)c(-c5cc(S(=O)(=O)[O-])ccc5F)c5nc(c(-c6cc(S(=O)(=O)[O-])ccc6F)c6ccc3[nH]6)C=C5)C=C4)cc2)cn1
REMARK SMILES IDX 20 1 19 2 18 3 16 4 17 5 15 7 13 8 14 9 90 10 89 11 11 12
REMARK SMILES IDX 12 13 9 14 8 15 10 17 7 18 1 19 2 20 3 21 4 22 6 23 5 24
REMARK SMILES IDX 21 25 22 26 23 27 24 28 25 30 26 31 27 32 88 33 28 34 87 35
REMARK SMILES IDX 29 36 30 37 31 38 81 39 32 40 86 41 80 42 82 43 33 44 85 45
REMARK SMILES IDX 79 46 78 47 34 49 66 50 46 51 65 52 47 53 50 54 64 55 83 56
REMARK SMILES IDX 48 57 49 58 63 60 84 61 51 62 35 63 36 64 44 65 37 66 43 67
REMARK SMILES IDX 45 68 42 69 38 70 39 71 40 72 41 73 67 74 68 75 76 76 69 77
REMARK SMILES IDX 75 78 77 79 74 80 70 81 71 82 72 83 73 84 52 85 53 86 61 87
REMARK SMILES IDX 54 88 60 89 62 90 59 91 55 92 56 93 57 94 58 95
REMARK H PARENT 18 6 8 16 23 29 82 48 50 59
REMARK Flexibility Score: inf
ROOT
ATOM      1  C   UNL A   1      40.895  20.492  26.753  1.00  0.00     0.023 C 
ENDROOT
BRANCH   1   2
ATOM      2  C   UNL A   1      39.648  21.119  26.139  1.00  0.00     0.116 C 
BRANCH   2   3
ATOM      3  N   UNL A   1      39.578  22.561  26.225  1.00  0.00    -0.352 N 
ATOM      4  C   UNL A   1      38.473  23.362  26.103  1.00  0.00     0.254 C 
ATOM      5  O   UNL A   1      38.599  24.585  26.092  1.00  0.00    -0.269 OA
ATOM      6  H   UNL A   1      40.430  23.024  26.393  1.00  0.00     0.163 HD
BRANCH   4   7
ATOM      7  C   UNL A   1      37.207  22.722  25.842  1.00  0.00     0.077 A 
ATOM      8  N   UNL A   1      35.172  21.873  25.921  1.00  0.00    -0.260 N 
ATOM      9  C   UNL A   1      36.022  22.742  26.557  1.00  0.00     0.123 A 
ATOM     10  N   UNL A   1      35.767  21.263  24.871  1.00  0.00    -0.180 NA
ATOM     11  C   UNL A   1      36.942  21.877  24.757  1.00  0.00     0.149 A 
BRANCH   8  12
ATOM     12  C   UNL A   1      33.868  21.410  26.404  1.00  0.00     0.193 C 
ATOM     13  C   UNL A   1      33.027  20.729  25.323  1.00  0.00     0.044 C 
BRANCH  12  14
ATOM     14  C   UNL A   1      33.040  22.447  27.167  1.00  0.00     0.244 C 
ATOM     15  N   UNL A   1      32.456  23.537  26.582  1.00  0.00    -0.351 N 
ATOM     16  H   UNL A   1      31.714  23.947  27.082  1.00  0.00     0.163 HD
ATOM     17  O   UNL A   1      32.758  22.247  28.355  1.00  0.00    -0.273 OA
BRANCH  15  18
ATOM     18  C   UNL A   1      32.791  24.167  25.316  1.00  0.00     0.084 C 
ATOM     19  C   UNL A   1      32.423  26.565  26.184  1.00  0.00     0.010 C 
ATOM     20  C   UNL A   1      33.392  25.573  25.523  1.00  0.00     0.008 C 
ATOM     21  C   UNL A   1      33.901  26.126  24.181  1.00  0.00     0.005 C 
ATOM     22  C   UNL A   1      32.874  26.027  23.048  1.00  0.00     0.000 C 
ATOM     23  C   UNL A   1      31.649  24.188  24.301  1.00  0.00     0.025 C 
ATOM     24  C   UNL A   1      32.213  24.651  22.953  1.00  0.00     0.002 C 
ENDBRANCH  15  18
ENDBRANCH  12  14
ENDBRANCH   8  12
ENDBRANCH   4   7
ENDBRANCH   2   3
ENDBRANCH   1   2
BRANCH   1  25
ATOM     25  C   UNL A   1      41.640  19.446  25.916  1.00  0.00     0.023 C 
BRANCH  25  26
ATOM     26  C   UNL A   1      43.084  19.137  26.312  1.00  0.00     0.116 C 
BRANCH  26  27
ATOM     27  N   UNL A   1      44.027  19.097  25.191  1.00  0.00    -0.352 N 
ATOM     28  C   UNL A   1      44.468  20.159  24.409  1.00  0.00     0.251 C 
ATOM     29  H   UNL A   1      44.393  18.211  24.964  1.00  0.00     0.163 HD
ATOM     30  O   UNL A   1      44.910  19.963  23.283  1.00  0.00    -0.269 OA
BRANCH  28  31
ATOM     31  C   UNL A   1      44.423  21.520  24.978  1.00  0.00     0.039 A 
ATOM     32  C   UNL A   1      43.457  22.471  24.660  1.00  0.00     0.014 A 
ATOM     33  C   UNL A   1      45.407  21.822  25.905  1.00  0.00     0.014 A 
ATOM     34  C   UNL A   1      43.445  23.673  25.376  1.00  0.00     0.010 A 
ATOM     35  C   UNL A   1      45.289  22.900  26.735  1.00  0.00     0.010 A 
ATOM     36  C   UNL A   1      44.352  23.870  26.433  1.00  0.00    -0.014 A 
BRANCH  36  37
ATOM     37  C   UNL A   1      44.280  25.024  27.324  1.00  0.00     0.031 A 
ATOM     38  C   UNL A   1      45.419  25.966  27.186  1.00  0.00     0.074 A 
ATOM     39  C   UNL A   1      43.166  25.366  28.010  1.00  0.00     0.049 A 
ATOM     40  N   UNL A   1      46.388  26.161  28.017  1.00  0.00    -0.248 NA
ATOM     41  C   UNL A   1      45.603  26.655  25.897  1.00  0.00     0.031 C 
ATOM     42  C   UNL A   1      41.839  24.736  27.972  1.00  0.00     0.029 A 
ATOM     43  N   UNL A   1      42.952  26.444  28.811  1.00  0.00    -0.354 N 
ATOM     44  C   UNL A   1      47.155  27.187  27.475  1.00  0.00     0.074 A 
ATOM     45  C   UNL A   1      46.771  27.271  26.092  1.00  0.00     0.031 C 
ATOM     46  C   UNL A   1      40.921  25.566  28.515  1.00  0.00     0.029 A 
ATOM     47  C   UNL A   1      41.614  26.693  29.111  1.00  0.00     0.049 A 
ATOM     48  H   UNL A   1      43.685  27.005  29.152  1.00  0.00     0.167 HD
ATOM     49  C   UNL A   1      47.843  28.048  28.279  1.00  0.00     0.034 A 
ATOM     50  C   UNL A   1      41.103  27.754  29.793  1.00  0.00     0.034 A 
ATOM     51  C   UNL A   1      47.923  27.528  29.630  1.00  0.00     0.049 A 
ATOM     52  C   UNL A   1      42.221  28.321  30.587  1.00  0.00     0.074 A 
ATOM     53  C   UNL A   1      48.411  26.362  30.191  1.00  0.00     0.029 A 
ATOM     54  N   UNL A   1      47.071  28.057  30.577  1.00  0.00    -0.354 N 
ATOM     55  N   UNL A   1      42.817  27.668  31.549  1.00  0.00    -0.248 NA
ATOM     56  C   UNL A   1      43.008  29.390  29.990  1.00  0.00     0.031 C 
ATOM     57  C   UNL A   1      47.445  26.000  31.176  1.00  0.00     0.029 A 
ATOM     58  C   UNL A   1      46.478  27.006  31.233  1.00  0.00     0.049 A 
ATOM     59  H   UNL A   1      46.918  29.014  30.752  1.00  0.00     0.167 HD
ATOM     60  C   UNL A   1      44.168  27.932  31.381  1.00  0.00     0.074 A 
ATOM     61  C   UNL A   1      44.216  29.076  30.472  1.00  0.00     0.031 C 
ATOM     62  C   UNL A   1      45.122  27.028  31.759  1.00  0.00     0.034 A 
BRANCH  49  63
ATOM     63  C   UNL A   1      48.115  29.507  27.970  1.00  0.00     0.023 A 
ATOM     64  C   UNL A   1      46.994  30.337  27.773  1.00  0.00     0.031 A 
ATOM     65  C   UNL A   1      49.357  30.063  27.588  1.00  0.00     0.131 A 
ATOM     66  C   UNL A   1      47.113  31.577  27.120  1.00  0.00     0.055 A 
ATOM     67  C   UNL A   1      49.479  31.328  27.002  1.00  0.00     0.041 A 
ATOM     68  F   UNL A   1      50.512  29.395  27.670  1.00  0.00    -0.206 F 
ATOM     69  C   UNL A   1      48.350  32.078  26.731  1.00  0.00     0.022 A 
BRANCH  66  70
ATOM     70  S   UNL A   1      45.596  32.431  26.622  1.00  0.00     0.124 S 
ATOM     71  O   UNL A   1      44.744  31.310  26.237  1.00  0.00    -0.237 OA
ATOM     72  O   UNL A   1      45.229  33.129  27.848  1.00  0.00    -0.237 OA
ATOM     73  O   UNL A   1      46.036  33.286  25.523  1.00  0.00    -0.744 OA
ENDBRANCH  66  70
ENDBRANCH  49  63
BRANCH  50  74
ATOM     74  C   UNL A   1      39.830  28.473  29.512  1.00  0.00     0.023 A 
ATOM     75  C   UNL A   1      38.981  28.981  30.518  1.00  0.00     0.031 A 
ATOM     76  C   UNL A   1      39.552  28.878  28.184  1.00  0.00     0.131 A 
ATOM     77  C   UNL A   1      37.914  29.850  30.178  1.00  0.00     0.055 A 
ATOM     78  C   UNL A   1      38.500  29.734  27.856  1.00  0.00     0.041 A 
ATOM     79  F   UNL A   1      40.353  28.514  27.170  1.00  0.00    -0.206 F 
ATOM     80  C   UNL A   1      37.679  30.231  28.854  1.00  0.00     0.022 A 
BRANCH  77  81
ATOM     81  S   UNL A   1      36.846  30.564  31.475  1.00  0.00     0.124 S 
ATOM     82  O   UNL A   1      35.723  31.085  30.705  1.00  0.00    -0.237 OA
ATOM     83  O   UNL A   1      36.572  29.409  32.322  1.00  0.00    -0.237 OA
ATOM     84  O   UNL A   1      37.691  31.587  32.091  1.00  0.00    -0.744 OA
ENDBRANCH  77  81
ENDBRANCH  50  74
BRANCH  62  85
ATOM     85  C   UNL A   1      44.706  25.853  32.628  1.00  0.00     0.023 A 
ATOM     86  C   UNL A   1      44.404  25.923  34.008  1.00  0.00     0.031 A 
ATOM     87  C   UNL A   1      44.487  24.624  31.978  1.00  0.00     0.131 A 
ATOM     88  C   UNL A   1      43.910  24.785  34.682  1.00  0.00     0.055 A 
ATOM     89  C   UNL A   1      43.980  23.509  32.642  1.00  0.00     0.041 A 
ATOM     90  F   UNL A   1      44.730  24.498  30.662  1.00  0.00    -0.206 F 
ATOM     91  C   UNL A   1      43.693  23.584  34.000  1.00  0.00     0.022 A 
BRANCH  88  92
ATOM     92  S   UNL A   1      43.551  24.836  36.470  1.00  0.00     0.124 S 
ATOM     93  O   UNL A   1      44.542  23.933  37.044  1.00  0.00    -0.237 OA
ATOM     94  O   UNL A   1      43.716  26.252  36.787  1.00  0.00    -0.237 OA
ATOM     95  O   UNL A   1      42.171  24.354  36.554  1.00  0.00    -0.744 OA
ENDBRANCH  88  92
ENDBRANCH  62  85
ENDBRANCH  36  37
ENDBRANCH  28  31
ENDBRANCH  26  27
ENDBRANCH  25  26
ENDBRANCH   1  25
TORSDOF 17
ENDMDL
