MODEL 1
REMARK VINA RESULT:     -12.8      0.000      0.000
REMARK SMILES C[C@H]1[C@@H](C(=O)NCCCCNC(=O)c2ccc(-c3c4nc(c(-c5cc(S(=O)(=O)[O-])ccc5F)c5ccc([nH]5)c(-c5cc(S(=O)(=O)[O-])ccc5F)c5nc(c(-c6cc(S(=O)(=O)[O-])ccc6F)c6ccc3[nH]6)C=C5)C=C4)cc2)CCN1C(=O)c1cc2cc(F)ccc2s1
REMARK SMILES IDX 9 1 8 2 7 3 6 4 4 5 5 6 3 8 1 9 2 10 79 11 77 12 78 13 80 14
REMARK SMILES IDX 81 15 82 16 83 17 91 18 84 19 90 20 85 21 89 22 86 23 88 24
REMARK SMILES IDX 87 25 10 26 11 27 12 28 13 30 14 31 15 32 76 33 16 34 75 35
REMARK SMILES IDX 17 36 18 37 19 38 69 39 20 40 74 41 68 42 70 43 21 44 73 45
REMARK SMILES IDX 67 46 66 47 22 49 54 50 34 51 53 52 35 53 38 54 52 55 71 56
REMARK SMILES IDX 36 57 37 58 51 60 72 61 39 62 23 63 24 64 32 65 25 66 31 67
REMARK SMILES IDX 33 68 30 69 26 70 27 71 28 72 29 73 55 74 56 75 64 76 57 77
REMARK SMILES IDX 63 78 65 79 62 80 58 81 59 82 60 83 61 84 40 85 41 86 49 87
REMARK SMILES IDX 42 88 48 89 50 90 47 91 43 92 44 93 45 94 46 95
REMARK H PARENT 6 7 11 29 70 48 38 59
REMARK Flexibility Score: inf
ROOT
ATOM      1  C   UNL A   1      36.677  20.934  25.026  1.00  0.00     0.023 C 
ENDROOT
BRANCH   1   2
ATOM      2  C   UNL A   1      35.508  21.906  24.985  1.00  0.00     0.023 C 
BRANCH   2   3
ATOM      3  C   UNL A   1      35.196  22.590  26.318  1.00  0.00     0.116 C 
BRANCH   3   4
ATOM      4  N   UNL A   1      33.824  23.034  26.293  1.00  0.00    -0.356 N 
ATOM      5  C   UNL A   1      33.313  24.278  26.104  1.00  0.00     0.225 C 
ATOM      6  O   UNL A   1      32.137  24.427  26.448  1.00  0.00    -0.275 OA
ATOM      7  H   UNL A   1      33.155  22.326  26.436  1.00  0.00     0.163 HD
BRANCH   5   8
ATOM      8  C   UNL A   1      34.098  25.375  25.365  1.00  0.00     0.102 C 
ATOM      9  C   UNL A   1      33.281  27.562  26.630  1.00  0.00     0.032 C 
ATOM     10  C   UNL A   1      33.630  26.850  25.344  1.00  0.00     0.094 C 
ATOM     11  N   UNL A   1      32.601  26.922  24.304  1.00  0.00    -0.334 N 
ATOM     12  C   UNL A   1      33.984  25.072  23.853  1.00  0.00     0.037 C 
ATOM     13  C   UNL A   1      32.647  25.713  23.495  1.00  0.00     0.121 C 
BRANCH  11  14
ATOM     14  C   UNL A   1      32.350  28.122  23.654  1.00  0.00     0.264 C 
ATOM     15  O   UNL A   1      33.220  28.671  22.978  1.00  0.00    -0.268 OA
BRANCH  14  16
ATOM     16  C   UNL A   1      31.018  28.683  23.733  1.00  0.00     0.093 A 
ATOM     17  C   UNL A   1      30.636  29.786  24.467  1.00  0.00     0.034 A 
ATOM     18  S   UNL A   1      29.821  28.265  22.591  1.00  0.00    -0.130 S 
ATOM     19  C   UNL A   1      29.705  30.581  23.720  1.00  0.00    -0.004 A 
ATOM     20  C   UNL A   1      29.217  29.884  22.609  1.00  0.00     0.035 A 
ATOM     21  C   UNL A   1      29.354  31.940  23.872  1.00  0.00     0.048 A 
ATOM     22  C   UNL A   1      28.400  30.503  21.645  1.00  0.00     0.022 A 
ATOM     23  C   UNL A   1      28.630  32.572  22.866  1.00  0.00     0.123 A 
ATOM     24  C   UNL A   1      28.162  31.874  21.764  1.00  0.00     0.041 A 
ATOM     25  F   UNL A   1      28.429  33.894  22.940  1.00  0.00    -0.207 F 
ENDBRANCH  14  16
ENDBRANCH  11  14
ENDBRANCH   5   8
ENDBRANCH   3   4
ENDBRANCH   2   3
ENDBRANCH   1   2
BRANCH   1  26
ATOM     26  C   UNL A   1      38.002  21.593  25.359  1.00  0.00     0.116 C 
BRANCH  26  27
ATOM     27  N   UNL A   1      39.038  20.651  25.767  1.00  0.00    -0.352 N 
ATOM     28  C   UNL A   1      40.155  20.895  26.539  1.00  0.00     0.251 C 
ATOM     29  H   UNL A   1      38.926  19.724  25.452  1.00  0.00     0.163 HD
ATOM     30  O   UNL A   1      40.981  20.020  26.736  1.00  0.00    -0.269 OA
BRANCH  28  31
ATOM     31  C   UNL A   1      40.344  22.263  27.062  1.00  0.00     0.039 A 
ATOM     32  C   UNL A   1      41.236  22.467  28.115  1.00  0.00     0.014 A 
ATOM     33  C   UNL A   1      39.747  23.344  26.409  1.00  0.00     0.014 A 
ATOM     34  C   UNL A   1      41.602  23.770  28.453  1.00  0.00     0.010 A 
ATOM     35  C   UNL A   1      40.197  24.629  26.674  1.00  0.00     0.010 A 
ATOM     36  C   UNL A   1      41.127  24.857  27.700  1.00  0.00    -0.014 A 
BRANCH  36  37
ATOM     37  C   UNL A   1      41.570  26.247  27.973  1.00  0.00     0.031 A 
ATOM     38  C   UNL A   1      42.960  26.668  27.578  1.00  0.00     0.074 A 
ATOM     39  C   UNL A   1      40.768  27.092  28.650  1.00  0.00     0.049 A 
ATOM     40  N   UNL A   1      43.594  27.784  27.830  1.00  0.00    -0.248 NA
ATOM     41  C   UNL A   1      43.761  25.676  26.845  1.00  0.00     0.031 C 
ATOM     42  C   UNL A   1      39.424  26.776  29.144  1.00  0.00     0.029 A 
ATOM     43  N   UNL A   1      40.967  28.391  29.048  1.00  0.00    -0.354 N 
ATOM     44  C   UNL A   1      44.874  27.613  27.317  1.00  0.00     0.074 A 
ATOM     45  C   UNL A   1      44.948  26.260  26.812  1.00  0.00     0.031 C 
ATOM     46  C   UNL A   1      38.910  27.860  29.749  1.00  0.00     0.029 A 
ATOM     47  C   UNL A   1      39.898  28.934  29.725  1.00  0.00     0.049 A 
ATOM     48  H   UNL A   1      41.797  28.886  28.867  1.00  0.00     0.167 HD
ATOM     49  C   UNL A   1      45.886  28.512  27.243  1.00  0.00     0.034 A 
ATOM     50  C   UNL A   1      39.738  30.156  30.266  1.00  0.00     0.034 A 
ATOM     51  C   UNL A   1      45.777  29.870  27.713  1.00  0.00     0.049 A 
ATOM     52  C   UNL A   1      40.864  31.153  30.146  1.00  0.00     0.074 A 
ATOM     53  C   UNL A   1      46.706  30.891  27.628  1.00  0.00     0.029 A 
ATOM     54  N   UNL A   1      44.664  30.398  28.356  1.00  0.00    -0.354 N 
ATOM     55  N   UNL A   1      42.052  30.994  29.608  1.00  0.00    -0.248 NA
ATOM     56  C   UNL A   1      40.623  32.493  30.692  1.00  0.00     0.031 C 
ATOM     57  C   UNL A   1      46.175  32.020  28.262  1.00  0.00     0.029 A 
ATOM     58  C   UNL A   1      44.889  31.724  28.688  1.00  0.00     0.049 A 
ATOM     59  H   UNL A   1      43.835  29.902  28.547  1.00  0.00     0.167 HD
ATOM     60  C   UNL A   1      42.689  32.227  29.728  1.00  0.00     0.074 A 
ATOM     61  C   UNL A   1      41.747  33.118  30.374  1.00  0.00     0.031 C 
ATOM     62  C   UNL A   1      43.936  32.591  29.338  1.00  0.00     0.034 A 
BRANCH  49  63
ATOM     63  C   UNL A   1      47.188  28.039  26.642  1.00  0.00     0.023 A 
ATOM     64  C   UNL A   1      47.406  28.052  25.253  1.00  0.00     0.031 A 
ATOM     65  C   UNL A   1      48.203  27.514  27.460  1.00  0.00     0.131 A 
ATOM     66  C   UNL A   1      48.560  27.462  24.718  1.00  0.00     0.055 A 
ATOM     67  C   UNL A   1      49.392  27.012  26.926  1.00  0.00     0.041 A 
ATOM     68  F   UNL A   1      48.048  27.455  28.792  1.00  0.00    -0.206 F 
ATOM     69  C   UNL A   1      49.568  26.966  25.546  1.00  0.00     0.022 A 
BRANCH  66  70
ATOM     70  S   UNL A   1      48.645  27.205  22.925  1.00  0.00     0.124 S 
ATOM     71  O   UNL A   1      48.286  25.792  22.814  1.00  0.00    -0.237 OA
ATOM     72  O   UNL A   1      47.660  28.155  22.421  1.00  0.00    -0.237 OA
ATOM     73  O   UNL A   1      50.035  27.515  22.599  1.00  0.00    -0.744 OA
ENDBRANCH  66  70
ENDBRANCH  49  63
BRANCH  50  74
ATOM     74  C   UNL A   1      38.471  30.520  30.962  1.00  0.00     0.023 A 
ATOM     75  C   UNL A   1      37.486  31.280  30.314  1.00  0.00     0.031 A 
ATOM     76  C   UNL A   1      38.243  30.146  32.297  1.00  0.00     0.131 A 
ATOM     77  C   UNL A   1      36.338  31.683  31.013  1.00  0.00     0.055 A 
ATOM     78  C   UNL A   1      37.077  30.509  32.976  1.00  0.00     0.041 A 
ATOM     79  F   UNL A   1      39.149  29.409  32.960  1.00  0.00    -0.206 F 
ATOM     80  C   UNL A   1      36.122  31.293  32.338  1.00  0.00     0.022 A 
BRANCH  77  81
ATOM     81  S   UNL A   1      35.162  32.792  30.189  1.00  0.00     0.124 S 
ATOM     82  O   UNL A   1      36.031  33.880  29.758  1.00  0.00    -0.237 OA
ATOM     83  O   UNL A   1      34.631  31.937  29.133  1.00  0.00    -0.237 OA
ATOM     84  O   UNL A   1      34.214  33.131  31.249  1.00  0.00    -0.744 OA
ENDBRANCH  77  81
ENDBRANCH  50  74
BRANCH  62  85
ATOM     85  C   UNL A   1      44.328  34.029  29.564  1.00  0.00     0.023 A 
ATOM     86  C   UNL A   1      44.091  35.019  28.595  1.00  0.00     0.031 A 
ATOM     87  C   UNL A   1      44.953  34.409  30.764  1.00  0.00     0.131 A 
ATOM     88  C   UNL A   1      44.525  36.332  28.821  1.00  0.00     0.055 A 
ATOM     89  C   UNL A   1      45.333  35.729  31.007  1.00  0.00     0.041 A 
ATOM     90  F   UNL A   1      45.203  33.502  31.722  1.00  0.00    -0.206 F 
ATOM     91  C   UNL A   1      45.131  36.697  30.027  1.00  0.00     0.022 A 
BRANCH  88  92
ATOM     92  S   UNL A   1      44.360  37.546  27.484  1.00  0.00     0.124 S 
ATOM     93  O   UNL A   1      45.638  37.411  26.792  1.00  0.00    -0.237 OA
ATOM     94  O   UNL A   1      43.190  37.057  26.761  1.00  0.00    -0.237 OA
ATOM     95  O   UNL A   1      44.168  38.811  28.189  1.00  0.00    -0.744 OA
ENDBRANCH  88  92
ENDBRANCH  62  85
ENDBRANCH  36  37
ENDBRANCH  28  31
ENDBRANCH  26  27
ENDBRANCH   1  26
TORSDOF 16
ENDMDL
MODEL 2
REMARK VINA RESULT:     -12.7      5.634      9.171
REMARK SMILES C[C@H]1[C@@H](C(=O)NCCCCNC(=O)c2ccc(-c3c4nc(c(-c5cc(S(=O)(=O)[O-])ccc5F)c5ccc([nH]5)c(-c5cc(S(=O)(=O)[O-])ccc5F)c5nc(c(-c6cc(S(=O)(=O)[O-])ccc6F)c6ccc3[nH]6)C=C5)C=C4)cc2)CCN1C(=O)c1cc2cc(F)ccc2s1
REMARK SMILES IDX 9 1 8 2 7 3 6 4 4 5 5 6 3 8 1 9 2 10 79 11 77 12 78 13 80 14
REMARK SMILES IDX 81 15 82 16 83 17 91 18 84 19 90 20 85 21 89 22 86 23 88 24
REMARK SMILES IDX 87 25 10 26 11 27 12 28 13 30 14 31 15 32 76 33 16 34 75 35
REMARK SMILES IDX 17 36 18 37 19 38 69 39 20 40 74 41 68 42 70 43 21 44 73 45
REMARK SMILES IDX 67 46 66 47 22 49 54 50 34 51 53 52 35 53 38 54 52 55 71 56
REMARK SMILES IDX 36 57 37 58 51 60 72 61 39 62 23 63 24 64 32 65 25 66 31 67
REMARK SMILES IDX 33 68 30 69 26 70 27 71 28 72 29 73 55 74 56 75 64 76 57 77
REMARK SMILES IDX 63 78 65 79 62 80 58 81 59 82 60 83 61 84 40 85 41 86 49 87
REMARK SMILES IDX 42 88 48 89 50 90 47 91 43 92 44 93 45 94 46 95
REMARK H PARENT 6 7 11 29 70 48 38 59
REMARK Flexibility Score: inf
ROOT
ATOM      1  C   UNL A   1      31.595  32.321  26.623  1.00  0.00     0.023 C 
ENDROOT
BRANCH   1   2
ATOM      2  C   UNL A   1      31.589  30.810  26.791  1.00  0.00     0.023 C 
BRANCH   2   3
ATOM      3  C   UNL A   1      32.975  30.171  26.893  1.00  0.00     0.116 C 
BRANCH   3   4
ATOM      4  N   UNL A   1      33.387  29.759  25.574  1.00  0.00    -0.356 N 
ATOM      5  C   UNL A   1      33.207  28.575  24.934  1.00  0.00     0.225 C 
ATOM      6  O   UNL A   1      33.931  28.386  23.952  1.00  0.00    -0.275 OA
ATOM      7  H   UNL A   1      33.875  30.441  25.058  1.00  0.00     0.163 HD
BRANCH   5   8
ATOM      8  C   UNL A   1      32.068  27.612  25.312  1.00  0.00     0.102 C 
ATOM      9  C   UNL A   1      33.411  25.390  25.868  1.00  0.00     0.032 C 
ATOM     10  C   UNL A   1      32.227  26.075  25.226  1.00  0.00     0.094 C 
ATOM     11  N   UNL A   1      32.011  25.736  23.818  1.00  0.00    -0.334 N 
ATOM     12  C   UNL A   1      30.954  27.791  24.256  1.00  0.00     0.037 C 
ATOM     13  C   UNL A   1      31.425  26.877  23.131  1.00  0.00     0.121 C 
BRANCH  11  14
ATOM     14  C   UNL A   1      31.559  24.471  23.467  1.00  0.00     0.264 C 
ATOM     15  O   UNL A   1      30.357  24.244  23.330  1.00  0.00    -0.268 OA
BRANCH  14  16
ATOM     16  C   UNL A   1      32.536  23.439  23.200  1.00  0.00     0.093 A 
ATOM     17  C   UNL A   1      33.825  23.629  22.745  1.00  0.00     0.034 A 
ATOM     18  S   UNL A   1      32.331  21.856  23.805  1.00  0.00    -0.130 S 
ATOM     19  C   UNL A   1      34.724  22.733  23.411  1.00  0.00    -0.004 A 
ATOM     20  C   UNL A   1      34.029  21.730  24.097  1.00  0.00     0.035 A 
ATOM     21  C   UNL A   1      36.125  22.815  23.573  1.00  0.00     0.048 A 
ATOM     22  C   UNL A   1      34.686  20.818  24.944  1.00  0.00     0.022 A 
ATOM     23  C   UNL A   1      36.753  21.975  24.486  1.00  0.00     0.123 A 
ATOM     24  C   UNL A   1      36.053  20.993  25.169  1.00  0.00     0.041 A 
ATOM     25  F   UNL A   1      38.055  22.157  24.749  1.00  0.00    -0.207 F 
ENDBRANCH  14  16
ENDBRANCH  11  14
ENDBRANCH   5   8
ENDBRANCH   3   4
ENDBRANCH   2   3
ENDBRANCH   1   2
BRANCH   1  26
ATOM     26  C   UNL A   1      32.872  32.980  27.107  1.00  0.00     0.116 C 
BRANCH  26  27
ATOM     27  N   UNL A   1      32.648  34.196  27.880  1.00  0.00    -0.352 N 
ATOM     28  C   UNL A   1      33.369  34.665  28.957  1.00  0.00     0.251 C 
ATOM     29  H   UNL A   1      31.885  34.752  27.597  1.00  0.00     0.163 HD
ATOM     30  O   UNL A   1      33.015  35.666  29.557  1.00  0.00    -0.269 OA
BRANCH  28  31
ATOM     31  C   UNL A   1      34.542  33.882  29.394  1.00  0.00     0.039 A 
ATOM     32  C   UNL A   1      35.821  34.352  29.092  1.00  0.00     0.014 A 
ATOM     33  C   UNL A   1      34.365  32.770  30.220  1.00  0.00     0.014 A 
ATOM     34  C   UNL A   1      36.926  33.757  29.701  1.00  0.00     0.010 A 
ATOM     35  C   UNL A   1      35.454  32.254  30.906  1.00  0.00     0.010 A 
ATOM     36  C   UNL A   1      36.747  32.739  30.653  1.00  0.00    -0.014 A 
BRANCH  36  37
ATOM     37  C   UNL A   1      37.894  32.149  31.389  1.00  0.00     0.031 A 
ATOM     38  C   UNL A   1      38.682  31.036  30.753  1.00  0.00     0.074 A 
ATOM     39  C   UNL A   1      38.165  32.545  32.648  1.00  0.00     0.049 A 
ATOM     40  N   UNL A   1      39.633  30.297  31.261  1.00  0.00    -0.248 NA
ATOM     41  C   UNL A   1      38.310  30.673  29.377  1.00  0.00     0.031 C 
ATOM     42  C   UNL A   1      37.428  33.569  33.395  1.00  0.00     0.029 A 
ATOM     43  N   UNL A   1      39.130  32.128  33.530  1.00  0.00    -0.354 N 
ATOM     44  C   UNL A   1      39.948  29.363  30.281  1.00  0.00     0.074 A 
ATOM     45  C   UNL A   1      39.032  29.581  29.182  1.00  0.00     0.031 C 
ATOM     46  C   UNL A   1      37.988  33.722  34.606  1.00  0.00     0.029 A 
ATOM     47  C   UNL A   1      39.095  32.781  34.741  1.00  0.00     0.049 A 
ATOM     48  H   UNL A   1      39.786  31.427  33.315  1.00  0.00     0.167 HD
ATOM     49  C   UNL A   1      40.932  28.431  30.280  1.00  0.00     0.034 A 
ATOM     50  C   UNL A   1      39.867  32.633  35.835  1.00  0.00     0.034 A 
ATOM     51  C   UNL A   1      41.863  28.259  31.367  1.00  0.00     0.049 A 
ATOM     52  C   UNL A   1      40.977  31.611  35.803  1.00  0.00     0.074 A 
ATOM     53  C   UNL A   1      42.944  27.400  31.452  1.00  0.00     0.029 A 
ATOM     54  N   UNL A   1      41.823  28.967  32.562  1.00  0.00    -0.354 N 
ATOM     55  N   UNL A   1      41.298  30.771  34.846  1.00  0.00    -0.248 NA
ATOM     56  C   UNL A   1      41.833  31.528  36.992  1.00  0.00     0.031 C 
ATOM     57  C   UNL A   1      43.526  27.552  32.715  1.00  0.00     0.029 A 
ATOM     58  C   UNL A   1      42.848  28.553  33.396  1.00  0.00     0.049 A 
ATOM     59  H   UNL A   1      41.163  29.663  32.784  1.00  0.00     0.167 HD
ATOM     60  C   UNL A   1      42.413  30.079  35.309  1.00  0.00     0.074 A 
ATOM     61  C   UNL A   1      42.715  30.611  36.622  1.00  0.00     0.031 C 
ATOM     62  C   UNL A   1      43.126  29.095  34.704  1.00  0.00     0.034 A 
BRANCH  49  63
ATOM     63  C   UNL A   1      41.031  27.531  29.071  1.00  0.00     0.023 A 
ATOM     64  C   UNL A   1      42.030  27.711  28.099  1.00  0.00     0.031 A 
ATOM     65  C   UNL A   1      40.082  26.517  28.857  1.00  0.00     0.131 A 
ATOM     66  C   UNL A   1      42.000  26.962  26.914  1.00  0.00     0.055 A 
ATOM     67  C   UNL A   1      40.112  25.710  27.717  1.00  0.00     0.041 A 
ATOM     68  F   UNL A   1      39.091  26.308  29.738  1.00  0.00    -0.206 F 
ATOM     69  C   UNL A   1      41.064  25.943  26.727  1.00  0.00     0.022 A 
BRANCH  66  70
ATOM     70  S   UNL A   1      43.097  27.451  25.556  1.00  0.00     0.124 S 
ATOM     71  O   UNL A   1      42.195  28.242  24.720  1.00  0.00    -0.237 OA
ATOM     72  O   UNL A   1      44.144  28.196  26.246  1.00  0.00    -0.237 OA
ATOM     73  O   UNL A   1      43.516  26.177  24.976  1.00  0.00    -0.744 OA
ENDBRANCH  66  70
ENDBRANCH  49  63
BRANCH  50  74
ATOM     74  C   UNL A   1      39.634  33.466  37.048  1.00  0.00     0.023 A 
ATOM     75  C   UNL A   1      38.884  32.975  38.127  1.00  0.00     0.031 A 
ATOM     76  C   UNL A   1      40.126  34.780  37.132  1.00  0.00     0.131 A 
ATOM     77  C   UNL A   1      38.605  33.804  39.224  1.00  0.00     0.055 A 
ATOM     78  C   UNL A   1      39.886  35.588  38.246  1.00  0.00     0.041 A 
ATOM     79  F   UNL A   1      40.859  35.296  36.132  1.00  0.00    -0.206 F 
ATOM     80  C   UNL A   1      39.111  35.105  39.295  1.00  0.00     0.022 A 
BRANCH  77  81
ATOM     81  S   UNL A   1      37.505  33.184  40.526  1.00  0.00     0.124 S 
ATOM     82  O   UNL A   1      37.334  34.368  41.360  1.00  0.00    -0.237 OA
ATOM     83  O   UNL A   1      36.337  32.765  39.759  1.00  0.00    -0.237 OA
ATOM     84  O   UNL A   1      38.272  32.098  41.132  1.00  0.00    -0.744 OA
ENDBRANCH  77  81
ENDBRANCH  50  74
BRANCH  62  85
ATOM     85  C   UNL A   1      44.327  28.569  35.448  1.00  0.00     0.023 A 
ATOM     86  C   UNL A   1      44.209  27.565  36.423  1.00  0.00     0.031 A 
ATOM     87  C   UNL A   1      45.606  29.089  35.179  1.00  0.00     0.131 A 
ATOM     88  C   UNL A   1      45.343  27.147  37.134  1.00  0.00     0.055 A 
ATOM     89  C   UNL A   1      46.739  28.630  35.850  1.00  0.00     0.041 A 
ATOM     90  F   UNL A   1      45.773  30.050  34.257  1.00  0.00    -0.206 F 
ATOM     91  C   UNL A   1      46.610  27.662  36.842  1.00  0.00     0.022 A 
BRANCH  88  92
ATOM     92  S   UNL A   1      45.132  25.977  38.502  1.00  0.00     0.124 S 
ATOM     93  O   UNL A   1      44.050  26.593  39.264  1.00  0.00    -0.237 OA
ATOM     94  O   UNL A   1      44.795  24.740  37.805  1.00  0.00    -0.237 OA
ATOM     95  O   UNL A   1      46.435  25.980  39.163  1.00  0.00    -0.744 OA
ENDBRANCH  88  92
ENDBRANCH  62  85
ENDBRANCH  36  37
ENDBRANCH  28  31
ENDBRANCH  26  27
ENDBRANCH   1  26
TORSDOF 16
ENDMDL
MODEL 3
REMARK VINA RESULT:     -12.7      5.121     10.504
REMARK SMILES C[C@H]1[C@@H](C(=O)NCCCCNC(=O)c2ccc(-c3c4nc(c(-c5cc(S(=O)(=O)[O-])ccc5F)c5ccc([nH]5)c(-c5cc(S(=O)(=O)[O-])ccc5F)c5nc(c(-c6cc(S(=O)(=O)[O-])ccc6F)c6ccc3[nH]6)C=C5)C=C4)cc2)CCN1C(=O)c1cc2cc(F)ccc2s1
REMARK SMILES IDX 9 1 8 2 7 3 6 4 4 5 5 6 3 8 1 9 2 10 79 11 77 12 78 13 80 14
REMARK SMILES IDX 81 15 82 16 83 17 91 18 84 19 90 20 85 21 89 22 86 23 88 24
REMARK SMILES IDX 87 25 10 26 11 27 12 28 13 30 14 31 15 32 76 33 16 34 75 35
REMARK SMILES IDX 17 36 18 37 19 38 69 39 20 40 74 41 68 42 70 43 21 44 73 45
REMARK SMILES IDX 67 46 66 47 22 49 54 50 34 51 53 52 35 53 38 54 52 55 71 56
REMARK SMILES IDX 36 57 37 58 51 60 72 61 39 62 23 63 24 64 32 65 25 66 31 67
REMARK SMILES IDX 33 68 30 69 26 70 27 71 28 72 29 73 55 74 56 75 64 76 57 77
REMARK SMILES IDX 63 78 65 79 62 80 58 81 59 82 60 83 61 84 40 85 41 86 49 87
REMARK SMILES IDX 42 88 48 89 50 90 47 91 43 92 44 93 45 94 46 95
REMARK H PARENT 6 7 11 29 70 48 38 59
REMARK Flexibility Score: inf
ROOT
ATOM      1  C   UNL A   1      32.188  29.521  26.899  1.00  0.00     0.023 C 
ENDROOT
BRANCH   1   2
ATOM      2  C   UNL A   1      32.033  28.594  25.703  1.00  0.00     0.023 C 
BRANCH   2   3
ATOM      3  C   UNL A   1      33.252  28.526  24.783  1.00  0.00     0.116 C 
BRANCH   3   4
ATOM      4  N   UNL A   1      33.099  27.393  23.903  1.00  0.00    -0.356 N 
ATOM      5  C   UNL A   1      33.647  26.153  23.974  1.00  0.00     0.225 C 
ATOM      6  O   UNL A   1      33.603  25.492  22.933  1.00  0.00    -0.275 OA
ATOM      7  H   UNL A   1      32.504  27.542  23.133  1.00  0.00     0.163 HD
BRANCH   5   8
ATOM      8  C   UNL A   1      34.142  25.559  25.304  1.00  0.00     0.102 C 
ATOM      9  C   UNL A   1      35.982  23.837  24.467  1.00  0.00     0.032 C 
ATOM     10  C   UNL A   1      34.827  24.173  25.381  1.00  0.00     0.094 C 
ATOM     11  N   UNL A   1      33.738  23.194  25.379  1.00  0.00    -0.334 N 
ATOM     12  C   UNL A   1      32.889  25.247  26.155  1.00  0.00     0.037 C 
ATOM     13  C   UNL A   1      32.477  23.875  25.633  1.00  0.00     0.121 C 
BRANCH  11  14
ATOM     14  C   UNL A   1      33.923  21.945  25.956  1.00  0.00     0.264 C 
ATOM     15  O   UNL A   1      34.092  21.826  27.169  1.00  0.00    -0.268 OA
BRANCH  14  16
ATOM     16  C   UNL A   1      33.844  20.776  25.106  1.00  0.00     0.093 A 
ATOM     17  C   UNL A   1      34.902  19.996  24.686  1.00  0.00     0.034 A 
ATOM     18  S   UNL A   1      32.357  19.982  24.841  1.00  0.00    -0.130 S 
ATOM     19  C   UNL A   1      34.538  18.610  24.713  1.00  0.00    -0.004 A 
ATOM     20  C   UNL A   1      33.155  18.449  24.859  1.00  0.00     0.035 A 
ATOM     21  C   UNL A   1      35.360  17.462  24.755  1.00  0.00     0.048 A 
ATOM     22  C   UNL A   1      32.572  17.184  25.056  1.00  0.00     0.022 A 
ATOM     23  C   UNL A   1      34.788  16.228  25.048  1.00  0.00     0.123 A 
ATOM     24  C   UNL A   1      33.418  16.083  25.203  1.00  0.00     0.041 A 
ATOM     25  F   UNL A   1      35.587  15.169  25.237  1.00  0.00    -0.207 F 
ENDBRANCH  14  16
ENDBRANCH  11  14
ENDBRANCH   5   8
ENDBRANCH   3   4
ENDBRANCH   2   3
ENDBRANCH   1   2
BRANCH   1  26
ATOM     26  C   UNL A   1      33.536  30.213  26.958  1.00  0.00     0.116 C 
BRANCH  26  27
ATOM     27  N   UNL A   1      33.525  31.453  27.726  1.00  0.00    -0.352 N 
ATOM     28  C   UNL A   1      34.492  31.931  28.586  1.00  0.00     0.251 C 
ATOM     29  H   UNL A   1      32.726  32.020  27.618  1.00  0.00     0.163 HD
ATOM     30  O   UNL A   1      34.310  32.954  29.223  1.00  0.00    -0.269 OA
BRANCH  28  31
ATOM     31  C   UNL A   1      35.721  31.130  28.752  1.00  0.00     0.039 A 
ATOM     32  C   UNL A   1      36.939  31.663  28.327  1.00  0.00     0.014 A 
ATOM     33  C   UNL A   1      35.674  29.925  29.456  1.00  0.00     0.014 A 
ATOM     34  C   UNL A   1      38.125  31.028  28.695  1.00  0.00     0.010 A 
ATOM     35  C   UNL A   1      36.855  29.359  29.912  1.00  0.00     0.010 A 
ATOM     36  C   UNL A   1      38.094  29.902  29.534  1.00  0.00    -0.014 A 
BRANCH  36  37
ATOM     37  C   UNL A   1      39.340  29.257  30.022  1.00  0.00     0.031 A 
ATOM     38  C   UNL A   1      40.043  29.829  31.223  1.00  0.00     0.074 A 
ATOM     39  C   UNL A   1      39.881  28.230  29.338  1.00  0.00     0.049 A 
ATOM     40  N   UNL A   1      41.200  29.506  31.739  1.00  0.00    -0.248 NA
ATOM     41  C   UNL A   1      39.376  30.951  31.900  1.00  0.00     0.031 C 
ATOM     42  C   UNL A   1      39.326  27.632  28.120  1.00  0.00     0.029 A 
ATOM     43  N   UNL A   1      41.026  27.508  29.565  1.00  0.00    -0.354 N 
ATOM     44  C   UNL A   1      41.412  30.406  32.778  1.00  0.00     0.074 A 
ATOM     45  C   UNL A   1      40.302  31.333  32.765  1.00  0.00     0.031 C 
ATOM     46  C   UNL A   1      40.113  26.617  27.728  1.00  0.00     0.029 A 
ATOM     47  C   UNL A   1      41.250  26.516  28.637  1.00  0.00     0.049 A 
ATOM     48  H   UNL A   1      41.631  27.685  30.319  1.00  0.00     0.167 HD
ATOM     49  C   UNL A   1      42.422  30.436  33.682  1.00  0.00     0.034 A 
ATOM     50  C   UNL A   1      42.259  25.630  28.533  1.00  0.00     0.034 A 
ATOM     51  C   UNL A   1      43.496  29.476  33.705  1.00  0.00     0.049 A 
ATOM     52  C   UNL A   1      43.357  25.660  29.567  1.00  0.00     0.074 A 
ATOM     53  C   UNL A   1      44.534  29.361  34.612  1.00  0.00     0.029 A 
ATOM     54  N   UNL A   1      43.667  28.458  32.774  1.00  0.00    -0.354 N 
ATOM     55  N   UNL A   1      43.515  26.483  30.578  1.00  0.00    -0.248 NA
ATOM     56  C   UNL A   1      44.402  24.636  29.453  1.00  0.00     0.031 C 
ATOM     57  C   UNL A   1      45.359  28.308  34.203  1.00  0.00     0.029 A 
ATOM     58  C   UNL A   1      44.802  27.723  33.075  1.00  0.00     0.049 A 
ATOM     59  H   UNL A   1      43.069  28.284  32.012  1.00  0.00     0.167 HD
ATOM     60  C   UNL A   1      44.665  26.056  31.236  1.00  0.00     0.074 A 
ATOM     61  C   UNL A   1      45.148  24.896  30.516  1.00  0.00     0.031 C 
ATOM     62  C   UNL A   1      45.267  26.573  32.338  1.00  0.00     0.034 A 
BRANCH  49  63
ATOM     63  C   UNL A   1      42.403  31.550  34.701  1.00  0.00     0.023 A 
ATOM     64  C   UNL A   1      41.496  31.550  35.776  1.00  0.00     0.031 A 
ATOM     65  C   UNL A   1      43.261  32.656  34.567  1.00  0.00     0.131 A 
ATOM     66  C   UNL A   1      41.399  32.671  36.612  1.00  0.00     0.055 A 
ATOM     67  C   UNL A   1      43.222  33.729  35.460  1.00  0.00     0.041 A 
ATOM     68  F   UNL A   1      44.135  32.725  33.551  1.00  0.00    -0.206 F 
ATOM     69  C   UNL A   1      42.274  33.751  36.479  1.00  0.00     0.022 A 
BRANCH  66  70
ATOM     70  S   UNL A   1      40.004  32.767  37.768  1.00  0.00     0.124 S 
ATOM     71  O   UNL A   1      39.118  31.729  37.244  1.00  0.00    -0.237 OA
ATOM     72  O   UNL A   1      40.635  32.479  39.050  1.00  0.00    -0.237 OA
ATOM     73  O   UNL A   1      39.516  34.134  37.604  1.00  0.00    -0.744 OA
ENDBRANCH  66  70
ENDBRANCH  49  63
BRANCH  50  74
ATOM     74  C   UNL A   1      42.285  24.634  27.424  1.00  0.00     0.023 A 
ATOM     75  C   UNL A   1      41.492  23.478  27.474  1.00  0.00     0.031 A 
ATOM     76  C   UNL A   1      43.131  24.805  26.315  1.00  0.00     0.131 A 
ATOM     77  C   UNL A   1      41.593  22.513  26.461  1.00  0.00     0.055 A 
ATOM     78  C   UNL A   1      43.195  23.864  25.284  1.00  0.00     0.041 A 
ATOM     79  F   UNL A   1      43.903  25.899  26.212  1.00  0.00    -0.206 F 
ATOM     80  C   UNL A   1      42.433  22.704  25.360  1.00  0.00     0.022 A 
BRANCH  77  81
ATOM     81  S   UNL A   1      40.667  20.963  26.640  1.00  0.00     0.124 S 
ATOM     82  O   UNL A   1      41.392  20.077  25.737  1.00  0.00    -0.237 OA
ATOM     83  O   UNL A   1      40.814  20.687  28.065  1.00  0.00    -0.237 OA
ATOM     84  O   UNL A   1      39.317  21.323  26.213  1.00  0.00    -0.744 OA
ENDBRANCH  77  81
ENDBRANCH  50  74
BRANCH  62  85
ATOM     85  C   UNL A   1      46.488  25.851  32.848  1.00  0.00     0.023 A 
ATOM     86  C   UNL A   1      47.755  26.047  32.273  1.00  0.00     0.031 A 
ATOM     87  C   UNL A   1      46.377  24.949  33.921  1.00  0.00     0.131 A 
ATOM     88  C   UNL A   1      48.853  25.311  32.739  1.00  0.00     0.055 A 
ATOM     89  C   UNL A   1      47.483  24.260  34.417  1.00  0.00     0.041 A 
ATOM     90  F   UNL A   1      45.189  24.725  34.505  1.00  0.00    -0.206 F 
ATOM     91  C   UNL A   1      48.728  24.430  33.818  1.00  0.00     0.022 A 
BRANCH  88  92
ATOM     92  S   UNL A   1      50.434  25.458  31.865  1.00  0.00     0.124 S 
ATOM     93  O   UNL A   1      51.273  26.113  32.863  1.00  0.00    -0.237 OA
ATOM     94  O   UNL A   1      50.760  24.065  31.574  1.00  0.00    -0.237 OA
ATOM     95  O   UNL A   1      50.108  26.275  30.698  1.00  0.00    -0.744 OA
ENDBRANCH  88  92
ENDBRANCH  62  85
ENDBRANCH  36  37
ENDBRANCH  28  31
ENDBRANCH  26  27
ENDBRANCH   1  26
TORSDOF 16
ENDMDL
