MODEL 1
REMARK VINA RESULT:     -13.2      0.000      0.000
REMARK SMILES O=C(NCCCCNC(=O)[C@]1(NC(=O)C2CCN(C(=O)C3CC3)CC2)CCCc2ccccc21)c1ccc(-c2c3nc(c(-c4cc(S(=O)(=O)[O-])ccc4F)c4ccc([nH]4)c(-c4cc(S(=O)(=O)[O-])ccc4F)c4nc(c(-c5cc(S(=O)(=O)[O-])ccc5F)c5ccc2[nH]5)C=C4)C=C3)cc1
REMARK SMILES IDX 5 1 4 2 3 3 1 4 2 5 35 7 36 8 97 9 37 10 96 11 38 12 39 13
REMARK SMILES IDX 40 14 90 15 41 16 95 17 89 18 91 19 42 20 94 21 88 22 87 23
REMARK SMILES IDX 43 25 75 26 55 27 74 28 56 29 59 30 73 31 92 32 57 33 58 34
REMARK SMILES IDX 72 36 93 37 60 38 44 39 45 40 53 41 46 42 52 43 54 44 51 45
REMARK SMILES IDX 47 46 48 47 49 48 50 49 76 50 77 51 85 52 78 53 84 54 86 55
REMARK SMILES IDX 83 56 79 57 80 58 81 59 82 60 61 61 62 62 70 63 63 64 69 65
REMARK SMILES IDX 71 66 68 67 64 68 65 69 66 70 67 71 6 72 7 73 8 74 9 75
REMARK SMILES IDX 10 77 11 78 26 79 34 80 27 81 29 82 33 83 28 84 30 85 32 86
REMARK SMILES IDX 31 87 12 88 13 89 14 91 15 92 16 93 25 94 17 95 24 96 18 97
REMARK SMILES IDX 19 98 20 99 21 100 22 101 23 102
REMARK H PARENT 3 6 91 24 59 35 8 76 12 90
REMARK Flexibility Score: inf
ROOT
ATOM      1  C   UNL A   1      32.159  30.838  26.718  1.00  0.00     0.023 C 
ENDROOT
BRANCH   1   2
ATOM      2  C   UNL A   1      33.186  31.723  27.409  1.00  0.00     0.116 C 
BRANCH   2   3
ATOM      3  N   UNL A   1      32.812  33.127  27.515  1.00  0.00    -0.352 N 
ATOM      4  O   UNL A   1      32.880  35.190  28.459  1.00  0.00    -0.269 OA
ATOM      5  C   UNL A   1      33.328  34.057  28.398  1.00  0.00     0.251 C 
ATOM      6  H   UNL A   1      32.119  33.447  26.893  1.00  0.00     0.163 HD
BRANCH   5   7
ATOM      7  C   UNL A   1      34.412  33.613  29.302  1.00  0.00     0.039 A 
ATOM      8  C   UNL A   1      35.737  33.872  28.959  1.00  0.00     0.014 A 
ATOM      9  C   UNL A   1      34.102  32.834  30.419  1.00  0.00     0.014 A 
ATOM     10  C   UNL A   1      36.753  33.199  29.621  1.00  0.00     0.010 A 
ATOM     11  C   UNL A   1      35.137  32.240  31.149  1.00  0.00     0.010 A 
ATOM     12  C   UNL A   1      36.468  32.380  30.727  1.00  0.00    -0.014 A 
BRANCH  12  13
ATOM     13  C   UNL A   1      37.601  31.721  31.426  1.00  0.00     0.031 A 
ATOM     14  C   UNL A   1      38.458  30.694  30.737  1.00  0.00     0.074 A 
ATOM     15  C   UNL A   1      37.899  32.131  32.675  1.00  0.00     0.049 A 
ATOM     16  N   UNL A   1      39.521  30.075  31.186  1.00  0.00    -0.248 NA
ATOM     17  C   UNL A   1      38.070  30.305  29.372  1.00  0.00     0.031 C 
ATOM     18  C   UNL A   1      37.125  33.115  33.439  1.00  0.00     0.029 A 
ATOM     19  N   UNL A   1      38.941  31.814  33.505  1.00  0.00    -0.354 N 
ATOM     20  C   UNL A   1      39.921  29.212  30.171  1.00  0.00     0.074 A 
ATOM     21  C   UNL A   1      38.967  29.368  29.092  1.00  0.00     0.031 C 
ATOM     22  C   UNL A   1      37.756  33.373  34.591  1.00  0.00     0.029 A 
ATOM     23  C   UNL A   1      38.935  32.521  34.685  1.00  0.00     0.049 A 
ATOM     24  H   UNL A   1      39.626  31.146  33.279  1.00  0.00     0.167 HD
ATOM     25  C   UNL A   1      40.987  28.372  30.144  1.00  0.00     0.034 A 
ATOM     26  C   UNL A   1      39.776  32.481  35.734  1.00  0.00     0.034 A 
ATOM     27  C   UNL A   1      41.929  28.234  31.232  1.00  0.00     0.049 A 
ATOM     28  C   UNL A   1      40.954  31.549  35.672  1.00  0.00     0.074 A 
ATOM     29  C   UNL A   1      43.037  27.407  31.317  1.00  0.00     0.029 A 
ATOM     30  N   UNL A   1      41.876  28.943  32.426  1.00  0.00    -0.354 N 
ATOM     31  N   UNL A   1      41.303  30.726  34.710  1.00  0.00    -0.248 NA
ATOM     32  C   UNL A   1      41.850  31.544  36.832  1.00  0.00     0.031 C 
ATOM     33  C   UNL A   1      43.622  27.580  32.578  1.00  0.00     0.029 A 
ATOM     34  C   UNL A   1      42.919  28.562  33.257  1.00  0.00     0.049 A 
ATOM     35  H   UNL A   1      41.196  29.619  32.650  1.00  0.00     0.167 HD
ATOM     36  C   UNL A   1      42.460  30.098  35.156  1.00  0.00     0.074 A 
ATOM     37  C   UNL A   1      42.772  30.674  36.450  1.00  0.00     0.031 C 
ATOM     38  C   UNL A   1      43.191  29.123  34.559  1.00  0.00     0.034 A 
BRANCH  25  39
ATOM     39  C   UNL A   1      41.164  27.508  28.917  1.00  0.00     0.023 A 
ATOM     40  C   UNL A   1      42.154  27.777  27.957  1.00  0.00     0.031 A 
ATOM     41  C   UNL A   1      40.321  26.401  28.701  1.00  0.00     0.131 A 
ATOM     42  C   UNL A   1      42.242  26.986  26.799  1.00  0.00     0.055 A 
ATOM     43  C   UNL A   1      40.458  25.577  27.582  1.00  0.00     0.041 A 
ATOM     44  F   UNL A   1      39.343  26.107  29.573  1.00  0.00    -0.206 F 
ATOM     45  C   UNL A   1      41.416  25.873  26.617  1.00  0.00     0.022 A 
BRANCH  42  46
ATOM     46  S   UNL A   1      43.373  27.500  25.478  1.00  0.00     0.124 S 
ATOM     47  O   UNL A   1      44.074  28.617  26.106  1.00  0.00    -0.237 OA
ATOM     48  O   UNL A   1      44.164  26.296  25.252  1.00  0.00    -0.237 OA
ATOM     49  O   UNL A   1      42.478  27.872  24.384  1.00  0.00    -0.744 OA
ENDBRANCH  42  46
ENDBRANCH  25  39
BRANCH  26  50
ATOM     50  C   UNL A   1      39.507  33.314  36.938  1.00  0.00     0.023 A 
ATOM     51  C   UNL A   1      38.836  32.790  38.054  1.00  0.00     0.031 A 
ATOM     52  C   UNL A   1      39.911  34.661  36.982  1.00  0.00     0.131 A 
ATOM     53  C   UNL A   1      38.562  33.619  39.153  1.00  0.00     0.055 A 
ATOM     54  C   UNL A   1      39.683  35.465  38.098  1.00  0.00     0.041 A 
ATOM     55  F   UNL A   1      40.564  35.208  35.943  1.00  0.00    -0.206 F 
ATOM     56  C   UNL A   1      38.993  34.947  39.188  1.00  0.00     0.022 A 
BRANCH  53  57
ATOM     57  S   UNL A   1      37.559  32.956  40.512  1.00  0.00     0.124 S 
ATOM     58  O   UNL A   1      37.644  34.029  41.496  1.00  0.00    -0.237 OA
ATOM     59  O   UNL A   1      36.262  32.775  39.869  1.00  0.00    -0.237 OA
ATOM     60  O   UNL A   1      38.252  31.721  40.873  1.00  0.00    -0.744 OA
ENDBRANCH  53  57
ENDBRANCH  26  50
BRANCH  38  61
ATOM     61  C   UNL A   1      44.396  28.635  35.323  1.00  0.00     0.023 A 
ATOM     62  C   UNL A   1      44.289  27.600  36.268  1.00  0.00     0.031 A 
ATOM     63  C   UNL A   1      45.646  29.250  35.148  1.00  0.00     0.131 A 
ATOM     64  C   UNL A   1      45.396  27.258  37.056  1.00  0.00     0.055 A 
ATOM     65  C   UNL A   1      46.761  28.865  35.896  1.00  0.00     0.041 A 
ATOM     66  F   UNL A   1      45.802  30.245  34.260  1.00  0.00    -0.206 F 
ATOM     67  C   UNL A   1      46.635  27.877  36.868  1.00  0.00     0.022 A 
BRANCH  64  68
ATOM     68  S   UNL A   1      45.165  26.075  38.411  1.00  0.00     0.124 S 
ATOM     69  O   UNL A   1      44.477  26.887  39.410  1.00  0.00    -0.237 OA
ATOM     70  O   UNL A   1      44.366  25.031  37.779  1.00  0.00    -0.237 OA
ATOM     71  O   UNL A   1      46.529  25.684  38.762  1.00  0.00    -0.744 OA
ENDBRANCH  64  68
ENDBRANCH  38  61
ENDBRANCH  12  13
ENDBRANCH   5   7
ENDBRANCH   2   3
ENDBRANCH   1   2
BRANCH   1  72
ATOM     72  C   UNL A   1      32.187  29.370  27.136  1.00  0.00     0.023 C 
BRANCH  72  73
ATOM     73  C   UNL A   1      33.510  28.640  26.911  1.00  0.00     0.116 C 
BRANCH  73  74
ATOM     74  N   UNL A   1      34.041  28.814  25.573  1.00  0.00    -0.354 N 
ATOM     75  C   UNL A   1      33.961  28.071  24.435  1.00  0.00     0.250 C 
ATOM     76  H   UNL A   1      34.565  29.640  25.465  1.00  0.00     0.163 HD
ATOM     77  O   UNL A   1      34.432  28.632  23.432  1.00  0.00    -0.272 OA
BRANCH  75  78
ATOM     78  C   UNL A   1      33.458  26.576  24.336  1.00  0.00     0.145 C 
ATOM     79  C   UNL A   1      33.798  26.147  22.867  1.00  0.00     0.044 C 
ATOM     80  C   UNL A   1      31.946  26.343  24.501  1.00  0.00    -0.010 A 
ATOM     81  C   UNL A   1      33.021  26.970  21.843  1.00  0.00     0.008 C 
ATOM     82  C   UNL A   1      31.053  26.554  23.424  1.00  0.00    -0.042 A 
ATOM     83  C   UNL A   1      31.400  25.931  25.734  1.00  0.00     0.007 A 
ATOM     84  C   UNL A   1      31.519  26.789  22.008  1.00  0.00     0.036 C 
ATOM     85  C   UNL A   1      29.665  26.470  23.637  1.00  0.00     0.004 A 
ATOM     86  C   UNL A   1      30.018  25.844  25.928  1.00  0.00     0.000 A 
ATOM     87  C   UNL A   1      29.150  26.141  24.887  1.00  0.00     0.000 A 
BRANCH  78  88
ATOM     88  N   UNL A   1      34.235  25.610  25.176  1.00  0.00    -0.338 N 
ATOM     89  C   UNL A   1      34.947  24.484  24.898  1.00  0.00     0.224 C 
ATOM     90  H   UNL A   1      34.230  25.837  26.134  1.00  0.00     0.164 HD
ATOM     91  O   UNL A   1      35.942  24.271  25.596  1.00  0.00    -0.275 OA
BRANCH  89  92
ATOM     92  C   UNL A   1      34.458  23.466  23.874  1.00  0.00     0.082 C 
ATOM     93  C   UNL A   1      33.083  22.922  24.293  1.00  0.00     0.035 C 
ATOM     94  C   UNL A   1      35.462  22.319  23.648  1.00  0.00     0.035 C 
ATOM     95  C   UNL A   1      33.181  21.875  25.398  1.00  0.00     0.120 C 
ATOM     96  C   UNL A   1      35.440  21.255  24.748  1.00  0.00     0.120 C 
ATOM     97  N   UNL A   1      34.079  20.794  25.001  1.00  0.00    -0.342 N 
ATOM     98  C   UNL A   1      33.543  19.507  24.914  1.00  0.00     0.225 C 
ATOM     99  O   UNL A   1      32.362  19.303  25.205  1.00  0.00    -0.275 OA
BRANCH  98 100
ATOM    100  C   UNL A   1      34.300  18.288  24.498  1.00  0.00     0.079 C 
ATOM    101  C   UNL A   1      33.989  16.859  24.834  1.00  0.00     0.014 C 
ATOM    102  C   UNL A   1      33.862  17.347  23.410  1.00  0.00     0.014 C 
ENDBRANCH  98 100
ENDBRANCH  89  92
ENDBRANCH  78  88
ENDBRANCH  75  78
ENDBRANCH  73  74
ENDBRANCH  72  73
ENDBRANCH   1  72
TORSDOF 17
ENDMDL
MODEL 2
REMARK VINA RESULT:     -13.1      0.844      7.429
REMARK SMILES O=C(NCCCCNC(=O)[C@]1(NC(=O)C2CCN(C(=O)C3CC3)CC2)CCCc2ccccc21)c1ccc(-c2c3nc(c(-c4cc(S(=O)(=O)[O-])ccc4F)c4ccc([nH]4)c(-c4cc(S(=O)(=O)[O-])ccc4F)c4nc(c(-c5cc(S(=O)(=O)[O-])ccc5F)c5ccc2[nH]5)C=C4)C=C3)cc1
REMARK SMILES IDX 5 1 4 2 3 3 1 4 2 5 35 7 36 8 97 9 37 10 96 11 38 12 39 13
REMARK SMILES IDX 40 14 90 15 41 16 95 17 89 18 91 19 42 20 94 21 88 22 87 23
REMARK SMILES IDX 43 25 75 26 55 27 74 28 56 29 59 30 73 31 92 32 57 33 58 34
REMARK SMILES IDX 72 36 93 37 60 38 44 39 45 40 53 41 46 42 52 43 54 44 51 45
REMARK SMILES IDX 47 46 48 47 49 48 50 49 76 50 77 51 85 52 78 53 84 54 86 55
REMARK SMILES IDX 83 56 79 57 80 58 81 59 82 60 61 61 62 62 70 63 63 64 69 65
REMARK SMILES IDX 71 66 68 67 64 68 65 69 66 70 67 71 6 72 7 73 8 74 9 75
REMARK SMILES IDX 10 77 11 78 26 79 34 80 27 81 29 82 33 83 28 84 30 85 32 86
REMARK SMILES IDX 31 87 12 88 13 89 14 91 15 92 16 93 25 94 17 95 24 96 18 97
REMARK SMILES IDX 19 98 20 99 21 100 22 101 23 102
REMARK H PARENT 3 6 91 24 59 35 8 76 12 90
REMARK Flexibility Score: inf
ROOT
ATOM      1  C   UNL A   1      32.337  30.982  26.682  1.00  0.00     0.023 C 
ENDROOT
BRANCH   1   2
ATOM      2  C   UNL A   1      33.237  31.901  27.494  1.00  0.00     0.116 C 
BRANCH   2   3
ATOM      3  N   UNL A   1      32.719  33.248  27.691  1.00  0.00    -0.352 N 
ATOM      4  O   UNL A   1      32.644  35.277  28.706  1.00  0.00    -0.269 OA
ATOM      5  C   UNL A   1      33.209  34.206  28.558  1.00  0.00     0.251 C 
ATOM      6  H   UNL A   1      31.937  33.503  27.148  1.00  0.00     0.163 HD
BRANCH   5   7
ATOM      7  C   UNL A   1      34.418  33.865  29.340  1.00  0.00     0.039 A 
ATOM      8  C   UNL A   1      35.671  34.242  28.861  1.00  0.00     0.014 A 
ATOM      9  C   UNL A   1      34.300  33.064  30.477  1.00  0.00     0.014 A 
ATOM     10  C   UNL A   1      36.808  33.667  29.407  1.00  0.00     0.010 A 
ATOM     11  C   UNL A   1      35.456  32.568  31.090  1.00  0.00     0.010 A 
ATOM     12  C   UNL A   1      36.717  32.828  30.531  1.00  0.00    -0.014 A 
BRANCH  12  13
ATOM     13  C   UNL A   1      37.972  32.276  31.102  1.00  0.00     0.031 A 
ATOM     14  C   UNL A   1      38.537  32.788  32.399  1.00  0.00     0.074 A 
ATOM     15  C   UNL A   1      38.551  31.236  30.470  1.00  0.00     0.049 A 
ATOM     16  N   UNL A   1      39.586  32.370  33.062  1.00  0.00    -0.248 NA
ATOM     17  C   UNL A   1      37.843  33.921  33.030  1.00  0.00     0.031 C 
ATOM     18  C   UNL A   1      38.089  30.668  29.199  1.00  0.00     0.029 A 
ATOM     19  N   UNL A   1      39.616  30.448  30.816  1.00  0.00    -0.354 N 
ATOM     20  C   UNL A   1      39.691  33.194  34.177  1.00  0.00     0.074 A 
ATOM     21  C   UNL A   1      38.612  34.157  34.085  1.00  0.00     0.031 C 
ATOM     22  C   UNL A   1      38.819  29.582  28.912  1.00  0.00     0.029 A 
ATOM     23  C   UNL A   1      39.847  29.421  29.931  1.00  0.00     0.049 A 
ATOM     24  H   UNL A   1      40.162  30.602  31.620  1.00  0.00     0.167 HD
ATOM     25  C   UNL A   1      40.600  33.147  35.184  1.00  0.00     0.034 A 
ATOM     26  C   UNL A   1      40.790  28.460  29.931  1.00  0.00     0.034 A 
ATOM     27  C   UNL A   1      41.668  32.175  35.257  1.00  0.00     0.049 A 
ATOM     28  C   UNL A   1      41.777  28.425  31.063  1.00  0.00     0.074 A 
ATOM     29  C   UNL A   1      42.652  32.041  36.223  1.00  0.00     0.029 A 
ATOM     30  N   UNL A   1      41.892  31.166  34.327  1.00  0.00    -0.354 N 
ATOM     31  N   UNL A   1      41.870  29.227  32.099  1.00  0.00    -0.248 NA
ATOM     32  C   UNL A   1      42.780  27.357  31.028  1.00  0.00     0.031 C 
ATOM     33  C   UNL A   1      43.496  30.987  35.852  1.00  0.00     0.029 A 
ATOM     34  C   UNL A   1      43.003  30.419  34.687  1.00  0.00     0.049 A 
ATOM     35  H   UNL A   1      41.340  31.005  33.528  1.00  0.00     0.167 HD
ATOM     36  C   UNL A   1      42.953  28.762  32.836  1.00  0.00     0.074 A 
ATOM     37  C   UNL A   1      43.445  27.583  32.151  1.00  0.00     0.031 C 
ATOM     38  C   UNL A   1      43.500  29.269  33.970  1.00  0.00     0.034 A 
BRANCH  25  39
ATOM     39  C   UNL A   1      40.505  34.202  36.261  1.00  0.00     0.023 A 
ATOM     40  C   UNL A   1      40.000  33.913  37.540  1.00  0.00     0.031 A 
ATOM     41  C   UNL A   1      40.919  35.522  36.000  1.00  0.00     0.131 A 
ATOM     42  C   UNL A   1      39.868  34.938  38.491  1.00  0.00     0.055 A 
ATOM     43  C   UNL A   1      40.851  36.522  36.973  1.00  0.00     0.041 A 
ATOM     44  F   UNL A   1      41.391  35.863  34.791  1.00  0.00    -0.206 F 
ATOM     45  C   UNL A   1      40.313  36.236  38.224  1.00  0.00     0.022 A 
BRANCH  42  46
ATOM     46  S   UNL A   1      39.001  34.580  40.043  1.00  0.00     0.124 S 
ATOM     47  O   UNL A   1      40.046  33.919  40.821  1.00  0.00    -0.237 OA
ATOM     48  O   UNL A   1      38.609  35.908  40.500  1.00  0.00    -0.237 OA
ATOM     49  O   UNL A   1      37.900  33.712  39.630  1.00  0.00    -0.744 OA
ENDBRANCH  42  46
ENDBRANCH  25  39
BRANCH  26  50
ATOM     50  C   UNL A   1      40.864  27.489  28.804  1.00  0.00     0.023 A 
ATOM     51  C   UNL A   1      41.822  27.623  27.787  1.00  0.00     0.031 A 
ATOM     52  C   UNL A   1      39.962  26.413  28.725  1.00  0.00     0.131 A 
ATOM     53  C   UNL A   1      41.833  26.714  26.718  1.00  0.00     0.055 A 
ATOM     54  C   UNL A   1      40.013  25.481  27.689  1.00  0.00     0.041 A 
ATOM     55  F   UNL A   1      39.032  26.235  29.677  1.00  0.00    -0.206 F 
ATOM     56  C   UNL A   1      40.945  25.637  26.670  1.00  0.00     0.022 A 
BRANCH  53  57
ATOM     57  S   UNL A   1      42.981  27.004  25.343  1.00  0.00     0.124 S 
ATOM     58  O   UNL A   1      42.949  25.721  24.652  1.00  0.00    -0.237 OA
ATOM     59  O   UNL A   1      42.347  28.122  24.652  1.00  0.00    -0.237 OA
ATOM     60  O   UNL A   1      44.240  27.321  26.013  1.00  0.00    -0.744 OA
ENDBRANCH  53  57
ENDBRANCH  26  50
BRANCH  38  61
ATOM     61  C   UNL A   1      44.695  28.532  34.518  1.00  0.00     0.023 A 
ATOM     62  C   UNL A   1      44.542  27.483  35.441  1.00  0.00     0.031 A 
ATOM     63  C   UNL A   1      45.997  28.919  34.160  1.00  0.00     0.131 A 
ATOM     64  C   UNL A   1      45.674  26.905  36.033  1.00  0.00     0.055 A 
ATOM     65  C   UNL A   1      47.121  28.300  34.709  1.00  0.00     0.041 A 
ATOM     66  F   UNL A   1      46.197  29.917  33.284  1.00  0.00    -0.206 F 
ATOM     67  C   UNL A   1      46.963  27.299  35.664  1.00  0.00     0.022 A 
BRANCH  64  68
ATOM     68  S   UNL A   1      45.436  25.711  37.378  1.00  0.00     0.124 S 
ATOM     69  O   UNL A   1      44.563  26.447  38.287  1.00  0.00    -0.237 OA
ATOM     70  O   UNL A   1      44.827  24.580  36.686  1.00  0.00    -0.237 OA
ATOM     71  O   UNL A   1      46.791  25.478  37.873  1.00  0.00    -0.744 OA
ENDBRANCH  64  68
ENDBRANCH  38  61
ENDBRANCH  12  13
ENDBRANCH   5   7
ENDBRANCH   2   3
ENDBRANCH   1   2
BRANCH   1  72
ATOM     72  C   UNL A   1      32.179  29.571  27.244  1.00  0.00     0.023 C 
BRANCH  72  73
ATOM     73  C   UNL A   1      33.334  28.611  26.963  1.00  0.00     0.116 C 
BRANCH  73  74
ATOM     74  N   UNL A   1      33.928  28.796  25.653  1.00  0.00    -0.354 N 
ATOM     75  C   UNL A   1      33.911  28.058  24.509  1.00  0.00     0.250 C 
ATOM     76  H   UNL A   1      34.449  29.628  25.575  1.00  0.00     0.163 HD
ATOM     77  O   UNL A   1      34.425  28.629  23.534  1.00  0.00    -0.272 OA
BRANCH  75  78
ATOM     78  C   UNL A   1      33.427  26.559  24.379  1.00  0.00     0.145 C 
ATOM     79  C   UNL A   1      33.779  26.164  22.904  1.00  0.00     0.044 C 
ATOM     80  C   UNL A   1      31.917  26.304  24.533  1.00  0.00    -0.010 A 
ATOM     81  C   UNL A   1      32.995  26.996  21.892  1.00  0.00     0.008 C 
ATOM     82  C   UNL A   1      31.026  26.525  23.456  1.00  0.00    -0.042 A 
ATOM     83  C   UNL A   1      31.371  25.861  25.756  1.00  0.00     0.007 A 
ATOM     84  C   UNL A   1      31.495  26.793  22.047  1.00  0.00     0.036 C 
ATOM     85  C   UNL A   1      29.638  26.420  23.661  1.00  0.00     0.004 A 
ATOM     86  C   UNL A   1      29.990  25.753  25.942  1.00  0.00     0.000 A 
ATOM     87  C   UNL A   1      29.122  26.059  24.903  1.00  0.00     0.000 A 
BRANCH  78  88
ATOM     88  N   UNL A   1      34.213  25.586  25.203  1.00  0.00    -0.338 N 
ATOM     89  C   UNL A   1      34.919  24.461  24.910  1.00  0.00     0.224 C 
ATOM     90  H   UNL A   1      34.220  25.808  26.163  1.00  0.00     0.164 HD
ATOM     91  O   UNL A   1      35.922  24.242  25.595  1.00  0.00    -0.275 OA
BRANCH  89  92
ATOM     92  C   UNL A   1      34.415  23.449  23.887  1.00  0.00     0.082 C 
ATOM     93  C   UNL A   1      33.046  22.904  24.320  1.00  0.00     0.035 C 
ATOM     94  C   UNL A   1      35.415  22.303  23.640  1.00  0.00     0.035 C 
ATOM     95  C   UNL A   1      33.157  21.850  25.418  1.00  0.00     0.120 C 
ATOM     96  C   UNL A   1      35.407  21.232  24.734  1.00  0.00     0.120 C 
ATOM     97  N   UNL A   1      34.049  20.771  25.001  1.00  0.00    -0.342 N 
ATOM     98  C   UNL A   1      33.510  19.485  24.914  1.00  0.00     0.225 C 
ATOM     99  O   UNL A   1      32.333  19.281  25.219  1.00  0.00    -0.275 OA
BRANCH  98 100
ATOM    100  C   UNL A   1      34.260  18.268  24.480  1.00  0.00     0.079 C 
ATOM    101  C   UNL A   1      33.906  16.834  24.740  1.00  0.00     0.014 C 
ATOM    102  C   UNL A   1      33.853  17.383  23.335  1.00  0.00     0.014 C 
ENDBRANCH  98 100
ENDBRANCH  89  92
ENDBRANCH  78  88
ENDBRANCH  75  78
ENDBRANCH  73  74
ENDBRANCH  72  73
ENDBRANCH   1  72
TORSDOF 17
ENDMDL
MODEL 3
REMARK VINA RESULT:     -12.9      5.439     10.959
REMARK SMILES O=C(NCCCCNC(=O)[C@]1(NC(=O)C2CCN(C(=O)C3CC3)CC2)CCCc2ccccc21)c1ccc(-c2c3nc(c(-c4cc(S(=O)(=O)[O-])ccc4F)c4ccc([nH]4)c(-c4cc(S(=O)(=O)[O-])ccc4F)c4nc(c(-c5cc(S(=O)(=O)[O-])ccc5F)c5ccc2[nH]5)C=C4)C=C3)cc1
REMARK SMILES IDX 5 1 4 2 3 3 1 4 2 5 35 7 36 8 97 9 37 10 96 11 38 12 39 13
REMARK SMILES IDX 40 14 90 15 41 16 95 17 89 18 91 19 42 20 94 21 88 22 87 23
REMARK SMILES IDX 43 25 75 26 55 27 74 28 56 29 59 30 73 31 92 32 57 33 58 34
REMARK SMILES IDX 72 36 93 37 60 38 44 39 45 40 53 41 46 42 52 43 54 44 51 45
REMARK SMILES IDX 47 46 48 47 49 48 50 49 76 50 77 51 85 52 78 53 84 54 86 55
REMARK SMILES IDX 83 56 79 57 80 58 81 59 82 60 61 61 62 62 70 63 63 64 69 65
REMARK SMILES IDX 71 66 68 67 64 68 65 69 66 70 67 71 6 72 7 73 8 74 9 75
REMARK SMILES IDX 10 77 11 78 26 79 34 80 27 81 29 82 33 83 28 84 30 85 32 86
REMARK SMILES IDX 31 87 12 88 13 89 14 91 15 92 16 93 25 94 17 95 24 96 18 97
REMARK SMILES IDX 19 98 20 99 21 100 22 101 23 102
REMARK H PARENT 3 6 91 24 59 35 8 76 12 90
REMARK Flexibility Score: inf
ROOT
ATOM      1  C   UNL A   1      37.089  21.846  23.925  1.00  0.00     0.023 C 
ENDROOT
BRANCH   1   2
ATOM      2  C   UNL A   1      37.338  21.532  25.393  1.00  0.00     0.116 C 
BRANCH   2   3
ATOM      3  N   UNL A   1      38.311  20.475  25.636  1.00  0.00    -0.352 N 
ATOM      4  O   UNL A   1      40.329  19.672  26.293  1.00  0.00    -0.269 OA
ATOM      5  C   UNL A   1      39.558  20.613  26.216  1.00  0.00     0.251 C 
ATOM      6  H   UNL A   1      38.052  19.566  25.359  1.00  0.00     0.163 HD
BRANCH   5   7
ATOM      7  C   UNL A   1      39.944  21.960  26.693  1.00  0.00     0.039 A 
ATOM      8  C   UNL A   1      39.360  23.084  26.112  1.00  0.00     0.014 A 
ATOM      9  C   UNL A   1      40.974  22.091  27.626  1.00  0.00     0.014 A 
ATOM     10  C   UNL A   1      39.930  24.329  26.322  1.00  0.00     0.010 A 
ATOM     11  C   UNL A   1      41.479  23.364  27.914  1.00  0.00     0.010 A 
ATOM     12  C   UNL A   1      40.992  24.488  27.229  1.00  0.00    -0.014 A 
BRANCH  12  13
ATOM     13  C   UNL A   1      41.534  25.854  27.449  1.00  0.00     0.031 A 
ATOM     14  C   UNL A   1      40.796  26.866  28.282  1.00  0.00     0.074 A 
ATOM     15  C   UNL A   1      42.754  26.138  26.952  1.00  0.00     0.049 A 
ATOM     16  N   UNL A   1      41.163  28.076  28.621  1.00  0.00    -0.248 NA
ATOM     17  C   UNL A   1      39.473  26.477  28.793  1.00  0.00     0.031 C 
ATOM     18  C   UNL A   1      43.551  25.229  26.122  1.00  0.00     0.029 A 
ATOM     19  N   UNL A   1      43.555  27.239  27.100  1.00  0.00    -0.354 N 
ATOM     20  C   UNL A   1      40.115  28.601  29.369  1.00  0.00     0.074 A 
ATOM     21  C   UNL A   1      39.083  27.585  29.410  1.00  0.00     0.031 C 
ATOM     22  C   UNL A   1      44.751  25.779  25.895  1.00  0.00     0.029 A 
ATOM     23  C   UNL A   1      44.783  27.107  26.494  1.00  0.00     0.049 A 
ATOM     24  H   UNL A   1      43.278  28.045  27.590  1.00  0.00     0.167 HD
ATOM     25  C   UNL A   1      40.026  29.816  29.969  1.00  0.00     0.034 A 
ATOM     26  C   UNL A   1      45.818  27.963  26.418  1.00  0.00     0.034 A 
ATOM     27  C   UNL A   1      41.069  30.815  29.918  1.00  0.00     0.049 A 
ATOM     28  C   UNL A   1      45.697  29.296  27.099  1.00  0.00     0.074 A 
ATOM     29  C   UNL A   1      41.082  32.083  30.477  1.00  0.00     0.029 A 
ATOM     30  N   UNL A   1      42.290  30.661  29.270  1.00  0.00    -0.354 N 
ATOM     31  N   UNL A   1      44.687  29.781  27.786  1.00  0.00    -0.248 NA
ATOM     32  C   UNL A   1      46.851  30.194  26.999  1.00  0.00     0.031 C 
ATOM     33  C   UNL A   1      42.285  32.709  30.126  1.00  0.00     0.029 A 
ATOM     34  C   UNL A   1      43.052  31.811  29.402  1.00  0.00     0.049 A 
ATOM     35  H   UNL A   1      42.571  29.850  28.787  1.00  0.00     0.167 HD
ATOM     36  C   UNL A   1      45.085  31.049  28.193  1.00  0.00     0.074 A 
ATOM     37  C   UNL A   1      46.442  31.230  27.716  1.00  0.00     0.031 C 
ATOM     38  C   UNL A   1      44.389  31.985  28.887  1.00  0.00     0.034 A 
BRANCH  25  39
ATOM     39  C   UNL A   1      38.741  30.145  30.692  1.00  0.00     0.023 A 
ATOM     40  C   UNL A   1      37.705  30.867  30.073  1.00  0.00     0.031 A 
ATOM     41  C   UNL A   1      38.552  29.737  32.026  1.00  0.00     0.131 A 
ATOM     42  C   UNL A   1      36.555  31.208  30.802  1.00  0.00     0.055 A 
ATOM     43  C   UNL A   1      37.376  30.019  32.724  1.00  0.00     0.041 A 
ATOM     44  F   UNL A   1      39.514  29.063  32.676  1.00  0.00    -0.206 F 
ATOM     45  C   UNL A   1      36.372  30.768  32.116  1.00  0.00     0.022 A 
BRANCH  42  46
ATOM     46  S   UNL A   1      35.348  32.333  30.049  1.00  0.00     0.124 S 
ATOM     47  O   UNL A   1      34.858  31.534  28.928  1.00  0.00    -0.237 OA
ATOM     48  O   UNL A   1      34.401  32.556  31.135  1.00  0.00    -0.237 OA
ATOM     49  O   UNL A   1      36.150  33.495  29.672  1.00  0.00    -0.744 OA
ENDBRANCH  42  46
ENDBRANCH  25  39
BRANCH  26  50
ATOM     50  C   UNL A   1      47.031  27.598  25.635  1.00  0.00     0.023 A 
ATOM     51  C   UNL A   1      47.140  27.906  24.270  1.00  0.00     0.031 A 
ATOM     52  C   UNL A   1      48.102  26.920  26.247  1.00  0.00     0.131 A 
ATOM     53  C   UNL A   1      48.279  27.507  23.556  1.00  0.00     0.055 A 
ATOM     54  C   UNL A   1      49.255  26.573  25.544  1.00  0.00     0.041 A 
ATOM     55  F   UNL A   1      48.050  26.609  27.552  1.00  0.00    -0.206 F 
ATOM     56  C   UNL A   1      49.343  26.856  24.186  1.00  0.00     0.022 A 
BRANCH  53  57
ATOM     57  S   UNL A   1      48.321  27.782  21.763  1.00  0.00     0.124 S 
ATOM     58  O   UNL A   1      49.425  28.727  21.632  1.00  0.00    -0.237 OA
ATOM     59  O   UNL A   1      48.566  26.436  21.257  1.00  0.00    -0.237 OA
ATOM     60  O   UNL A   1      46.997  28.325  21.472  1.00  0.00    -0.744 OA
ENDBRANCH  53  57
ENDBRANCH  26  50
BRANCH  38  61
ATOM     61  C   UNL A   1      45.109  33.282  29.156  1.00  0.00     0.023 A 
ATOM     62  C   UNL A   1      45.026  34.360  28.258  1.00  0.00     0.031 A 
ATOM     63  C   UNL A   1      45.930  33.420  30.287  1.00  0.00     0.131 A 
ATOM     64  C   UNL A   1      45.810  35.504  28.467  1.00  0.00     0.055 A 
ATOM     65  C   UNL A   1      46.664  34.584  30.521  1.00  0.00     0.041 A 
ATOM     66  F   UNL A   1      46.046  32.419  31.175  1.00  0.00    -0.206 F 
ATOM     67  C   UNL A   1      46.619  35.627  29.599  1.00  0.00     0.022 A 
BRANCH  64  68
ATOM     68  S   UNL A   1      45.845  36.779  27.179  1.00  0.00     0.124 S 
ATOM     69  O   UNL A   1      46.647  37.825  27.807  1.00  0.00    -0.237 OA
ATOM     70  O   UNL A   1      46.474  36.078  26.064  1.00  0.00    -0.237 OA
ATOM     71  O   UNL A   1      44.435  37.110  26.985  1.00  0.00    -0.744 OA
ENDBRANCH  64  68
ENDBRANCH  38  61
ENDBRANCH  12  13
ENDBRANCH   5   7
ENDBRANCH   2   3
ENDBRANCH   1   2
BRANCH   1  72
ATOM     72  C   UNL A   1      35.821  22.649  23.644  1.00  0.00     0.023 C 
BRANCH  72  73
ATOM     73  C   UNL A   1      35.129  23.248  24.867  1.00  0.00     0.116 C 
BRANCH  73  74
ATOM     74  N   UNL A   1      34.774  24.644  24.698  1.00  0.00    -0.354 N 
ATOM     75  C   UNL A   1      33.587  25.289  24.526  1.00  0.00     0.250 C 
ATOM     76  H   UNL A   1      35.551  25.249  24.713  1.00  0.00     0.163 HD
ATOM     77  O   UNL A   1      33.677  26.527  24.567  1.00  0.00    -0.272 OA
BRANCH  75  78
ATOM     78  C   UNL A   1      32.206  24.611  24.166  1.00  0.00     0.145 C 
ATOM     79  C   UNL A   1      31.267  24.983  25.365  1.00  0.00     0.044 C 
ATOM     80  C   UNL A   1      32.191  23.075  24.082  1.00  0.00    -0.010 A 
ATOM     81  C   UNL A   1      31.757  24.376  26.677  1.00  0.00     0.008 C 
ATOM     82  C   UNL A   1      32.103  22.281  25.250  1.00  0.00    -0.042 A 
ATOM     83  C   UNL A   1      32.283  22.409  22.842  1.00  0.00     0.007 A 
ATOM     84  C   UNL A   1      31.790  22.856  26.610  1.00  0.00     0.036 C 
ATOM     85  C   UNL A   1      32.232  20.883  25.159  1.00  0.00     0.004 A 
ATOM     86  C   UNL A   1      32.402  21.019  22.768  1.00  0.00     0.000 A 
ATOM     87  C   UNL A   1      32.404  20.257  23.928  1.00  0.00     0.000 A 
BRANCH  78  88
ATOM     88  N   UNL A   1      31.518  25.211  22.979  1.00  0.00    -0.338 N 
ATOM     89  C   UNL A   1      31.358  26.486  22.530  1.00  0.00     0.224 C 
ATOM     90  H   UNL A   1      31.090  24.540  22.399  1.00  0.00     0.164 HD
ATOM     91  O   UNL A   1      31.331  26.643  21.306  1.00  0.00    -0.275 OA
BRANCH  89  92
ATOM     92  C   UNL A   1      31.079  27.638  23.489  1.00  0.00     0.082 C 
ATOM     93  C   UNL A   1      29.694  27.461  24.130  1.00  0.00     0.035 C 
ATOM     94  C   UNL A   1      31.205  29.017  22.815  1.00  0.00     0.035 C 
ATOM     95  C   UNL A   1      28.560  27.868  23.194  1.00  0.00     0.120 C 
ATOM     96  C   UNL A   1      29.991  29.403  21.966  1.00  0.00     0.120 C 
ATOM     97  N   UNL A   1      28.754  29.236  22.721  1.00  0.00    -0.342 N 
ATOM     98  C   UNL A   1      27.770  30.176  23.039  1.00  0.00     0.225 C 
ATOM     99  O   UNL A   1      26.763  29.835  23.663  1.00  0.00    -0.275 OA
BRANCH  98 100
ATOM    100  C   UNL A   1      27.812  31.622  22.666  1.00  0.00     0.079 C 
ATOM    101  C   UNL A   1      28.767  32.667  23.162  1.00  0.00     0.014 C 
ATOM    102  C   UNL A   1      28.812  32.225  21.719  1.00  0.00     0.014 C 
ENDBRANCH  98 100
ENDBRANCH  89  92
ENDBRANCH  78  88
ENDBRANCH  75  78
ENDBRANCH  73  74
ENDBRANCH  72  73
ENDBRANCH   1  72
TORSDOF 17
ENDMDL
