MODEL 1
REMARK VINA RESULT:     -12.8      0.000      0.000
REMARK SMILES C[C@H]1CCCC[C@H]1[N@H+]1[C@@H](C(=O)NCCCCNC(=O)c2ccc(-c3c4nc(c(-c5cc(S(=O)(=O)[O-])ccc5F)c5ccc([nH]5)c(-c5cc(S(=O)(=O)[O-])ccc5F)c5nc(c(-c6cc(S(=O)(=O)[O-])ccc6F)c6ccc3[nH]6)C=C5)C=C4)cc2)CC[C@@H]2CCCC[C@@H]21
REMARK SMILES IDX 15 1 14 2 13 3 12 4 10 5 11 6 9 8 8 9 90 10 83 12 85 13
REMARK SMILES IDX 89 14 84 15 86 16 88 17 87 18 7 19 1 20 2 21 3 22 4 23 6 24
REMARK SMILES IDX 5 25 16 26 17 27 18 28 19 30 20 31 21 32 82 33 22 34 81 35
REMARK SMILES IDX 23 36 24 37 25 38 75 39 26 40 80 41 74 42 76 43 27 44 79 45
REMARK SMILES IDX 73 46 72 47 28 49 60 50 40 51 59 52 41 53 44 54 58 55 77 56
REMARK SMILES IDX 42 57 43 58 57 60 78 61 45 62 29 63 30 64 38 65 31 66 37 67
REMARK SMILES IDX 39 68 36 69 32 70 33 71 34 72 35 73 61 74 62 75 70 76 63 77
REMARK SMILES IDX 69 78 71 79 68 80 64 81 65 82 66 83 67 84 46 85 47 86 55 87
REMARK SMILES IDX 48 88 54 89 56 90 53 91 49 92 50 93 51 94 52 95
REMARK H PARENT 12 7 8 11 17 29 76 48 44 59
REMARK Flexibility Score: inf
ROOT
ATOM      1  C   UNL A   1      35.044  21.344  25.311  1.00  0.00     0.023 C 
ENDROOT
BRANCH   1   2
ATOM      2  C   UNL A   1      34.270  21.490  26.619  1.00  0.00     0.023 C 
BRANCH   2   3
ATOM      3  C   UNL A   1      34.087  22.927  27.101  1.00  0.00     0.116 C 
BRANCH   3   4
ATOM      4  N   UNL A   1      32.722  23.262  27.491  1.00  0.00    -0.351 N 
ATOM      5  C   UNL A   1      31.610  23.493  26.712  1.00  0.00     0.278 C 
ATOM      6  O   UNL A   1      30.501  23.454  27.252  1.00  0.00    -0.268 OA
ATOM      7  H   UNL A   1      32.572  23.335  28.462  1.00  0.00     0.163 HD
BRANCH   5   8
ATOM      8  C   UNL A   1      31.762  23.675  25.209  1.00  0.00     0.274 C 
ATOM      9  N   UNL A   1      31.487  24.985  24.545  1.00  0.00    -0.319 N 
ATOM     10  C   UNL A   1      31.519  24.829  23.051  1.00  0.00     0.188 C 
ATOM     11  H   UNL A   1      32.275  25.526  24.902  1.00  0.00     0.349 HD
ATOM     12  C   UNL A   1      31.251  22.471  24.412  1.00  0.00     0.076 C 
ATOM     13  C   UNL A   1      32.516  23.726  22.589  1.00  0.00     0.048 C 
ATOM     14  C   UNL A   1      31.821  26.093  22.204  1.00  0.00     0.065 C 
ATOM     15  C   UNL A   1      32.095  22.346  23.136  1.00  0.00     0.016 C 
ATOM     16  C   UNL A   1      33.988  24.118  22.896  1.00  0.00     0.010 C 
ATOM     17  C   UNL A   1      33.297  26.295  21.854  1.00  0.00     0.006 C 
ATOM     18  C   UNL A   1      34.212  25.636  22.870  1.00  0.00     0.001 C 
BRANCH   9  19
ATOM     19  C   UNL A   1      30.528  25.997  25.068  1.00  0.00     0.187 C 
ATOM     20  C   UNL A   1      31.931  27.279  26.902  1.00  0.00     0.014 C 
ATOM     21  C   UNL A   1      30.969  27.340  25.719  1.00  0.00     0.044 C 
ATOM     22  C   UNL A   1      31.442  28.324  24.660  1.00  0.00     0.009 C 
ATOM     23  C   UNL A   1      30.299  28.721  23.735  1.00  0.00     0.001 C 
ATOM     24  C   UNL A   1      29.299  26.332  24.181  1.00  0.00     0.065 C 
ATOM     25  C   UNL A   1      29.321  27.613  23.338  1.00  0.00     0.006 C 
ENDBRANCH   9  19
ENDBRANCH   5   8
ENDBRANCH   3   4
ENDBRANCH   2   3
ENDBRANCH   1   2
BRANCH   1  26
ATOM     26  C   UNL A   1      36.476  21.871  25.344  1.00  0.00     0.116 C 
BRANCH  26  27
ATOM     27  N   UNL A   1      37.470  20.815  25.466  1.00  0.00    -0.352 N 
ATOM     28  C   UNL A   1      38.793  20.890  25.832  1.00  0.00     0.251 C 
ATOM     29  H   UNL A   1      37.146  19.909  25.256  1.00  0.00     0.163 HD
ATOM     30  O   UNL A   1      39.504  19.892  25.733  1.00  0.00    -0.269 OA
BRANCH  28  31
ATOM     31  C   UNL A   1      39.367  22.169  26.305  1.00  0.00     0.039 A 
ATOM     32  C   UNL A   1      40.441  22.136  27.198  1.00  0.00     0.014 A 
ATOM     33  C   UNL A   1      38.858  23.397  25.872  1.00  0.00     0.014 A 
ATOM     34  C   UNL A   1      41.052  23.330  27.596  1.00  0.00     0.010 A 
ATOM     35  C   UNL A   1      39.516  24.580  26.207  1.00  0.00     0.010 A 
ATOM     36  C   UNL A   1      40.624  24.559  27.069  1.00  0.00    -0.014 A 
BRANCH  36  37
ATOM     37  C   UNL A   1      41.327  25.829  27.402  1.00  0.00     0.031 A 
ATOM     38  C   UNL A   1      40.629  26.892  28.208  1.00  0.00     0.074 A 
ATOM     39  C   UNL A   1      42.573  26.046  26.933  1.00  0.00     0.049 A 
ATOM     40  N   UNL A   1      41.042  28.093  28.527  1.00  0.00    -0.248 NA
ATOM     41  C   UNL A   1      39.279  26.572  28.699  1.00  0.00     0.031 C 
ATOM     42  C   UNL A   1      43.345  25.105  26.118  1.00  0.00     0.029 A 
ATOM     43  N   UNL A   1      43.410  27.127  27.066  1.00  0.00    -0.354 N 
ATOM     44  C   UNL A   1      40.006  28.671  29.252  1.00  0.00     0.074 A 
ATOM     45  C   UNL A   1      38.921  27.713  29.269  1.00  0.00     0.031 C 
ATOM     46  C   UNL A   1      44.547  25.638  25.848  1.00  0.00     0.029 A 
ATOM     47  C   UNL A   1      44.616  26.980  26.417  1.00  0.00     0.049 A 
ATOM     48  H   UNL A   1      43.170  27.933  27.578  1.00  0.00     0.167 HD
ATOM     49  C   UNL A   1      39.971  29.879  29.868  1.00  0.00     0.034 A 
ATOM     50  C   UNL A   1      45.650  27.834  26.280  1.00  0.00     0.034 A 
ATOM     51  C   UNL A   1      41.062  30.823  29.849  1.00  0.00     0.049 A 
ATOM     52  C   UNL A   1      45.562  29.195  26.929  1.00  0.00     0.074 A 
ATOM     53  C   UNL A   1      41.141  32.058  30.469  1.00  0.00     0.029 A 
ATOM     54  N   UNL A   1      42.261  30.643  29.172  1.00  0.00    -0.354 N 
ATOM     55  N   UNL A   1      44.588  29.707  27.646  1.00  0.00    -0.248 NA
ATOM     56  C   UNL A   1      46.717  30.088  26.761  1.00  0.00     0.031 C 
ATOM     57  C   UNL A   1      42.352  32.655  30.108  1.00  0.00     0.029 A 
ATOM     58  C   UNL A   1      43.070  31.757  29.335  1.00  0.00     0.049 A 
ATOM     59  H   UNL A   1      42.501  29.842  28.653  1.00  0.00     0.167 HD
ATOM     60  C   UNL A   1      45.035  30.964  28.047  1.00  0.00     0.074 A 
ATOM     61  C   UNL A   1      46.368  31.123  27.508  1.00  0.00     0.031 C 
ATOM     62  C   UNL A   1      44.401  31.904  28.795  1.00  0.00     0.034 A 
BRANCH  49  63
ATOM     63  C   UNL A   1      38.706  30.255  30.603  1.00  0.00     0.023 A 
ATOM     64  C   UNL A   1      37.696  31.016  29.989  1.00  0.00     0.031 A 
ATOM     65  C   UNL A   1      38.502  29.839  31.931  1.00  0.00     0.131 A 
ATOM     66  C   UNL A   1      36.557  31.388  30.718  1.00  0.00     0.055 A 
ATOM     67  C   UNL A   1      37.330  30.145  32.625  1.00  0.00     0.041 A 
ATOM     68  F   UNL A   1      39.440  29.129  32.577  1.00  0.00    -0.206 F 
ATOM     69  C   UNL A   1      36.354  30.933  32.023  1.00  0.00     0.022 A 
BRANCH  66  70
ATOM     70  S   UNL A   1      35.404  32.575  29.979  1.00  0.00     0.124 S 
ATOM     71  O   UNL A   1      34.386  32.685  31.021  1.00  0.00    -0.237 OA
ATOM     72  O   UNL A   1      36.245  33.751  29.781  1.00  0.00    -0.237 OA
ATOM     73  O   UNL A   1      34.965  31.909  28.755  1.00  0.00    -0.744 OA
ENDBRANCH  66  70
ENDBRANCH  49  63
BRANCH  50  74
ATOM     74  C   UNL A   1      46.855  27.458  25.479  1.00  0.00     0.023 A 
ATOM     75  C   UNL A   1      47.028  27.929  24.168  1.00  0.00     0.031 A 
ATOM     76  C   UNL A   1      47.807  26.552  25.982  1.00  0.00     0.131 A 
ATOM     77  C   UNL A   1      48.080  27.438  23.379  1.00  0.00     0.055 A 
ATOM     78  C   UNL A   1      48.894  26.123  25.217  1.00  0.00     0.041 A 
ATOM     79  F   UNL A   1      47.693  26.066  27.228  1.00  0.00    -0.206 F 
ATOM     80  C   UNL A   1      49.023  26.550  23.900  1.00  0.00     0.022 A 
BRANCH  77  81
ATOM     81  S   UNL A   1      48.117  27.872  21.619  1.00  0.00     0.124 S 
ATOM     82  O   UNL A   1      46.802  28.478  21.437  1.00  0.00    -0.237 OA
ATOM     83  O   UNL A   1      49.257  28.781  21.555  1.00  0.00    -0.237 OA
ATOM     84  O   UNL A   1      48.310  26.585  20.955  1.00  0.00    -0.744 OA
ENDBRANCH  77  81
ENDBRANCH  50  74
BRANCH  62  85
ATOM     85  C   UNL A   1      45.173  33.160  29.125  1.00  0.00     0.023 A 
ATOM     86  C   UNL A   1      45.131  34.298  28.301  1.00  0.00     0.031 A 
ATOM     87  C   UNL A   1      45.971  33.210  30.283  1.00  0.00     0.131 A 
ATOM     88  C   UNL A   1      45.921  35.415  28.613  1.00  0.00     0.055 A 
ATOM     89  C   UNL A   1      46.700  34.351  30.624  1.00  0.00     0.041 A 
ATOM     90  F   UNL A   1      46.054  32.153  31.105  1.00  0.00    -0.206 F 
ATOM     91  C   UNL A   1      46.689  35.456  29.779  1.00  0.00     0.022 A 
BRANCH  88  92
ATOM     92  S   UNL A   1      46.008  36.779  27.420  1.00  0.00     0.124 S 
ATOM     93  O   UNL A   1      47.006  36.290  26.473  1.00  0.00    -0.237 OA
ATOM     94  O   UNL A   1      44.638  36.849  26.923  1.00  0.00    -0.237 OA
ATOM     95  O   UNL A   1      46.431  37.919  28.233  1.00  0.00    -0.744 OA
ENDBRANCH  88  92
ENDBRANCH  62  85
ENDBRANCH  36  37
ENDBRANCH  28  31
ENDBRANCH  26  27
ENDBRANCH   1  26
TORSDOF 15
ENDMDL
MODEL 2
REMARK VINA RESULT:     -12.7      5.128     10.297
REMARK SMILES C[C@H]1CCCC[C@H]1[N@H+]1[C@@H](C(=O)NCCCCNC(=O)c2ccc(-c3c4nc(c(-c5cc(S(=O)(=O)[O-])ccc5F)c5ccc([nH]5)c(-c5cc(S(=O)(=O)[O-])ccc5F)c5nc(c(-c6cc(S(=O)(=O)[O-])ccc6F)c6ccc3[nH]6)C=C5)C=C4)cc2)CC[C@@H]2CCCC[C@@H]21
REMARK SMILES IDX 15 1 14 2 13 3 12 4 10 5 11 6 9 8 8 9 90 10 83 12 85 13
REMARK SMILES IDX 89 14 84 15 86 16 88 17 87 18 7 19 1 20 2 21 3 22 4 23 6 24
REMARK SMILES IDX 5 25 16 26 17 27 18 28 19 30 20 31 21 32 82 33 22 34 81 35
REMARK SMILES IDX 23 36 24 37 25 38 75 39 26 40 80 41 74 42 76 43 27 44 79 45
REMARK SMILES IDX 73 46 72 47 28 49 60 50 40 51 59 52 41 53 44 54 58 55 77 56
REMARK SMILES IDX 42 57 43 58 57 60 78 61 45 62 29 63 30 64 38 65 31 66 37 67
REMARK SMILES IDX 39 68 36 69 32 70 33 71 34 72 35 73 61 74 62 75 70 76 63 77
REMARK SMILES IDX 69 78 71 79 68 80 64 81 65 82 66 83 67 84 46 85 47 86 55 87
REMARK SMILES IDX 48 88 54 89 56 90 53 91 49 92 50 93 51 94 52 95
REMARK H PARENT 12 7 8 11 17 29 76 48 44 59
REMARK Flexibility Score: inf
ROOT
ATOM      1  C   UNL A   1      31.754  29.195  25.175  1.00  0.00     0.023 C 
ENDROOT
BRANCH   1   2
ATOM      2  C   UNL A   1      32.918  29.327  24.196  1.00  0.00     0.023 C 
BRANCH   2   3
ATOM      3  C   UNL A   1      33.969  28.225  24.292  1.00  0.00     0.116 C 
BRANCH   3   4
ATOM      4  N   UNL A   1      34.196  27.498  23.049  1.00  0.00    -0.351 N 
ATOM      5  C   UNL A   1      33.435  26.525  22.440  1.00  0.00     0.278 C 
ATOM      6  O   UNL A   1      33.653  26.272  21.252  1.00  0.00    -0.268 OA
ATOM      7  H   UNL A   1      35.021  27.741  22.569  1.00  0.00     0.163 HD
BRANCH   5   8
ATOM      8  C   UNL A   1      32.289  25.873  23.200  1.00  0.00     0.274 C 
ATOM      9  N   UNL A   1      32.370  24.462  23.685  1.00  0.00    -0.319 N 
ATOM     10  C   UNL A   1      31.037  24.017  24.217  1.00  0.00     0.188 C 
ATOM     11  H   UNL A   1      33.071  24.573  24.418  1.00  0.00     0.349 HD
ATOM     12  C   UNL A   1      30.916  26.242  22.631  1.00  0.00     0.076 C 
ATOM     13  C   UNL A   1      30.227  25.187  24.847  1.00  0.00     0.048 C 
ATOM     14  C   UNL A   1      31.028  22.857  25.247  1.00  0.00     0.065 C 
ATOM     15  C   UNL A   1      29.906  26.261  23.787  1.00  0.00     0.016 C 
ATOM     16  C   UNL A   1      30.912  25.735  26.130  1.00  0.00     0.010 C 
ATOM     17  C   UNL A   1      31.062  23.298  26.713  1.00  0.00     0.006 C 
ATOM     18  C   UNL A   1      31.713  24.659  26.876  1.00  0.00     0.001 C 
BRANCH   9  19
ATOM     19  C   UNL A   1      33.191  23.404  23.032  1.00  0.00     0.187 C 
ATOM     20  C   UNL A   1      35.583  23.740  24.100  1.00  0.00     0.014 C 
ATOM     21  C   UNL A   1      34.467  22.790  23.677  1.00  0.00     0.044 C 
ATOM     22  C   UNL A   1      34.097  21.825  24.793  1.00  0.00     0.009 C 
ATOM     23  C   UNL A   1      33.343  20.619  24.245  1.00  0.00     0.001 C 
ATOM     24  C   UNL A   1      32.428  22.223  22.375  1.00  0.00     0.065 C 
ATOM     25  C   UNL A   1      32.331  20.892  23.130  1.00  0.00     0.006 C 
ENDBRANCH   9  19
ENDBRANCH   5   8
ENDBRANCH   3   4
ENDBRANCH   2   3
ENDBRANCH   1   2
BRANCH   1  26
ATOM     26  C   UNL A   1      32.015  29.753  26.571  1.00  0.00     0.116 C 
BRANCH  26  27
ATOM     27  N   UNL A   1      31.911  31.203  26.635  1.00  0.00    -0.352 N 
ATOM     28  C   UNL A   1      32.739  32.118  27.239  1.00  0.00     0.251 C 
ATOM     29  H   UNL A   1      31.128  31.587  26.177  1.00  0.00     0.163 HD
ATOM     30  O   UNL A   1      32.393  33.296  27.301  1.00  0.00    -0.269 OA
BRANCH  28  31
ATOM     31  C   UNL A   1      34.019  31.686  27.843  1.00  0.00     0.039 A 
ATOM     32  C   UNL A   1      34.942  32.659  28.237  1.00  0.00     0.014 A 
ATOM     33  C   UNL A   1      34.314  30.332  28.025  1.00  0.00     0.014 A 
ATOM     34  C   UNL A   1      36.122  32.278  28.883  1.00  0.00     0.010 A 
ATOM     35  C   UNL A   1      35.453  29.958  28.738  1.00  0.00     0.010 A 
ATOM     36  C   UNL A   1      36.367  30.927  29.179  1.00  0.00    -0.014 A 
BRANCH  36  37
ATOM     37  C   UNL A   1      37.568  30.513  29.956  1.00  0.00     0.031 A 
ATOM     38  C   UNL A   1      38.583  29.584  29.343  1.00  0.00     0.074 A 
ATOM     39  C   UNL A   1      37.717  30.930  31.230  1.00  0.00     0.049 A 
ATOM     40  N   UNL A   1      39.646  29.046  29.885  1.00  0.00    -0.248 NA
ATOM     41  C   UNL A   1      38.359  29.190  27.943  1.00  0.00     0.031 C 
ATOM     42  C   UNL A   1      36.789  31.808  31.946  1.00  0.00     0.029 A 
ATOM     43  N   UNL A   1      38.699  30.667  32.155  1.00  0.00    -0.354 N 
ATOM     44  C   UNL A   1      40.216  28.250  28.897  1.00  0.00     0.074 A 
ATOM     45  C   UNL A   1      39.344  28.326  27.744  1.00  0.00     0.031 C 
ATOM     46  C   UNL A   1      37.259  32.032  33.184  1.00  0.00     0.029 A 
ATOM     47  C   UNL A   1      38.489  31.270  33.375  1.00  0.00     0.049 A 
ATOM     48  H   UNL A   1      39.481  30.100  31.963  1.00  0.00     0.167 HD
ATOM     49  C   UNL A   1      41.372  27.542  28.939  1.00  0.00     0.034 A 
ATOM     50  C   UNL A   1      39.194  31.201  34.522  1.00  0.00     0.034 A 
ATOM     51  C   UNL A   1      42.235  27.480  30.092  1.00  0.00     0.049 A 
ATOM     52  C   UNL A   1      40.447  30.360  34.558  1.00  0.00     0.074 A 
ATOM     53  C   UNL A   1      43.445  26.820  30.227  1.00  0.00     0.029 A 
ATOM     54  N   UNL A   1      41.983  28.093  31.313  1.00  0.00    -0.354 N 
ATOM     55  N   UNL A   1      40.992  29.646  33.598  1.00  0.00    -0.248 NA
ATOM     56  C   UNL A   1      41.188  30.323  35.827  1.00  0.00     0.031 C 
ATOM     57  C   UNL A   1      43.885  26.970  31.545  1.00  0.00     0.029 A 
ATOM     58  C   UNL A   1      42.998  27.800  32.211  1.00  0.00     0.049 A 
ATOM     59  H   UNL A   1      41.198  28.653  31.511  1.00  0.00     0.167 HD
ATOM     60  C   UNL A   1      42.160  29.113  34.139  1.00  0.00     0.074 A 
ATOM     61  C   UNL A   1      42.248  29.601  35.499  1.00  0.00     0.031 C 
ATOM     62  C   UNL A   1      43.078  28.295  33.565  1.00  0.00     0.034 A 
BRANCH  49  63
ATOM     63  C   UNL A   1      41.762  26.764  27.704  1.00  0.00     0.023 A 
ATOM     64  C   UNL A   1      41.523  25.384  27.598  1.00  0.00     0.031 A 
ATOM     65  C   UNL A   1      42.371  27.413  26.615  1.00  0.00     0.131 A 
ATOM     66  C   UNL A   1      41.944  24.685  26.456  1.00  0.00     0.055 A 
ATOM     67  C   UNL A   1      42.715  26.727  25.449  1.00  0.00     0.041 A 
ATOM     68  F   UNL A   1      42.645  28.727  26.667  1.00  0.00    -0.206 F 
ATOM     69  C   UNL A   1      42.512  25.353  25.368  1.00  0.00     0.022 A 
BRANCH  66  70
ATOM     70  S   UNL A   1      41.850  22.875  26.463  1.00  0.00     0.124 S 
ATOM     71  O   UNL A   1      40.412  22.655  26.603  1.00  0.00    -0.237 OA
ATOM     72  O   UNL A   1      42.427  22.523  25.171  1.00  0.00    -0.237 OA
ATOM     73  O   UNL A   1      42.648  22.495  27.628  1.00  0.00    -0.744 OA
ENDBRANCH  66  70
ENDBRANCH  49  63
BRANCH  50  74
ATOM     74  C   UNL A   1      38.736  31.922  35.749  1.00  0.00     0.023 A 
ATOM     75  C   UNL A   1      38.168  31.226  36.827  1.00  0.00     0.031 A 
ATOM     76  C   UNL A   1      38.779  33.326  35.825  1.00  0.00     0.131 A 
ATOM     77  C   UNL A   1      37.599  31.933  37.898  1.00  0.00     0.055 A 
ATOM     78  C   UNL A   1      38.278  34.022  36.928  1.00  0.00     0.041 A 
ATOM     79  F   UNL A   1      39.310  34.046  34.825  1.00  0.00    -0.206 F 
ATOM     80  C   UNL A   1      37.664  33.326  37.963  1.00  0.00     0.022 A 
BRANCH  77  81
ATOM     81  S   UNL A   1      36.650  31.010  39.138  1.00  0.00     0.124 S 
ATOM     82  O   UNL A   1      36.524  29.703  38.501  1.00  0.00    -0.237 OA
ATOM     83  O   UNL A   1      37.528  31.075  40.302  1.00  0.00    -0.237 OA
ATOM     84  O   UNL A   1      35.408  31.771  39.252  1.00  0.00    -0.744 OA
ENDBRANCH  77  81
ENDBRANCH  50  74
BRANCH  62  85
ATOM     85  C   UNL A   1      44.290  27.930  34.389  1.00  0.00     0.023 A 
ATOM     86  C   UNL A   1      44.329  26.772  35.185  1.00  0.00     0.031 A 
ATOM     87  C   UNL A   1      45.422  28.766  34.383  1.00  0.00     0.131 A 
ATOM     88  C   UNL A   1      45.450  26.513  35.988  1.00  0.00     0.055 A 
ATOM     89  C   UNL A   1      46.562  28.465  35.130  1.00  0.00     0.041 A 
ATOM     90  F   UNL A   1      45.441  29.887  33.645  1.00  0.00    -0.206 F 
ATOM     91  C   UNL A   1      46.575  27.342  35.950  1.00  0.00     0.022 A 
BRANCH  88  92
ATOM     92  S   UNL A   1      45.381  25.131  37.160  1.00  0.00     0.124 S 
ATOM     93  O   UNL A   1      44.072  25.322  37.777  1.00  0.00    -0.237 OA
ATOM     94  O   UNL A   1      45.509  23.970  36.284  1.00  0.00    -0.237 OA
ATOM     95  O   UNL A   1      46.523  25.370  38.041  1.00  0.00    -0.744 OA
ENDBRANCH  88  92
ENDBRANCH  62  85
ENDBRANCH  36  37
ENDBRANCH  28  31
ENDBRANCH  26  27
ENDBRANCH   1  26
TORSDOF 15
ENDMDL
MODEL 3
REMARK VINA RESULT:     -12.7      0.539      7.454
REMARK SMILES C[C@H]1CCCC[C@H]1[N@H+]1[C@@H](C(=O)NCCCCNC(=O)c2ccc(-c3c4nc(c(-c5cc(S(=O)(=O)[O-])ccc5F)c5ccc([nH]5)c(-c5cc(S(=O)(=O)[O-])ccc5F)c5nc(c(-c6cc(S(=O)(=O)[O-])ccc6F)c6ccc3[nH]6)C=C5)C=C4)cc2)CC[C@@H]2CCCC[C@@H]21
REMARK SMILES IDX 15 1 14 2 13 3 12 4 10 5 11 6 9 8 8 9 90 10 83 12 85 13
REMARK SMILES IDX 89 14 84 15 86 16 88 17 87 18 7 19 1 20 2 21 3 22 4 23 6 24
REMARK SMILES IDX 5 25 16 26 17 27 18 28 19 30 20 31 21 32 82 33 22 34 81 35
REMARK SMILES IDX 23 36 24 37 25 38 75 39 26 40 80 41 74 42 76 43 27 44 79 45
REMARK SMILES IDX 73 46 72 47 28 49 60 50 40 51 59 52 41 53 44 54 58 55 77 56
REMARK SMILES IDX 42 57 43 58 57 60 78 61 45 62 29 63 30 64 38 65 31 66 37 67
REMARK SMILES IDX 39 68 36 69 32 70 33 71 34 72 35 73 61 74 62 75 70 76 63 77
REMARK SMILES IDX 69 78 71 79 68 80 64 81 65 82 66 83 67 84 46 85 47 86 55 87
REMARK SMILES IDX 48 88 54 89 56 90 53 91 49 92 50 93 51 94 52 95
REMARK H PARENT 12 7 8 11 17 29 76 48 44 59
REMARK Flexibility Score: inf
ROOT
ATOM      1  C   UNL A   1      35.645  21.172  25.290  1.00  0.00     0.023 C 
ENDROOT
BRANCH   1   2
ATOM      2  C   UNL A   1      34.947  22.063  26.315  1.00  0.00     0.023 C 
BRANCH   2   3
ATOM      3  C   UNL A   1      33.763  21.417  27.028  1.00  0.00     0.116 C 
BRANCH   3   4
ATOM      4  N   UNL A   1      32.788  22.365  27.556  1.00  0.00    -0.351 N 
ATOM      5  C   UNL A   1      31.863  23.144  26.897  1.00  0.00     0.278 C 
ATOM      6  O   UNL A   1      30.940  23.634  27.552  1.00  0.00    -0.268 OA
ATOM      7  H   UNL A   1      32.790  22.462  28.536  1.00  0.00     0.163 HD
BRANCH   5   8
ATOM      8  C   UNL A   1      31.935  23.289  25.384  1.00  0.00     0.274 C 
ATOM      9  N   UNL A   1      31.594  24.573  24.701  1.00  0.00    -0.319 N 
ATOM     10  C   UNL A   1      31.555  24.377  23.212  1.00  0.00     0.188 C 
ATOM     11  H   UNL A   1      32.384  25.143  25.004  1.00  0.00     0.349 HD
ATOM     12  C   UNL A   1      31.417  22.052  24.645  1.00  0.00     0.076 C 
ATOM     13  C   UNL A   1      32.556  23.288  22.729  1.00  0.00     0.048 C 
ATOM     14  C   UNL A   1      31.781  25.625  22.319  1.00  0.00     0.065 C 
ATOM     15  C   UNL A   1      32.199  21.913  23.332  1.00  0.00     0.016 C 
ATOM     16  C   UNL A   1      34.031  23.724  22.951  1.00  0.00     0.010 C 
ATOM     17  C   UNL A   1      33.233  25.854  21.890  1.00  0.00     0.006 C 
ATOM     18  C   UNL A   1      34.214  25.246  22.875  1.00  0.00     0.001 C 
BRANCH   9  19
ATOM     19  C   UNL A   1      30.635  25.576  25.245  1.00  0.00     0.187 C 
ATOM     20  C   UNL A   1      32.110  26.981  26.927  1.00  0.00     0.014 C 
ATOM     21  C   UNL A   1      31.071  26.959  25.810  1.00  0.00     0.044 C 
ATOM     22  C   UNL A   1      31.438  27.911  24.682  1.00  0.00     0.009 C 
ATOM     23  C   UNL A   1      30.223  28.230  23.820  1.00  0.00     0.001 C 
ATOM     24  C   UNL A   1      29.340  25.831  24.430  1.00  0.00     0.065 C 
ATOM     25  C   UNL A   1      29.261  27.075  23.536  1.00  0.00     0.006 C 
ENDBRANCH   9  19
ENDBRANCH   5   8
ENDBRANCH   3   4
ENDBRANCH   2   3
ENDBRANCH   1   2
BRANCH   1  26
ATOM     26  C   UNL A   1      37.091  21.552  24.980  1.00  0.00     0.116 C 
BRANCH  26  27
ATOM     27  N   UNL A   1      38.049  20.542  25.401  1.00  0.00    -0.352 N 
ATOM     28  C   UNL A   1      39.275  20.689  26.004  1.00  0.00     0.251 C 
ATOM     29  H   UNL A   1      37.779  19.610  25.227  1.00  0.00     0.163 HD
ATOM     30  O   UNL A   1      39.999  19.706  26.148  1.00  0.00    -0.269 OA
BRANCH  28  31
ATOM     31  C   UNL A   1      39.737  22.024  26.444  1.00  0.00     0.039 A 
ATOM     32  C   UNL A   1      40.899  22.116  27.216  1.00  0.00     0.014 A 
ATOM     33  C   UNL A   1      39.037  23.184  26.099  1.00  0.00     0.014 A 
ATOM     34  C   UNL A   1      41.399  23.371  27.574  1.00  0.00     0.010 A 
ATOM     35  C   UNL A   1      39.579  24.436  26.389  1.00  0.00     0.010 A 
ATOM     36  C   UNL A   1      40.768  24.543  27.127  1.00  0.00    -0.014 A 
BRANCH  36  37
ATOM     37  C   UNL A   1      41.343  25.887  27.412  1.00  0.00     0.031 A 
ATOM     38  C   UNL A   1      42.712  26.250  26.901  1.00  0.00     0.074 A 
ATOM     39  C   UNL A   1      40.653  26.760  28.175  1.00  0.00     0.049 A 
ATOM     40  N   UNL A   1      43.414  27.334  27.114  1.00  0.00    -0.248 NA
ATOM     41  C   UNL A   1      43.391  25.251  26.060  1.00  0.00     0.031 C 
ATOM     42  C   UNL A   1      39.330  26.517  28.752  1.00  0.00     0.029 A 
ATOM     43  N   UNL A   1      40.970  28.027  28.605  1.00  0.00    -0.354 N 
ATOM     44  C   UNL A   1      44.615  27.148  26.438  1.00  0.00     0.074 A 
ATOM     45  C   UNL A   1      44.571  25.821  25.862  1.00  0.00     0.031 C 
ATOM     46  C   UNL A   1      38.938  27.605  29.435  1.00  0.00     0.029 A 
ATOM     47  C   UNL A   1      40.002  28.603  29.397  1.00  0.00     0.049 A 
ATOM     48  H   UNL A   1      41.811  28.479  28.368  1.00  0.00     0.167 HD
ATOM     49  C   UNL A   1      45.648  28.014  26.289  1.00  0.00     0.034 A 
ATOM     50  C   UNL A   1      39.981  29.790  30.036  1.00  0.00     0.034 A 
ATOM     51  C   UNL A   1      45.678  29.337  26.862  1.00  0.00     0.049 A 
ATOM     52  C   UNL A   1      41.170  30.712  29.899  1.00  0.00     0.074 A 
ATOM     53  C   UNL A   1      46.661  30.304  26.744  1.00  0.00     0.029 A 
ATOM     54  N   UNL A   1      44.685  29.880  27.668  1.00  0.00    -0.354 N 
ATOM     55  N   UNL A   1      42.281  30.534  29.220  1.00  0.00    -0.248 NA
ATOM     56  C   UNL A   1      41.098  31.999  30.604  1.00  0.00     0.031 C 
ATOM     57  C   UNL A   1      46.300  31.399  27.534  1.00  0.00     0.029 A 
ATOM     58  C   UNL A   1      45.049  31.155  28.076  1.00  0.00     0.049 A 
ATOM     59  H   UNL A   1      43.847  29.427  27.913  1.00  0.00     0.167 HD
ATOM     60  C   UNL A   1      43.017  31.705  29.385  1.00  0.00     0.074 A 
ATOM     61  C   UNL A   1      42.218  32.585  30.210  1.00  0.00     0.031 C 
ATOM     62  C   UNL A   1      44.242  32.026  28.897  1.00  0.00     0.034 A 
BRANCH  49  63
ATOM     63  C   UNL A   1      46.841  27.550  25.486  1.00  0.00     0.023 A 
ATOM     64  C   UNL A   1      47.037  27.958  24.156  1.00  0.00     0.031 A 
ATOM     65  C   UNL A   1      47.799  26.696  26.061  1.00  0.00     0.131 A 
ATOM     66  C   UNL A   1      48.129  27.467  23.425  1.00  0.00     0.055 A 
ATOM     67  C   UNL A   1      48.927  26.275  25.354  1.00  0.00     0.041 A 
ATOM     68  F   UNL A   1      47.655  26.254  27.321  1.00  0.00    -0.206 F 
ATOM     69  C   UNL A   1      49.092  26.652  24.025  1.00  0.00     0.022 A 
BRANCH  66  70
ATOM     70  S   UNL A   1      48.208  27.811  21.648  1.00  0.00     0.124 S 
ATOM     71  O   UNL A   1      48.541  26.496  21.107  1.00  0.00    -0.237 OA
ATOM     72  O   UNL A   1      46.864  28.299  21.359  1.00  0.00    -0.237 OA
ATOM     73  O   UNL A   1      49.271  28.810  21.538  1.00  0.00    -0.744 OA
ENDBRANCH  66  70
ENDBRANCH  49  63
BRANCH  50  74
ATOM     74  C   UNL A   1      38.817  30.184  30.886  1.00  0.00     0.023 A 
ATOM     75  C   UNL A   1      37.780  30.976  30.370  1.00  0.00     0.031 A 
ATOM     76  C   UNL A   1      38.768  29.847  32.251  1.00  0.00     0.131 A 
ATOM     77  C   UNL A   1      36.780  31.468  31.224  1.00  0.00     0.055 A 
ATOM     78  C   UNL A   1      37.730  30.278  33.082  1.00  0.00     0.041 A 
ATOM     79  F   UNL A   1      39.732  29.093  32.802  1.00  0.00    -0.206 F 
ATOM     80  C   UNL A   1      36.740  31.111  32.573  1.00  0.00     0.022 A 
BRANCH  77  81
ATOM     81  S   UNL A   1      35.611  32.693  30.573  1.00  0.00     0.124 S 
ATOM     82  O   UNL A   1      35.530  32.306  29.168  1.00  0.00    -0.237 OA
ATOM     83  O   UNL A   1      34.423  32.435  31.380  1.00  0.00    -0.237 OA
ATOM     84  O   UNL A   1      36.275  33.968  30.833  1.00  0.00    -0.744 OA
ENDBRANCH  77  81
ENDBRANCH  50  74
BRANCH  62  85
ATOM     85  C   UNL A   1      44.763  33.413  29.194  1.00  0.00     0.023 A 
ATOM     86  C   UNL A   1      44.485  34.507  28.356  1.00  0.00     0.031 A 
ATOM     87  C   UNL A   1      45.558  33.637  30.333  1.00  0.00     0.131 A 
ATOM     88  C   UNL A   1      45.050  35.762  28.636  1.00  0.00     0.055 A 
ATOM     89  C   UNL A   1      46.059  34.902  30.643  1.00  0.00     0.041 A 
ATOM     90  F   UNL A   1      45.859  32.629  31.166  1.00  0.00    -0.206 F 
ATOM     91  C   UNL A   1      45.818  35.970  29.784  1.00  0.00     0.022 A 
BRANCH  88  92
ATOM     92  S   UNL A   1      44.849  37.096  27.424  1.00  0.00     0.124 S 
ATOM     93  O   UNL A   1      46.001  36.890  26.552  1.00  0.00    -0.237 OA
ATOM     94  O   UNL A   1      43.546  36.795  26.840  1.00  0.00    -0.237 OA
ATOM     95  O   UNL A   1      44.896  38.309  28.239  1.00  0.00    -0.744 OA
ENDBRANCH  88  92
ENDBRANCH  62  85
ENDBRANCH  36  37
ENDBRANCH  28  31
ENDBRANCH  26  27
ENDBRANCH   1  26
TORSDOF 15
ENDMDL
