MODEL 1
REMARK VINA RESULT:     -12.7      0.000      0.000
REMARK SMILES Cc1ccc(S(=O)(=O)N(CC(=O)NCCCCNC(=O)c2ccc(-c3c4nc(c(-c5cc(S(=O)(=O)[O-])ccc5F)c5ccc([nH]5)c(-c5cc(S(=O)(=O)[O-])ccc5F)c5nc(c(-c6cc(S(=O)(=O)[O-])ccc6F)c6ccc3[nH]6)C=C5)C=C4)cc2)c2cc(Cl)cc(Cl)c2)cc1
REMARK SMILES IDX 15 1 14 2 13 3 11 4 12 5 10 7 9 8 6 9 7 10 8 11 5 12 1 13
REMARK SMILES IDX 2 14 3 15 93 16 4 17 92 18 84 19 85 20 91 21 86 22 89 23
REMARK SMILES IDX 87 24 88 25 90 26 16 27 17 28 18 29 19 30 20 32 21 33 22 34
REMARK SMILES IDX 83 35 23 36 82 37 24 38 25 39 26 40 76 41 27 42 81 43 75 44
REMARK SMILES IDX 77 45 28 46 80 47 74 48 73 49 29 51 61 52 41 53 60 54 42 55
REMARK SMILES IDX 45 56 59 57 78 58 43 59 44 60 58 62 79 63 46 64 30 65 31 66
REMARK SMILES IDX 39 67 32 68 38 69 40 70 37 71 33 72 34 73 35 74 36 75 62 76
REMARK SMILES IDX 63 77 71 78 64 79 70 80 72 81 69 82 65 83 66 84 67 85 68 86
REMARK SMILES IDX 47 87 48 88 56 89 49 90 55 91 57 92 54 93 50 94 51 95 52 96
REMARK SMILES IDX 53 97
REMARK H PARENT 13 6 18 31 77 50 45 61
REMARK Flexibility Score: inf
ROOT
ATOM      1  C   UNL A   1      32.400  30.394  26.675  1.00  0.00     0.023 C 
ENDROOT
BRANCH   1   2
ATOM      2  C   UNL A   1      32.156  28.937  27.092  1.00  0.00     0.116 C 
BRANCH   2   3
ATOM      3  N   UNL A   1      33.227  27.995  26.766  1.00  0.00    -0.355 N 
ATOM      4  C   UNL A   1      33.340  27.060  25.778  1.00  0.00     0.240 C 
ATOM      5  O   UNL A   1      34.460  26.565  25.597  1.00  0.00    -0.273 OA
ATOM      6  H   UNL A   1      34.004  28.044  27.368  1.00  0.00     0.163 HD
BRANCH   4   7
ATOM      7  C   UNL A   1      32.173  26.573  24.923  1.00  0.00     0.235 C 
BRANCH   7   8
ATOM      8  N   UNL A   1      32.076  27.192  23.580  1.00  0.00    -0.257 N 
BRANCH   8   9
ATOM      9  S   UNL A   1      32.673  26.235  22.270  1.00  0.00     0.264 S 
ATOM     10  O   UNL A   1      33.902  26.872  21.829  1.00  0.00    -0.201 OA
ATOM     11  O   UNL A   1      31.570  26.102  21.334  1.00  0.00    -0.201 OA
BRANCH   9  12
ATOM     12  C   UNL A   1      33.088  24.552  22.753  1.00  0.00     0.088 A 
ATOM     13  C   UNL A   1      33.714  20.701  24.634  1.00  0.00     0.044 C 
ATOM     14  C   UNL A   1      33.500  22.014  23.942  1.00  0.00    -0.051 A 
ATOM     15  C   UNL A   1      32.239  22.378  23.458  1.00  0.00     0.005 A 
ATOM     16  C   UNL A   1      34.563  22.897  23.763  1.00  0.00     0.005 A 
ATOM     17  C   UNL A   1      32.034  23.632  22.865  1.00  0.00     0.022 A 
ATOM     18  C   UNL A   1      34.358  24.153  23.181  1.00  0.00     0.022 A 
ENDBRANCH   9  12
ENDBRANCH   8   9
BRANCH   8  19
ATOM     19  C   UNL A   1      30.759  27.844  23.397  1.00  0.00     0.055 A 
ATOM     20  C   UNL A   1      29.618  27.172  23.879  1.00  0.00     0.047 A 
ATOM     21  C   UNL A   1      30.557  29.000  22.636  1.00  0.00     0.047 A 
ATOM     22  C   UNL A   1      28.331  27.610  23.569  1.00  0.00     0.044 A 
ATOM     23  C   UNL A   1      29.260  29.448  22.357  1.00  0.00     0.044 A 
ATOM     24  Cl  UNL A   1      26.967  26.701  24.098  1.00  0.00    -0.084 Cl
ATOM     25  C   UNL A   1      28.144  28.749  22.803  1.00  0.00     0.041 A 
ATOM     26  Cl  UNL A   1      29.032  30.867  21.406  1.00  0.00    -0.084 Cl
ENDBRANCH   8  19
ENDBRANCH   7   8
ENDBRANCH   4   7
ENDBRANCH   2   3
ENDBRANCH   1   2
BRANCH   1  27
ATOM     27  C   UNL A   1      33.301  31.204  27.598  1.00  0.00     0.023 C 
BRANCH  27  28
ATOM     28  C   UNL A   1      34.772  30.807  27.545  1.00  0.00     0.116 C 
BRANCH  28  29
ATOM     29  N   UNL A   1      35.660  31.600  28.398  1.00  0.00    -0.352 N 
ATOM     30  C   UNL A   1      36.797  31.198  29.090  1.00  0.00     0.251 C 
ATOM     31  H   UNL A   1      35.419  32.550  28.495  1.00  0.00     0.163 HD
ATOM     32  O   UNL A   1      37.437  31.968  29.800  1.00  0.00    -0.269 OA
BRANCH  30  33
ATOM     33  C   UNL A   1      37.348  29.847  28.820  1.00  0.00     0.039 A 
ATOM     34  C   UNL A   1      37.446  28.990  29.924  1.00  0.00     0.014 A 
ATOM     35  C   UNL A   1      38.116  29.631  27.686  1.00  0.00     0.014 A 
ATOM     36  C   UNL A   1      38.556  28.164  30.032  1.00  0.00     0.010 A 
ATOM     37  C   UNL A   1      39.289  28.929  27.848  1.00  0.00     0.010 A 
ATOM     38  C   UNL A   1      39.542  28.275  29.060  1.00  0.00    -0.014 A 
BRANCH  38  39
ATOM     39  C   UNL A   1      40.889  27.757  29.209  1.00  0.00     0.031 A 
ATOM     40  C   UNL A   1      41.137  26.364  28.815  1.00  0.00     0.074 A 
ATOM     41  C   UNL A   1      41.895  28.569  29.602  1.00  0.00     0.049 A 
ATOM     42  N   UNL A   1      42.191  25.703  29.128  1.00  0.00    -0.248 NA
ATOM     43  C   UNL A   1      40.147  25.567  28.094  1.00  0.00     0.031 C 
ATOM     44  C   UNL A   1      43.332  28.317  29.526  1.00  0.00     0.029 A 
ATOM     45  N   UNL A   1      41.791  29.708  30.400  1.00  0.00    -0.354 N 
ATOM     46  C   UNL A   1      42.174  24.537  28.403  1.00  0.00     0.074 A 
ATOM     47  C   UNL A   1      40.827  24.433  27.908  1.00  0.00     0.031 C 
ATOM     48  C   UNL A   1      43.958  29.080  30.435  1.00  0.00     0.029 A 
ATOM     49  C   UNL A   1      42.933  29.723  31.233  1.00  0.00     0.049 A 
ATOM     50  H   UNL A   1      41.064  30.371  30.386  1.00  0.00     0.167 HD
ATOM     51  C   UNL A   1      43.357  23.897  28.201  1.00  0.00     0.034 A 
ATOM     52  C   UNL A   1      42.787  29.591  32.587  1.00  0.00     0.034 A 
ATOM     53  C   UNL A   1      44.377  24.407  29.132  1.00  0.00     0.049 A 
ATOM     54  C   UNL A   1      43.378  28.304  33.139  1.00  0.00     0.074 A 
ATOM     55  C   UNL A   1      45.493  25.219  29.020  1.00  0.00     0.029 A 
ATOM     56  N   UNL A   1      44.111  24.323  30.493  1.00  0.00    -0.354 N 
ATOM     57  N   UNL A   1      43.955  27.376  32.422  1.00  0.00    -0.248 NA
ATOM     58  C   UNL A   1      43.290  27.931  34.549  1.00  0.00     0.031 C 
ATOM     59  C   UNL A   1      45.843  25.672  30.334  1.00  0.00     0.029 A 
ATOM     60  C   UNL A   1      44.979  25.092  31.246  1.00  0.00     0.049 A 
ATOM     61  H   UNL A   1      43.388  23.778  30.878  1.00  0.00     0.167 HD
ATOM     62  C   UNL A   1      44.247  26.286  33.205  1.00  0.00     0.074 A 
ATOM     63  C   UNL A   1      43.800  26.687  34.532  1.00  0.00     0.031 C 
ATOM     64  C   UNL A   1      44.793  25.133  32.697  1.00  0.00     0.034 A 
BRANCH  51  65
ATOM     65  C   UNL A   1      43.652  22.962  27.040  1.00  0.00     0.023 A 
ATOM     66  C   UNL A   1      43.002  21.709  27.007  1.00  0.00     0.031 A 
ATOM     67  C   UNL A   1      44.619  23.150  26.024  1.00  0.00     0.131 A 
ATOM     68  C   UNL A   1      43.337  20.726  26.052  1.00  0.00     0.055 A 
ATOM     69  C   UNL A   1      44.928  22.186  25.055  1.00  0.00     0.041 A 
ATOM     70  F   UNL A   1      45.361  24.253  25.915  1.00  0.00    -0.206 F 
ATOM     71  C   UNL A   1      44.295  20.961  25.070  1.00  0.00     0.022 A 
BRANCH  68  72
ATOM     72  S   UNL A   1      42.549  19.098  26.142  1.00  0.00     0.124 S 
ATOM     73  O   UNL A   1      42.386  18.916  27.580  1.00  0.00    -0.237 OA
ATOM     74  O   UNL A   1      41.330  19.302  25.369  1.00  0.00    -0.237 OA
ATOM     75  O   UNL A   1      43.533  18.211  25.518  1.00  0.00    -0.744 OA
ENDBRANCH  68  72
ENDBRANCH  51  65
BRANCH  52  76
ATOM     76  C   UNL A   1      41.552  30.291  33.069  1.00  0.00     0.023 A 
ATOM     77  C   UNL A   1      41.620  31.702  33.101  1.00  0.00     0.031 A 
ATOM     78  C   UNL A   1      40.286  29.700  32.953  1.00  0.00     0.131 A 
ATOM     79  C   UNL A   1      40.499  32.461  32.735  1.00  0.00     0.055 A 
ATOM     80  C   UNL A   1      39.147  30.476  32.706  1.00  0.00     0.041 A 
ATOM     81  F   UNL A   1      40.154  28.366  32.909  1.00  0.00    -0.206 F 
ATOM     82  C   UNL A   1      39.262  31.856  32.521  1.00  0.00     0.022 A 
BRANCH  79  83
ATOM     83  S   UNL A   1      40.790  34.167  32.180  1.00  0.00     0.124 S 
ATOM     84  O   UNL A   1      42.188  34.125  31.771  1.00  0.00    -0.237 OA
ATOM     85  O   UNL A   1      39.808  34.302  31.104  1.00  0.00    -0.237 OA
ATOM     86  O   UNL A   1      40.490  34.979  33.357  1.00  0.00    -0.744 OA
ENDBRANCH  79  83
ENDBRANCH  52  76
BRANCH  64  87
ATOM     87  C   UNL A   1      45.140  23.901  33.524  1.00  0.00     0.023 A 
ATOM     88  C   UNL A   1      46.449  23.604  33.928  1.00  0.00     0.031 A 
ATOM     89  C   UNL A   1      44.166  22.941  33.900  1.00  0.00     0.131 A 
ATOM     90  C   UNL A   1      46.727  22.512  34.773  1.00  0.00     0.055 A 
ATOM     91  C   UNL A   1      44.453  21.816  34.681  1.00  0.00     0.041 A 
ATOM     92  F   UNL A   1      42.879  23.044  33.542  1.00  0.00    -0.206 F 
ATOM     93  C   UNL A   1      45.737  21.609  35.149  1.00  0.00     0.022 A 
BRANCH  90  94
ATOM     94  S   UNL A   1      48.408  22.333  35.419  1.00  0.00     0.124 S 
ATOM     95  O   UNL A   1      48.327  23.019  36.705  1.00  0.00    -0.237 OA
ATOM     96  O   UNL A   1      48.548  20.881  35.485  1.00  0.00    -0.237 OA
ATOM     97  O   UNL A   1      49.236  22.993  34.412  1.00  0.00    -0.744 OA
ENDBRANCH  90  94
ENDBRANCH  64  87
ENDBRANCH  38  39
ENDBRANCH  30  33
ENDBRANCH  28  29
ENDBRANCH  27  28
ENDBRANCH   1  27
TORSDOF 18
ENDMDL
MODEL 2
REMARK VINA RESULT:     -12.3      2.806      4.148
REMARK SMILES Cc1ccc(S(=O)(=O)N(CC(=O)NCCCCNC(=O)c2ccc(-c3c4nc(c(-c5cc(S(=O)(=O)[O-])ccc5F)c5ccc([nH]5)c(-c5cc(S(=O)(=O)[O-])ccc5F)c5nc(c(-c6cc(S(=O)(=O)[O-])ccc6F)c6ccc3[nH]6)C=C5)C=C4)cc2)c2cc(Cl)cc(Cl)c2)cc1
REMARK SMILES IDX 15 1 14 2 13 3 11 4 12 5 10 7 9 8 6 9 7 10 8 11 5 12 1 13
REMARK SMILES IDX 2 14 3 15 93 16 4 17 92 18 84 19 85 20 91 21 86 22 89 23
REMARK SMILES IDX 87 24 88 25 90 26 16 27 17 28 18 29 19 30 20 32 21 33 22 34
REMARK SMILES IDX 83 35 23 36 82 37 24 38 25 39 26 40 76 41 27 42 81 43 75 44
REMARK SMILES IDX 77 45 28 46 80 47 74 48 73 49 29 51 61 52 41 53 60 54 42 55
REMARK SMILES IDX 45 56 59 57 78 58 43 59 44 60 58 62 79 63 46 64 30 65 31 66
REMARK SMILES IDX 39 67 32 68 38 69 40 70 37 71 33 72 34 73 35 74 36 75 62 76
REMARK SMILES IDX 63 77 71 78 64 79 70 80 72 81 69 82 65 83 66 84 67 85 68 86
REMARK SMILES IDX 47 87 48 88 56 89 49 90 55 91 57 92 54 93 50 94 51 95 52 96
REMARK SMILES IDX 53 97
REMARK H PARENT 13 6 18 31 77 50 45 61
REMARK Flexibility Score: inf
ROOT
ATOM      1  C   UNL A   1      35.459  29.306  27.362  1.00  0.00     0.023 C 
ENDROOT
BRANCH   1   2
ATOM      2  C   UNL A   1      34.371  28.858  26.378  1.00  0.00     0.116 C 
BRANCH   2   3
ATOM      3  N   UNL A   1      33.376  29.872  26.025  1.00  0.00    -0.355 N 
ATOM      4  C   UNL A   1      32.122  29.766  25.496  1.00  0.00     0.240 C 
ATOM      5  O   UNL A   1      31.413  30.780  25.522  1.00  0.00    -0.273 OA
ATOM      6  H   UNL A   1      33.664  30.797  26.201  1.00  0.00     0.163 HD
BRANCH   4   7
ATOM      7  C   UNL A   1      31.571  28.497  24.853  1.00  0.00     0.235 C 
BRANCH   7   8
ATOM      8  N   UNL A   1      31.497  28.523  23.373  1.00  0.00    -0.257 N 
BRANCH   8   9
ATOM      9  S   UNL A   1      32.329  27.244  22.559  1.00  0.00     0.264 S 
ATOM     10  O   UNL A   1      33.554  27.826  22.036  1.00  0.00    -0.201 OA
ATOM     11  O   UNL A   1      31.370  26.665  21.635  1.00  0.00    -0.201 OA
BRANCH   9  12
ATOM     12  C   UNL A   1      32.804  25.898  23.655  1.00  0.00     0.088 A 
ATOM     13  C   UNL A   1      33.457  23.042  26.845  1.00  0.00     0.044 C 
ATOM     14  C   UNL A   1      33.241  23.999  25.710  1.00  0.00    -0.051 A 
ATOM     15  C   UNL A   1      32.040  24.009  24.994  1.00  0.00     0.005 A 
ATOM     16  C   UNL A   1      34.244  24.894  25.344  1.00  0.00     0.005 A 
ATOM     17  C   UNL A   1      31.823  24.947  23.973  1.00  0.00     0.022 A 
ATOM     18  C   UNL A   1      34.026  25.836  24.332  1.00  0.00     0.022 A 
ENDBRANCH   9  12
ENDBRANCH   8   9
BRANCH   8  19
ATOM     19  C   UNL A   1      30.120  28.829  22.922  1.00  0.00     0.055 A 
ATOM     20  C   UNL A   1      29.938  29.922  22.052  1.00  0.00     0.047 A 
ATOM     21  C   UNL A   1      28.974  28.208  23.430  1.00  0.00     0.047 A 
ATOM     22  C   UNL A   1      28.666  30.404  21.744  1.00  0.00     0.044 A 
ATOM     23  C   UNL A   1      27.700  28.681  23.091  1.00  0.00     0.044 A 
ATOM     24  Cl  UNL A   1      28.498  31.802  20.754  1.00  0.00    -0.084 Cl
ATOM     25  C   UNL A   1      27.540  29.789  22.264  1.00  0.00     0.041 A 
ATOM     26  Cl  UNL A   1      26.301  27.912  23.738  1.00  0.00    -0.084 Cl
ENDBRANCH   8  19
ENDBRANCH   7   8
ENDBRANCH   4   7
ENDBRANCH   2   3
ENDBRANCH   1   2
BRANCH   1  27
ATOM     27  C   UNL A   1      35.504  30.797  27.665  1.00  0.00     0.023 C 
BRANCH  27  28
ATOM     28  C   UNL A   1      35.423  31.139  29.148  1.00  0.00     0.116 C 
BRANCH  28  29
ATOM     29  N   UNL A   1      34.471  32.199  29.491  1.00  0.00    -0.352 N 
ATOM     30  C   UNL A   1      34.670  33.337  30.263  1.00  0.00     0.251 C 
ATOM     31  H   UNL A   1      33.564  32.089  29.124  1.00  0.00     0.163 HD
ATOM     32  O   UNL A   1      33.767  34.135  30.497  1.00  0.00    -0.269 OA
BRANCH  30  33
ATOM     33  C   UNL A   1      36.056  33.686  30.666  1.00  0.00     0.039 A 
ATOM     34  C   UNL A   1      36.930  34.034  29.628  1.00  0.00     0.014 A 
ATOM     35  C   UNL A   1      36.545  33.256  31.890  1.00  0.00     0.014 A 
ATOM     36  C   UNL A   1      38.247  33.602  29.690  1.00  0.00     0.010 A 
ATOM     37  C   UNL A   1      37.804  32.697  31.899  1.00  0.00     0.010 A 
ATOM     38  C   UNL A   1      38.613  32.795  30.761  1.00  0.00    -0.014 A 
BRANCH  38  39
ATOM     39  C   UNL A   1      39.819  31.990  30.793  1.00  0.00     0.031 A 
ATOM     40  C   UNL A   1      39.750  30.627  30.251  1.00  0.00     0.074 A 
ATOM     41  C   UNL A   1      40.987  32.523  31.215  1.00  0.00     0.049 A 
ATOM     42  N   UNL A   1      40.643  29.727  30.447  1.00  0.00    -0.248 NA
ATOM     43  C   UNL A   1      38.593  30.139  29.503  1.00  0.00     0.031 C 
ATOM     44  C   UNL A   1      42.332  31.981  31.046  1.00  0.00     0.029 A 
ATOM     45  N   UNL A   1      41.152  33.566  32.127  1.00  0.00    -0.354 N 
ATOM     46  C   UNL A   1      40.356  28.676  29.611  1.00  0.00     0.074 A 
ATOM     47  C   UNL A   1      39.007  28.914  29.174  1.00  0.00     0.031 C 
ATOM     48  C   UNL A   1      43.132  32.492  31.995  1.00  0.00     0.029 A 
ATOM     49  C   UNL A   1      42.291  33.249  32.901  1.00  0.00     0.049 A 
ATOM     50  H   UNL A   1      40.585  34.365  32.214  1.00  0.00     0.167 HD
ATOM     51  C   UNL A   1      41.368  27.825  29.290  1.00  0.00     0.034 A 
ATOM     52  C   UNL A   1      42.155  33.007  34.241  1.00  0.00     0.034 A 
ATOM     53  C   UNL A   1      42.497  28.004  30.217  1.00  0.00     0.049 A 
ATOM     54  C   UNL A   1      42.467  31.572  34.634  1.00  0.00     0.074 A 
ATOM     55  C   UNL A   1      43.759  28.568  30.133  1.00  0.00     0.029 A 
ATOM     56  N   UNL A   1      42.255  27.833  31.574  1.00  0.00    -0.354 N 
ATOM     57  N   UNL A   1      42.812  30.625  33.801  1.00  0.00    -0.248 NA
ATOM     58  C   UNL A   1      42.337  31.078  36.002  1.00  0.00     0.031 C 
ATOM     59  C   UNL A   1      44.232  28.793  31.466  1.00  0.00     0.029 A 
ATOM     60  C   UNL A   1      43.287  28.315  32.357  1.00  0.00     0.049 A 
ATOM     61  H   UNL A   1      41.441  27.416  31.938  1.00  0.00     0.167 HD
ATOM     62  C   UNL A   1      42.881  29.421  34.458  1.00  0.00     0.074 A 
ATOM     63  C   UNL A   1      42.566  29.763  35.838  1.00  0.00     0.031 C 
ATOM     64  C   UNL A   1      43.152  28.239  33.812  1.00  0.00     0.034 A 
BRANCH  51  65
ATOM     65  C   UNL A   1      41.423  26.978  28.030  1.00  0.00     0.023 A 
ATOM     66  C   UNL A   1      41.758  25.612  28.154  1.00  0.00     0.031 A 
ATOM     67  C   UNL A   1      41.296  27.434  26.695  1.00  0.00     0.131 A 
ATOM     68  C   UNL A   1      41.982  24.799  27.023  1.00  0.00     0.055 A 
ATOM     69  C   UNL A   1      41.486  26.617  25.573  1.00  0.00     0.041 A 
ATOM     70  F   UNL A   1      41.022  28.699  26.377  1.00  0.00    -0.206 F 
ATOM     71  C   UNL A   1      41.841  25.294  25.730  1.00  0.00     0.022 A 
BRANCH  68  72
ATOM     72  S   UNL A   1      42.525  23.087  27.255  1.00  0.00     0.124 S 
ATOM     73  O   UNL A   1      42.221  22.491  25.958  1.00  0.00    -0.237 OA
ATOM     74  O   UNL A   1      43.936  23.252  27.582  1.00  0.00    -0.237 OA
ATOM     75  O   UNL A   1      41.688  22.613  28.360  1.00  0.00    -0.744 OA
ENDBRANCH  68  72
ENDBRANCH  51  65
BRANCH  52  76
ATOM     76  C   UNL A   1      41.113  33.897  34.849  1.00  0.00     0.023 A 
ATOM     77  C   UNL A   1      39.832  33.323  35.006  1.00  0.00     0.031 A 
ATOM     78  C   UNL A   1      41.463  34.957  35.697  1.00  0.00     0.131 A 
ATOM     79  C   UNL A   1      39.077  33.610  36.153  1.00  0.00     0.055 A 
ATOM     80  C   UNL A   1      40.644  35.321  36.773  1.00  0.00     0.041 A 
ATOM     81  F   UNL A   1      42.667  35.542  35.603  1.00  0.00    -0.206 F 
ATOM     82  C   UNL A   1      39.483  34.597  37.049  1.00  0.00     0.022 A 
BRANCH  79  83
ATOM     83  S   UNL A   1      37.790  32.417  36.628  1.00  0.00     0.124 S 
ATOM     84  O   UNL A   1      36.852  33.253  37.366  1.00  0.00    -0.237 OA
ATOM     85  O   UNL A   1      37.336  31.935  35.324  1.00  0.00    -0.237 OA
ATOM     86  O   UNL A   1      38.508  31.414  37.410  1.00  0.00    -0.744 OA
ENDBRANCH  79  83
ENDBRANCH  52  76
BRANCH  64  87
ATOM     87  C   UNL A   1      43.246  26.880  34.495  1.00  0.00     0.023 A 
ATOM     88  C   UNL A   1      44.467  26.235  34.736  1.00  0.00     0.031 A 
ATOM     89  C   UNL A   1      42.096  26.149  34.890  1.00  0.00     0.131 A 
ATOM     90  C   UNL A   1      44.531  25.027  35.456  1.00  0.00     0.055 A 
ATOM     91  C   UNL A   1      42.155  24.913  35.543  1.00  0.00     0.041 A 
ATOM     92  F   UNL A   1      40.852  26.596  34.677  1.00  0.00    -0.206 F 
ATOM     93  C   UNL A   1      43.380  24.355  35.857  1.00  0.00     0.022 A 
BRANCH  90  94
ATOM     94  S   UNL A   1      46.160  24.381  35.907  1.00  0.00     0.124 S 
ATOM     95  O   UNL A   1      46.090  24.340  37.364  1.00  0.00    -0.237 OA
ATOM     96  O   UNL A   1      46.162  23.084  35.237  1.00  0.00    -0.237 OA
ATOM     97  O   UNL A   1      47.086  25.368  35.356  1.00  0.00    -0.744 OA
ENDBRANCH  90  94
ENDBRANCH  64  87
ENDBRANCH  38  39
ENDBRANCH  30  33
ENDBRANCH  28  29
ENDBRANCH  27  28
ENDBRANCH   1  27
TORSDOF 18
ENDMDL
MODEL 3
REMARK VINA RESULT:     -12.1      3.269      5.221
REMARK SMILES Cc1ccc(S(=O)(=O)N(CC(=O)NCCCCNC(=O)c2ccc(-c3c4nc(c(-c5cc(S(=O)(=O)[O-])ccc5F)c5ccc([nH]5)c(-c5cc(S(=O)(=O)[O-])ccc5F)c5nc(c(-c6cc(S(=O)(=O)[O-])ccc6F)c6ccc3[nH]6)C=C5)C=C4)cc2)c2cc(Cl)cc(Cl)c2)cc1
REMARK SMILES IDX 15 1 14 2 13 3 11 4 12 5 10 7 9 8 6 9 7 10 8 11 5 12 1 13
REMARK SMILES IDX 2 14 3 15 93 16 4 17 92 18 84 19 85 20 91 21 86 22 89 23
REMARK SMILES IDX 87 24 88 25 90 26 16 27 17 28 18 29 19 30 20 32 21 33 22 34
REMARK SMILES IDX 83 35 23 36 82 37 24 38 25 39 26 40 76 41 27 42 81 43 75 44
REMARK SMILES IDX 77 45 28 46 80 47 74 48 73 49 29 51 61 52 41 53 60 54 42 55
REMARK SMILES IDX 45 56 59 57 78 58 43 59 44 60 58 62 79 63 46 64 30 65 31 66
REMARK SMILES IDX 39 67 32 68 38 69 40 70 37 71 33 72 34 73 35 74 36 75 62 76
REMARK SMILES IDX 63 77 71 78 64 79 70 80 72 81 69 82 65 83 66 84 67 85 68 86
REMARK SMILES IDX 47 87 48 88 56 89 49 90 55 91 57 92 54 93 50 94 51 95 52 96
REMARK SMILES IDX 53 97
REMARK H PARENT 13 6 18 31 77 50 45 61
REMARK Flexibility Score: inf
ROOT
ATOM      1  C   UNL A   1      33.496  29.652  27.630  1.00  0.00     0.023 C 
ENDROOT
BRANCH   1   2
ATOM      2  C   UNL A   1      32.710  29.155  26.408  1.00  0.00     0.116 C 
BRANCH   2   3
ATOM      3  N   UNL A   1      31.899  27.955  26.620  1.00  0.00    -0.355 N 
ATOM      4  C   UNL A   1      32.189  26.629  26.477  1.00  0.00     0.240 C 
ATOM      5  O   UNL A   1      31.380  25.822  26.954  1.00  0.00    -0.273 OA
ATOM      6  H   UNL A   1      30.978  28.139  26.917  1.00  0.00     0.163 HD
BRANCH   4   7
ATOM      7  C   UNL A   1      33.416  26.096  25.743  1.00  0.00     0.235 C 
BRANCH   7   8
ATOM      8  N   UNL A   1      33.169  24.920  24.877  1.00  0.00    -0.257 N 
BRANCH   8   9
ATOM      9  S   UNL A   1      32.550  25.268  23.301  1.00  0.00     0.264 S 
ATOM     10  O   UNL A   1      31.862  24.066  22.860  1.00  0.00    -0.201 OA
ATOM     11  O   UNL A   1      33.676  25.762  22.527  1.00  0.00    -0.201 OA
BRANCH   9  12
ATOM     12  C   UNL A   1      31.347  26.606  23.291  1.00  0.00     0.088 A 
ATOM     13  C   UNL A   1      28.123  29.419  22.620  1.00  0.00     0.044 C 
ATOM     14  C   UNL A   1      29.241  28.459  22.895  1.00  0.00    -0.051 A 
ATOM     15  C   UNL A   1      28.997  27.221  23.499  1.00  0.00     0.005 A 
ATOM     16  C   UNL A   1      30.552  28.789  22.558  1.00  0.00     0.005 A 
ATOM     17  C   UNL A   1      30.040  26.304  23.699  1.00  0.00     0.022 A 
ATOM     18  C   UNL A   1      31.592  27.872  22.749  1.00  0.00     0.022 A 
ENDBRANCH   9  12
ENDBRANCH   8   9
BRANCH   8  19
ATOM     19  C   UNL A   1      34.291  23.958  24.967  1.00  0.00     0.055 A 
ATOM     20  C   UNL A   1      34.012  22.595  24.743  1.00  0.00     0.047 A 
ATOM     21  C   UNL A   1      35.574  24.291  25.417  1.00  0.00     0.047 A 
ATOM     22  C   UNL A   1      34.957  21.605  25.008  1.00  0.00     0.044 A 
ATOM     23  C   UNL A   1      36.526  23.291  25.650  1.00  0.00     0.044 A 
ATOM     24  Cl  UNL A   1      34.538  19.947  24.813  1.00  0.00    -0.084 Cl
ATOM     25  C   UNL A   1      36.219  21.946  25.466  1.00  0.00     0.041 A 
ATOM     26  Cl  UNL A   1      38.095  23.720  26.218  1.00  0.00    -0.084 Cl
ENDBRANCH   8  19
ENDBRANCH   7   8
ENDBRANCH   4   7
ENDBRANCH   2   3
ENDBRANCH   1   2
BRANCH   1  27
ATOM     27  C   UNL A   1      34.980  29.906  27.403  1.00  0.00     0.023 C 
BRANCH  27  28
ATOM     28  C   UNL A   1      35.434  31.320  27.747  1.00  0.00     0.116 C 
BRANCH  28  29
ATOM     29  N   UNL A   1      34.362  32.238  28.141  1.00  0.00    -0.352 N 
ATOM     30  C   UNL A   1      34.359  33.201  29.143  1.00  0.00     0.251 C 
ATOM     31  H   UNL A   1      33.527  32.163  27.624  1.00  0.00     0.163 HD
ATOM     32  O   UNL A   1      33.372  33.888  29.387  1.00  0.00    -0.269 OA
BRANCH  30  33
ATOM     33  C   UNL A   1      35.642  33.526  29.815  1.00  0.00     0.039 A 
ATOM     34  C   UNL A   1      36.659  34.027  28.993  1.00  0.00     0.014 A 
ATOM     35  C   UNL A   1      35.941  32.952  31.042  1.00  0.00     0.014 A 
ATOM     36  C   UNL A   1      37.966  33.620  29.223  1.00  0.00     0.010 A 
ATOM     37  C   UNL A   1      37.204  32.426  31.195  1.00  0.00     0.010 A 
ATOM     38  C   UNL A   1      38.185  32.690  30.232  1.00  0.00    -0.014 A 
BRANCH  38  39
ATOM     39  C   UNL A   1      39.404  31.916  30.367  1.00  0.00     0.031 A 
ATOM     40  C   UNL A   1      39.373  30.507  29.954  1.00  0.00     0.074 A 
ATOM     41  C   UNL A   1      40.551  32.508  30.766  1.00  0.00     0.049 A 
ATOM     42  N   UNL A   1      40.277  29.647  30.253  1.00  0.00    -0.248 NA
ATOM     43  C   UNL A   1      38.245  29.929  29.227  1.00  0.00     0.031 C 
ATOM     44  C   UNL A   1      41.910  31.980  30.681  1.00  0.00     0.029 A 
ATOM     45  N   UNL A   1      40.674  33.634  31.580  1.00  0.00    -0.354 N 
ATOM     46  C   UNL A   1      40.031  28.518  29.513  1.00  0.00     0.074 A 
ATOM     47  C   UNL A   1      38.689  28.687  29.023  1.00  0.00     0.031 C 
ATOM     48  C   UNL A   1      42.676  32.593  31.597  1.00  0.00     0.029 A 
ATOM     49  C   UNL A   1      41.798  33.414  32.409  1.00  0.00     0.049 A 
ATOM     50  H   UNL A   1      40.091  34.427  31.579  1.00  0.00     0.167 HD
ATOM     51  C   UNL A   1      41.065  27.661  29.296  1.00  0.00     0.034 A 
ATOM     52  C   UNL A   1      41.632  33.294  33.761  1.00  0.00     0.034 A 
ATOM     53  C   UNL A   1      42.167  27.948  30.230  1.00  0.00     0.049 A 
ATOM     54  C   UNL A   1      41.959  31.908  34.294  1.00  0.00     0.074 A 
ATOM     55  C   UNL A   1      43.420  28.526  30.124  1.00  0.00     0.029 A 
ATOM     56  N   UNL A   1      41.893  27.898  31.591  1.00  0.00    -0.354 N 
ATOM     57  N   UNL A   1      42.342  30.896  33.561  1.00  0.00    -0.248 NA
ATOM     58  C   UNL A   1      41.803  31.540  35.699  1.00  0.00     0.031 C 
ATOM     59  C   UNL A   1      43.855  28.883  31.441  1.00  0.00     0.029 A 
ATOM     60  C   UNL A   1      42.895  28.471  32.350  1.00  0.00     0.049 A 
ATOM     61  H   UNL A   1      41.077  27.500  31.972  1.00  0.00     0.167 HD
ATOM     62  C   UNL A   1      42.416  29.759  34.328  1.00  0.00     0.074 A 
ATOM     63  C   UNL A   1      42.059  30.221  35.663  1.00  0.00     0.031 C 
ATOM     64  C   UNL A   1      42.724  28.528  33.802  1.00  0.00     0.034 A 
BRANCH  51  65
ATOM     65  C   UNL A   1      41.168  26.702  28.122  1.00  0.00     0.023 A 
ATOM     66  C   UNL A   1      41.662  25.402  28.360  1.00  0.00     0.031 A 
ATOM     67  C   UNL A   1      40.937  27.004  26.758  1.00  0.00     0.131 A 
ATOM     68  C   UNL A   1      41.933  24.508  27.303  1.00  0.00     0.055 A 
ATOM     69  C   UNL A   1      41.175  26.104  25.711  1.00  0.00     0.041 A 
ATOM     70  F   UNL A   1      40.507  28.193  26.334  1.00  0.00    -0.206 F 
ATOM     71  C   UNL A   1      41.687  24.851  25.977  1.00  0.00     0.022 A 
BRANCH  68  72
ATOM     72  S   UNL A   1      42.678  22.899  27.671  1.00  0.00     0.124 S 
ATOM     73  O   UNL A   1      41.963  22.014  26.756  1.00  0.00    -0.237 OA
ATOM     74  O   UNL A   1      44.086  23.136  27.379  1.00  0.00    -0.237 OA
ATOM     75  O   UNL A   1      42.368  22.698  29.088  1.00  0.00    -0.744 OA
ENDBRANCH  68  72
ENDBRANCH  51  65
BRANCH  52  76
ATOM     76  C   UNL A   1      40.559  34.216  34.258  1.00  0.00     0.023 A 
ATOM     77  C   UNL A   1      39.383  33.590  34.728  1.00  0.00     0.031 A 
ATOM     78  C   UNL A   1      40.865  35.491  34.755  1.00  0.00     0.131 A 
ATOM     79  C   UNL A   1      38.725  34.103  35.855  1.00  0.00     0.055 A 
ATOM     80  C   UNL A   1      40.126  36.052  35.804  1.00  0.00     0.041 A 
ATOM     81  F   UNL A   1      41.970  36.136  34.355  1.00  0.00    -0.206 F 
ATOM     82  C   UNL A   1      39.098  35.326  36.409  1.00  0.00     0.022 A 
BRANCH  79  83
ATOM     83  S   UNL A   1      37.652  32.968  36.785  1.00  0.00     0.124 S 
ATOM     84  O   UNL A   1      38.137  33.133  38.150  1.00  0.00    -0.237 OA
ATOM     85  O   UNL A   1      36.325  33.515  36.503  1.00  0.00    -0.237 OA
ATOM     86  O   UNL A   1      37.896  31.666  36.170  1.00  0.00    -0.744 OA
ENDBRANCH  79  83
ENDBRANCH  52  76
BRANCH  64  87
ATOM     87  C   UNL A   1      42.824  27.240  34.611  1.00  0.00     0.023 A 
ATOM     88  C   UNL A   1      44.033  26.773  35.145  1.00  0.00     0.031 A 
ATOM     89  C   UNL A   1      41.706  26.397  34.836  1.00  0.00     0.131 A 
ATOM     90  C   UNL A   1      44.080  25.632  35.971  1.00  0.00     0.055 A 
ATOM     91  C   UNL A   1      41.765  25.225  35.596  1.00  0.00     0.041 A 
ATOM     92  F   UNL A   1      40.491  26.667  34.342  1.00  0.00    -0.206 F 
ATOM     93  C   UNL A   1      42.952  24.849  36.196  1.00  0.00     0.022 A 
BRANCH  90  94
ATOM     94  S   UNL A   1      45.642  25.230  36.791  1.00  0.00     0.124 S 
ATOM     95  O   UNL A   1      46.201  24.204  35.918  1.00  0.00    -0.237 OA
ATOM     96  O   UNL A   1      46.327  26.520  36.772  1.00  0.00    -0.237 OA
ATOM     97  O   UNL A   1      45.228  24.766  38.113  1.00  0.00    -0.744 OA
ENDBRANCH  90  94
ENDBRANCH  64  87
ENDBRANCH  38  39
ENDBRANCH  30  33
ENDBRANCH  28  29
ENDBRANCH  27  28
ENDBRANCH   1  27
TORSDOF 18
ENDMDL
