MODEL 1
REMARK VINA RESULT:     -14.0      0.000      0.000
REMARK SMILES O=C(Cn1c(-c2nc(-c3ccc(C(F)(F)F)cc3)no2)cc2ccccc21)NCCCCNC(=O)c1ccc(-c2c3nc(c(-c4cc(S(=O)(=O)[O-])ccc4F)c4ccc([nH]4)c(-c4cc(S(=O)(=O)[O-])ccc4F)c4nc(c(-c5cc(S(=O)(=O)[O-])ccc5F)c5ccc2[nH]5)C=C4)C=C3)cc1
REMARK SMILES IDX 30 1 29 2 28 3 1 4 2 5 3 7 4 8 5 9 27 10 21 11 22 12 26 13
REMARK SMILES IDX 23 14 25 15 24 16 6 17 7 18 20 19 8 20 19 21 9 22 10 23
REMARK SMILES IDX 18 24 11 25 17 26 12 27 13 28 14 29 15 30 16 31 31 32 32 33
REMARK SMILES IDX 33 34 34 35 35 37 36 38 37 39 98 40 38 41 97 42 39 43 40 44
REMARK SMILES IDX 41 45 91 46 42 47 96 48 90 49 92 50 43 51 95 52 89 53 88 54
REMARK SMILES IDX 44 56 76 57 56 58 75 59 57 60 60 61 74 62 93 63 58 64 59 65
REMARK SMILES IDX 73 67 94 68 61 69 45 70 46 71 54 72 47 73 53 74 55 75 52 76
REMARK SMILES IDX 48 77 49 78 50 79 51 80 77 81 78 82 86 83 79 84 85 85 87 86
REMARK SMILES IDX 84 87 80 88 81 89 82 90 83 91 62 92 63 93 71 94 64 95 70 96
REMARK SMILES IDX 72 97 69 98 65 99 66 100 67 101 68 102
REMARK H PARENT 28 6 33 36 92 55 60 66
REMARK Flexibility Score: inf
ROOT
ATOM      1  C   UNL A   1      33.856  27.033  24.952  1.00  0.00     0.023 C 
ENDROOT
BRANCH   1   2
ATOM      2  C   UNL A   1      33.522  25.897  25.911  1.00  0.00     0.116 C 
BRANCH   2   3
ATOM      3  N   UNL A   1      34.044  24.607  25.497  1.00  0.00    -0.355 N 
ATOM      4  O   UNL A   1      32.654  23.372  26.854  1.00  0.00    -0.273 OA
ATOM      5  C   UNL A   1      33.492  23.425  25.958  1.00  0.00     0.239 C 
ATOM      6  H   UNL A   1      34.807  24.573  24.876  1.00  0.00     0.163 HD
BRANCH   5   7
ATOM      7  C   UNL A   1      34.029  22.173  25.308  1.00  0.00     0.222 C 
BRANCH   7   8
ATOM      8  N   UNL A   1      33.206  21.541  24.270  1.00  0.00    -0.327 N 
ATOM      9  C   UNL A   1      32.370  22.108  23.328  1.00  0.00     0.109 A 
ATOM     10  C   UNL A   1      33.247  20.156  24.071  1.00  0.00     0.049 A 
ATOM     11  C   UNL A   1      31.859  21.083  22.554  1.00  0.00     0.042 A 
ATOM     12  C   UNL A   1      32.425  19.864  22.982  1.00  0.00     0.000 A 
ATOM     13  C   UNL A   1      33.960  19.140  24.736  1.00  0.00     0.027 A 
ATOM     14  C   UNL A   1      32.333  18.538  22.515  1.00  0.00     0.010 A 
ATOM     15  C   UNL A   1      33.854  17.828  24.254  1.00  0.00     0.002 A 
ATOM     16  C   UNL A   1      33.057  17.530  23.155  1.00  0.00     0.001 A 
BRANCH   9  17
ATOM     17  C   UNL A   1      32.201  23.492  23.009  1.00  0.00     0.274 A 
ATOM     18  N   UNL A   1      31.261  24.315  23.432  1.00  0.00    -0.185 NA
ATOM     19  O   UNL A   1      33.028  24.073  22.088  1.00  0.00    -0.332 OA
ATOM     20  C   UNL A   1      31.544  25.481  22.732  1.00  0.00     0.202 A 
ATOM     21  N   UNL A   1      32.599  25.368  21.910  1.00  0.00    -0.057 NA
BRANCH  20  22
ATOM     22  C   UNL A   1      30.803  26.741  22.834  1.00  0.00     0.023 A 
ATOM     23  C   UNL A   1      31.402  27.923  22.359  1.00  0.00     0.013 A 
ATOM     24  C   UNL A   1      29.526  26.830  23.399  1.00  0.00     0.013 A 
ATOM     25  C   UNL A   1      30.760  29.158  22.454  1.00  0.00     0.014 A 
ATOM     26  C   UNL A   1      28.875  28.075  23.495  1.00  0.00     0.014 A 
ATOM     27  C   UNL A   1      29.489  29.251  23.028  1.00  0.00     0.056 A 
BRANCH  27  28
ATOM     28  C   UNL A   1      28.834  30.607  23.141  1.00  0.00     0.416 C 
ATOM     29  F   UNL A   1      29.265  31.307  24.227  1.00  0.00    -0.166 F 
ATOM     30  F   UNL A   1      29.093  31.401  22.063  1.00  0.00    -0.166 F 
ATOM     31  F   UNL A   1      27.477  30.556  23.243  1.00  0.00    -0.166 F 
ENDBRANCH  27  28
ENDBRANCH  20  22
ENDBRANCH   9  17
ENDBRANCH   7   8
ENDBRANCH   5   7
ENDBRANCH   2   3
ENDBRANCH   1   2
BRANCH   1  32
ATOM     32  C   UNL A   1      33.822  28.446  25.545  1.00  0.00     0.023 C 
BRANCH  32  33
ATOM     33  C   UNL A   1      33.497  28.544  27.038  1.00  0.00     0.116 C 
BRANCH  33  34
ATOM     34  N   UNL A   1      33.594  29.876  27.599  1.00  0.00    -0.352 N 
ATOM     35  C   UNL A   1      34.630  30.668  28.019  1.00  0.00     0.251 C 
ATOM     36  H   UNL A   1      32.717  30.310  27.704  1.00  0.00     0.163 HD
ATOM     37  O   UNL A   1      34.355  31.858  28.196  1.00  0.00    -0.269 OA
BRANCH  35  38
ATOM     38  C   UNL A   1      36.003  30.192  28.351  1.00  0.00     0.039 A 
ATOM     39  C   UNL A   1      37.057  30.064  27.448  1.00  0.00     0.014 A 
ATOM     40  C   UNL A   1      36.202  29.753  29.677  1.00  0.00     0.014 A 
ATOM     41  C   UNL A   1      38.220  29.398  27.821  1.00  0.00     0.010 A 
ATOM     42  C   UNL A   1      37.374  29.105  30.061  1.00  0.00     0.010 A 
ATOM     43  C   UNL A   1      38.360  28.874  29.112  1.00  0.00    -0.014 A 
BRANCH  43  44
ATOM     44  C   UNL A   1      39.607  28.180  29.429  1.00  0.00     0.031 A 
ATOM     45  C   UNL A   1      40.007  28.289  30.855  1.00  0.00     0.074 A 
ATOM     46  C   UNL A   1      40.330  27.453  28.551  1.00  0.00     0.049 A 
ATOM     47  N   UNL A   1      40.967  28.996  31.351  1.00  0.00    -0.248 NA
ATOM     48  C   UNL A   1      39.133  27.674  31.864  1.00  0.00     0.031 C 
ATOM     49  C   UNL A   1      39.907  26.984  27.228  1.00  0.00     0.029 A 
ATOM     50  N   UNL A   1      41.572  26.895  28.689  1.00  0.00    -0.354 N 
ATOM     51  C   UNL A   1      40.970  28.719  32.718  1.00  0.00     0.074 A 
ATOM     52  C   UNL A   1      39.715  28.071  32.997  1.00  0.00     0.031 C 
ATOM     53  C   UNL A   1      40.759  26.027  26.798  1.00  0.00     0.029 A 
ATOM     54  C   UNL A   1      41.879  25.946  27.722  1.00  0.00     0.049 A 
ATOM     55  H   UNL A   1      42.195  27.145  29.410  1.00  0.00     0.167 HD
ATOM     56  C   UNL A   1      42.120  28.805  33.446  1.00  0.00     0.034 A 
ATOM     57  C   UNL A   1      42.953  25.122  27.688  1.00  0.00     0.034 A 
ATOM     58  C   UNL A   1      43.156  29.456  32.692  1.00  0.00     0.049 A 
ATOM     59  C   UNL A   1      44.026  25.696  28.524  1.00  0.00     0.074 A 
ATOM     60  C   UNL A   1      43.546  30.747  32.421  1.00  0.00     0.029 A 
ATOM     61  N   UNL A   1      43.782  28.635  31.796  1.00  0.00    -0.354 N 
ATOM     62  N   UNL A   1      44.671  26.786  28.220  1.00  0.00    -0.248 NA
ATOM     63  C   UNL A   1      44.190  25.229  29.898  1.00  0.00     0.031 C 
ATOM     64  C   UNL A   1      44.340  30.681  31.240  1.00  0.00     0.029 A 
ATOM     65  C   UNL A   1      44.449  29.351  30.840  1.00  0.00     0.049 A 
ATOM     66  H   UNL A   1      43.756  27.651  31.834  1.00  0.00     0.167 HD
ATOM     67  C   UNL A   1      44.921  27.368  29.444  1.00  0.00     0.074 A 
ATOM     68  C   UNL A   1      44.792  26.298  30.423  1.00  0.00     0.031 C 
ATOM     69  C   UNL A   1      44.866  28.719  29.605  1.00  0.00     0.034 A 
BRANCH  56  70
ATOM     70  C   UNL A   1      42.466  27.922  34.628  1.00  0.00     0.023 A 
ATOM     71  C   UNL A   1      42.918  26.597  34.493  1.00  0.00     0.031 A 
ATOM     72  C   UNL A   1      42.591  28.479  35.920  1.00  0.00     0.131 A 
ATOM     73  C   UNL A   1      43.452  25.884  35.575  1.00  0.00     0.055 A 
ATOM     74  C   UNL A   1      43.184  27.791  36.988  1.00  0.00     0.041 A 
ATOM     75  F   UNL A   1      42.189  29.735  36.176  1.00  0.00    -0.206 F 
ATOM     76  C   UNL A   1      43.622  26.485  36.818  1.00  0.00     0.022 A 
BRANCH  73  77
ATOM     77  S   UNL A   1      43.956  24.154  35.367  1.00  0.00     0.124 S 
ATOM     78  O   UNL A   1      44.622  23.878  36.636  1.00  0.00    -0.237 OA
ATOM     79  O   UNL A   1      42.665  23.496  35.174  1.00  0.00    -0.237 OA
ATOM     80  O   UNL A   1      44.815  24.188  34.188  1.00  0.00    -0.744 OA
ENDBRANCH  73  77
ENDBRANCH  56  70
BRANCH  57  81
ATOM     81  C   UNL A   1      42.964  23.688  27.318  1.00  0.00     0.023 A 
ATOM     82  C   UNL A   1      43.929  23.233  26.402  1.00  0.00     0.031 A 
ATOM     83  C   UNL A   1      41.855  22.858  27.563  1.00  0.00     0.131 A 
ATOM     84  C   UNL A   1      43.738  22.030  25.714  1.00  0.00     0.055 A 
ATOM     85  C   UNL A   1      41.680  21.642  26.892  1.00  0.00     0.041 A 
ATOM     86  F   UNL A   1      40.883  23.251  28.400  1.00  0.00    -0.206 F 
ATOM     87  C   UNL A   1      42.614  21.232  25.945  1.00  0.00     0.022 A 
BRANCH  84  88
ATOM     88  S   UNL A   1      44.886  21.532  24.401  1.00  0.00     0.124 S 
ATOM     89  O   UNL A   1      44.524  20.134  24.193  1.00  0.00    -0.237 OA
ATOM     90  O   UNL A   1      44.521  22.446  23.327  1.00  0.00    -0.237 OA
ATOM     91  O   UNL A   1      46.203  21.747  25.002  1.00  0.00    -0.744 OA
ENDBRANCH  84  88
ENDBRANCH  57  81
BRANCH  69  92
ATOM     92  C   UNL A   1      45.086  29.599  28.411  1.00  0.00     0.023 A 
ATOM     93  C   UNL A   1      46.415  29.976  28.164  1.00  0.00     0.031 A 
ATOM     94  C   UNL A   1      44.076  30.197  27.640  1.00  0.00     0.131 A 
ATOM     95  C   UNL A   1      46.705  30.971  27.231  1.00  0.00     0.055 A 
ATOM     96  C   UNL A   1      44.378  31.137  26.647  1.00  0.00     0.041 A 
ATOM     97  F   UNL A   1      42.778  29.949  27.869  1.00  0.00    -0.206 F 
ATOM     98  C   UNL A   1      45.696  31.544  26.454  1.00  0.00     0.022 A 
BRANCH  95  99
ATOM     99  S   UNL A   1      48.378  31.657  27.141  1.00  0.00     0.124 S 
ATOM    100  O   UNL A   1      49.153  30.521  26.653  1.00  0.00    -0.237 OA
ATOM    101  O   UNL A   1      48.210  32.758  26.194  1.00  0.00    -0.237 OA
ATOM    102  O   UNL A   1      48.666  32.067  28.514  1.00  0.00    -0.744 OA
ENDBRANCH  95  99
ENDBRANCH  69  92
ENDBRANCH  43  44
ENDBRANCH  35  38
ENDBRANCH  33  34
ENDBRANCH  32  33
ENDBRANCH   1  32
TORSDOF 18
ENDMDL
MODEL 2
REMARK VINA RESULT:     -13.7      4.068      9.362
REMARK SMILES O=C(Cn1c(-c2nc(-c3ccc(C(F)(F)F)cc3)no2)cc2ccccc21)NCCCCNC(=O)c1ccc(-c2c3nc(c(-c4cc(S(=O)(=O)[O-])ccc4F)c4ccc([nH]4)c(-c4cc(S(=O)(=O)[O-])ccc4F)c4nc(c(-c5cc(S(=O)(=O)[O-])ccc5F)c5ccc2[nH]5)C=C4)C=C3)cc1
REMARK SMILES IDX 30 1 29 2 28 3 1 4 2 5 3 7 4 8 5 9 27 10 21 11 22 12 26 13
REMARK SMILES IDX 23 14 25 15 24 16 6 17 7 18 20 19 8 20 19 21 9 22 10 23
REMARK SMILES IDX 18 24 11 25 17 26 12 27 13 28 14 29 15 30 16 31 31 32 32 33
REMARK SMILES IDX 33 34 34 35 35 37 36 38 37 39 98 40 38 41 97 42 39 43 40 44
REMARK SMILES IDX 41 45 91 46 42 47 96 48 90 49 92 50 43 51 95 52 89 53 88 54
REMARK SMILES IDX 44 56 76 57 56 58 75 59 57 60 60 61 74 62 93 63 58 64 59 65
REMARK SMILES IDX 73 67 94 68 61 69 45 70 46 71 54 72 47 73 53 74 55 75 52 76
REMARK SMILES IDX 48 77 49 78 50 79 51 80 77 81 78 82 86 83 79 84 85 85 87 86
REMARK SMILES IDX 84 87 80 88 81 89 82 90 83 91 62 92 63 93 71 94 64 95 70 96
REMARK SMILES IDX 72 97 69 98 65 99 66 100 67 101 68 102
REMARK H PARENT 28 6 33 36 92 55 60 66
REMARK Flexibility Score: inf
ROOT
ATOM      1  C   UNL A   1      35.536  22.506  24.348  1.00  0.00     0.023 C 
ENDROOT
BRANCH   1   2
ATOM      2  C   UNL A   1      35.125  23.471  23.243  1.00  0.00     0.116 C 
BRANCH   2   3
ATOM      3  N   UNL A   1      34.434  24.654  23.724  1.00  0.00    -0.355 N 
ATOM      4  O   UNL A   1      33.800  25.391  21.637  1.00  0.00    -0.273 OA
ATOM      5  C   UNL A   1      33.746  25.487  22.860  1.00  0.00     0.239 C 
ATOM      6  H   UNL A   1      34.457  24.868  24.685  1.00  0.00     0.163 HD
BRANCH   5   7
ATOM      7  C   UNL A   1      32.940  26.574  23.529  1.00  0.00     0.222 C 
BRANCH   7   8
ATOM      8  N   UNL A   1      31.479  26.436  23.525  1.00  0.00    -0.327 N 
ATOM      9  C   UNL A   1      30.687  25.334  23.783  1.00  0.00     0.109 A 
ATOM     10  C   UNL A   1      30.657  27.547  23.300  1.00  0.00     0.049 A 
ATOM     11  C   UNL A   1      29.368  25.738  23.692  1.00  0.00     0.042 A 
ATOM     12  C   UNL A   1      29.334  27.123  23.428  1.00  0.00     0.000 A 
ATOM     13  C   UNL A   1      30.964  28.894  23.027  1.00  0.00     0.027 A 
ATOM     14  C   UNL A   1      28.288  28.061  23.319  1.00  0.00     0.010 A 
ATOM     15  C   UNL A   1      29.909  29.809  22.922  1.00  0.00     0.002 A 
ATOM     16  C   UNL A   1      28.588  29.402  23.072  1.00  0.00     0.001 A 
BRANCH   9  17
ATOM     17  C   UNL A   1      31.084  24.053  24.281  1.00  0.00     0.274 A 
ATOM     18  N   UNL A   1      31.596  23.041  23.607  1.00  0.00    -0.185 NA
ATOM     19  O   UNL A   1      30.848  23.742  25.591  1.00  0.00    -0.332 OA
ATOM     20  C   UNL A   1      31.692  22.051  24.576  1.00  0.00     0.202 A 
ATOM     21  N   UNL A   1      31.245  22.439  25.781  1.00  0.00    -0.057 NA
BRANCH  20  22
ATOM     22  C   UNL A   1      32.216  20.699  24.368  1.00  0.00     0.023 A 
ATOM     23  C   UNL A   1      32.839  20.038  25.444  1.00  0.00     0.013 A 
ATOM     24  C   UNL A   1      32.142  20.034  23.140  1.00  0.00     0.013 A 
ATOM     25  C   UNL A   1      33.384  18.761  25.302  1.00  0.00     0.014 A 
ATOM     26  C   UNL A   1      32.690  18.744  22.994  1.00  0.00     0.014 A 
ATOM     27  C   UNL A   1      33.320  18.099  24.072  1.00  0.00     0.056 A 
BRANCH  27  28
ATOM     28  C   UNL A   1      33.945  16.731  23.945  1.00  0.00     0.416 C 
ATOM     29  F   UNL A   1      35.030  16.573  24.754  1.00  0.00    -0.166 F 
ATOM     30  F   UNL A   1      33.082  15.731  24.286  1.00  0.00    -0.166 F 
ATOM     31  F   UNL A   1      34.371  16.435  22.686  1.00  0.00    -0.166 F 
ENDBRANCH  27  28
ENDBRANCH  20  22
ENDBRANCH   9  17
ENDBRANCH   7   8
ENDBRANCH   5   7
ENDBRANCH   2   3
ENDBRANCH   1   2
BRANCH   1  32
ATOM     32  C   UNL A   1      37.025  22.147  24.408  1.00  0.00     0.023 C 
BRANCH  32  33
ATOM     33  C   UNL A   1      37.737  22.441  25.731  1.00  0.00     0.116 C 
BRANCH  33  34
ATOM     34  N   UNL A   1      39.071  21.890  25.844  1.00  0.00    -0.352 N 
ATOM     35  C   UNL A   1      40.215  22.266  26.498  1.00  0.00     0.251 C 
ATOM     36  H   UNL A   1      39.182  21.054  25.335  1.00  0.00     0.163 HD
ATOM     37  O   UNL A   1      41.092  21.402  26.581  1.00  0.00    -0.269 OA
BRANCH  35  38
ATOM     38  C   UNL A   1      40.499  23.632  27.025  1.00  0.00     0.039 A 
ATOM     39  C   UNL A   1      41.474  23.950  27.968  1.00  0.00     0.014 A 
ATOM     40  C   UNL A   1      39.636  24.657  26.583  1.00  0.00     0.014 A 
ATOM     41  C   UNL A   1      41.497  25.214  28.550  1.00  0.00     0.010 A 
ATOM     42  C   UNL A   1      39.670  25.930  27.147  1.00  0.00     0.010 A 
ATOM     43  C   UNL A   1      40.564  26.189  28.177  1.00  0.00    -0.014 A 
BRANCH  43  44
ATOM     44  C   UNL A   1      40.645  27.490  28.837  1.00  0.00     0.031 A 
ATOM     45  C   UNL A   1      41.633  28.413  28.224  1.00  0.00     0.074 A 
ATOM     46  C   UNL A   1      39.875  27.878  29.876  1.00  0.00     0.049 A 
ATOM     47  N   UNL A   1      42.782  28.764  28.698  1.00  0.00    -0.248 NA
ATOM     48  C   UNL A   1      41.391  28.864  26.846  1.00  0.00     0.031 C 
ATOM     49  C   UNL A   1      38.657  27.226  30.368  1.00  0.00     0.029 A 
ATOM     50  N   UNL A   1      39.963  28.993  30.664  1.00  0.00    -0.354 N 
ATOM     51  C   UNL A   1      43.302  29.679  27.783  1.00  0.00     0.074 A 
ATOM     52  C   UNL A   1      42.509  29.546  26.590  1.00  0.00     0.031 C 
ATOM     53  C   UNL A   1      37.996  28.073  31.190  1.00  0.00     0.029 A 
ATOM     54  C   UNL A   1      38.827  29.242  31.425  1.00  0.00     0.049 A 
ATOM     55  H   UNL A   1      40.762  29.569  30.691  1.00  0.00     0.167 HD
ATOM     56  C   UNL A   1      44.167  30.655  28.186  1.00  0.00     0.034 A 
ATOM     57  C   UNL A   1      38.559  30.342  32.170  1.00  0.00     0.034 A 
ATOM     58  C   UNL A   1      44.631  30.408  29.523  1.00  0.00     0.049 A 
ATOM     59  C   UNL A   1      39.828  31.023  32.495  1.00  0.00     0.074 A 
ATOM     60  C   UNL A   1      45.613  29.659  30.128  1.00  0.00     0.029 A 
ATOM     61  N   UNL A   1      43.744  30.791  30.492  1.00  0.00    -0.354 N 
ATOM     62  N   UNL A   1      40.730  30.525  33.291  1.00  0.00    -0.248 NA
ATOM     63  C   UNL A   1      40.264  32.151  31.677  1.00  0.00     0.031 C 
ATOM     64  C   UNL A   1      45.213  29.502  31.486  1.00  0.00     0.029 A 
ATOM     65  C   UNL A   1      44.019  30.190  31.690  1.00  0.00     0.049 A 
ATOM     66  H   UNL A   1      43.002  31.421  30.345  1.00  0.00     0.167 HD
ATOM     67  C   UNL A   1      41.920  30.955  32.745  1.00  0.00     0.074 A 
ATOM     68  C   UNL A   1      41.578  32.090  31.900  1.00  0.00     0.031 C 
ATOM     69  C   UNL A   1      43.021  30.155  32.740  1.00  0.00     0.034 A 
BRANCH  56  70
ATOM     70  C   UNL A   1      44.246  32.045  27.586  1.00  0.00     0.023 A 
ATOM     71  C   UNL A   1      43.614  33.164  28.155  1.00  0.00     0.031 A 
ATOM     72  C   UNL A   1      45.175  32.325  26.559  1.00  0.00     0.131 A 
ATOM     73  C   UNL A   1      43.891  34.469  27.722  1.00  0.00     0.055 A 
ATOM     74  C   UNL A   1      45.501  33.631  26.169  1.00  0.00     0.041 A 
ATOM     75  F   UNL A   1      45.838  31.338  25.936  1.00  0.00    -0.206 F 
ATOM     76  C   UNL A   1      44.859  34.714  26.754  1.00  0.00     0.022 A 
BRANCH  73  77
ATOM     77  S   UNL A   1      42.997  35.876  28.437  1.00  0.00     0.124 S 
ATOM     78  O   UNL A   1      42.985  36.823  27.327  1.00  0.00    -0.237 OA
ATOM     79  O   UNL A   1      41.709  35.268  28.764  1.00  0.00    -0.237 OA
ATOM     80  O   UNL A   1      43.814  36.250  29.587  1.00  0.00    -0.744 OA
ENDBRANCH  73  77
ENDBRANCH  56  70
BRANCH  57  81
ATOM     81  C   UNL A   1      37.267  31.057  32.268  1.00  0.00     0.023 A 
ATOM     82  C   UNL A   1      36.605  31.423  31.083  1.00  0.00     0.031 A 
ATOM     83  C   UNL A   1      36.863  31.683  33.461  1.00  0.00     0.131 A 
ATOM     84  C   UNL A   1      35.633  32.430  31.099  1.00  0.00     0.055 A 
ATOM     85  C   UNL A   1      35.872  32.672  33.477  1.00  0.00     0.041 A 
ATOM     86  F   UNL A   1      37.478  31.402  34.620  1.00  0.00    -0.206 F 
ATOM     87  C   UNL A   1      35.266  33.066  32.288  1.00  0.00     0.022 A 
BRANCH  84  88
ATOM     88  S   UNL A   1      34.911  33.032  29.548  1.00  0.00     0.124 S 
ATOM     89  O   UNL A   1      33.886  33.955  30.025  1.00  0.00    -0.237 OA
ATOM     90  O   UNL A   1      36.064  33.647  28.904  1.00  0.00    -0.237 OA
ATOM     91  O   UNL A   1      34.401  31.815  28.915  1.00  0.00    -0.744 OA
ENDBRANCH  84  88
ENDBRANCH  57  81
BRANCH  69  92
ATOM     92  C   UNL A   1      43.135  29.075  33.773  1.00  0.00     0.023 A 
ATOM     93  C   UNL A   1      43.745  29.443  34.982  1.00  0.00     0.031 A 
ATOM     94  C   UNL A   1      42.841  27.716  33.570  1.00  0.00     0.131 A 
ATOM     95  C   UNL A   1      44.111  28.473  35.914  1.00  0.00     0.055 A 
ATOM     96  C   UNL A   1      43.137  26.753  34.543  1.00  0.00     0.041 A 
ATOM     97  F   UNL A   1      42.333  27.273  32.411  1.00  0.00    -0.206 F 
ATOM     98  C   UNL A   1      43.794  27.127  35.712  1.00  0.00     0.022 A 
BRANCH  95  99
ATOM     99  S   UNL A   1      45.159  28.927  37.319  1.00  0.00     0.124 S 
ATOM    100  O   UNL A   1      44.315  29.873  38.042  1.00  0.00    -0.237 OA
ATOM    101  O   UNL A   1      45.367  27.638  37.977  1.00  0.00    -0.237 OA
ATOM    102  O   UNL A   1      46.351  29.499  36.698  1.00  0.00    -0.744 OA
ENDBRANCH  95  99
ENDBRANCH  69  92
ENDBRANCH  43  44
ENDBRANCH  35  38
ENDBRANCH  33  34
ENDBRANCH  32  33
ENDBRANCH   1  32
TORSDOF 18
ENDMDL
MODEL 3
REMARK VINA RESULT:     -13.4      1.949      7.108
REMARK SMILES O=C(Cn1c(-c2nc(-c3ccc(C(F)(F)F)cc3)no2)cc2ccccc21)NCCCCNC(=O)c1ccc(-c2c3nc(c(-c4cc(S(=O)(=O)[O-])ccc4F)c4ccc([nH]4)c(-c4cc(S(=O)(=O)[O-])ccc4F)c4nc(c(-c5cc(S(=O)(=O)[O-])ccc5F)c5ccc2[nH]5)C=C4)C=C3)cc1
REMARK SMILES IDX 30 1 29 2 28 3 1 4 2 5 3 7 4 8 5 9 27 10 21 11 22 12 26 13
REMARK SMILES IDX 23 14 25 15 24 16 6 17 7 18 20 19 8 20 19 21 9 22 10 23
REMARK SMILES IDX 18 24 11 25 17 26 12 27 13 28 14 29 15 30 16 31 31 32 32 33
REMARK SMILES IDX 33 34 34 35 35 37 36 38 37 39 98 40 38 41 97 42 39 43 40 44
REMARK SMILES IDX 41 45 91 46 42 47 96 48 90 49 92 50 43 51 95 52 89 53 88 54
REMARK SMILES IDX 44 56 76 57 56 58 75 59 57 60 60 61 74 62 93 63 58 64 59 65
REMARK SMILES IDX 73 67 94 68 61 69 45 70 46 71 54 72 47 73 53 74 55 75 52 76
REMARK SMILES IDX 48 77 49 78 50 79 51 80 77 81 78 82 86 83 79 84 85 85 87 86
REMARK SMILES IDX 84 87 80 88 81 89 82 90 83 91 62 92 63 93 71 94 64 95 70 96
REMARK SMILES IDX 72 97 69 98 65 99 66 100 67 101 68 102
REMARK H PARENT 28 6 33 36 92 55 60 66
REMARK Flexibility Score: inf
ROOT
ATOM      1  C   UNL A   1      32.704  27.654  26.221  1.00  0.00     0.023 C 
ENDROOT
BRANCH   1   2
ATOM      2  C   UNL A   1      33.552  26.392  26.141  1.00  0.00     0.116 C 
BRANCH   2   3
ATOM      3  N   UNL A   1      32.780  25.175  25.963  1.00  0.00    -0.355 N 
ATOM      4  O   UNL A   1      34.579  23.753  26.166  1.00  0.00    -0.273 OA
ATOM      5  C   UNL A   1      33.366  23.927  26.076  1.00  0.00     0.239 C 
ATOM      6  H   UNL A   1      31.820  25.240  25.758  1.00  0.00     0.163 HD
BRANCH   5   7
ATOM      7  C   UNL A   1      32.405  22.765  26.036  1.00  0.00     0.222 C 
BRANCH   7   8
ATOM      8  N   UNL A   1      32.176  22.117  24.739  1.00  0.00    -0.327 N 
ATOM      9  C   UNL A   1      31.766  22.655  23.535  1.00  0.00     0.109 A 
ATOM     10  C   UNL A   1      32.448  20.755  24.563  1.00  0.00     0.049 A 
ATOM     11  C   UNL A   1      31.748  21.631  22.606  1.00  0.00     0.042 A 
ATOM     12  C   UNL A   1      32.207  20.449  23.223  1.00  0.00     0.000 A 
ATOM     13  C   UNL A   1      32.916  19.774  25.459  1.00  0.00     0.027 A 
ATOM     14  C   UNL A   1      32.467  19.148  22.748  1.00  0.00     0.010 A 
ATOM     15  C   UNL A   1      33.168  18.488  24.965  1.00  0.00     0.002 A 
ATOM     16  C   UNL A   1      32.954  18.178  23.627  1.00  0.00     0.001 A 
BRANCH   9  17
ATOM     17  C   UNL A   1      31.600  24.033  23.189  1.00  0.00     0.274 A 
ATOM     18  N   UNL A   1      30.680  24.875  23.619  1.00  0.00    -0.185 NA
ATOM     19  O   UNL A   1      32.406  24.584  22.232  1.00  0.00    -0.332 OA
ATOM     20  C   UNL A   1      30.953  26.021  22.884  1.00  0.00     0.202 A 
ATOM     21  N   UNL A   1      31.984  25.879  22.036  1.00  0.00    -0.057 NA
BRANCH  20  22
ATOM     22  C   UNL A   1      30.226  27.290  22.978  1.00  0.00     0.023 A 
ATOM     23  C   UNL A   1      30.932  28.494  22.792  1.00  0.00     0.013 A 
ATOM     24  C   UNL A   1      28.858  27.365  23.260  1.00  0.00     0.013 A 
ATOM     25  C   UNL A   1      30.303  29.735  22.897  1.00  0.00     0.014 A 
ATOM     26  C   UNL A   1      28.220  28.616  23.366  1.00  0.00     0.014 A 
ATOM     27  C   UNL A   1      28.938  29.812  23.190  1.00  0.00     0.056 A 
BRANCH  27  28
ATOM     28  C   UNL A   1      28.295  31.171  23.324  1.00  0.00     0.416 C 
ATOM     29  F   UNL A   1      29.145  32.105  23.836  1.00  0.00    -0.166 F 
ATOM     30  F   UNL A   1      27.877  31.670  22.125  1.00  0.00    -0.166 F 
ATOM     31  F   UNL A   1      27.197  31.184  24.130  1.00  0.00    -0.166 F 
ENDBRANCH  27  28
ENDBRANCH  20  22
ENDBRANCH   9  17
ENDBRANCH   7   8
ENDBRANCH   5   7
ENDBRANCH   2   3
ENDBRANCH   1   2
BRANCH   1  32
ATOM     32  C   UNL A   1      33.471  28.981  26.245  1.00  0.00     0.023 C 
BRANCH  32  33
ATOM     33  C   UNL A   1      34.898  28.926  26.796  1.00  0.00     0.116 C 
BRANCH  33  34
ATOM     34  N   UNL A   1      35.077  29.540  28.096  1.00  0.00    -0.352 N 
ATOM     35  C   UNL A   1      36.160  29.816  28.888  1.00  0.00     0.251 C 
ATOM     36  H   UNL A   1      34.226  29.824  28.502  1.00  0.00     0.163 HD
ATOM     37  O   UNL A   1      35.954  30.595  29.823  1.00  0.00    -0.269 OA
BRANCH  35  38
ATOM     38  C   UNL A   1      37.508  29.194  28.755  1.00  0.00     0.039 A 
ATOM     39  C   UNL A   1      38.081  28.301  29.658  1.00  0.00     0.014 A 
ATOM     40  C   UNL A   1      38.286  29.632  27.662  1.00  0.00     0.014 A 
ATOM     41  C   UNL A   1      39.427  27.963  29.548  1.00  0.00     0.010 A 
ATOM     42  C   UNL A   1      39.628  29.279  27.537  1.00  0.00     0.010 A 
ATOM     43  C   UNL A   1      40.214  28.491  28.517  1.00  0.00    -0.014 A 
BRANCH  43  44
ATOM     44  C   UNL A   1      41.621  28.098  28.472  1.00  0.00     0.031 A 
ATOM     45  C   UNL A   1      41.854  26.781  27.827  1.00  0.00     0.074 A 
ATOM     46  C   UNL A   1      42.648  28.855  28.913  1.00  0.00     0.049 A 
ATOM     47  N   UNL A   1      42.176  25.670  28.402  1.00  0.00    -0.248 NA
ATOM     48  C   UNL A   1      41.526  26.644  26.401  1.00  0.00     0.031 C 
ATOM     49  C   UNL A   1      42.616  30.279  29.259  1.00  0.00     0.029 A 
ATOM     50  N   UNL A   1      43.971  28.535  29.063  1.00  0.00    -0.354 N 
ATOM     51  C   UNL A   1      42.331  24.744  27.370  1.00  0.00     0.074 A 
ATOM     52  C   UNL A   1      41.730  25.340  26.206  1.00  0.00     0.031 C 
ATOM     53  C   UNL A   1      43.881  30.750  29.337  1.00  0.00     0.029 A 
ATOM     54  C   UNL A   1      44.805  29.633  29.229  1.00  0.00     0.049 A 
ATOM     55  H   UNL A   1      44.302  27.607  29.055  1.00  0.00     0.167 HD
ATOM     56  C   UNL A   1      43.180  23.685  27.504  1.00  0.00     0.034 A 
ATOM     57  C   UNL A   1      46.160  29.644  29.243  1.00  0.00     0.034 A 
ATOM     58  C   UNL A   1      43.610  23.542  28.867  1.00  0.00     0.049 A 
ATOM     59  C   UNL A   1      46.648  28.291  29.574  1.00  0.00     0.074 A 
ATOM     60  C   UNL A   1      43.134  22.963  30.020  1.00  0.00     0.029 A 
ATOM     61  N   UNL A   1      44.619  24.397  29.217  1.00  0.00    -0.354 N 
ATOM     62  N   UNL A   1      46.496  27.736  30.742  1.00  0.00    -0.248 NA
ATOM     63  C   UNL A   1      47.046  27.390  28.496  1.00  0.00     0.031 C 
ATOM     64  C   UNL A   1      43.817  23.601  31.096  1.00  0.00     0.029 A 
ATOM     65  C   UNL A   1      44.721  24.524  30.575  1.00  0.00     0.049 A 
ATOM     66  H   UNL A   1      45.199  24.863  28.572  1.00  0.00     0.167 HD
ATOM     67  C   UNL A   1      46.324  26.401  30.448  1.00  0.00     0.074 A 
ATOM     68  C   UNL A   1      46.863  26.219  29.108  1.00  0.00     0.031 C 
ATOM     69  C   UNL A   1      45.452  25.631  31.157  1.00  0.00     0.034 A 
BRANCH  56  70
ATOM     70  C   UNL A   1      43.979  23.067  26.374  1.00  0.00     0.023 A 
ATOM     71  C   UNL A   1      43.884  21.711  26.017  1.00  0.00     0.031 A 
ATOM     72  C   UNL A   1      44.673  23.891  25.460  1.00  0.00     0.131 A 
ATOM     73  C   UNL A   1      44.447  21.217  24.831  1.00  0.00     0.055 A 
ATOM     74  C   UNL A   1      45.181  23.413  24.244  1.00  0.00     0.041 A 
ATOM     75  F   UNL A   1      44.835  25.203  25.694  1.00  0.00    -0.206 F 
ATOM     76  C   UNL A   1      45.066  22.068  23.922  1.00  0.00     0.022 A 
BRANCH  73  77
ATOM     77  S   UNL A   1      44.359  19.446  24.448  1.00  0.00     0.124 S 
ATOM     78  O   UNL A   1      45.472  18.913  25.228  1.00  0.00    -0.237 OA
ATOM     79  O   UNL A   1      43.024  19.108  24.938  1.00  0.00    -0.237 OA
ATOM     80  O   UNL A   1      44.516  19.402  22.999  1.00  0.00    -0.744 OA
ENDBRANCH  73  77
ENDBRANCH  56  70
BRANCH  57  81
ATOM     81  C   UNL A   1      47.048  30.634  28.593  1.00  0.00     0.023 A 
ATOM     82  C   UNL A   1      47.798  31.504  29.404  1.00  0.00     0.031 A 
ATOM     83  C   UNL A   1      46.905  30.970  27.235  1.00  0.00     0.131 A 
ATOM     84  C   UNL A   1      48.313  32.694  28.877  1.00  0.00     0.055 A 
ATOM     85  C   UNL A   1      47.443  32.149  26.704  1.00  0.00     0.041 A 
ATOM     86  F   UNL A   1      46.172  30.199  26.417  1.00  0.00    -0.206 F 
ATOM     87  C   UNL A   1      48.134  33.029  27.532  1.00  0.00     0.022 A 
BRANCH  84  88
ATOM     88  S   UNL A   1      49.121  33.903  29.961  1.00  0.00     0.124 S 
ATOM     89  O   UNL A   1      50.534  33.612  29.743  1.00  0.00    -0.237 OA
ATOM     90  O   UNL A   1      48.643  35.163  29.407  1.00  0.00    -0.237 OA
ATOM     91  O   UNL A   1      48.616  33.559  31.290  1.00  0.00    -0.744 OA
ENDBRANCH  84  88
ENDBRANCH  57  81
BRANCH  69  92
ATOM     92  C   UNL A   1      45.103  26.037  32.558  1.00  0.00     0.023 A 
ATOM     93  C   UNL A   1      45.832  25.407  33.579  1.00  0.00     0.031 A 
ATOM     94  C   UNL A   1      44.019  26.851  32.926  1.00  0.00     0.131 A 
ATOM     95  C   UNL A   1      45.436  25.532  34.910  1.00  0.00     0.055 A 
ATOM     96  C   UNL A   1      43.674  27.039  34.270  1.00  0.00     0.041 A 
ATOM     97  F   UNL A   1      43.226  27.422  32.008  1.00  0.00    -0.206 F 
ATOM     98  C   UNL A   1      44.370  26.361  35.267  1.00  0.00     0.022 A 
BRANCH  95  99
ATOM     99  S   UNL A   1      46.193  24.481  36.174  1.00  0.00     0.124 S 
ATOM    100  O   UNL A   1      46.363  25.408  37.288  1.00  0.00    -0.237 OA
ATOM    101  O   UNL A   1      45.175  23.448  36.366  1.00  0.00    -0.237 OA
ATOM    102  O   UNL A   1      47.430  24.016  35.553  1.00  0.00    -0.744 OA
ENDBRANCH  95  99
ENDBRANCH  69  92
ENDBRANCH  43  44
ENDBRANCH  35  38
ENDBRANCH  33  34
ENDBRANCH  32  33
ENDBRANCH   1  32
TORSDOF 18
ENDMDL
