MODEL 1
REMARK VINA RESULT:     -12.2      0.000      0.000
REMARK SMILES CC(C)c1nc(N2C[C@H](C)OC(C)(C)C2)sc1C(=O)NCCCCNC(=O)c1ccc(-c2c3nc(c(-c4cc(S(=O)(=O)[O-])ccc4F)c4ccc([nH]4)c(-c4cc(S(=O)(=O)[O-])ccc4F)c4nc(c(-c5cc(S(=O)(=O)[O-])ccc5F)c5ccc2[nH]5)C=C4)C=C3)cc1
REMARK SMILES IDX 23 1 22 2 21 3 20 4 18 5 19 6 17 8 4 9 5 10 6 11 16 12 2 13
REMARK SMILES IDX 1 14 3 15 7 16 8 17 15 18 9 19 12 20 11 21 10 22 13 23 14 24
REMARK SMILES IDX 24 25 25 26 26 27 27 29 28 30 29 31 90 32 30 33 89 34 31 35
REMARK SMILES IDX 32 36 33 37 83 38 34 39 88 40 82 41 84 42 35 43 87 44 81 45
REMARK SMILES IDX 80 46 36 48 68 49 48 50 67 51 49 52 52 53 66 54 85 55 50 56
REMARK SMILES IDX 51 57 65 59 86 60 53 61 37 62 38 63 46 64 39 65 45 66 47 67
REMARK SMILES IDX 44 68 40 69 41 70 42 71 43 72 69 73 70 74 78 75 71 76 77 77
REMARK SMILES IDX 79 78 76 79 72 80 73 81 74 82 75 83 54 84 55 85 63 86 56 87
REMARK SMILES IDX 62 88 64 89 61 90 57 91 58 92 59 93 60 94
REMARK H PARENT 20 7 25 28 84 47 52 58
REMARK Flexibility Score: inf
ROOT
ATOM      1  C   UNL A   1      32.302  31.106  26.810  1.00  0.00     0.023 C 
ENDROOT
BRANCH   1   2
ATOM      2  C   UNL A   1      32.512  29.651  27.229  1.00  0.00     0.023 C 
BRANCH   2   3
ATOM      3  C   UNL A   1      33.844  29.047  26.776  1.00  0.00     0.116 C 
BRANCH   3   4
ATOM      4  N   UNL A   1      33.985  29.187  25.350  1.00  0.00    -0.351 N 
ATOM      5  C   UNL A   1      33.648  28.439  24.258  1.00  0.00     0.263 C 
ATOM      6  O   UNL A   1      34.009  28.989  23.206  1.00  0.00    -0.268 OA
ATOM      7  H   UNL A   1      34.436  30.026  25.101  1.00  0.00     0.163 HD
BRANCH   5   8
ATOM      8  C   UNL A   1      32.920  27.169  24.249  1.00  0.00     0.117 A 
ATOM      9  C   UNL A   1      31.620  26.676  24.103  1.00  0.00     0.069 A 
ATOM     10  N   UNL A   1      31.507  25.286  24.251  1.00  0.00    -0.224 NA
ATOM     11  C   UNL A   1      32.626  24.738  24.640  1.00  0.00     0.186 A 
ATOM     12  S   UNL A   1      33.949  25.811  24.644  1.00  0.00    -0.091 S 
BRANCH   9  13
ATOM     13  C   UNL A   1      30.290  27.373  23.925  1.00  0.00     0.034 C 
ATOM     14  C   UNL A   1      30.174  28.122  22.587  1.00  0.00     0.014 C 
ATOM     15  C   UNL A   1      29.132  26.380  24.036  1.00  0.00     0.014 C 
ENDBRANCH   9  13
BRANCH  11  16
ATOM     16  N   UNL A   1      32.763  23.437  24.991  1.00  0.00    -0.343 N 
ATOM     17  C   UNL A   1      31.961  22.407  24.332  1.00  0.00     0.150 C 
ATOM     18  C   UNL A   1      33.985  22.964  25.634  1.00  0.00     0.153 C 
ATOM     19  C   UNL A   1      32.855  21.605  23.367  1.00  0.00     0.135 C 
ATOM     20  C   UNL A   1      34.806  22.005  24.727  1.00  0.00     0.081 C 
ATOM     21  O   UNL A   1      33.969  21.023  24.069  1.00  0.00    -0.369 OA
ATOM     22  C   UNL A   1      32.076  20.465  22.723  1.00  0.00     0.040 C 
ATOM     23  C   UNL A   1      35.647  22.768  23.695  1.00  0.00     0.044 C 
ATOM     24  C   UNL A   1      35.757  21.188  25.616  1.00  0.00     0.044 C 
ENDBRANCH  11  16
ENDBRANCH   5   8
ENDBRANCH   3   4
ENDBRANCH   2   3
ENDBRANCH   1   2
BRANCH   1  25
ATOM     25  C   UNL A   1      33.317  32.081  27.389  1.00  0.00     0.116 C 
BRANCH  25  26
ATOM     26  N   UNL A   1      32.794  33.429  27.572  1.00  0.00    -0.352 N 
ATOM     27  C   UNL A   1      33.205  34.379  28.479  1.00  0.00     0.251 C 
ATOM     28  H   UNL A   1      32.057  33.691  26.974  1.00  0.00     0.163 HD
ATOM     29  O   UNL A   1      32.612  35.450  28.569  1.00  0.00    -0.269 OA
BRANCH  27  30
ATOM     30  C   UNL A   1      34.332  34.056  29.376  1.00  0.00     0.039 A 
ATOM     31  C   UNL A   1      34.091  33.288  30.517  1.00  0.00     0.014 A 
ATOM     32  C   UNL A   1      35.635  34.414  29.021  1.00  0.00     0.014 A 
ATOM     33  C   UNL A   1      35.171  32.802  31.256  1.00  0.00     0.010 A 
ATOM     34  C   UNL A   1      36.708  33.857  29.706  1.00  0.00     0.010 A 
ATOM     35  C   UNL A   1      36.487  33.038  30.825  1.00  0.00    -0.014 A 
BRANCH  35  36
ATOM     36  C   UNL A   1      37.654  32.440  31.526  1.00  0.00     0.031 A 
ATOM     37  C   UNL A   1      38.412  31.312  30.882  1.00  0.00     0.074 A 
ATOM     38  C   UNL A   1      37.969  32.850  32.771  1.00  0.00     0.049 A 
ATOM     39  N   UNL A   1      39.376  30.576  31.371  1.00  0.00    -0.248 NA
ATOM     40  C   UNL A   1      37.994  30.933  29.524  1.00  0.00     0.031 C 
ATOM     41  C   UNL A   1      37.268  33.893  33.525  1.00  0.00     0.029 A 
ATOM     42  N   UNL A   1      38.953  32.428  33.629  1.00  0.00    -0.354 N 
ATOM     43  C   UNL A   1      39.661  29.630  30.392  1.00  0.00     0.074 A 
ATOM     44  C   UNL A   1      38.720  29.847  29.314  1.00  0.00     0.031 C 
ATOM     45  C   UNL A   1      37.862  34.048  34.719  1.00  0.00     0.029 A 
ATOM     46  C   UNL A   1      38.956  33.090  34.836  1.00  0.00     0.049 A 
ATOM     47  H   UNL A   1      39.597  31.719  33.404  1.00  0.00     0.167 HD
ATOM     48  C   UNL A   1      40.636  28.687  30.381  1.00  0.00     0.034 A 
ATOM     49  C   UNL A   1      39.747  32.936  35.916  1.00  0.00     0.034 A 
ATOM     50  C   UNL A   1      41.586  28.509  31.450  1.00  0.00     0.049 A 
ATOM     51  C   UNL A   1      40.837  31.895  35.875  1.00  0.00     0.074 A 
ATOM     52  C   UNL A   1      42.657  27.635  31.517  1.00  0.00     0.029 A 
ATOM     53  N   UNL A   1      41.580  29.221  32.643  1.00  0.00    -0.354 N 
ATOM     54  N   UNL A   1      41.129  31.043  34.919  1.00  0.00    -0.248 NA
ATOM     55  C   UNL A   1      41.710  31.804  37.052  1.00  0.00     0.031 C 
ATOM     56  C   UNL A   1      43.266  27.782  32.769  1.00  0.00     0.029 A 
ATOM     57  C   UNL A   1      42.615  28.792  33.460  1.00  0.00     0.049 A 
ATOM     58  H   UNL A   1      40.935  29.928  32.875  1.00  0.00     0.167 HD
ATOM     59  C   UNL A   1      42.237  30.333  35.372  1.00  0.00     0.074 A 
ATOM     60  C   UNL A   1      42.567  30.867  36.678  1.00  0.00     0.031 C 
ATOM     61  C   UNL A   1      42.922  29.331  34.764  1.00  0.00     0.034 A 
BRANCH  48  62
ATOM     62  C   UNL A   1      40.698  27.775  29.179  1.00  0.00     0.023 A 
ATOM     63  C   UNL A   1      41.631  27.979  28.147  1.00  0.00     0.031 A 
ATOM     64  C   UNL A   1      39.780  26.720  29.033  1.00  0.00     0.131 A 
ATOM     65  C   UNL A   1      41.564  27.209  26.978  1.00  0.00     0.055 A 
ATOM     66  C   UNL A   1      39.777  25.897  27.905  1.00  0.00     0.041 A 
ATOM     67  F   UNL A   1      38.852  26.486  29.975  1.00  0.00    -0.206 F 
ATOM     68  C   UNL A   1      40.661  26.151  26.860  1.00  0.00     0.022 A 
BRANCH  65  69
ATOM     69  S   UNL A   1      42.565  27.715  25.552  1.00  0.00     0.124 S 
ATOM     70  O   UNL A   1      43.852  28.000  26.185  1.00  0.00    -0.237 OA
ATOM     71  O   UNL A   1      42.522  26.533  24.700  1.00  0.00    -0.237 OA
ATOM     72  O   UNL A   1      41.860  28.886  25.035  1.00  0.00    -0.744 OA
ENDBRANCH  65  69
ENDBRANCH  48  62
BRANCH  49  73
ATOM     73  C   UNL A   1      39.548  33.780  37.128  1.00  0.00     0.023 A 
ATOM     74  C   UNL A   1      38.845  33.290  38.240  1.00  0.00     0.031 A 
ATOM     75  C   UNL A   1      40.024  35.101  37.177  1.00  0.00     0.131 A 
ATOM     76  C   UNL A   1      38.600  34.128  39.338  1.00  0.00     0.055 A 
ATOM     77  C   UNL A   1      39.816  35.918  38.291  1.00  0.00     0.041 A 
ATOM     78  F   UNL A   1      40.710  35.615  36.144  1.00  0.00    -0.206 F 
ATOM     79  C   UNL A   1      39.089  35.435  39.375  1.00  0.00     0.022 A 
BRANCH  76  80
ATOM     80  S   UNL A   1      37.565  33.505  40.691  1.00  0.00     0.124 S 
ATOM     81  O   UNL A   1      37.279  34.727  41.434  1.00  0.00    -0.237 OA
ATOM     82  O   UNL A   1      36.445  32.916  39.968  1.00  0.00    -0.237 OA
ATOM     83  O   UNL A   1      38.436  32.548  41.373  1.00  0.00    -0.744 OA
ENDBRANCH  76  80
ENDBRANCH  49  73
BRANCH  61  84
ATOM     84  C   UNL A   1      44.120  28.784  35.496  1.00  0.00     0.023 A 
ATOM     85  C   UNL A   1      44.002  27.743  36.432  1.00  0.00     0.031 A 
ATOM     86  C   UNL A   1      45.397  29.323  35.259  1.00  0.00     0.131 A 
ATOM     87  C   UNL A   1      45.132  27.307  37.136  1.00  0.00     0.055 A 
ATOM     88  C   UNL A   1      46.528  28.848  35.924  1.00  0.00     0.041 A 
ATOM     89  F   UNL A   1      45.565  30.319  34.375  1.00  0.00    -0.206 F 
ATOM     90  C   UNL A   1      46.398  27.842  36.877  1.00  0.00     0.022 A 
BRANCH  87  91
ATOM     91  S   UNL A   1      44.918  26.082  38.457  1.00  0.00     0.124 S 
ATOM     92  O   UNL A   1      46.300  25.759  38.798  1.00  0.00    -0.237 OA
ATOM     93  O   UNL A   1      44.173  26.834  39.462  1.00  0.00    -0.237 OA
ATOM     94  O   UNL A   1      44.171  25.006  37.810  1.00  0.00    -0.744 OA
ENDBRANCH  87  91
ENDBRANCH  61  84
ENDBRANCH  35  36
ENDBRANCH  27  30
ENDBRANCH  25  26
ENDBRANCH   1  25
TORSDOF 16
ENDMDL
MODEL 2
REMARK VINA RESULT:     -12.1      2.543      8.206
REMARK SMILES CC(C)c1nc(N2C[C@H](C)OC(C)(C)C2)sc1C(=O)NCCCCNC(=O)c1ccc(-c2c3nc(c(-c4cc(S(=O)(=O)[O-])ccc4F)c4ccc([nH]4)c(-c4cc(S(=O)(=O)[O-])ccc4F)c4nc(c(-c5cc(S(=O)(=O)[O-])ccc5F)c5ccc2[nH]5)C=C4)C=C3)cc1
REMARK SMILES IDX 23 1 22 2 21 3 20 4 18 5 19 6 17 8 4 9 5 10 6 11 16 12 2 13
REMARK SMILES IDX 1 14 3 15 7 16 8 17 15 18 9 19 12 20 11 21 10 22 13 23 14 24
REMARK SMILES IDX 24 25 25 26 26 27 27 29 28 30 29 31 90 32 30 33 89 34 31 35
REMARK SMILES IDX 32 36 33 37 83 38 34 39 88 40 82 41 84 42 35 43 87 44 81 45
REMARK SMILES IDX 80 46 36 48 68 49 48 50 67 51 49 52 52 53 66 54 85 55 50 56
REMARK SMILES IDX 51 57 65 59 86 60 53 61 37 62 38 63 46 64 39 65 45 66 47 67
REMARK SMILES IDX 44 68 40 69 41 70 42 71 43 72 69 73 70 74 78 75 71 76 77 77
REMARK SMILES IDX 79 78 76 79 72 80 73 81 74 82 75 83 54 84 55 85 63 86 56 87
REMARK SMILES IDX 62 88 64 89 61 90 57 91 58 92 59 93 60 94
REMARK H PARENT 20 7 25 28 84 47 52 58
REMARK Flexibility Score: inf
ROOT
ATOM      1  C   UNL A   1      32.844  29.703  24.965  1.00  0.00     0.023 C 
ENDROOT
BRANCH   1   2
ATOM      2  C   UNL A   1      33.766  28.677  24.308  1.00  0.00     0.023 C 
BRANCH   2   3
ATOM      3  C   UNL A   1      33.640  28.595  22.784  1.00  0.00     0.116 C 
BRANCH   3   4
ATOM      4  N   UNL A   1      32.255  28.457  22.415  1.00  0.00    -0.351 N 
ATOM      5  C   UNL A   1      31.329  27.454  22.453  1.00  0.00     0.263 C 
ATOM      6  O   UNL A   1      30.241  27.826  21.989  1.00  0.00    -0.268 OA
ATOM      7  H   UNL A   1      31.885  29.291  22.042  1.00  0.00     0.163 HD
BRANCH   5   8
ATOM      8  C   UNL A   1      31.511  26.106  22.994  1.00  0.00     0.117 A 
ATOM      9  C   UNL A   1      31.152  25.335  24.104  1.00  0.00     0.069 A 
ATOM     10  N   UNL A   1      31.696  24.043  24.113  1.00  0.00    -0.224 NA
ATOM     11  C   UNL A   1      32.555  23.861  23.146  1.00  0.00     0.186 A 
ATOM     12  S   UNL A   1      32.608  25.145  22.028  1.00  0.00    -0.091 S 
BRANCH   9  13
ATOM     13  C   UNL A   1      30.373  25.670  25.355  1.00  0.00     0.034 C 
ATOM     14  C   UNL A   1      30.177  24.462  26.288  1.00  0.00     0.014 C 
ATOM     15  C   UNL A   1      31.053  26.792  26.140  1.00  0.00     0.014 C 
ENDBRANCH   9  13
BRANCH  11  16
ATOM     16  N   UNL A   1      33.327  22.759  23.002  1.00  0.00    -0.343 N 
ATOM     17  C   UNL A   1      34.782  22.858  23.103  1.00  0.00     0.150 C 
ATOM     18  C   UNL A   1      32.773  21.426  23.226  1.00  0.00     0.153 C 
ATOM     19  C   UNL A   1      35.242  22.254  24.444  1.00  0.00     0.135 C 
ATOM     20  C   UNL A   1      33.369  20.735  24.484  1.00  0.00     0.081 C 
ATOM     21  O   UNL A   1      34.807  20.887  24.563  1.00  0.00    -0.369 OA
ATOM     22  C   UNL A   1      36.762  22.261  24.552  1.00  0.00     0.040 C 
ATOM     23  C   UNL A   1      32.708  21.226  25.779  1.00  0.00     0.044 C 
ATOM     24  C   UNL A   1      33.132  19.221  24.366  1.00  0.00     0.044 C 
ENDBRANCH  11  16
ENDBRANCH   5   8
ENDBRANCH   3   4
ENDBRANCH   2   3
ENDBRANCH   1   2
BRANCH   1  25
ATOM     25  C   UNL A   1      33.050  29.867  26.464  1.00  0.00     0.116 C 
BRANCH  25  26
ATOM     26  N   UNL A   1      32.948  31.247  26.920  1.00  0.00    -0.352 N 
ATOM     27  C   UNL A   1      33.871  31.968  27.644  1.00  0.00     0.251 C 
ATOM     28  H   UNL A   1      32.119  31.721  26.682  1.00  0.00     0.163 HD
ATOM     29  O   UNL A   1      33.610  33.105  28.027  1.00  0.00    -0.269 OA
BRANCH  27  30
ATOM     30  C   UNL A   1      35.151  31.322  27.996  1.00  0.00     0.039 A 
ATOM     31  C   UNL A   1      36.309  32.098  28.050  1.00  0.00     0.014 A 
ATOM     32  C   UNL A   1      35.174  29.980  28.385  1.00  0.00     0.014 A 
ATOM     33  C   UNL A   1      37.477  31.550  28.582  1.00  0.00     0.010 A 
ATOM     34  C   UNL A   1      36.311  29.465  28.995  1.00  0.00     0.010 A 
ATOM     35  C   UNL A   1      37.472  30.246  29.108  1.00  0.00    -0.014 A 
BRANCH  35  36
ATOM     36  C   UNL A   1      38.667  29.675  29.782  1.00  0.00     0.031 A 
ATOM     37  C   UNL A   1      39.065  30.174  31.143  1.00  0.00     0.074 A 
ATOM     38  C   UNL A   1      39.438  28.780  29.132  1.00  0.00     0.049 A 
ATOM     39  N   UNL A   1      40.130  29.898  31.849  1.00  0.00    -0.248 NA
ATOM     40  C   UNL A   1      38.163  31.152  31.771  1.00  0.00     0.031 C 
ATOM     41  C   UNL A   1      39.190  28.265  27.783  1.00  0.00     0.029 A 
ATOM     42  N   UNL A   1      40.597  28.153  29.515  1.00  0.00    -0.354 N 
ATOM     43  C   UNL A   1      40.042  30.688  32.990  1.00  0.00     0.074 A 
ATOM     44  C   UNL A   1      38.853  31.501  32.845  1.00  0.00     0.031 C 
ATOM     45  C   UNL A   1      40.150  27.383  27.464  1.00  0.00     0.029 A 
ATOM     46  C   UNL A   1      41.105  27.298  28.564  1.00  0.00     0.049 A 
ATOM     47  H   UNL A   1      41.026  28.300  30.389  1.00  0.00     0.167 HD
ATOM     48  C   UNL A   1      40.860  30.712  34.072  1.00  0.00     0.034 A 
ATOM     49  C   UNL A   1      42.218  26.538  28.575  1.00  0.00     0.034 A 
ATOM     50  C   UNL A   1      42.021  29.870  34.213  1.00  0.00     0.049 A 
ATOM     51  C   UNL A   1      43.103  26.566  29.795  1.00  0.00     0.074 A 
ATOM     52  C   UNL A   1      42.881  29.759  35.291  1.00  0.00     0.029 A 
ATOM     53  N   UNL A   1      42.486  28.991  33.242  1.00  0.00    -0.354 N 
ATOM     54  N   UNL A   1      42.976  27.279  30.891  1.00  0.00    -0.248 NA
ATOM     55  C   UNL A   1      44.272  25.678  29.784  1.00  0.00     0.031 C 
ATOM     56  C   UNL A   1      43.894  28.853  34.953  1.00  0.00     0.029 A 
ATOM     57  C   UNL A   1      43.632  28.350  33.688  1.00  0.00     0.049 A 
ATOM     58  H   UNL A   1      42.063  28.844  32.365  1.00  0.00     0.167 HD
ATOM     59  C   UNL A   1      44.038  26.904  31.710  1.00  0.00     0.074 A 
ATOM     60  C   UNL A   1      44.783  25.893  30.987  1.00  0.00     0.031 C 
ATOM     61  C   UNL A   1      44.366  27.352  32.948  1.00  0.00     0.034 A 
BRANCH  48  62
ATOM     62  C   UNL A   1      40.524  31.696  35.167  1.00  0.00     0.023 A 
ATOM     63  C   UNL A   1      39.570  31.399  36.156  1.00  0.00     0.031 A 
ATOM     64  C   UNL A   1      41.124  32.967  35.196  1.00  0.00     0.131 A 
ATOM     65  C   UNL A   1      39.173  32.387  37.067  1.00  0.00     0.055 A 
ATOM     66  C   UNL A   1      40.790  33.918  36.162  1.00  0.00     0.041 A 
ATOM     67  F   UNL A   1      42.028  33.317  34.267  1.00  0.00    -0.206 F 
ATOM     68  C   UNL A   1      39.795  33.637  37.095  1.00  0.00     0.022 A 
BRANCH  65  69
ATOM     69  S   UNL A   1      37.721  32.070  38.107  1.00  0.00     0.124 S 
ATOM     70  O   UNL A   1      36.782  33.075  37.614  1.00  0.00    -0.237 OA
ATOM     71  O   UNL A   1      37.399  30.684  37.786  1.00  0.00    -0.237 OA
ATOM     72  O   UNL A   1      38.213  32.299  39.464  1.00  0.00    -0.744 OA
ENDBRANCH  65  69
ENDBRANCH  48  62
BRANCH  49  73
ATOM     73  C   UNL A   1      42.566  25.687  27.402  1.00  0.00     0.023 A 
ATOM     74  C   UNL A   1      42.157  24.346  27.338  1.00  0.00     0.031 A 
ATOM     75  C   UNL A   1      43.345  26.192  26.346  1.00  0.00     0.131 A 
ATOM     76  C   UNL A   1      42.563  23.541  26.264  1.00  0.00     0.055 A 
ATOM     77  C   UNL A   1      43.709  25.399  25.256  1.00  0.00     0.041 A 
ATOM     78  F   UNL A   1      43.753  27.471  26.354  1.00  0.00    -0.206 F 
ATOM     79  C   UNL A   1      43.328  24.061  25.217  1.00  0.00     0.022 A 
BRANCH  76  80
ATOM     80  S   UNL A   1      42.137  21.778  26.290  1.00  0.00     0.124 S 
ATOM     81  O   UNL A   1      42.453  21.416  27.667  1.00  0.00    -0.237 OA
ATOM     82  O   UNL A   1      40.721  21.805  25.942  1.00  0.00    -0.237 OA
ATOM     83  O   UNL A   1      43.016  21.200  25.274  1.00  0.00    -0.744 OA
ENDBRANCH  76  80
ENDBRANCH  49  73
BRANCH  61  84
ATOM     84  C   UNL A   1      45.563  26.715  33.607  1.00  0.00     0.023 A 
ATOM     85  C   UNL A   1      45.444  25.550  34.384  1.00  0.00     0.031 A 
ATOM     86  C   UNL A   1      46.837  27.292  33.464  1.00  0.00     0.131 A 
ATOM     87  C   UNL A   1      46.572  25.026  35.032  1.00  0.00     0.055 A 
ATOM     88  C   UNL A   1      47.966  26.735  34.066  1.00  0.00     0.041 A 
ATOM     89  F   UNL A   1      47.005  28.405  32.732  1.00  0.00    -0.206 F 
ATOM     90  C   UNL A   1      47.835  25.603  34.865  1.00  0.00     0.022 A 
BRANCH  87  91
ATOM     91  S   UNL A   1      46.355  23.624  36.162  1.00  0.00     0.124 S 
ATOM     92  O   UNL A   1      47.497  22.782  35.822  1.00  0.00    -0.237 OA
ATOM     93  O   UNL A   1      46.407  24.268  37.471  1.00  0.00    -0.237 OA
ATOM     94  O   UNL A   1      45.051  23.081  35.790  1.00  0.00    -0.744 OA
ENDBRANCH  87  91
ENDBRANCH  61  84
ENDBRANCH  35  36
ENDBRANCH  27  30
ENDBRANCH  25  26
ENDBRANCH   1  25
TORSDOF 16
ENDMDL
MODEL 3
REMARK VINA RESULT:     -12.0      2.433      7.849
REMARK SMILES CC(C)c1nc(N2C[C@H](C)OC(C)(C)C2)sc1C(=O)NCCCCNC(=O)c1ccc(-c2c3nc(c(-c4cc(S(=O)(=O)[O-])ccc4F)c4ccc([nH]4)c(-c4cc(S(=O)(=O)[O-])ccc4F)c4nc(c(-c5cc(S(=O)(=O)[O-])ccc5F)c5ccc2[nH]5)C=C4)C=C3)cc1
REMARK SMILES IDX 23 1 22 2 21 3 20 4 18 5 19 6 17 8 4 9 5 10 6 11 16 12 2 13
REMARK SMILES IDX 1 14 3 15 7 16 8 17 15 18 9 19 12 20 11 21 10 22 13 23 14 24
REMARK SMILES IDX 24 25 25 26 26 27 27 29 28 30 29 31 90 32 30 33 89 34 31 35
REMARK SMILES IDX 32 36 33 37 83 38 34 39 88 40 82 41 84 42 35 43 87 44 81 45
REMARK SMILES IDX 80 46 36 48 68 49 48 50 67 51 49 52 52 53 66 54 85 55 50 56
REMARK SMILES IDX 51 57 65 59 86 60 53 61 37 62 38 63 46 64 39 65 45 66 47 67
REMARK SMILES IDX 44 68 40 69 41 70 42 71 43 72 69 73 70 74 78 75 71 76 77 77
REMARK SMILES IDX 79 78 76 79 72 80 73 81 74 82 75 83 54 84 55 85 63 86 56 87
REMARK SMILES IDX 62 88 64 89 61 90 57 91 58 92 59 93 60 94
REMARK H PARENT 20 7 25 28 84 47 52 58
REMARK Flexibility Score: inf
ROOT
ATOM      1  C   UNL A   1      31.726  29.376  25.172  1.00  0.00     0.023 C 
ENDROOT
BRANCH   1   2
ATOM      2  C   UNL A   1      32.401  29.070  23.836  1.00  0.00     0.023 C 
BRANCH   2   3
ATOM      3  C   UNL A   1      31.465  28.496  22.769  1.00  0.00     0.116 C 
BRANCH   3   4
ATOM      4  N   UNL A   1      32.194  27.603  21.906  1.00  0.00    -0.351 N 
ATOM      5  C   UNL A   1      32.686  26.333  22.007  1.00  0.00     0.263 C 
ATOM      6  O   UNL A   1      33.278  25.995  20.971  1.00  0.00    -0.268 OA
ATOM      7  H   UNL A   1      32.386  28.008  21.029  1.00  0.00     0.163 HD
BRANCH   5   8
ATOM      8  C   UNL A   1      32.538  25.417  23.139  1.00  0.00     0.117 A 
ATOM      9  C   UNL A   1      31.708  25.197  24.242  1.00  0.00     0.069 A 
ATOM     10  N   UNL A   1      32.108  24.134  25.066  1.00  0.00    -0.224 NA
ATOM     11  C   UNL A   1      33.267  23.646  24.715  1.00  0.00     0.186 A 
ATOM     12  S   UNL A   1      33.857  24.273  23.246  1.00  0.00    -0.091 S 
BRANCH   9  13
ATOM     13  C   UNL A   1      30.519  25.960  24.779  1.00  0.00     0.034 C 
ATOM     14  C   UNL A   1      29.314  25.955  23.821  1.00  0.00     0.014 C 
ATOM     15  C   UNL A   1      30.074  25.402  26.131  1.00  0.00     0.014 C 
ENDBRANCH   9  13
BRANCH  11  16
ATOM     16  N   UNL A   1      33.950  22.711  25.416  1.00  0.00    -0.343 N 
ATOM     17  C   UNL A   1      33.490  21.324  25.438  1.00  0.00     0.150 C 
ATOM     18  C   UNL A   1      35.358  22.910  25.748  1.00  0.00     0.153 C 
ATOM     19  C   UNL A   1      34.422  20.463  24.563  1.00  0.00     0.135 C 
ATOM     20  C   UNL A   1      36.294  21.919  25.000  1.00  0.00     0.081 C 
ATOM     21  O   UNL A   1      35.784  20.564  25.017  1.00  0.00    -0.369 OA
ATOM     22  C   UNL A   1      34.027  18.993  24.627  1.00  0.00     0.040 C 
ATOM     23  C   UNL A   1      36.573  22.367  23.558  1.00  0.00     0.044 C 
ATOM     24  C   UNL A   1      37.633  21.853  25.751  1.00  0.00     0.044 C 
ENDBRANCH  11  16
ENDBRANCH   5   8
ENDBRANCH   3   4
ENDBRANCH   2   3
ENDBRANCH   1   2
BRANCH   1  25
ATOM     25  C   UNL A   1      32.671  29.867  26.259  1.00  0.00     0.116 C 
BRANCH  25  26
ATOM     26  N   UNL A   1      32.477  31.267  26.613  1.00  0.00    -0.352 N 
ATOM     27  C   UNL A   1      33.319  32.080  27.337  1.00  0.00     0.251 C 
ATOM     28  H   UNL A   1      31.641  31.681  26.297  1.00  0.00     0.163 HD
ATOM     29  O   UNL A   1      32.982  33.225  27.626  1.00  0.00    -0.269 OA
BRANCH  27  30
ATOM     30  C   UNL A   1      34.606  31.525  27.804  1.00  0.00     0.039 A 
ATOM     31  C   UNL A   1      35.672  32.395  28.041  1.00  0.00     0.014 A 
ATOM     32  C   UNL A   1      34.710  30.168  28.117  1.00  0.00     0.014 A 
ATOM     33  C   UNL A   1      36.817  31.915  28.678  1.00  0.00     0.010 A 
ATOM     34  C   UNL A   1      35.813  29.714  28.829  1.00  0.00     0.010 A 
ATOM     35  C   UNL A   1      36.875  30.584  29.125  1.00  0.00    -0.014 A 
BRANCH  35  36
ATOM     36  C   UNL A   1      38.033  30.075  29.905  1.00  0.00     0.031 A 
ATOM     37  C   UNL A   1      38.241  30.540  31.319  1.00  0.00     0.074 A 
ATOM     38  C   UNL A   1      38.938  29.271  29.311  1.00  0.00     0.049 A 
ATOM     39  N   UNL A   1      39.244  30.314  32.128  1.00  0.00    -0.248 NA
ATOM     40  C   UNL A   1      37.202  31.417  31.879  1.00  0.00     0.031 C 
ATOM     41  C   UNL A   1      38.878  28.801  27.924  1.00  0.00     0.029 A 
ATOM     42  N   UNL A   1      40.096  28.717  29.796  1.00  0.00    -0.354 N 
ATOM     43  C   UNL A   1      38.971  31.042  33.280  1.00  0.00     0.074 A 
ATOM     44  C   UNL A   1      37.743  31.768  33.036  1.00  0.00     0.031 C 
ATOM     45  C   UNL A   1      39.935  28.009  27.681  1.00  0.00     0.029 A 
ATOM     46  C   UNL A   1      40.770  27.947  28.875  1.00  0.00     0.049 A 
ATOM     47  H   UNL A   1      40.416  28.856  30.717  1.00  0.00     0.167 HD
ATOM     48  C   UNL A   1      39.664  31.079  34.445  1.00  0.00     0.034 A 
ATOM     49  C   UNL A   1      41.933  27.275  28.981  1.00  0.00     0.034 A 
ATOM     50  C   UNL A   1      40.868  30.322  34.682  1.00  0.00     0.049 A 
ATOM     51  C   UNL A   1      42.677  27.313  30.291  1.00  0.00     0.074 A 
ATOM     52  C   UNL A   1      41.614  30.227  35.844  1.00  0.00     0.029 A 
ATOM     53  N   UNL A   1      41.503  29.525  33.737  1.00  0.00    -0.354 N 
ATOM     54  N   UNL A   1      42.377  27.964  31.392  1.00  0.00    -0.248 NA
ATOM     55  C   UNL A   1      43.909  26.518  30.376  1.00  0.00     0.031 C 
ATOM     56  C   UNL A   1      42.727  29.417  35.586  1.00  0.00     0.029 A 
ATOM     57  C   UNL A   1      42.642  28.954  34.282  1.00  0.00     0.049 A 
ATOM     58  H   UNL A   1      41.189  29.387  32.814  1.00  0.00     0.167 HD
ATOM     59  C   UNL A   1      43.372  27.634  32.308  1.00  0.00     0.074 A 
ATOM     60  C   UNL A   1      44.269  26.717  31.635  1.00  0.00     0.031 C 
ATOM     61  C   UNL A   1      43.529  28.049  33.591  1.00  0.00     0.034 A 
BRANCH  48  62
ATOM     62  C   UNL A   1      39.136  31.983  35.533  1.00  0.00     0.023 A 
ATOM     63  C   UNL A   1      39.560  33.319  35.652  1.00  0.00     0.031 A 
ATOM     64  C   UNL A   1      38.238  31.493  36.497  1.00  0.00     0.131 A 
ATOM     65  C   UNL A   1      39.166  34.084  36.758  1.00  0.00     0.055 A 
ATOM     66  C   UNL A   1      37.778  32.289  37.548  1.00  0.00     0.041 A 
ATOM     67  F   UNL A   1      37.810  30.221  36.449  1.00  0.00    -0.206 F 
ATOM     68  C   UNL A   1      38.256  33.588  37.694  1.00  0.00     0.022 A 
BRANCH  65  69
ATOM     69  S   UNL A   1      39.987  35.677  37.041  1.00  0.00     0.124 S 
ATOM     70  O   UNL A   1      39.337  36.126  38.271  1.00  0.00    -0.237 OA
ATOM     71  O   UNL A   1      41.388  35.293  37.164  1.00  0.00    -0.237 OA
ATOM     72  O   UNL A   1      39.653  36.452  35.849  1.00  0.00    -0.744 OA
ENDBRANCH  65  69
ENDBRANCH  48  62
BRANCH  49  73
ATOM     73  C   UNL A   1      42.472  26.507  27.823  1.00  0.00     0.023 A 
ATOM     74  C   UNL A   1      42.078  25.180  27.592  1.00  0.00     0.031 A 
ATOM     75  C   UNL A   1      43.416  27.077  26.952  1.00  0.00     0.131 A 
ATOM     76  C   UNL A   1      42.658  24.449  26.544  1.00  0.00     0.055 A 
ATOM     77  C   UNL A   1      43.957  26.361  25.882  1.00  0.00     0.041 A 
ATOM     78  F   UNL A   1      43.819  28.347  27.122  1.00  0.00    -0.206 F 
ATOM     79  C   UNL A   1      43.587  25.034  25.681  1.00  0.00     0.022 A 
BRANCH  76  80
ATOM     80  S   UNL A   1      42.232  22.695  26.369  1.00  0.00     0.124 S 
ATOM     81  O   UNL A   1      40.793  22.713  26.607  1.00  0.00    -0.237 OA
ATOM     82  O   UNL A   1      42.653  22.417  25.001  1.00  0.00    -0.237 OA
ATOM     83  O   UNL A   1      43.029  22.046  27.408  1.00  0.00    -0.744 OA
ENDBRANCH  76  80
ENDBRANCH  49  73
BRANCH  61  84
ATOM     84  C   UNL A   1      44.696  27.475  34.354  1.00  0.00     0.023 A 
ATOM     85  C   UNL A   1      44.573  26.301  35.117  1.00  0.00     0.031 A 
ATOM     86  C   UNL A   1      45.944  28.122  34.325  1.00  0.00     0.131 A 
ATOM     87  C   UNL A   1      45.666  25.837  35.862  1.00  0.00     0.055 A 
ATOM     88  C   UNL A   1      47.044  27.625  35.025  1.00  0.00     0.041 A 
ATOM     89  F   UNL A   1      46.114  29.247  33.611  1.00  0.00    -0.206 F 
ATOM     90  C   UNL A   1      46.905  26.483  35.809  1.00  0.00     0.022 A 
BRANCH  87  91
ATOM     91  S   UNL A   1      45.428  24.419  36.968  1.00  0.00     0.124 S 
ATOM     92  O   UNL A   1      44.875  23.418  36.062  1.00  0.00    -0.237 OA
ATOM     93  O   UNL A   1      46.783  24.166  37.447  1.00  0.00    -0.237 OA
ATOM     94  O   UNL A   1      44.498  24.924  37.977  1.00  0.00    -0.744 OA
ENDBRANCH  87  91
ENDBRANCH  61  84
ENDBRANCH  35  36
ENDBRANCH  27  30
ENDBRANCH  25  26
ENDBRANCH   1  25
TORSDOF 16
ENDMDL
