MODEL 1
REMARK VINA RESULT:     -13.8      0.000      0.000
REMARK SMILES CC1(C)O[C@@H]2C[C@@H]3[C@H]4CCC5=CC(=O)C=C[C@@]5(C)[C@]4(F)[C@H](O)C[C@]3(C)[C@]2(C(=O)NCCCCNC(=O)c2ccc(-c3c4nc(c(-c5cc(S(=O)(=O)[O-])ccc5F)c5ccc([nH]5)c(-c5cc(S(=O)(=O)[O-])ccc5F)c5nc(c(-c6cc(S(=O)(=O)[O-])ccc6F)c6ccc3[nH]6)C=C5)C=C4)cc2)O1
REMARK SMILES IDX 32 1 31 2 30 3 29 4 27 5 28 6 26 8 1 9 2 10 4 11 100 12 3 13
REMARK SMILES IDX 5 14 6 15 24 16 7 17 23 18 25 19 8 20 21 21 9 22 19 23 10 24
REMARK SMILES IDX 17 25 20 26 11 27 16 28 18 29 12 30 15 31 13 32 14 33 22 34
REMARK SMILES IDX 33 36 34 37 35 38 36 40 37 41 38 42 99 43 39 44 98 45 40 46
REMARK SMILES IDX 41 47 42 48 92 49 43 50 97 51 91 52 93 53 44 54 96 55 90 56
REMARK SMILES IDX 89 57 45 59 77 60 57 61 76 62 58 63 61 64 75 65 94 66 59 67
REMARK SMILES IDX 60 68 74 70 95 71 62 72 46 73 47 74 55 75 48 76 54 77 56 78
REMARK SMILES IDX 53 79 49 80 50 81 51 82 52 83 78 84 79 85 87 86 80 87 86 88
REMARK SMILES IDX 88 89 85 90 81 91 82 92 83 93 84 94 63 95 64 96 72 97 65 98
REMARK SMILES IDX 71 99 73 100 70 101 66 102 67 103 68 104 69 105
REMARK H PARENT 29 7 22 35 34 39 93 58 61 69
REMARK Flexibility Score: inf
ROOT
ATOM      1  C   UNL A   1      32.636  30.322  26.024  1.00  0.00     0.023 C 
ENDROOT
BRANCH   1   2
ATOM      2  C   UNL A   1      33.719  29.384  25.527  1.00  0.00     0.023 C 
BRANCH   2   3
ATOM      3  C   UNL A   1      33.626  28.930  24.062  1.00  0.00     0.116 C 
BRANCH   3   4
ATOM      4  N   UNL A   1      32.258  29.014  23.564  1.00  0.00    -0.353 N 
ATOM      5  C   UNL A   1      31.276  28.087  23.352  1.00  0.00     0.255 C 
ATOM      6  O   UNL A   1      30.210  28.527  22.905  1.00  0.00    -0.272 OA
ATOM      7  H   UNL A   1      31.984  29.932  23.333  1.00  0.00     0.163 HD
BRANCH   5   8
ATOM      8  C   UNL A   1      31.434  26.575  23.679  1.00  0.00     0.181 C 
ATOM      9  C   UNL A   1      30.608  27.313  26.846  1.00  0.00     0.075 C 
ATOM     10  C   UNL A   1      30.866  26.133  25.916  1.00  0.00     0.164 C 
ATOM     11  O   UNL A   1      29.676  25.861  25.173  1.00  0.00    -0.344 OA
ATOM     12  O   UNL A   1      31.971  26.456  25.027  1.00  0.00    -0.331 OA
ATOM     13  C   UNL A   1      31.195  24.873  26.738  1.00  0.00     0.075 C 
ATOM     14  C   UNL A   1      30.035  25.833  23.791  1.00  0.00     0.164 C 
ATOM     15  C   UNL A   1      30.251  24.320  23.336  1.00  0.00     0.040 C 
ATOM     16  C   UNL A   1      32.153  25.614  22.626  1.00  0.00     0.014 C 
ATOM     17  C   UNL A   1      31.774  24.255  23.291  1.00  0.00     0.008 C 
ATOM     18  C   UNL A   1      33.642  25.580  22.311  1.00  0.00     0.046 C 
ATOM     19  C   UNL A   1      31.496  25.914  21.237  1.00  0.00     0.015 C 
ATOM     20  C   UNL A   1      32.805  23.195  23.797  1.00  0.00     0.035 C 
ATOM     21  C   UNL A   1      34.582  24.953  23.318  1.00  0.00     0.154 C 
ATOM     22  C   UNL A   1      32.440  21.723  23.703  1.00  0.00     0.012 C 
ATOM     23  C   UNL A   1      34.290  23.438  23.430  1.00  0.00     0.152 C 
ATOM     24  C   UNL A   1      33.274  20.967  24.758  1.00  0.00     0.032 C 
ATOM     25  C   UNL A   1      35.262  22.671  24.421  1.00  0.00     0.044 C 
ATOM     26  F   UNL A   1      34.464  22.904  22.172  1.00  0.00    -0.239 F 
ATOM     27  C   UNL A   1      34.766  21.232  24.687  1.00  0.00    -0.053 C 
ATOM     28  C   UNL A   1      36.695  22.638  23.879  1.00  0.00    -0.009 C 
ATOM     29  C   UNL A   1      35.387  23.366  25.807  1.00  0.00     0.024 C 
ATOM     30  C   UNL A   1      35.634  20.236  24.949  1.00  0.00     0.052 C 
ATOM     31  C   UNL A   1      37.555  21.639  24.131  1.00  0.00     0.048 C 
ATOM     32  C   UNL A   1      37.098  20.452  24.882  1.00  0.00     0.178 C 
ATOM     33  O   UNL A   1      37.886  19.660  25.380  1.00  0.00    -0.290 OA
BRANCH  21  34
ATOM     34  O   UNL A   1      34.537  25.670  24.541  1.00  0.00    -0.390 OA
ATOM     35  H   UNL A   1      34.739  25.070  25.275  1.00  0.00     0.211 HD
ENDBRANCH  21  34
ENDBRANCH   5   8
ENDBRANCH   3   4
ENDBRANCH   2   3
ENDBRANCH   1   2
BRANCH   1  36
ATOM     36  C   UNL A   1      32.867  30.820  27.446  1.00  0.00     0.116 C 
BRANCH  36  37
ATOM     37  N   UNL A   1      33.021  32.270  27.570  1.00  0.00    -0.352 N 
ATOM     38  C   UNL A   1      34.146  32.995  27.904  1.00  0.00     0.251 C 
ATOM     39  H   UNL A   1      32.211  32.801  27.391  1.00  0.00     0.163 HD
ATOM     40  O   UNL A   1      34.087  34.215  28.021  1.00  0.00    -0.269 OA
BRANCH  38  41
ATOM     41  C   UNL A   1      35.403  32.267  28.176  1.00  0.00     0.039 A 
ATOM     42  C   UNL A   1      36.602  32.976  28.253  1.00  0.00     0.014 A 
ATOM     43  C   UNL A   1      35.362  30.907  28.485  1.00  0.00     0.014 A 
ATOM     44  C   UNL A   1      37.739  32.340  28.756  1.00  0.00     0.010 A 
ATOM     45  C   UNL A   1      36.456  30.318  29.104  1.00  0.00     0.010 A 
ATOM     46  C   UNL A   1      37.657  31.026  29.248  1.00  0.00    -0.014 A 
BRANCH  46  47
ATOM     47  C   UNL A   1      38.815  30.371  29.913  1.00  0.00     0.031 A 
ATOM     48  C   UNL A   1      39.194  30.765  31.316  1.00  0.00     0.074 A 
ATOM     49  C   UNL A   1      39.566  29.483  29.230  1.00  0.00     0.049 A 
ATOM     50  N   UNL A   1      40.201  30.362  32.048  1.00  0.00    -0.248 NA
ATOM     51  C   UNL A   1      38.358  31.788  31.963  1.00  0.00     0.031 C 
ATOM     52  C   UNL A   1      39.350  29.082  27.836  1.00  0.00     0.029 A 
ATOM     53  N   UNL A   1      40.665  28.756  29.613  1.00  0.00    -0.354 N 
ATOM     54  C   UNL A   1      40.127  31.094  33.227  1.00  0.00     0.074 A 
ATOM     55  C   UNL A   1      39.037  32.032  33.070  1.00  0.00     0.031 C 
ATOM     56  C   UNL A   1      40.252  28.144  27.503  1.00  0.00     0.029 A 
ATOM     57  C   UNL A   1      41.136  27.907  28.638  1.00  0.00     0.049 A 
ATOM     58  H   UNL A   1      41.078  28.835  30.503  1.00  0.00     0.167 HD
ATOM     59  C   UNL A   1      40.871  30.970  34.355  1.00  0.00     0.034 A 
ATOM     60  C   UNL A   1      42.159  27.029  28.663  1.00  0.00     0.034 A 
ATOM     61  C   UNL A   1      41.937  30.012  34.502  1.00  0.00     0.049 A 
ATOM     62  C   UNL A   1      42.959  26.890  29.933  1.00  0.00     0.074 A 
ATOM     63  C   UNL A   1      42.724  29.755  35.610  1.00  0.00     0.029 A 
ATOM     64  N   UNL A   1      42.369  29.147  33.502  1.00  0.00    -0.354 N 
ATOM     65  N   UNL A   1      42.835  27.545  31.065  1.00  0.00    -0.248 NA
ATOM     66  C   UNL A   1      44.021  25.878  29.932  1.00  0.00     0.031 C 
ATOM     67  C   UNL A   1      43.665  28.778  35.265  1.00  0.00     0.029 A 
ATOM     68  C   UNL A   1      43.421  28.371  33.963  1.00  0.00     0.049 A 
ATOM     69  H   UNL A   1      41.982  29.092  32.599  1.00  0.00     0.167 HD
ATOM     70  C   UNL A   1      43.789  27.002  31.921  1.00  0.00     0.074 A 
ATOM     71  C   UNL A   1      44.458  25.951  31.180  1.00  0.00     0.031 C 
ATOM     72  C   UNL A   1      44.087  27.338  33.203  1.00  0.00     0.034 A 
BRANCH  59  73
ATOM     73  C   UNL A   1      40.548  31.907  35.497  1.00  0.00     0.023 A 
ATOM     74  C   UNL A   1      39.479  31.654  36.376  1.00  0.00     0.031 A 
ATOM     75  C   UNL A   1      41.274  33.097  35.677  1.00  0.00     0.131 A 
ATOM     76  C   UNL A   1      39.100  32.621  37.320  1.00  0.00     0.055 A 
ATOM     77  C   UNL A   1      40.953  34.012  36.683  1.00  0.00     0.041 A 
ATOM     78  F   UNL A   1      42.294  33.407  34.859  1.00  0.00    -0.206 F 
ATOM     79  C   UNL A   1      39.847  33.786  37.498  1.00  0.00     0.022 A 
BRANCH  76  80
ATOM     80  S   UNL A   1      37.518  32.412  38.183  1.00  0.00     0.124 S 
ATOM     81  O   UNL A   1      37.824  32.977  39.495  1.00  0.00    -0.237 OA
ATOM     82  O   UNL A   1      36.601  33.183  37.352  1.00  0.00    -0.237 OA
ATOM     83  O   UNL A   1      37.308  30.966  38.168  1.00  0.00    -0.744 OA
ENDBRANCH  76  80
ENDBRANCH  59  73
BRANCH  60  84
ATOM     84  C   UNL A   1      42.473  26.195  27.467  1.00  0.00     0.023 A 
ATOM     85  C   UNL A   1      42.040  24.861  27.385  1.00  0.00     0.031 A 
ATOM     86  C   UNL A   1      43.243  26.705  26.407  1.00  0.00     0.131 A 
ATOM     87  C   UNL A   1      42.420  24.067  26.291  1.00  0.00     0.055 A 
ATOM     88  C   UNL A   1      43.577  25.925  25.297  1.00  0.00     0.041 A 
ATOM     89  F   UNL A   1      43.673  27.976  26.430  1.00  0.00    -0.206 F 
ATOM     90  C   UNL A   1      43.176  24.593  25.242  1.00  0.00     0.022 A 
BRANCH  87  91
ATOM     91  S   UNL A   1      41.975  22.308  26.298  1.00  0.00     0.124 S 
ATOM     92  O   UNL A   1      42.478  21.879  27.597  1.00  0.00    -0.237 OA
ATOM     93  O   UNL A   1      40.523  22.363  26.158  1.00  0.00    -0.237 OA
ATOM     94  O   UNL A   1      42.689  21.772  25.142  1.00  0.00    -0.744 OA
ENDBRANCH  87  91
ENDBRANCH  60  84
BRANCH  72  95
ATOM     95  C   UNL A   1      45.162  26.526  33.884  1.00  0.00     0.023 A 
ATOM     96  C   UNL A   1      44.895  25.260  34.433  1.00  0.00     0.031 A 
ATOM     97  C   UNL A   1      46.462  27.045  34.021  1.00  0.00     0.131 A 
ATOM     98  C   UNL A   1      45.888  24.589  35.160  1.00  0.00     0.055 A 
ATOM     99  C   UNL A   1      47.467  26.341  34.685  1.00  0.00     0.041 A 
ATOM    100  F   UNL A   1      46.774  28.250  33.517  1.00  0.00    -0.206 F 
ATOM    101  C   UNL A   1      47.178  25.114  35.276  1.00  0.00     0.022 A 
BRANCH  98 102
ATOM    102  S   UNL A   1      45.436  23.081  36.061  1.00  0.00     0.124 S 
ATOM    103  O   UNL A   1      44.117  22.783  35.511  1.00  0.00    -0.237 OA
ATOM    104  O   UNL A   1      46.506  22.162  35.684  1.00  0.00    -0.237 OA
ATOM    105  O   UNL A   1      45.445  23.502  37.460  1.00  0.00    -0.744 OA
ENDBRANCH  98 102
ENDBRANCH  72  95
ENDBRANCH  46  47
ENDBRANCH  38  41
ENDBRANCH  36  37
ENDBRANCH   1  36
TORSDOF 15
ENDMDL
MODEL 2
REMARK VINA RESULT:     -13.8      1.940      2.964
REMARK SMILES CC1(C)O[C@@H]2C[C@@H]3[C@H]4CCC5=CC(=O)C=C[C@@]5(C)[C@]4(F)[C@H](O)C[C@]3(C)[C@]2(C(=O)NCCCCNC(=O)c2ccc(-c3c4nc(c(-c5cc(S(=O)(=O)[O-])ccc5F)c5ccc([nH]5)c(-c5cc(S(=O)(=O)[O-])ccc5F)c5nc(c(-c6cc(S(=O)(=O)[O-])ccc6F)c6ccc3[nH]6)C=C5)C=C4)cc2)O1
REMARK SMILES IDX 32 1 31 2 30 3 29 4 27 5 28 6 26 8 1 9 2 10 4 11 100 12 3 13
REMARK SMILES IDX 5 14 6 15 24 16 7 17 23 18 25 19 8 20 21 21 9 22 19 23 10 24
REMARK SMILES IDX 17 25 20 26 11 27 16 28 18 29 12 30 15 31 13 32 14 33 22 34
REMARK SMILES IDX 33 36 34 37 35 38 36 40 37 41 38 42 99 43 39 44 98 45 40 46
REMARK SMILES IDX 41 47 42 48 92 49 43 50 97 51 91 52 93 53 44 54 96 55 90 56
REMARK SMILES IDX 89 57 45 59 77 60 57 61 76 62 58 63 61 64 75 65 94 66 59 67
REMARK SMILES IDX 60 68 74 70 95 71 62 72 46 73 47 74 55 75 48 76 54 77 56 78
REMARK SMILES IDX 53 79 49 80 50 81 51 82 52 83 78 84 79 85 87 86 80 87 86 88
REMARK SMILES IDX 88 89 85 90 81 91 82 92 83 93 84 94 63 95 64 96 72 97 65 98
REMARK SMILES IDX 71 99 73 100 70 101 66 102 67 103 68 104 69 105
REMARK H PARENT 29 7 22 35 34 39 93 58 61 69
REMARK Flexibility Score: inf
ROOT
ATOM      1  C   UNL A   1      31.614  29.748  27.099  1.00  0.00     0.023 C 
ENDROOT
BRANCH   1   2
ATOM      2  C   UNL A   1      32.177  28.362  26.845  1.00  0.00     0.023 C 
BRANCH   2   3
ATOM      3  C   UNL A   1      32.318  27.928  25.378  1.00  0.00     0.116 C 
BRANCH   3   4
ATOM      4  N   UNL A   1      31.190  27.106  24.955  1.00  0.00    -0.353 N 
ATOM      5  C   UNL A   1      31.068  25.799  24.574  1.00  0.00     0.255 C 
ATOM      6  O   UNL A   1      29.927  25.433  24.270  1.00  0.00    -0.272 OA
ATOM      7  H   UNL A   1      30.335  27.597  24.941  1.00  0.00     0.163 HD
BRANCH   5   8
ATOM      8  C   UNL A   1      32.255  24.794  24.554  1.00  0.00     0.181 C 
ATOM      9  C   UNL A   1      32.512  25.373  21.260  1.00  0.00     0.075 C 
ATOM     10  C   UNL A   1      33.214  24.666  22.414  1.00  0.00     0.164 C 
ATOM     11  O   UNL A   1      34.014  25.617  23.120  1.00  0.00    -0.344 OA
ATOM     12  O   UNL A   1      32.217  24.073  23.290  1.00  0.00    -0.331 OA
ATOM     13  C   UNL A   1      34.161  23.578  21.871  1.00  0.00     0.075 C 
ATOM     14  C   UNL A   1      33.663  25.526  24.501  1.00  0.00     0.164 C 
ATOM     15  C   UNL A   1      34.720  24.596  25.250  1.00  0.00     0.040 C 
ATOM     16  C   UNL A   1      32.503  23.847  25.815  1.00  0.00     0.014 C 
ATOM     17  C   UNL A   1      33.910  23.313  25.402  1.00  0.00     0.008 C 
ATOM     18  C   UNL A   1      31.653  22.652  26.223  1.00  0.00     0.046 C 
ATOM     19  C   UNL A   1      32.455  24.772  27.077  1.00  0.00     0.015 C 
ATOM     20  C   UNL A   1      34.258  21.807  25.174  1.00  0.00     0.035 C 
ATOM     21  C   UNL A   1      31.761  21.376  25.415  1.00  0.00     0.154 C 
ATOM     22  C   UNL A   1      35.654  21.322  25.526  1.00  0.00     0.012 C 
ATOM     23  C   UNL A   1      33.177  20.774  25.579  1.00  0.00     0.152 C 
ATOM     24  C   UNL A   1      35.933  20.056  24.690  1.00  0.00     0.032 C 
ATOM     25  C   UNL A   1      33.379  19.399  24.816  1.00  0.00     0.044 C 
ATOM     26  F   UNL A   1      33.358  20.541  26.925  1.00  0.00    -0.239 F 
ATOM     27  C   UNL A   1      34.868  18.982  24.801  1.00  0.00    -0.053 C 
ATOM     28  C   UNL A   1      32.532  18.286  25.443  1.00  0.00    -0.009 C 
ATOM     29  C   UNL A   1      32.913  19.453  23.333  1.00  0.00     0.024 C 
ATOM     30  C   UNL A   1      35.225  17.683  24.790  1.00  0.00     0.052 C 
ATOM     31  C   UNL A   1      32.894  16.995  25.441  1.00  0.00     0.048 C 
ATOM     32  C   UNL A   1      34.215  16.606  24.906  1.00  0.00     0.178 C 
ATOM     33  O   UNL A   1      34.480  15.446  24.619  1.00  0.00    -0.290 OA
BRANCH  21  34
ATOM     34  O   UNL A   1      31.353  21.608  24.077  1.00  0.00    -0.390 OA
ATOM     35  H   UNL A   1      31.252  20.760  23.618  1.00  0.00     0.211 HD
ENDBRANCH  21  34
ENDBRANCH   5   8
ENDBRANCH   3   4
ENDBRANCH   2   3
ENDBRANCH   1   2
BRANCH   1  36
ATOM     36  C   UNL A   1      32.294  30.840  26.282  1.00  0.00     0.116 C 
BRANCH  36  37
ATOM     37  N   UNL A   1      32.169  32.189  26.838  1.00  0.00    -0.352 N 
ATOM     38  C   UNL A   1      33.077  32.899  27.596  1.00  0.00     0.251 C 
ATOM     39  H   UNL A   1      31.322  32.652  26.644  1.00  0.00     0.163 HD
ATOM     40  O   UNL A   1      32.787  34.008  28.034  1.00  0.00    -0.269 OA
BRANCH  38  41
ATOM     41  C   UNL A   1      34.376  32.272  27.918  1.00  0.00     0.039 A 
ATOM     42  C   UNL A   1      35.520  33.066  27.990  1.00  0.00     0.014 A 
ATOM     43  C   UNL A   1      34.424  30.924  28.277  1.00  0.00     0.014 A 
ATOM     44  C   UNL A   1      36.688  32.530  28.537  1.00  0.00     0.010 A 
ATOM     45  C   UNL A   1      35.543  30.437  28.937  1.00  0.00     0.010 A 
ATOM     46  C   UNL A   1      36.688  31.233  29.076  1.00  0.00    -0.014 A 
BRANCH  46  47
ATOM     47  C   UNL A   1      37.875  30.685  29.787  1.00  0.00     0.031 A 
ATOM     48  C   UNL A   1      38.138  31.077  31.217  1.00  0.00     0.074 A 
ATOM     49  C   UNL A   1      38.751  29.902  29.124  1.00  0.00     0.049 A 
ATOM     50  N   UNL A   1      39.145  30.762  31.991  1.00  0.00    -0.248 NA
ATOM     51  C   UNL A   1      37.165  31.986  31.842  1.00  0.00     0.031 C 
ATOM     52  C   UNL A   1      38.649  29.521  27.712  1.00  0.00     0.029 A 
ATOM     53  N   UNL A   1      39.900  29.286  29.548  1.00  0.00    -0.354 N 
ATOM     54  C   UNL A   1      38.933  31.449  33.182  1.00  0.00     0.074 A 
ATOM     55  C   UNL A   1      37.758  32.270  32.989  1.00  0.00     0.031 C 
ATOM     56  C   UNL A   1      39.663  28.694  27.405  1.00  0.00     0.029 A 
ATOM     57  C   UNL A   1      40.509  28.520  28.580  1.00  0.00     0.049 A 
ATOM     58  H   UNL A   1      40.257  29.383  30.461  1.00  0.00     0.167 HD
ATOM     59  C   UNL A   1      39.629  31.372  34.345  1.00  0.00     0.034 A 
ATOM     60  C   UNL A   1      41.617  27.755  28.639  1.00  0.00     0.034 A 
ATOM     61  C   UNL A   1      40.783  30.529  34.525  1.00  0.00     0.049 A 
ATOM     62  C   UNL A   1      42.363  27.666  29.946  1.00  0.00     0.074 A 
ATOM     63  C   UNL A   1      41.535  30.325  35.668  1.00  0.00     0.029 A 
ATOM     64  N   UNL A   1      41.355  29.744  33.531  1.00  0.00    -0.354 N 
ATOM     65  N   UNL A   1      42.113  28.271  31.085  1.00  0.00    -0.248 NA
ATOM     66  C   UNL A   1      43.527  26.773  29.978  1.00  0.00     0.031 C 
ATOM     67  C   UNL A   1      42.593  29.464  35.351  1.00  0.00     0.029 A 
ATOM     68  C   UNL A   1      42.460  29.071  34.029  1.00  0.00     0.049 A 
ATOM     69  H   UNL A   1      41.022  29.674  32.607  1.00  0.00     0.167 HD
ATOM     70  C   UNL A   1      43.075  27.808  31.978  1.00  0.00     0.074 A 
ATOM     71  C   UNL A   1      43.890  26.856  31.249  1.00  0.00     0.031 C 
ATOM     72  C   UNL A   1      43.271  28.137  33.281  1.00  0.00     0.034 A 
BRANCH  59  73
ATOM     73  C   UNL A   1      39.149  32.236  35.490  1.00  0.00     0.023 A 
ATOM     74  C   UNL A   1      39.555  33.577  35.620  1.00  0.00     0.031 A 
ATOM     75  C   UNL A   1      38.329  31.701  36.497  1.00  0.00     0.131 A 
ATOM     76  C   UNL A   1      39.230  34.301  36.776  1.00  0.00     0.055 A 
ATOM     77  C   UNL A   1      37.927  32.459  37.601  1.00  0.00     0.041 A 
ATOM     78  F   UNL A   1      37.923  30.422  36.443  1.00  0.00    -0.206 F 
ATOM     79  C   UNL A   1      38.395  33.760  37.755  1.00  0.00     0.022 A 
BRANCH  76  80
ATOM     80  S   UNL A   1      40.060  35.889  37.062  1.00  0.00     0.124 S 
ATOM     81  O   UNL A   1      39.426  36.332  38.301  1.00  0.00    -0.237 OA
ATOM     82  O   UNL A   1      41.461  35.499  37.165  1.00  0.00    -0.237 OA
ATOM     83  O   UNL A   1      39.715  36.674  35.879  1.00  0.00    -0.744 OA
ENDBRANCH  76  80
ENDBRANCH  59  73
BRANCH  60  84
ATOM     84  C   UNL A   1      42.080  26.994  27.442  1.00  0.00     0.023 A 
ATOM     85  C   UNL A   1      41.854  25.612  27.336  1.00  0.00     0.031 A 
ATOM     86  C   UNL A   1      42.788  27.628  26.406  1.00  0.00     0.131 A 
ATOM     87  C   UNL A   1      42.372  24.898  26.244  1.00  0.00     0.055 A 
ATOM     88  C   UNL A   1      43.259  26.922  25.297  1.00  0.00     0.041 A 
ATOM     89  F   UNL A   1      43.022  28.949  26.453  1.00  0.00    -0.206 F 
ATOM     90  C   UNL A   1      43.063  25.546  25.218  1.00  0.00     0.022 A 
BRANCH  87  91
ATOM     91  S   UNL A   1      42.196  23.093  26.223  1.00  0.00     0.124 S 
ATOM     92  O   UNL A   1      40.759  22.931  26.408  1.00  0.00    -0.237 OA
ATOM     93  O   UNL A   1      42.715  22.754  24.901  1.00  0.00    -0.237 OA
ATOM     94  O   UNL A   1      43.025  22.657  27.345  1.00  0.00    -0.744 OA
ENDBRANCH  87  91
ENDBRANCH  60  84
BRANCH  72  95
ATOM     95  C   UNL A   1      44.391  27.425  34.000  1.00  0.00     0.023 A 
ATOM     96  C   UNL A   1      44.215  26.147  34.558  1.00  0.00     0.031 A 
ATOM     97  C   UNL A   1      45.639  28.051  34.162  1.00  0.00     0.131 A 
ATOM     98  C   UNL A   1      45.241  25.569  35.319  1.00  0.00     0.055 A 
ATOM     99  C   UNL A   1      46.682  27.441  34.860  1.00  0.00     0.041 A 
ATOM    100  F   UNL A   1      45.864  29.272  33.650  1.00  0.00    -0.206 F 
ATOM    101  C   UNL A   1      46.480  26.200  35.460  1.00  0.00     0.022 A 
BRANCH  98 102
ATOM    102  S   UNL A   1      44.892  24.039  36.227  1.00  0.00     0.124 S 
ATOM    103  O   UNL A   1      45.003  24.477  37.614  1.00  0.00    -0.237 OA
ATOM    104  O   UNL A   1      43.546  23.706  35.770  1.00  0.00    -0.237 OA
ATOM    105  O   UNL A   1      45.942  23.126  35.778  1.00  0.00    -0.744 OA
ENDBRANCH  98 102
ENDBRANCH  72  95
ENDBRANCH  46  47
ENDBRANCH  38  41
ENDBRANCH  36  37
ENDBRANCH   1  36
TORSDOF 15
ENDMDL
MODEL 3
REMARK VINA RESULT:     -13.6      4.567     10.099
REMARK SMILES CC1(C)O[C@@H]2C[C@@H]3[C@H]4CCC5=CC(=O)C=C[C@@]5(C)[C@]4(F)[C@H](O)C[C@]3(C)[C@]2(C(=O)NCCCCNC(=O)c2ccc(-c3c4nc(c(-c5cc(S(=O)(=O)[O-])ccc5F)c5ccc([nH]5)c(-c5cc(S(=O)(=O)[O-])ccc5F)c5nc(c(-c6cc(S(=O)(=O)[O-])ccc6F)c6ccc3[nH]6)C=C5)C=C4)cc2)O1
REMARK SMILES IDX 32 1 31 2 30 3 29 4 27 5 28 6 26 8 1 9 2 10 4 11 100 12 3 13
REMARK SMILES IDX 5 14 6 15 24 16 7 17 23 18 25 19 8 20 21 21 9 22 19 23 10 24
REMARK SMILES IDX 17 25 20 26 11 27 16 28 18 29 12 30 15 31 13 32 14 33 22 34
REMARK SMILES IDX 33 36 34 37 35 38 36 40 37 41 38 42 99 43 39 44 98 45 40 46
REMARK SMILES IDX 41 47 42 48 92 49 43 50 97 51 91 52 93 53 44 54 96 55 90 56
REMARK SMILES IDX 89 57 45 59 77 60 57 61 76 62 58 63 61 64 75 65 94 66 59 67
REMARK SMILES IDX 60 68 74 70 95 71 62 72 46 73 47 74 55 75 48 76 54 77 56 78
REMARK SMILES IDX 53 79 49 80 50 81 51 82 52 83 78 84 79 85 87 86 80 87 86 88
REMARK SMILES IDX 88 89 85 90 81 91 82 92 83 93 84 94 63 95 64 96 72 97 65 98
REMARK SMILES IDX 71 99 73 100 70 101 66 102 67 103 68 104 69 105
REMARK H PARENT 29 7 22 35 34 39 93 58 61 69
REMARK Flexibility Score: inf
ROOT
ATOM      1  C   UNL A   1      36.696  21.727  25.681  1.00  0.00     0.023 C 
ENDROOT
BRANCH   1   2
ATOM      2  C   UNL A   1      36.044  22.729  26.614  1.00  0.00     0.023 C 
BRANCH   2   3
ATOM      3  C   UNL A   1      34.628  22.396  27.110  1.00  0.00     0.116 C 
BRANCH   3   4
ATOM      4  N   UNL A   1      33.997  21.380  26.277  1.00  0.00    -0.353 N 
ATOM      5  C   UNL A   1      33.089  21.430  25.256  1.00  0.00     0.255 C 
ATOM      6  O   UNL A   1      32.767  20.340  24.770  1.00  0.00    -0.272 OA
ATOM      7  H   UNL A   1      34.287  20.463  26.495  1.00  0.00     0.163 HD
BRANCH   5   8
ATOM      8  C   UNL A   1      32.507  22.754  24.687  1.00  0.00     0.181 C 
ATOM      9  C   UNL A   1      35.082  22.804  22.537  1.00  0.00     0.075 C 
ATOM     10  C   UNL A   1      33.771  23.513  22.858  1.00  0.00     0.164 C 
ATOM     11  O   UNL A   1      32.693  22.775  22.280  1.00  0.00    -0.344 OA
ATOM     12  O   UNL A   1      33.619  23.610  24.301  1.00  0.00    -0.331 OA
ATOM     13  C   UNL A   1      33.762  24.918  22.226  1.00  0.00     0.075 C 
ATOM     14  C   UNL A   1      31.739  22.534  23.315  1.00  0.00     0.164 C 
ATOM     15  C   UNL A   1      30.582  23.629  23.226  1.00  0.00     0.040 C 
ATOM     16  C   UNL A   1      31.369  23.526  25.499  1.00  0.00     0.014 C 
ATOM     17  C   UNL A   1      30.969  24.542  24.385  1.00  0.00     0.008 C 
ATOM     18  C   UNL A   1      31.559  24.305  26.793  1.00  0.00     0.046 C 
ATOM     19  C   UNL A   1      30.294  22.453  25.878  1.00  0.00     0.015 C 
ATOM     20  C   UNL A   1      31.048  26.096  24.528  1.00  0.00     0.035 C 
ATOM     21  C   UNL A   1      32.241  25.655  26.733  1.00  0.00     0.154 C 
ATOM     22  C   UNL A   1      30.013  26.945  23.811  1.00  0.00     0.012 C 
ATOM     23  C   UNL A   1      31.359  26.649  25.942  1.00  0.00     0.152 C 
ATOM     24  C   UNL A   1      30.623  28.347  23.600  1.00  0.00     0.032 C 
ATOM     25  C   UNL A   1      31.956  28.116  25.868  1.00  0.00     0.044 C 
ATOM     26  F   UNL A   1      30.149  26.719  26.598  1.00  0.00    -0.239 F 
ATOM     27  C   UNL A   1      31.173  28.988  24.860  1.00  0.00    -0.053 C 
ATOM     28  C   UNL A   1      31.958  28.785  27.247  1.00  0.00    -0.009 C 
ATOM     29  C   UNL A   1      33.446  28.142  25.421  1.00  0.00     0.024 C 
ATOM     30  C   UNL A   1      31.055  30.318  25.039  1.00  0.00     0.052 C 
ATOM     31  C   UNL A   1      31.828  30.108  27.423  1.00  0.00     0.048 C 
ATOM     32  C   UNL A   1      31.570  30.980  26.259  1.00  0.00     0.178 C 
ATOM     33  O   UNL A   1      31.725  32.193  26.313  1.00  0.00    -0.290 OA
BRANCH  21  34
ATOM     34  O   UNL A   1      33.569  25.511  26.256  1.00  0.00    -0.390 OA
ATOM     35  H   UNL A   1      33.692  24.615  25.908  1.00  0.00     0.211 HD
ENDBRANCH  21  34
ENDBRANCH   5   8
ENDBRANCH   3   4
ENDBRANCH   2   3
ENDBRANCH   1   2
BRANCH   1  36
ATOM     36  C   UNL A   1      38.155  22.043  25.372  1.00  0.00     0.116 C 
BRANCH  36  37
ATOM     37  N   UNL A   1      39.113  21.043  25.845  1.00  0.00    -0.352 N 
ATOM     38  C   UNL A   1      40.150  21.195  26.742  1.00  0.00     0.251 C 
ATOM     39  H   UNL A   1      39.002  20.138  25.473  1.00  0.00     0.163 HD
ATOM     40  O   UNL A   1      40.901  20.257  26.987  1.00  0.00    -0.269 OA
BRANCH  38  41
ATOM     41  C   UNL A   1      40.371  22.523  27.352  1.00  0.00     0.039 A 
ATOM     42  C   UNL A   1      41.449  22.709  28.217  1.00  0.00     0.014 A 
ATOM     43  C   UNL A   1      39.586  23.607  26.954  1.00  0.00     0.014 A 
ATOM     44  C   UNL A   1      41.808  24.005  28.590  1.00  0.00     0.010 A 
ATOM     45  C   UNL A   1      40.024  24.896  27.220  1.00  0.00     0.010 A 
ATOM     46  C   UNL A   1      41.140  25.112  28.040  1.00  0.00    -0.014 A 
BRANCH  46  47
ATOM     47  C   UNL A   1      41.587  26.505  28.312  1.00  0.00     0.031 A 
ATOM     48  C   UNL A   1      42.981  26.931  27.932  1.00  0.00     0.074 A 
ATOM     49  C   UNL A   1      40.769  27.356  28.964  1.00  0.00     0.049 A 
ATOM     50  N   UNL A   1      43.583  28.074  28.137  1.00  0.00    -0.248 NA
ATOM     51  C   UNL A   1      43.826  25.918  27.281  1.00  0.00     0.031 C 
ATOM     52  C   UNL A   1      39.427  27.034  29.458  1.00  0.00     0.029 A 
ATOM     53  N   UNL A   1      40.946  28.667  29.327  1.00  0.00    -0.354 N 
ATOM     54  C   UNL A   1      44.878  27.909  27.659  1.00  0.00     0.074 A 
ATOM     55  C   UNL A   1      44.999  26.528  27.245  1.00  0.00     0.031 C 
ATOM     56  C   UNL A   1      38.885  28.133  30.009  1.00  0.00     0.029 A 
ATOM     57  C   UNL A   1      39.852  29.223  29.948  1.00  0.00     0.049 A 
ATOM     58  H   UNL A   1      41.779  29.164  29.159  1.00  0.00     0.167 HD
ATOM     59  C   UNL A   1      45.865  28.832  27.536  1.00  0.00     0.034 A 
ATOM     60  C   UNL A   1      39.648  30.475  30.407  1.00  0.00     0.034 A 
ATOM     61  C   UNL A   1      45.717  30.210  27.930  1.00  0.00     0.049 A 
ATOM     62  C   UNL A   1      40.749  31.491  30.240  1.00  0.00     0.074 A 
ATOM     63  C   UNL A   1      46.623  31.248  27.805  1.00  0.00     0.029 A 
ATOM     64  N   UNL A   1      44.583  30.745  28.530  1.00  0.00    -0.354 N 
ATOM     65  N   UNL A   1      41.947  31.336  29.725  1.00  0.00    -0.248 NA
ATOM     66  C   UNL A   1      40.458  32.855  30.697  1.00  0.00     0.031 C 
ATOM     67  C   UNL A   1      46.061  32.394  28.379  1.00  0.00     0.029 A 
ATOM     68  C   UNL A   1      44.775  32.092  28.798  1.00  0.00     0.049 A 
ATOM     69  H   UNL A   1      43.763  30.242  28.734  1.00  0.00     0.167 HD
ATOM     70  C   UNL A   1      42.544  32.593  29.772  1.00  0.00     0.074 A 
ATOM     71  C   UNL A   1      41.562  33.495  30.342  1.00  0.00     0.031 C 
ATOM     72  C   UNL A   1      43.789  32.972  29.382  1.00  0.00     0.034 A 
BRANCH  59  73
ATOM     73  C   UNL A   1      47.180  28.358  26.960  1.00  0.00     0.023 A 
ATOM     74  C   UNL A   1      47.349  28.158  25.578  1.00  0.00     0.031 A 
ATOM     75  C   UNL A   1      48.260  28.041  27.802  1.00  0.00     0.131 A 
ATOM     76  C   UNL A   1      48.522  27.561  25.091  1.00  0.00     0.055 A 
ATOM     77  C   UNL A   1      49.464  27.538  27.301  1.00  0.00     0.041 A 
ATOM     78  F   UNL A   1      48.157  28.190  29.133  1.00  0.00    -0.206 F 
ATOM     79  C   UNL A   1      49.592  27.275  25.940  1.00  0.00     0.022 A 
BRANCH  76  80
ATOM     80  S   UNL A   1      48.554  27.002  23.365  1.00  0.00     0.124 S 
ATOM     81  O   UNL A   1      47.676  27.979  22.725  1.00  0.00    -0.237 OA
ATOM     82  O   UNL A   1      49.970  27.100  23.029  1.00  0.00    -0.237 OA
ATOM     83  O   UNL A   1      48.020  25.644  23.434  1.00  0.00    -0.744 OA
ENDBRANCH  76  80
ENDBRANCH  59  73
BRANCH  60  84
ATOM     84  C   UNL A   1      38.351  30.850  31.041  1.00  0.00     0.023 A 
ATOM     85  C   UNL A   1      37.353  31.508  30.304  1.00  0.00     0.031 A 
ATOM     86  C   UNL A   1      38.106  30.594  32.401  1.00  0.00     0.131 A 
ATOM     87  C   UNL A   1      36.175  31.930  30.941  1.00  0.00     0.055 A 
ATOM     88  C   UNL A   1      36.911  30.972  33.019  1.00  0.00     0.041 A 
ATOM     89  F   UNL A   1      39.023  29.959  33.149  1.00  0.00    -0.206 F 
ATOM     90  C   UNL A   1      35.943  31.656  32.290  1.00  0.00     0.022 A 
BRANCH  87  91
ATOM     91  S   UNL A   1      34.980  32.913  29.994  1.00  0.00     0.124 S 
ATOM     92  O   UNL A   1      34.068  33.362  31.040  1.00  0.00    -0.237 OA
ATOM     93  O   UNL A   1      35.834  33.939  29.402  1.00  0.00    -0.237 OA
ATOM     94  O   UNL A   1      34.421  31.950  29.047  1.00  0.00    -0.744 OA
ENDBRANCH  87  91
ENDBRANCH  60  84
BRANCH  72  95
ATOM     95  C   UNL A   1      44.130  34.435  29.529  1.00  0.00     0.023 A 
ATOM     96  C   UNL A   1      43.722  35.388  28.578  1.00  0.00     0.031 A 
ATOM     97  C   UNL A   1      44.907  34.875  30.614  1.00  0.00     0.131 A 
ATOM     98  C   UNL A   1      44.158  36.715  28.687  1.00  0.00     0.055 A 
ATOM     99  C   UNL A   1      45.279  36.213  30.756  1.00  0.00     0.041 A 
ATOM    100  F   UNL A   1      45.326  34.010  31.552  1.00  0.00    -0.206 F 
ATOM    101  C   UNL A   1      44.920  37.139  29.779  1.00  0.00     0.022 A 
BRANCH  98 102
ATOM    102  S   UNL A   1      43.821  37.855  27.318  1.00  0.00     0.124 S 
ATOM    103  O   UNL A   1      45.146  38.022  26.729  1.00  0.00    -0.237 OA
ATOM    104  O   UNL A   1      42.858  37.103  26.518  1.00  0.00    -0.237 OA
ATOM    105  O   UNL A   1      43.283  39.040  27.982  1.00  0.00    -0.744 OA
ENDBRANCH  98 102
ENDBRANCH  72  95
ENDBRANCH  46  47
ENDBRANCH  38  41
ENDBRANCH  36  37
ENDBRANCH   1  36
TORSDOF 15
ENDMDL
