MODEL 1
REMARK VINA RESULT:     -11.5      0.000      0.000
REMARK SMILES CCn1ncc(CNc2ccccc2C(=O)NCCCCNC(=O)c2ccc(-c3c4nc(c(-c5cc(S(=O)(=O)[O-])ccc5F)c5ccc([nH]5)c(-c5cc(S(=O)(=O)[O-])ccc5F)c5nc(c(-c6cc(S(=O)(=O)[O-])ccc6F)c6ccc3[nH]6)C=C5)C=C4)cc2)c1C
REMARK SMILES IDX 19 1 18 2 17 3 15 4 16 5 14 7 9 8 10 9 11 10 13 11 12 12
REMARK SMILES IDX 8 13 7 15 6 16 3 17 4 18 88 19 5 20 89 21 2 22 1 23 20 24
REMARK SMILES IDX 21 25 22 26 23 27 24 29 25 30 26 31 87 32 27 33 86 34 28 35
REMARK SMILES IDX 29 36 30 37 80 38 31 39 85 40 79 41 81 42 32 43 84 44 78 45
REMARK SMILES IDX 77 46 33 48 65 49 45 50 64 51 46 52 49 53 63 54 82 55 47 56
REMARK SMILES IDX 48 57 62 59 83 60 50 61 34 62 35 63 43 64 36 65 42 66 44 67
REMARK SMILES IDX 41 68 37 69 38 70 39 71 40 72 66 73 67 74 75 75 68 76 74 77
REMARK SMILES IDX 76 78 73 79 69 80 70 81 71 82 72 83 51 84 52 85 60 86 53 87
REMARK SMILES IDX 59 88 61 89 58 90 54 91 55 92 56 93 57 94
REMARK H PARENT 17 6 8 14 22 28 81 47 49 58
REMARK Flexibility Score: inf
ROOT
ATOM      1  C   UNL A   1      38.644  22.008  25.756  1.00  0.00     0.023 C 
ENDROOT
BRANCH   1   2
ATOM      2  C   UNL A   1      37.327  22.716  25.416  1.00  0.00     0.116 C 
BRANCH   2   3
ATOM      3  N   UNL A   1      36.270  22.626  26.410  1.00  0.00    -0.352 N 
ATOM      4  C   UNL A   1      34.961  23.075  26.346  1.00  0.00     0.253 C 
ATOM      5  O   UNL A   1      34.233  22.859  27.316  1.00  0.00    -0.269 OA
ATOM      6  H   UNL A   1      36.521  22.181  27.252  1.00  0.00     0.163 HD
BRANCH   4   7
ATOM      7  C   UNL A   1      34.416  23.880  25.206  1.00  0.00     0.062 A 
ATOM      8  C   UNL A   1      34.049  23.374  23.948  1.00  0.00     0.047 A 
ATOM      9  C   UNL A   1      33.680  24.281  22.934  1.00  0.00     0.026 A 
ATOM     10  C   UNL A   1      33.591  25.649  23.169  1.00  0.00     0.002 A 
ATOM     11  C   UNL A   1      34.268  25.262  25.448  1.00  0.00     0.016 A 
ATOM     12  C   UNL A   1      33.853  26.139  24.439  1.00  0.00     0.001 A 
BRANCH   8  13
ATOM     13  N   UNL A   1      33.900  22.034  23.638  1.00  0.00    -0.380 N 
ATOM     14  H   UNL A   1      34.697  21.478  23.479  1.00  0.00     0.160 HD
BRANCH  13  15
ATOM     15  C   UNL A   1      32.572  21.440  23.543  1.00  0.00     0.152 C 
BRANCH  15  16
ATOM     16  C   UNL A   1      32.542  20.182  24.333  1.00  0.00     0.012 A 
ATOM     17  N   UNL A   1      32.450  18.087  24.970  1.00  0.00    -0.270 N 
ATOM     18  N   UNL A   1      32.862  18.747  26.068  1.00  0.00    -0.181 NA
ATOM     19  C   UNL A   1      32.443  18.887  23.854  1.00  0.00     0.040 A 
ATOM     20  C   UNL A   1      32.880  20.017  25.686  1.00  0.00     0.141 A 
ATOM     21  C   UNL A   1      32.422  18.419  22.447  1.00  0.00     0.067 C 
BRANCH  17  22
ATOM     22  C   UNL A   1      32.200  16.661  25.066  1.00  0.00     0.141 C 
ATOM     23  C   UNL A   1      33.455  15.820  24.893  1.00  0.00     0.029 C 
ENDBRANCH  17  22
ENDBRANCH  15  16
ENDBRANCH  13  15
ENDBRANCH   8  13
ENDBRANCH   4   7
ENDBRANCH   2   3
ENDBRANCH   1   2
BRANCH   1  24
ATOM     24  C   UNL A   1      38.854  20.578  25.233  1.00  0.00     0.023 C 
BRANCH  24  25
ATOM     25  C   UNL A   1      39.421  19.585  26.234  1.00  0.00     0.116 C 
BRANCH  25  26
ATOM     26  N   UNL A   1      40.687  18.962  25.871  1.00  0.00    -0.352 N 
ATOM     27  C   UNL A   1      41.936  19.566  25.728  1.00  0.00     0.251 C 
ATOM     28  H   UNL A   1      40.657  17.991  25.707  1.00  0.00     0.163 HD
ATOM     29  O   UNL A   1      42.826  18.969  25.145  1.00  0.00    -0.269 OA
BRANCH  27  30
ATOM     30  C   UNL A   1      42.178  20.927  26.289  1.00  0.00     0.039 A 
ATOM     31  C   UNL A   1      42.454  22.027  25.466  1.00  0.00     0.014 A 
ATOM     32  C   UNL A   1      42.180  21.104  27.668  1.00  0.00     0.014 A 
ATOM     33  C   UNL A   1      42.679  23.283  26.047  1.00  0.00     0.010 A 
ATOM     34  C   UNL A   1      42.322  22.334  28.241  1.00  0.00     0.010 A 
ATOM     35  C   UNL A   1      42.617  23.419  27.439  1.00  0.00    -0.014 A 
BRANCH  35  36
ATOM     36  C   UNL A   1      42.657  24.699  28.129  1.00  0.00     0.031 A 
ATOM     37  C   UNL A   1      41.353  25.411  28.120  1.00  0.00     0.074 A 
ATOM     38  C   UNL A   1      43.623  25.002  29.025  1.00  0.00     0.049 A 
ATOM     39  N   UNL A   1      41.053  26.507  27.510  1.00  0.00    -0.248 NA
ATOM     40  C   UNL A   1      40.186  24.735  28.720  1.00  0.00     0.031 C 
ATOM     41  C   UNL A   1      44.767  24.179  29.438  1.00  0.00     0.029 A 
ATOM     42  N   UNL A   1      43.699  26.062  29.872  1.00  0.00    -0.354 N 
ATOM     43  C   UNL A   1      39.739  26.791  27.865  1.00  0.00     0.074 A 
ATOM     44  C   UNL A   1      39.198  25.562  28.374  1.00  0.00     0.031 C 
ATOM     45  C   UNL A   1      45.286  24.669  30.588  1.00  0.00     0.029 A 
ATOM     46  C   UNL A   1      44.619  25.921  30.908  1.00  0.00     0.049 A 
ATOM     47  H   UNL A   1      43.145  26.868  29.762  1.00  0.00     0.167 HD
ATOM     48  C   UNL A   1      39.299  28.076  27.967  1.00  0.00     0.034 A 
ATOM     49  C   UNL A   1      44.795  26.756  31.968  1.00  0.00     0.034 A 
ATOM     50  C   UNL A   1      40.250  28.989  27.366  1.00  0.00     0.049 A 
ATOM     51  C   UNL A   1      44.207  28.063  31.573  1.00  0.00     0.074 A 
ATOM     52  C   UNL A   1      40.814  29.105  26.109  1.00  0.00     0.029 A 
ATOM     53  N   UNL A   1      41.088  29.692  28.207  1.00  0.00    -0.354 N 
ATOM     54  N   UNL A   1      44.667  28.782  30.584  1.00  0.00    -0.248 NA
ATOM     55  C   UNL A   1      42.818  28.324  31.926  1.00  0.00     0.031 C 
ATOM     56  C   UNL A   1      42.190  29.397  26.354  1.00  0.00     0.029 A 
ATOM     57  C   UNL A   1      42.369  29.541  27.732  1.00  0.00     0.049 A 
ATOM     58  H   UNL A   1      40.818  30.207  29.002  1.00  0.00     0.167 HD
ATOM     59  C   UNL A   1      43.539  29.240  29.916  1.00  0.00     0.074 A 
ATOM     60  C   UNL A   1      42.435  29.017  30.849  1.00  0.00     0.031 C 
ATOM     61  C   UNL A   1      43.556  29.482  28.570  1.00  0.00     0.034 A 
BRANCH  48  62
ATOM     62  C   UNL A   1      38.221  28.562  28.916  1.00  0.00     0.023 A 
ATOM     63  C   UNL A   1      37.294  29.489  28.403  1.00  0.00     0.031 A 
ATOM     64  C   UNL A   1      38.201  28.398  30.320  1.00  0.00     0.131 A 
ATOM     65  C   UNL A   1      36.498  30.271  29.256  1.00  0.00     0.055 A 
ATOM     66  C   UNL A   1      37.354  29.126  31.161  1.00  0.00     0.041 A 
ATOM     67  F   UNL A   1      39.051  27.601  30.975  1.00  0.00    -0.206 F 
ATOM     68  C   UNL A   1      36.521  30.096  30.636  1.00  0.00     0.022 A 
BRANCH  65  69
ATOM     69  S   UNL A   1      35.574  31.652  28.538  1.00  0.00     0.124 S 
ATOM     70  O   UNL A   1      34.657  31.987  29.623  1.00  0.00    -0.237 OA
ATOM     71  O   UNL A   1      36.637  32.616  28.270  1.00  0.00    -0.237 OA
ATOM     72  O   UNL A   1      34.952  31.063  27.354  1.00  0.00    -0.744 OA
ENDBRANCH  65  69
ENDBRANCH  48  62
BRANCH  49  73
ATOM     73  C   UNL A   1      45.139  26.385  33.373  1.00  0.00     0.023 A 
ATOM     74  C   UNL A   1      44.186  26.266  34.408  1.00  0.00     0.031 A 
ATOM     75  C   UNL A   1      46.439  25.910  33.658  1.00  0.00     0.131 A 
ATOM     76  C   UNL A   1      44.552  25.700  35.656  1.00  0.00     0.055 A 
ATOM     77  C   UNL A   1      46.795  25.352  34.889  1.00  0.00     0.041 A 
ATOM     78  F   UNL A   1      47.394  25.896  32.713  1.00  0.00    -0.206 F 
ATOM     79  C   UNL A   1      45.849  25.239  35.893  1.00  0.00     0.022 A 
BRANCH  76  80
ATOM     80  S   UNL A   1      43.317  25.487  36.987  1.00  0.00     0.124 S 
ATOM     81  O   UNL A   1      42.927  26.863  37.274  1.00  0.00    -0.237 OA
ATOM     82  O   UNL A   1      42.312  24.647  36.347  1.00  0.00    -0.237 OA
ATOM     83  O   UNL A   1      44.073  24.830  38.054  1.00  0.00    -0.744 OA
ENDBRANCH  76  80
ENDBRANCH  49  73
BRANCH  61  84
ATOM     84  C   UNL A   1      44.896  29.482  27.850  1.00  0.00     0.023 A 
ATOM     85  C   UNL A   1      45.373  28.437  27.022  1.00  0.00     0.031 A 
ATOM     86  C   UNL A   1      45.647  30.668  27.896  1.00  0.00     0.131 A 
ATOM     87  C   UNL A   1      46.564  28.608  26.284  1.00  0.00     0.055 A 
ATOM     88  C   UNL A   1      46.810  30.842  27.147  1.00  0.00     0.041 A 
ATOM     89  F   UNL A   1      45.233  31.707  28.641  1.00  0.00    -0.206 F 
ATOM     90  C   UNL A   1      47.274  29.811  26.339  1.00  0.00     0.022 A 
BRANCH  87  91
ATOM     91  S   UNL A   1      47.213  27.266  25.230  1.00  0.00     0.124 S 
ATOM     92  O   UNL A   1      48.007  27.971  24.230  1.00  0.00    -0.237 OA
ATOM     93  O   UNL A   1      47.961  26.445  26.179  1.00  0.00    -0.237 OA
ATOM     94  O   UNL A   1      46.004  26.630  24.704  1.00  0.00    -0.744 OA
ENDBRANCH  87  91
ENDBRANCH  61  84
ENDBRANCH  35  36
ENDBRANCH  27  30
ENDBRANCH  25  26
ENDBRANCH  24  25
ENDBRANCH   1  24
TORSDOF 18
ENDMDL
MODEL 2
REMARK VINA RESULT:     -11.4      5.308     11.154
REMARK SMILES CCn1ncc(CNc2ccccc2C(=O)NCCCCNC(=O)c2ccc(-c3c4nc(c(-c5cc(S(=O)(=O)[O-])ccc5F)c5ccc([nH]5)c(-c5cc(S(=O)(=O)[O-])ccc5F)c5nc(c(-c6cc(S(=O)(=O)[O-])ccc6F)c6ccc3[nH]6)C=C5)C=C4)cc2)c1C
REMARK SMILES IDX 19 1 18 2 17 3 15 4 16 5 14 7 9 8 10 9 11 10 13 11 12 12
REMARK SMILES IDX 8 13 7 15 6 16 3 17 4 18 88 19 5 20 89 21 2 22 1 23 20 24
REMARK SMILES IDX 21 25 22 26 23 27 24 29 25 30 26 31 87 32 27 33 86 34 28 35
REMARK SMILES IDX 29 36 30 37 80 38 31 39 85 40 79 41 81 42 32 43 84 44 78 45
REMARK SMILES IDX 77 46 33 48 65 49 45 50 64 51 46 52 49 53 63 54 82 55 47 56
REMARK SMILES IDX 48 57 62 59 83 60 50 61 34 62 35 63 43 64 36 65 42 66 44 67
REMARK SMILES IDX 41 68 37 69 38 70 39 71 40 72 66 73 67 74 75 75 68 76 74 77
REMARK SMILES IDX 76 78 73 79 69 80 70 81 71 82 72 83 51 84 52 85 60 86 53 87
REMARK SMILES IDX 59 88 61 89 58 90 54 91 55 92 56 93 57 94
REMARK H PARENT 17 6 8 14 22 28 81 47 49 58
REMARK Flexibility Score: inf
ROOT
ATOM      1  C   UNL A   1      37.026  30.817  33.181  1.00  0.00     0.023 C 
ENDROOT
BRANCH   1   2
ATOM      2  C   UNL A   1      38.377  30.809  33.906  1.00  0.00     0.116 C 
BRANCH   2   3
ATOM      3  N   UNL A   1      38.695  31.990  34.693  1.00  0.00    -0.352 N 
ATOM      4  C   UNL A   1      39.083  33.251  34.272  1.00  0.00     0.253 C 
ATOM      5  O   UNL A   1      39.275  34.110  35.134  1.00  0.00    -0.269 OA
ATOM      6  H   UNL A   1      38.623  31.876  35.669  1.00  0.00     0.163 HD
BRANCH   4   7
ATOM      7  C   UNL A   1      39.366  33.596  32.842  1.00  0.00     0.062 A 
ATOM      8  C   UNL A   1      38.466  34.206  31.953  1.00  0.00     0.047 A 
ATOM      9  C   UNL A   1      38.836  34.343  30.600  1.00  0.00     0.026 A 
ATOM     10  C   UNL A   1      40.094  33.967  30.142  1.00  0.00     0.002 A 
ATOM     11  C   UNL A   1      40.658  33.270  32.377  1.00  0.00     0.016 A 
ATOM     12  C   UNL A   1      41.021  33.460  31.039  1.00  0.00     0.001 A 
BRANCH   8  13
ATOM     13  N   UNL A   1      37.270  34.803  32.312  1.00  0.00    -0.380 N 
ATOM     14  H   UNL A   1      37.219  35.783  32.397  1.00  0.00     0.160 HD
BRANCH  13  15
ATOM     15  C   UNL A   1      36.084  33.993  32.565  1.00  0.00     0.152 C 
BRANCH  15  16
ATOM     16  C   UNL A   1      34.921  34.595  31.862  1.00  0.00     0.012 A 
ATOM     17  N   UNL A   1      33.492  35.293  30.355  1.00  0.00    -0.270 N 
ATOM     18  N   UNL A   1      32.820  35.391  31.517  1.00  0.00    -0.181 NA
ATOM     19  C   UNL A   1      34.684  34.629  30.499  1.00  0.00     0.040 A 
ATOM     20  C   UNL A   1      33.703  35.002  32.428  1.00  0.00     0.141 A 
ATOM     21  C   UNL A   1      35.476  34.013  29.406  1.00  0.00     0.067 C 
BRANCH  17  22
ATOM     22  C   UNL A   1      32.854  35.761  29.139  1.00  0.00     0.141 C 
ATOM     23  C   UNL A   1      33.459  37.049  28.603  1.00  0.00     0.029 C 
ENDBRANCH  17  22
ENDBRANCH  15  16
ENDBRANCH  13  15
ENDBRANCH   8  13
ENDBRANCH   4   7
ENDBRANCH   2   3
ENDBRANCH   1   2
BRANCH   1  24
ATOM     24  C   UNL A   1      36.904  30.026  31.869  1.00  0.00     0.023 C 
BRANCH  24  25
ATOM     25  C   UNL A   1      36.652  30.854  30.620  1.00  0.00     0.116 C 
BRANCH  25  26
ATOM     26  N   UNL A   1      35.844  30.222  29.584  1.00  0.00    -0.352 N 
ATOM     27  C   UNL A   1      36.277  29.538  28.449  1.00  0.00     0.251 C 
ATOM     28  H   UNL A   1      34.868  30.286  29.702  1.00  0.00     0.163 HD
ATOM     29  O   UNL A   1      35.489  29.324  27.543  1.00  0.00    -0.269 OA
BRANCH  27  30
ATOM     30  C   UNL A   1      37.690  29.071  28.350  1.00  0.00     0.039 A 
ATOM     31  C   UNL A   1      38.564  29.561  27.371  1.00  0.00     0.014 A 
ATOM     32  C   UNL A   1      38.143  28.084  29.219  1.00  0.00     0.014 A 
ATOM     33  C   UNL A   1      39.881  29.084  27.320  1.00  0.00     0.010 A 
ATOM     34  C   UNL A   1      39.443  27.667  29.229  1.00  0.00     0.010 A 
ATOM     35  C   UNL A   1      40.304  28.129  28.253  1.00  0.00    -0.014 A 
BRANCH  35  36
ATOM     36  C   UNL A   1      41.686  27.700  28.403  1.00  0.00     0.031 A 
ATOM     37  C   UNL A   1      42.011  26.481  27.618  1.00  0.00     0.074 A 
ATOM     38  C   UNL A   1      42.652  28.535  28.847  1.00  0.00     0.049 A 
ATOM     39  N   UNL A   1      42.300  25.306  28.064  1.00  0.00    -0.248 NA
ATOM     40  C   UNL A   1      41.825  26.524  26.155  1.00  0.00     0.031 C 
ATOM     41  C   UNL A   1      42.517  29.936  29.269  1.00  0.00     0.029 A 
ATOM     42  N   UNL A   1      43.997  28.346  28.873  1.00  0.00    -0.354 N 
ATOM     43  C   UNL A   1      42.586  24.535  26.943  1.00  0.00     0.074 A 
ATOM     44  C   UNL A   1      42.029  25.248  25.827  1.00  0.00     0.031 C 
ATOM     45  C   UNL A   1      43.738  30.519  29.299  1.00  0.00     0.029 A 
ATOM     46  C   UNL A   1      44.750  29.504  29.056  1.00  0.00     0.049 A 
ATOM     47  H   UNL A   1      44.409  27.458  28.770  1.00  0.00     0.167 HD
ATOM     48  C   UNL A   1      43.494  23.521  26.998  1.00  0.00     0.034 A 
ATOM     49  C   UNL A   1      46.103  29.623  28.978  1.00  0.00     0.034 A 
ATOM     50  C   UNL A   1      43.817  23.202  28.374  1.00  0.00     0.049 A 
ATOM     51  C   UNL A   1      46.655  28.255  29.164  1.00  0.00     0.074 A 
ATOM     52  C   UNL A   1      43.074  22.821  29.477  1.00  0.00     0.029 A 
ATOM     53  N   UNL A   1      45.006  23.683  28.885  1.00  0.00    -0.354 N 
ATOM     54  N   UNL A   1      46.507  27.571  30.267  1.00  0.00    -0.248 NA
ATOM     55  C   UNL A   1      46.915  27.454  27.975  1.00  0.00     0.031 C 
ATOM     56  C   UNL A   1      43.621  23.572  30.560  1.00  0.00     0.029 A 
ATOM     57  C   UNL A   1      44.723  24.289  30.085  1.00  0.00     0.049 A 
ATOM     58  H   UNL A   1      45.893  23.605  28.466  1.00  0.00     0.167 HD
ATOM     59  C   UNL A   1      46.210  26.279  29.853  1.00  0.00     0.074 A 
ATOM     60  C   UNL A   1      46.582  26.245  28.438  1.00  0.00     0.031 C 
ATOM     61  C   UNL A   1      45.424  25.452  30.605  1.00  0.00     0.034 A 
BRANCH  48  62
ATOM     62  C   UNL A   1      44.371  23.065  25.849  1.00  0.00     0.023 A 
ATOM     63  C   UNL A   1      44.436  21.679  25.611  1.00  0.00     0.031 A 
ATOM     64  C   UNL A   1      45.333  23.844  25.166  1.00  0.00     0.131 A 
ATOM     65  C   UNL A   1      45.468  21.120  24.838  1.00  0.00     0.055 A 
ATOM     66  C   UNL A   1      46.314  23.290  24.337  1.00  0.00     0.041 A 
ATOM     67  F   UNL A   1      45.448  25.167  25.321  1.00  0.00    -0.206 F 
ATOM     68  C   UNL A   1      46.410  21.918  24.197  1.00  0.00     0.022 A 
BRANCH  65  69
ATOM     69  S   UNL A   1      45.665  19.322  24.845  1.00  0.00     0.124 S 
ATOM     70  O   UNL A   1      46.938  19.169  25.541  1.00  0.00    -0.237 OA
ATOM     71  O   UNL A   1      44.475  18.893  25.574  1.00  0.00    -0.237 OA
ATOM     72  O   UNL A   1      45.684  18.978  23.425  1.00  0.00    -0.744 OA
ENDBRANCH  65  69
ENDBRANCH  48  62
BRANCH  49  73
ATOM     73  C   UNL A   1      46.886  30.774  28.438  1.00  0.00     0.023 A 
ATOM     74  C   UNL A   1      46.376  31.701  27.503  1.00  0.00     0.031 A 
ATOM     75  C   UNL A   1      48.123  31.104  29.040  1.00  0.00     0.131 A 
ATOM     76  C   UNL A   1      47.096  32.886  27.204  1.00  0.00     0.055 A 
ATOM     77  C   UNL A   1      48.828  32.273  28.742  1.00  0.00     0.041 A 
ATOM     78  F   UNL A   1      48.650  30.333  30.005  1.00  0.00    -0.206 F 
ATOM     79  C   UNL A   1      48.313  33.174  27.825  1.00  0.00     0.022 A 
BRANCH  76  80
ATOM     80  S   UNL A   1      46.422  34.122  26.039  1.00  0.00     0.124 S 
ATOM     81  O   UNL A   1      45.957  35.175  26.935  1.00  0.00    -0.237 OA
ATOM     82  O   UNL A   1      47.582  34.437  25.214  1.00  0.00    -0.237 OA
ATOM     83  O   UNL A   1      45.358  33.395  25.345  1.00  0.00    -0.744 OA
ENDBRANCH  76  80
ENDBRANCH  49  73
BRANCH  61  84
ATOM     84  C   UNL A   1      45.079  25.874  32.025  1.00  0.00     0.023 A 
ATOM     85  C   UNL A   1      43.907  26.573  32.403  1.00  0.00     0.031 A 
ATOM     86  C   UNL A   1      45.915  25.406  33.053  1.00  0.00     0.131 A 
ATOM     87  C   UNL A   1      43.616  26.780  33.768  1.00  0.00     0.055 A 
ATOM     88  C   UNL A   1      45.612  25.593  34.401  1.00  0.00     0.041 A 
ATOM     89  F   UNL A   1      47.028  24.712  32.762  1.00  0.00    -0.206 F 
ATOM     90  C   UNL A   1      44.463  26.283  34.764  1.00  0.00     0.022 A 
BRANCH  87  91
ATOM     91  S   UNL A   1      42.125  27.702  34.279  1.00  0.00     0.124 S 
ATOM     92  O   UNL A   1      42.649  28.735  35.165  1.00  0.00    -0.237 OA
ATOM     93  O   UNL A   1      41.582  28.166  33.005  1.00  0.00    -0.237 OA
ATOM     94  O   UNL A   1      41.310  26.687  34.949  1.00  0.00    -0.744 OA
ENDBRANCH  87  91
ENDBRANCH  61  84
ENDBRANCH  35  36
ENDBRANCH  27  30
ENDBRANCH  25  26
ENDBRANCH  24  25
ENDBRANCH   1  24
TORSDOF 18
ENDMDL
MODEL 3
REMARK VINA RESULT:     -11.1      1.727      2.198
REMARK SMILES CCn1ncc(CNc2ccccc2C(=O)NCCCCNC(=O)c2ccc(-c3c4nc(c(-c5cc(S(=O)(=O)[O-])ccc5F)c5ccc([nH]5)c(-c5cc(S(=O)(=O)[O-])ccc5F)c5nc(c(-c6cc(S(=O)(=O)[O-])ccc6F)c6ccc3[nH]6)C=C5)C=C4)cc2)c1C
REMARK SMILES IDX 19 1 18 2 17 3 15 4 16 5 14 7 9 8 10 9 11 10 13 11 12 12
REMARK SMILES IDX 8 13 7 15 6 16 3 17 4 18 88 19 5 20 89 21 2 22 1 23 20 24
REMARK SMILES IDX 21 25 22 26 23 27 24 29 25 30 26 31 87 32 27 33 86 34 28 35
REMARK SMILES IDX 29 36 30 37 80 38 31 39 85 40 79 41 81 42 32 43 84 44 78 45
REMARK SMILES IDX 77 46 33 48 65 49 45 50 64 51 46 52 49 53 63 54 82 55 47 56
REMARK SMILES IDX 48 57 62 59 83 60 50 61 34 62 35 63 43 64 36 65 42 66 44 67
REMARK SMILES IDX 41 68 37 69 38 70 39 71 40 72 66 73 67 74 75 75 68 76 74 77
REMARK SMILES IDX 76 78 73 79 69 80 70 81 71 82 72 83 51 84 52 85 60 86 53 87
REMARK SMILES IDX 59 88 61 89 58 90 54 91 55 92 56 93 57 94
REMARK H PARENT 17 6 8 14 22 28 81 47 49 58
REMARK Flexibility Score: inf
ROOT
ATOM      1  C   UNL A   1      38.697  21.899  26.066  1.00  0.00     0.023 C 
ENDROOT
BRANCH   1   2
ATOM      2  C   UNL A   1      37.717  22.995  25.634  1.00  0.00     0.116 C 
BRANCH   2   3
ATOM      3  N   UNL A   1      37.092  22.826  24.332  1.00  0.00    -0.352 N 
ATOM      4  C   UNL A   1      35.861  23.274  23.882  1.00  0.00     0.253 C 
ATOM      5  O   UNL A   1      35.553  23.027  22.714  1.00  0.00    -0.269 OA
ATOM      6  H   UNL A   1      37.621  22.320  23.674  1.00  0.00     0.163 HD
BRANCH   4   7
ATOM      7  C   UNL A   1      34.855  23.955  24.758  1.00  0.00     0.062 A 
ATOM      8  C   UNL A   1      34.117  23.344  25.785  1.00  0.00     0.047 A 
ATOM      9  C   UNL A   1      33.109  24.088  26.432  1.00  0.00     0.026 A 
ATOM     10  C   UNL A   1      32.884  25.429  26.138  1.00  0.00     0.002 A 
ATOM     11  C   UNL A   1      34.655  25.329  24.508  1.00  0.00     0.016 A 
ATOM     12  C   UNL A   1      33.681  26.061  25.196  1.00  0.00     0.001 A 
BRANCH   8  13
ATOM     13  N   UNL A   1      34.369  22.090  26.314  1.00  0.00    -0.380 N 
ATOM     14  H   UNL A   1      35.286  21.847  26.580  1.00  0.00     0.160 HD
BRANCH  13  15
ATOM     15  C   UNL A   1      33.288  21.125  26.478  1.00  0.00     0.152 C 
BRANCH  15  16
ATOM     16  C   UNL A   1      32.950  20.539  25.155  1.00  0.00     0.012 A 
ATOM     17  N   UNL A   1      32.478  19.177  23.504  1.00  0.00    -0.270 N 
ATOM     18  N   UNL A   1      32.154  20.394  23.030  1.00  0.00    -0.181 NA
ATOM     19  C   UNL A   1      32.768  19.202  24.846  1.00  0.00     0.040 A 
ATOM     20  C   UNL A   1      32.477  21.216  24.020  1.00  0.00     0.141 A 
ATOM     21  C   UNL A   1      32.784  18.032  25.757  1.00  0.00     0.067 C 
BRANCH  17  22
ATOM     22  C   UNL A   1      32.365  18.031  22.622  1.00  0.00     0.141 C 
ATOM     23  C   UNL A   1      32.070  18.412  21.180  1.00  0.00     0.029 C 
ENDBRANCH  17  22
ENDBRANCH  15  16
ENDBRANCH  13  15
ENDBRANCH   8  13
ENDBRANCH   4   7
ENDBRANCH   2   3
ENDBRANCH   1   2
BRANCH   1  24
ATOM     24  C   UNL A   1      38.764  20.615  25.225  1.00  0.00     0.023 C 
BRANCH  24  25
ATOM     25  C   UNL A   1      39.198  19.361  25.966  1.00  0.00     0.116 C 
BRANCH  25  26
ATOM     26  N   UNL A   1      40.542  18.878  25.676  1.00  0.00    -0.352 N 
ATOM     27  C   UNL A   1      41.745  19.580  25.745  1.00  0.00     0.251 C 
ATOM     28  H   UNL A   1      40.609  17.936  25.395  1.00  0.00     0.163 HD
ATOM     29  O   UNL A   1      42.736  19.125  25.198  1.00  0.00    -0.269 OA
BRANCH  27  30
ATOM     30  C   UNL A   1      41.816  20.873  26.486  1.00  0.00     0.039 A 
ATOM     31  C   UNL A   1      41.520  20.958  27.853  1.00  0.00     0.014 A 
ATOM     32  C   UNL A   1      42.133  22.037  25.795  1.00  0.00     0.014 A 
ATOM     33  C   UNL A   1      41.597  22.200  28.499  1.00  0.00     0.010 A 
ATOM     34  C   UNL A   1      42.285  23.237  26.427  1.00  0.00     0.010 A 
ATOM     35  C   UNL A   1      41.974  23.334  27.769  1.00  0.00    -0.014 A 
BRANCH  35  36
ATOM     36  C   UNL A   1      42.258  24.627  28.372  1.00  0.00     0.031 A 
ATOM     37  C   UNL A   1      41.148  25.602  28.217  1.00  0.00     0.074 A 
ATOM     38  C   UNL A   1      43.214  24.785  29.314  1.00  0.00     0.049 A 
ATOM     39  N   UNL A   1      41.135  26.683  27.513  1.00  0.00    -0.248 NA
ATOM     40  C   UNL A   1      39.827  25.249  28.773  1.00  0.00     0.031 C 
ATOM     41  C   UNL A   1      44.120  23.771  29.867  1.00  0.00     0.029 A 
ATOM     42  N   UNL A   1      43.475  25.870  30.090  1.00  0.00    -0.354 N 
ATOM     43  C   UNL A   1      39.899  27.275  27.749  1.00  0.00     0.074 A 
ATOM     44  C   UNL A   1      39.070  26.239  28.299  1.00  0.00     0.031 C 
ATOM     45  C   UNL A   1      44.668  24.230  31.016  1.00  0.00     0.029 A 
ATOM     46  C   UNL A   1      44.280  25.619  31.199  1.00  0.00     0.049 A 
ATOM     47  H   UNL A   1      43.122  26.766  29.885  1.00  0.00     0.167 HD
ATOM     48  C   UNL A   1      39.751  28.629  27.730  1.00  0.00     0.034 A 
ATOM     49  C   UNL A   1      44.576  26.481  32.210  1.00  0.00     0.034 A 
ATOM     50  C   UNL A   1      40.915  29.259  27.140  1.00  0.00     0.049 A 
ATOM     51  C   UNL A   1      44.317  27.847  31.684  1.00  0.00     0.074 A 
ATOM     52  C   UNL A   1      41.562  29.145  25.923  1.00  0.00     0.029 A 
ATOM     53  N   UNL A   1      41.839  29.830  27.992  1.00  0.00    -0.354 N 
ATOM     54  N   UNL A   1      44.982  28.364  30.685  1.00  0.00    -0.248 NA
ATOM     55  C   UNL A   1      43.003  28.432  31.914  1.00  0.00     0.031 C 
ATOM     56  C   UNL A   1      42.952  29.150  26.250  1.00  0.00     0.029 A 
ATOM     57  C   UNL A   1      43.079  29.366  27.625  1.00  0.00     0.049 A 
ATOM     58  H   UNL A   1      41.645  30.456  28.727  1.00  0.00     0.167 HD
ATOM     59  C   UNL A   1      44.025  28.999  29.905  1.00  0.00     0.074 A 
ATOM     60  C   UNL A   1      42.847  29.100  30.766  1.00  0.00     0.031 C 
ATOM     61  C   UNL A   1      44.173  29.119  28.551  1.00  0.00     0.034 A 
BRANCH  48  62
ATOM     62  C   UNL A   1      38.755  29.415  28.560  1.00  0.00     0.023 A 
ATOM     63  C   UNL A   1      38.966  29.436  29.952  1.00  0.00     0.031 A 
ATOM     64  C   UNL A   1      37.500  29.900  28.128  1.00  0.00     0.131 A 
ATOM     65  C   UNL A   1      37.941  29.807  30.837  1.00  0.00     0.055 A 
ATOM     66  C   UNL A   1      36.507  30.338  29.010  1.00  0.00     0.041 A 
ATOM     67  F   UNL A   1      37.115  29.898  26.848  1.00  0.00    -0.206 F 
ATOM     68  C   UNL A   1      36.709  30.260  30.376  1.00  0.00     0.022 A 
BRANCH  65  69
ATOM     69  S   UNL A   1      38.185  29.504  32.604  1.00  0.00     0.124 S 
ATOM     70  O   UNL A   1      37.510  28.221  32.777  1.00  0.00    -0.237 OA
ATOM     71  O   UNL A   1      39.640  29.487  32.708  1.00  0.00    -0.237 OA
ATOM     72  O   UNL A   1      37.527  30.645  33.238  1.00  0.00    -0.744 OA
ENDBRANCH  65  69
ENDBRANCH  48  62
BRANCH  49  73
ATOM     73  C   UNL A   1      44.746  26.162  33.658  1.00  0.00     0.023 A 
ATOM     74  C   UNL A   1      43.764  26.420  34.639  1.00  0.00     0.031 A 
ATOM     75  C   UNL A   1      45.841  25.363  34.060  1.00  0.00     0.131 A 
ATOM     76  C   UNL A   1      43.905  25.893  35.949  1.00  0.00     0.055 A 
ATOM     77  C   UNL A   1      45.976  24.846  35.351  1.00  0.00     0.041 A 
ATOM     78  F   UNL A   1      46.783  24.987  33.179  1.00  0.00    -0.206 F 
ATOM     79  C   UNL A   1      45.002  25.105  36.302  1.00  0.00     0.022 A 
BRANCH  76  80
ATOM     80  S   UNL A   1      42.615  26.170  37.214  1.00  0.00     0.124 S 
ATOM     81  O   UNL A   1      41.740  25.019  37.025  1.00  0.00    -0.237 OA
ATOM     82  O   UNL A   1      43.390  26.200  38.448  1.00  0.00    -0.237 OA
ATOM     83  O   UNL A   1      42.028  27.454  36.829  1.00  0.00    -0.744 OA
ENDBRANCH  76  80
ENDBRANCH  49  73
BRANCH  61  84
ATOM     84  C   UNL A   1      45.518  28.768  27.935  1.00  0.00     0.023 A 
ATOM     85  C   UNL A   1      45.883  27.486  27.457  1.00  0.00     0.031 A 
ATOM     86  C   UNL A   1      46.407  29.829  27.691  1.00  0.00     0.131 A 
ATOM     87  C   UNL A   1      47.101  27.309  26.767  1.00  0.00     0.055 A 
ATOM     88  C   UNL A   1      47.599  29.654  26.989  1.00  0.00     0.041 A 
ATOM     89  F   UNL A   1      46.106  31.074  28.094  1.00  0.00    -0.206 F 
ATOM     90  C   UNL A   1      47.952  28.392  26.526  1.00  0.00     0.022 A 
BRANCH  87  91
ATOM     91  S   UNL A   1      47.606  25.661  26.165  1.00  0.00     0.124 S 
ATOM     92  O   UNL A   1      48.928  25.895  25.595  1.00  0.00    -0.237 OA
ATOM     93  O   UNL A   1      47.567  24.849  27.378  1.00  0.00    -0.237 OA
ATOM     94  O   UNL A   1      46.574  25.326  25.182  1.00  0.00    -0.744 OA
ENDBRANCH  87  91
ENDBRANCH  61  84
ENDBRANCH  35  36
ENDBRANCH  27  30
ENDBRANCH  25  26
ENDBRANCH  24  25
ENDBRANCH   1  24
TORSDOF 18
ENDMDL
