MODEL 1
REMARK VINA RESULT:     -11.7      0.000      0.000
REMARK SMILES CSCc1ccc(C(=O)Nc2cc(C)c(C(=O)NCCCCNC(=O)c3ccc(-c4c5nc(c(-c6cc(S(=O)(=O)[O-])ccc6F)c6ccc([nH]6)c(-c6cc(S(=O)(=O)[O-])ccc6F)c6nc(c(-c7cc(S(=O)(=O)[O-])ccc7F)c7ccc4[nH]7)C=C6)C=C5)cc3)s2)cc1
REMARK SMILES IDX 20 1 19 2 18 3 16 4 17 5 15 7 11 8 12 9 89 10 13 11 14 12
REMARK SMILES IDX 10 13 8 14 9 15 7 17 4 18 5 19 91 20 6 21 90 22 3 23 2 24
REMARK SMILES IDX 1 25 21 26 22 27 23 28 24 29 25 31 26 32 27 33 88 34 28 35
REMARK SMILES IDX 87 36 29 37 30 38 31 39 81 40 32 41 86 42 80 43 82 44 33 45
REMARK SMILES IDX 85 46 79 47 78 48 34 50 66 51 46 52 65 53 47 54 50 55 64 56
REMARK SMILES IDX 83 57 48 58 49 59 63 61 84 62 51 63 35 64 36 65 44 66 37 67
REMARK SMILES IDX 43 68 45 69 42 70 38 71 39 72 40 73 41 74 67 75 68 76 76 77
REMARK SMILES IDX 69 78 75 79 77 80 74 81 70 82 71 83 72 84 73 85 52 86 53 87
REMARK SMILES IDX 61 88 54 89 60 90 62 91 59 92 55 93 56 94 57 95 58 96
REMARK H PARENT 18 6 10 16 23 30 82 49 50 60
REMARK Flexibility Score: inf
ROOT
ATOM      1  C   UNL A   1      31.905  27.564  26.662  1.00  0.00     0.023 C 
ENDROOT
BRANCH   1   2
ATOM      2  C   UNL A   1      30.780  26.678  26.113  1.00  0.00     0.116 C 
BRANCH   2   3
ATOM      3  N   UNL A   1      30.787  25.399  26.778  1.00  0.00    -0.351 N 
ATOM      4  C   UNL A   1      31.424  24.208  26.573  1.00  0.00     0.261 C 
ATOM      5  O   UNL A   1      31.093  23.360  27.414  1.00  0.00    -0.268 OA
ATOM      6  H   UNL A   1      30.194  25.380  27.564  1.00  0.00     0.163 HD
BRANCH   4   7
ATOM      7  C   UNL A   1      32.390  23.902  25.504  1.00  0.00     0.097 A 
ATOM      8  C   UNL A   1      33.149  24.004  23.144  1.00  0.00     0.096 A 
ATOM      9  C   UNL A   1      34.127  23.513  23.956  1.00  0.00     0.042 A 
ATOM     10  S   UNL A   1      31.650  23.958  23.905  1.00  0.00    -0.112 S 
ATOM     11  C   UNL A   1      33.759  23.635  25.351  1.00  0.00    -0.025 A 
ATOM     12  C   UNL A   1      34.877  23.575  26.330  1.00  0.00     0.046 C 
BRANCH   8  13
ATOM     13  N   UNL A   1      33.282  24.385  21.838  1.00  0.00    -0.314 N 
ATOM     14  C   UNL A   1      32.731  25.478  21.199  1.00  0.00     0.256 C 
ATOM     15  O   UNL A   1      32.906  25.572  19.980  1.00  0.00    -0.269 OA
ATOM     16  H   UNL A   1      33.844  23.801  21.278  1.00  0.00     0.171 HD
BRANCH  14  17
ATOM     17  C   UNL A   1      32.048  26.614  21.900  1.00  0.00     0.040 A 
ATOM     18  C   UNL A   1      30.924  28.839  23.264  1.00  0.00    -0.038 A 
ATOM     19  C   UNL A   1      32.309  28.724  23.092  1.00  0.00     0.005 A 
ATOM     20  C   UNL A   1      30.112  27.811  22.766  1.00  0.00     0.005 A 
ATOM     21  C   UNL A   1      32.863  27.624  22.426  1.00  0.00     0.014 A 
ATOM     22  C   UNL A   1      30.671  26.691  22.137  1.00  0.00     0.014 A 
BRANCH  18  23
ATOM     23  C   UNL A   1      30.273  30.062  23.872  1.00  0.00     0.104 C 
BRANCH  23  24
ATOM     24  S   UNL A   1      28.617  30.484  23.244  1.00  0.00    -0.161 SA
ATOM     25  C   UNL A   1      28.791  32.280  23.123  1.00  0.00     0.085 C 
ENDBRANCH  23  24
ENDBRANCH  18  23
ENDBRANCH  14  17
ENDBRANCH   8  13
ENDBRANCH   4   7
ENDBRANCH   2   3
ENDBRANCH   1   2
BRANCH   1  26
ATOM     26  C   UNL A   1      33.320  27.145  26.269  1.00  0.00     0.023 C 
BRANCH  26  27
ATOM     27  C   UNL A   1      34.273  28.310  26.028  1.00  0.00     0.116 C 
BRANCH  27  28
ATOM     28  N   UNL A   1      33.729  29.603  26.415  1.00  0.00    -0.352 N 
ATOM     29  C   UNL A   1      34.248  30.519  27.305  1.00  0.00     0.251 C 
ATOM     30  H   UNL A   1      32.879  29.856  25.985  1.00  0.00     0.163 HD
ATOM     31  O   UNL A   1      33.626  31.525  27.583  1.00  0.00    -0.269 OA
BRANCH  29  32
ATOM     32  C   UNL A   1      35.542  30.212  27.952  1.00  0.00     0.039 A 
ATOM     33  C   UNL A   1      35.534  29.707  29.253  1.00  0.00     0.014 A 
ATOM     34  C   UNL A   1      36.741  30.352  27.250  1.00  0.00     0.014 A 
ATOM     35  C   UNL A   1      36.729  29.267  29.823  1.00  0.00     0.010 A 
ATOM     36  C   UNL A   1      37.915  29.839  27.788  1.00  0.00     0.010 A 
ATOM     37  C   UNL A   1      37.920  29.291  29.079  1.00  0.00    -0.014 A 
BRANCH  37  38
ATOM     38  C   UNL A   1      39.182  28.746  29.639  1.00  0.00     0.031 A 
ATOM     39  C   UNL A   1      39.782  29.359  30.872  1.00  0.00     0.074 A 
ATOM     40  C   UNL A   1      39.813  27.741  29.000  1.00  0.00     0.049 A 
ATOM     41  N   UNL A   1      40.899  29.063  31.485  1.00  0.00    -0.248 NA
ATOM     42  C   UNL A   1      39.045  30.480  31.475  1.00  0.00     0.031 C 
ATOM     43  C   UNL A   1      39.356  27.106  27.761  1.00  0.00     0.029 A 
ATOM     44  N   UNL A   1      40.977  27.080  29.298  1.00  0.00    -0.354 N 
ATOM     45  C   UNL A   1      41.004  29.965  32.539  1.00  0.00     0.074 A 
ATOM     46  C   UNL A   1      39.874  30.864  32.433  1.00  0.00     0.031 C 
ATOM     47  C   UNL A   1      40.211  26.127  27.426  1.00  0.00     0.029 A 
ATOM     48  C   UNL A   1      41.297  26.088  28.400  1.00  0.00     0.049 A 
ATOM     49  H   UNL A   1      41.531  27.295  30.083  1.00  0.00     0.167 HD
ATOM     50  C   UNL A   1      41.939  30.020  33.519  1.00  0.00     0.034 A 
ATOM     51  C   UNL A   1      42.347  25.245  28.367  1.00  0.00     0.034 A 
ATOM     52  C   UNL A   1      43.052  29.106  33.613  1.00  0.00     0.049 A 
ATOM     53  C   UNL A   1      43.374  25.323  29.468  1.00  0.00     0.074 A 
ATOM     54  C   UNL A   1      44.030  29.037  34.589  1.00  0.00     0.029 A 
ATOM     55  N   UNL A   1      43.335  28.103  32.695  1.00  0.00    -0.354 N 
ATOM     56  N   UNL A   1      43.429  26.146  30.490  1.00  0.00    -0.248 NA
ATOM     57  C   UNL A   1      44.469  24.348  29.418  1.00  0.00     0.031 C 
ATOM     58  C   UNL A   1      44.936  28.031  34.231  1.00  0.00     0.029 A 
ATOM     59  C   UNL A   1      44.485  27.425  33.069  1.00  0.00     0.049 A 
ATOM     60  H   UNL A   1      42.798  27.903  31.895  1.00  0.00     0.167 HD
ATOM     61  C   UNL A   1      44.550  25.766  31.222  1.00  0.00     0.074 A 
ATOM     62  C   UNL A   1      45.128  24.630  30.532  1.00  0.00     0.031 C 
ATOM     63  C   UNL A   1      45.056  26.303  32.362  1.00  0.00     0.034 A 
BRANCH  50  64
ATOM     64  C   UNL A   1      41.798  31.119  34.545  1.00  0.00     0.023 A 
ATOM     65  C   UNL A   1      40.739  31.129  35.472  1.00  0.00     0.031 A 
ATOM     66  C   UNL A   1      42.705  32.192  34.574  1.00  0.00     0.131 A 
ATOM     67  C   UNL A   1      40.564  32.229  36.324  1.00  0.00     0.055 A 
ATOM     68  C   UNL A   1      42.574  33.242  35.486  1.00  0.00     0.041 A 
ATOM     69  F   UNL A   1      43.725  32.251  33.702  1.00  0.00    -0.206 F 
ATOM     70  C   UNL A   1      41.489  33.273  36.357  1.00  0.00     0.022 A 
BRANCH  67  71
ATOM     71  S   UNL A   1      39.025  32.345  37.277  1.00  0.00     0.124 S 
ATOM     72  O   UNL A   1      38.395  33.518  36.676  1.00  0.00    -0.237 OA
ATOM     73  O   UNL A   1      38.385  31.064  37.002  1.00  0.00    -0.237 OA
ATOM     74  O   UNL A   1      39.487  32.530  38.651  1.00  0.00    -0.744 OA
ENDBRANCH  67  71
ENDBRANCH  50  64
BRANCH  51  75
ATOM     75  C   UNL A   1      42.483  24.250  27.266  1.00  0.00     0.023 A 
ATOM     76  C   UNL A   1      41.912  22.972  27.374  1.00  0.00     0.031 A 
ATOM     77  C   UNL A   1      43.221  24.546  26.107  1.00  0.00     0.131 A 
ATOM     78  C   UNL A   1      42.126  22.022  26.365  1.00  0.00     0.055 A 
ATOM     79  C   UNL A   1      43.390  23.614  25.082  1.00  0.00     0.041 A 
ATOM     80  F   UNL A   1      43.780  25.758  25.949  1.00  0.00    -0.206 F 
ATOM     81  C   UNL A   1      42.852  22.337  25.214  1.00  0.00     0.022 A 
BRANCH  78  82
ATOM     82  S   UNL A   1      41.504  20.336  26.614  1.00  0.00     0.124 S 
ATOM     83  O   UNL A   1      42.250  19.915  27.794  1.00  0.00    -0.237 OA
ATOM     84  O   UNL A   1      40.077  20.566  26.806  1.00  0.00    -0.237 OA
ATOM     85  O   UNL A   1      41.862  19.655  25.371  1.00  0.00    -0.744 OA
ENDBRANCH  78  82
ENDBRANCH  51  75
BRANCH  63  86
ATOM     86  C   UNL A   1      46.273  25.631  32.948  1.00  0.00     0.023 A 
ATOM     87  C   UNL A   1      46.163  24.599  33.896  1.00  0.00     0.031 A 
ATOM     88  C   UNL A   1      47.561  26.048  32.569  1.00  0.00     0.131 A 
ATOM     89  C   UNL A   1      47.319  24.062  34.480  1.00  0.00     0.055 A 
ATOM     90  C   UNL A   1      48.710  25.467  33.108  1.00  0.00     0.041 A 
ATOM     91  F   UNL A   1      47.725  27.030  31.669  1.00  0.00    -0.206 F 
ATOM     92  C   UNL A   1      48.592  24.478  34.081  1.00  0.00     0.022 A 
BRANCH  89  93
ATOM     93  S   UNL A   1      47.136  22.881  35.845  1.00  0.00     0.124 S 
ATOM     94  O   UNL A   1      48.142  23.353  36.791  1.00  0.00    -0.237 OA
ATOM     95  O   UNL A   1      45.745  23.079  36.242  1.00  0.00    -0.237 OA
ATOM     96  O   UNL A   1      47.425  21.590  35.224  1.00  0.00    -0.744 OA
ENDBRANCH  89  93
ENDBRANCH  63  86
ENDBRANCH  37  38
ENDBRANCH  29  32
ENDBRANCH  27  28
ENDBRANCH  26  27
ENDBRANCH   1  26
TORSDOF 18
ENDMDL
MODEL 2
REMARK VINA RESULT:     -11.6      3.332      9.154
REMARK SMILES CSCc1ccc(C(=O)Nc2cc(C)c(C(=O)NCCCCNC(=O)c3ccc(-c4c5nc(c(-c6cc(S(=O)(=O)[O-])ccc6F)c6ccc([nH]6)c(-c6cc(S(=O)(=O)[O-])ccc6F)c6nc(c(-c7cc(S(=O)(=O)[O-])ccc7F)c7ccc4[nH]7)C=C6)C=C5)cc3)s2)cc1
REMARK SMILES IDX 20 1 19 2 18 3 16 4 17 5 15 7 11 8 12 9 89 10 13 11 14 12
REMARK SMILES IDX 10 13 8 14 9 15 7 17 4 18 5 19 91 20 6 21 90 22 3 23 2 24
REMARK SMILES IDX 1 25 21 26 22 27 23 28 24 29 25 31 26 32 27 33 88 34 28 35
REMARK SMILES IDX 87 36 29 37 30 38 31 39 81 40 32 41 86 42 80 43 82 44 33 45
REMARK SMILES IDX 85 46 79 47 78 48 34 50 66 51 46 52 65 53 47 54 50 55 64 56
REMARK SMILES IDX 83 57 48 58 49 59 63 61 84 62 51 63 35 64 36 65 44 66 37 67
REMARK SMILES IDX 43 68 45 69 42 70 38 71 39 72 40 73 41 74 67 75 68 76 76 77
REMARK SMILES IDX 69 78 75 79 77 80 74 81 70 82 71 83 72 84 73 85 52 86 53 87
REMARK SMILES IDX 61 88 54 89 60 90 62 91 59 92 55 93 56 94 57 95 58 96
REMARK H PARENT 18 6 10 16 23 30 82 49 50 60
REMARK Flexibility Score: inf
ROOT
ATOM      1  C   UNL A   1      30.720  31.962  25.546  1.00  0.00     0.023 C 
ENDROOT
BRANCH   1   2
ATOM      2  C   UNL A   1      30.731  30.619  24.806  1.00  0.00     0.116 C 
BRANCH   2   3
ATOM      3  N   UNL A   1      32.012  29.978  24.961  1.00  0.00    -0.351 N 
ATOM      4  C   UNL A   1      32.445  28.681  24.999  1.00  0.00     0.261 C 
ATOM      5  O   UNL A   1      33.669  28.612  25.177  1.00  0.00    -0.268 OA
ATOM      6  H   UNL A   1      32.747  30.624  25.064  1.00  0.00     0.163 HD
BRANCH   4   7
ATOM      7  C   UNL A   1      31.613  27.475  24.857  1.00  0.00     0.097 A 
ATOM      8  C   UNL A   1      30.443  25.499  25.797  1.00  0.00     0.096 A 
ATOM      9  C   UNL A   1      30.108  25.696  24.490  1.00  0.00     0.042 A 
ATOM     10  S   UNL A   1      31.832  26.356  26.202  1.00  0.00    -0.112 S 
ATOM     11  C   UNL A   1      30.634  26.952  23.999  1.00  0.00    -0.025 A 
ATOM     12  C   UNL A   1      29.982  27.501  22.780  1.00  0.00     0.046 C 
BRANCH   8  13
ATOM     13  N   UNL A   1      29.844  24.641  26.677  1.00  0.00    -0.314 N 
ATOM     14  C   UNL A   1      30.198  23.345  26.992  1.00  0.00     0.256 C 
ATOM     15  O   UNL A   1      29.448  22.718  27.747  1.00  0.00    -0.269 OA
ATOM     16  H   UNL A   1      29.055  24.995  27.148  1.00  0.00     0.171 HD
BRANCH  14  17
ATOM     17  C   UNL A   1      31.485  22.694  26.581  1.00  0.00     0.040 A 
ATOM     18  C   UNL A   1      33.831  21.385  25.656  1.00  0.00    -0.038 A 
ATOM     19  C   UNL A   1      32.628  21.293  24.945  1.00  0.00     0.005 A 
ATOM     20  C   UNL A   1      33.836  22.118  26.850  1.00  0.00     0.005 A 
ATOM     21  C   UNL A   1      31.471  21.933  25.406  1.00  0.00     0.014 A 
ATOM     22  C   UNL A   1      32.667  22.723  27.330  1.00  0.00     0.014 A 
BRANCH  18  23
ATOM     23  C   UNL A   1      35.132  20.810  25.140  1.00  0.00     0.104 C 
BRANCH  23  24
ATOM     24  S   UNL A   1      36.406  22.018  24.657  1.00  0.00    -0.161 SA
ATOM     25  C   UNL A   1      37.888  21.085  25.106  1.00  0.00     0.085 C 
ENDBRANCH  23  24
ENDBRANCH  18  23
ENDBRANCH  14  17
ENDBRANCH   8  13
ENDBRANCH   4   7
ENDBRANCH   2   3
ENDBRANCH   1   2
BRANCH   1  26
ATOM     26  C   UNL A   1      31.354  31.950  26.934  1.00  0.00     0.023 C 
BRANCH  26  27
ATOM     27  C   UNL A   1      32.687  32.685  27.020  1.00  0.00     0.116 C 
BRANCH  27  28
ATOM     28  N   UNL A   1      32.583  34.026  27.575  1.00  0.00    -0.352 N 
ATOM     29  C   UNL A   1      33.363  34.611  28.551  1.00  0.00     0.251 C 
ATOM     30  H   UNL A   1      31.863  34.587  27.207  1.00  0.00     0.163 HD
ATOM     31  O   UNL A   1      33.094  35.720  28.968  1.00  0.00    -0.269 OA
BRANCH  29  32
ATOM     32  C   UNL A   1      34.486  33.829  29.114  1.00  0.00     0.039 A 
ATOM     33  C   UNL A   1      35.789  34.255  28.855  1.00  0.00     0.014 A 
ATOM     34  C   UNL A   1      34.246  32.736  29.949  1.00  0.00     0.014 A 
ATOM     35  C   UNL A   1      36.854  33.626  29.501  1.00  0.00     0.010 A 
ATOM     36  C   UNL A   1      35.299  32.166  30.652  1.00  0.00     0.010 A 
ATOM     37  C   UNL A   1      36.614  32.605  30.435  1.00  0.00    -0.014 A 
BRANCH  37  38
ATOM     38  C   UNL A   1      37.728  31.987  31.196  1.00  0.00     0.031 A 
ATOM     39  C   UNL A   1      38.542  30.888  30.573  1.00  0.00     0.074 A 
ATOM     40  C   UNL A   1      37.962  32.374  32.465  1.00  0.00     0.049 A 
ATOM     41  N   UNL A   1      39.519  30.187  31.088  1.00  0.00    -0.248 NA
ATOM     42  C   UNL A   1      38.184  30.502  29.200  1.00  0.00     0.031 C 
ATOM     43  C   UNL A   1      37.198  33.390  33.195  1.00  0.00     0.029 A 
ATOM     44  N   UNL A   1      38.905  31.959  33.369  1.00  0.00    -0.354 N 
ATOM     45  C   UNL A   1      39.887  29.272  30.107  1.00  0.00     0.074 A 
ATOM     46  C   UNL A   1      38.976  29.461  28.997  1.00  0.00     0.031 C 
ATOM     47  C   UNL A   1      37.724  33.540  34.421  1.00  0.00     0.029 A 
ATOM     48  C   UNL A   1      38.836  32.608  34.580  1.00  0.00     0.049 A 
ATOM     49  H   UNL A   1      39.571  31.261  33.171  1.00  0.00     0.167 HD
ATOM     50  C   UNL A   1      40.906  28.378  30.120  1.00  0.00     0.034 A 
ATOM     51  C   UNL A   1      39.584  32.466  35.692  1.00  0.00     0.034 A 
ATOM     52  C   UNL A   1      41.811  28.215  31.231  1.00  0.00     0.049 A 
ATOM     53  C   UNL A   1      40.713  31.468  35.683  1.00  0.00     0.074 A 
ATOM     54  C   UNL A   1      42.909  27.378  31.334  1.00  0.00     0.029 A 
ATOM     55  N   UNL A   1      41.721  28.902  32.436  1.00  0.00    -0.354 N 
ATOM     56  N   UNL A   1      41.084  30.648  34.726  1.00  0.00    -0.248 NA
ATOM     57  C   UNL A   1      41.533  31.389  36.898  1.00  0.00     0.031 C 
ATOM     58  C   UNL A   1      43.446  27.517  32.620  1.00  0.00     0.029 A 
ATOM     59  C   UNL A   1      42.729  28.491  33.295  1.00  0.00     0.049 A 
ATOM     60  H   UNL A   1      41.041  29.581  32.648  1.00  0.00     0.167 HD
ATOM     61  C   UNL A   1      42.202  29.977  35.215  1.00  0.00     0.074 A 
ATOM     62  C   UNL A   1      42.451  30.503  36.542  1.00  0.00     0.031 C 
ATOM     63  C   UNL A   1      42.955  29.016  34.621  1.00  0.00     0.034 A 
BRANCH  50  64
ATOM     64  C   UNL A   1      41.071  27.504  28.900  1.00  0.00     0.023 A 
ATOM     65  C   UNL A   1      42.091  27.739  27.958  1.00  0.00     0.031 A 
ATOM     66  C   UNL A   1      40.178  26.449  28.648  1.00  0.00     0.131 A 
ATOM     67  C   UNL A   1      42.137  26.991  26.773  1.00  0.00     0.055 A 
ATOM     68  C   UNL A   1      40.284  25.650  27.507  1.00  0.00     0.041 A 
ATOM     69  F   UNL A   1      39.172  26.187  29.499  1.00  0.00    -0.206 F 
ATOM     70  C   UNL A   1      41.257  25.931  26.552  1.00  0.00     0.022 A 
BRANCH  67  71
ATOM     71  S   UNL A   1      43.265  27.528  25.457  1.00  0.00     0.124 S 
ATOM     72  O   UNL A   1      42.351  28.218  24.550  1.00  0.00    -0.237 OA
ATOM     73  O   UNL A   1      44.210  28.372  26.176  1.00  0.00    -0.237 OA
ATOM     74  O   UNL A   1      43.811  26.274  24.943  1.00  0.00    -0.744 OA
ENDBRANCH  67  71
ENDBRANCH  50  64
BRANCH  51  75
ATOM     75  C   UNL A   1      39.302  33.288  36.903  1.00  0.00     0.023 A 
ATOM     76  C   UNL A   1      39.899  34.547  37.075  1.00  0.00     0.031 A 
ATOM     77  C   UNL A   1      38.465  32.811  37.926  1.00  0.00     0.131 A 
ATOM     78  C   UNL A   1      39.690  35.266  38.261  1.00  0.00     0.055 A 
ATOM     79  C   UNL A   1      38.219  33.551  39.083  1.00  0.00     0.041 A 
ATOM     80  F   UNL A   1      37.861  31.617  37.806  1.00  0.00    -0.206 F 
ATOM     81  C   UNL A   1      38.845  34.781  39.262  1.00  0.00     0.022 A 
BRANCH  78  82
ATOM     82  S   UNL A   1      40.602  36.813  38.511  1.00  0.00     0.124 S 
ATOM     83  O   UNL A   1      41.000  37.148  37.149  1.00  0.00    -0.237 OA
ATOM     84  O   UNL A   1      39.584  37.669  39.112  1.00  0.00    -0.237 OA
ATOM     85  O   UNL A   1      41.692  36.425  39.404  1.00  0.00    -0.744 OA
ENDBRANCH  78  82
ENDBRANCH  51  75
BRANCH  63  86
ATOM     86  C   UNL A   1      44.146  28.511  35.398  1.00  0.00     0.023 A 
ATOM     87  C   UNL A   1      44.029  27.470  36.335  1.00  0.00     0.031 A 
ATOM     88  C   UNL A   1      45.410  29.096  35.212  1.00  0.00     0.131 A 
ATOM     89  C   UNL A   1      45.143  27.090  37.098  1.00  0.00     0.055 A 
ATOM     90  C   UNL A   1      46.530  28.671  35.930  1.00  0.00     0.041 A 
ATOM     91  F   UNL A   1      45.580  30.095  34.331  1.00  0.00    -0.206 F 
ATOM     92  C   UNL A   1      46.396  27.673  36.890  1.00  0.00     0.022 A 
BRANCH  89  93
ATOM     93  S   UNL A   1      44.910  25.891  38.440  1.00  0.00     0.124 S 
ATOM     94  O   UNL A   1      46.154  26.031  39.191  1.00  0.00    -0.237 OA
ATOM     95  O   UNL A   1      43.708  26.392  39.099  1.00  0.00    -0.237 OA
ATOM     96  O   UNL A   1      44.748  24.619  37.739  1.00  0.00    -0.744 OA
ENDBRANCH  89  93
ENDBRANCH  63  86
ENDBRANCH  37  38
ENDBRANCH  29  32
ENDBRANCH  27  28
ENDBRANCH  26  27
ENDBRANCH   1  26
TORSDOF 18
ENDMDL
MODEL 3
REMARK VINA RESULT:     -11.5      5.637      8.078
REMARK SMILES CSCc1ccc(C(=O)Nc2cc(C)c(C(=O)NCCCCNC(=O)c3ccc(-c4c5nc(c(-c6cc(S(=O)(=O)[O-])ccc6F)c6ccc([nH]6)c(-c6cc(S(=O)(=O)[O-])ccc6F)c6nc(c(-c7cc(S(=O)(=O)[O-])ccc7F)c7ccc4[nH]7)C=C6)C=C5)cc3)s2)cc1
REMARK SMILES IDX 20 1 19 2 18 3 16 4 17 5 15 7 11 8 12 9 89 10 13 11 14 12
REMARK SMILES IDX 10 13 8 14 9 15 7 17 4 18 5 19 91 20 6 21 90 22 3 23 2 24
REMARK SMILES IDX 1 25 21 26 22 27 23 28 24 29 25 31 26 32 27 33 88 34 28 35
REMARK SMILES IDX 87 36 29 37 30 38 31 39 81 40 32 41 86 42 80 43 82 44 33 45
REMARK SMILES IDX 85 46 79 47 78 48 34 50 66 51 46 52 65 53 47 54 50 55 64 56
REMARK SMILES IDX 83 57 48 58 49 59 63 61 84 62 51 63 35 64 36 65 44 66 37 67
REMARK SMILES IDX 43 68 45 69 42 70 38 71 39 72 40 73 41 74 67 75 68 76 76 77
REMARK SMILES IDX 69 78 75 79 77 80 74 81 70 82 71 83 72 84 73 85 52 86 53 87
REMARK SMILES IDX 61 88 54 89 60 90 62 91 59 92 55 93 56 94 57 95 58 96
REMARK H PARENT 18 6 10 16 23 30 82 49 50 60
REMARK Flexibility Score: inf
ROOT
ATOM      1  C   UNL A   1      36.938  20.236  24.985  1.00  0.00     0.023 C 
ENDROOT
BRANCH   1   2
ATOM      2  C   UNL A   1      37.046  21.680  25.489  1.00  0.00     0.116 C 
BRANCH   2   3
ATOM      3  N   UNL A   1      36.021  21.941  26.468  1.00  0.00    -0.351 N 
ATOM      4  C   UNL A   1      34.676  22.178  26.419  1.00  0.00     0.261 C 
ATOM      5  O   UNL A   1      34.204  22.375  27.548  1.00  0.00    -0.268 OA
ATOM      6  H   UNL A   1      36.373  21.952  27.387  1.00  0.00     0.163 HD
BRANCH   4   7
ATOM      7  C   UNL A   1      33.835  22.212  25.210  1.00  0.00     0.097 A 
ATOM      8  C   UNL A   1      33.247  23.120  22.977  1.00  0.00     0.096 A 
ATOM      9  C   UNL A   1      32.525  21.999  23.261  1.00  0.00     0.042 A 
ATOM     10  S   UNL A   1      33.948  23.756  24.366  1.00  0.00    -0.112 S 
ATOM     11  C   UNL A   1      33.002  21.361  24.469  1.00  0.00    -0.025 A 
ATOM     12  C   UNL A   1      32.633  19.931  24.643  1.00  0.00     0.046 C 
BRANCH   8  13
ATOM     13  N   UNL A   1      33.332  23.758  21.771  1.00  0.00    -0.314 N 
ATOM     14  C   UNL A   1      32.918  25.032  21.441  1.00  0.00     0.256 C 
ATOM     15  O   UNL A   1      33.003  25.369  20.255  1.00  0.00    -0.269 OA
ATOM     16  H   UNL A   1      33.742  23.239  21.042  1.00  0.00     0.171 HD
BRANCH  14  17
ATOM     17  C   UNL A   1      32.491  26.070  22.435  1.00  0.00     0.040 A 
ATOM     18  C   UNL A   1      31.859  28.107  24.313  1.00  0.00    -0.038 A 
ATOM     19  C   UNL A   1      33.132  28.031  23.735  1.00  0.00     0.005 A 
ATOM     20  C   UNL A   1      30.915  27.134  23.957  1.00  0.00     0.005 A 
ATOM     21  C   UNL A   1      33.445  27.023  22.815  1.00  0.00     0.014 A 
ATOM     22  C   UNL A   1      31.244  26.102  23.069  1.00  0.00     0.014 A 
BRANCH  18  23
ATOM     23  C   UNL A   1      31.439  29.243  25.220  1.00  0.00     0.104 C 
BRANCH  23  24
ATOM     24  S   UNL A   1      32.761  30.005  26.214  1.00  0.00    -0.161 SA
ATOM     25  C   UNL A   1      33.196  28.598  27.262  1.00  0.00     0.085 C 
ENDBRANCH  23  24
ENDBRANCH  18  23
ENDBRANCH  14  17
ENDBRANCH   8  13
ENDBRANCH   4   7
ENDBRANCH   2   3
ENDBRANCH   1   2
BRANCH   1  26
ATOM     26  C   UNL A   1      38.234  19.430  25.026  1.00  0.00     0.023 C 
BRANCH  26  27
ATOM     27  C   UNL A   1      39.338  20.062  25.865  1.00  0.00     0.116 C 
BRANCH  27  28
ATOM     28  N   UNL A   1      40.516  19.221  26.016  1.00  0.00    -0.352 N 
ATOM     29  C   UNL A   1      41.805  19.600  26.325  1.00  0.00     0.251 C 
ATOM     30  H   UNL A   1      40.373  18.256  25.879  1.00  0.00     0.163 HD
ATOM     31  O   UNL A   1      42.701  18.779  26.333  1.00  0.00    -0.269 OA
BRANCH  29  32
ATOM     32  C   UNL A   1      42.073  21.032  26.581  1.00  0.00     0.039 A 
ATOM     33  C   UNL A   1      42.304  21.443  27.894  1.00  0.00     0.014 A 
ATOM     34  C   UNL A   1      42.169  21.939  25.524  1.00  0.00     0.014 A 
ATOM     35  C   UNL A   1      42.710  22.754  28.139  1.00  0.00     0.010 A 
ATOM     36  C   UNL A   1      42.650  23.220  25.761  1.00  0.00     0.010 A 
ATOM     37  C   UNL A   1      42.926  23.641  27.071  1.00  0.00    -0.014 A 
BRANCH  37  38
ATOM     38  C   UNL A   1      43.442  25.012  27.307  1.00  0.00     0.031 A 
ATOM     39  C   UNL A   1      42.521  26.081  27.824  1.00  0.00     0.074 A 
ATOM     40  C   UNL A   1      44.721  25.304  26.998  1.00  0.00     0.049 A 
ATOM     41  N   UNL A   1      42.764  27.346  28.047  1.00  0.00    -0.248 NA
ATOM     42  C   UNL A   1      41.132  25.679  28.091  1.00  0.00     0.031 C 
ATOM     43  C   UNL A   1      45.691  24.362  26.433  1.00  0.00     0.029 A 
ATOM     44  N   UNL A   1      45.425  26.475  27.108  1.00  0.00    -0.354 N 
ATOM     45  C   UNL A   1      41.558  27.895  28.471  1.00  0.00     0.074 A 
ATOM     46  C   UNL A   1      40.571  26.838  28.401  1.00  0.00     0.031 C 
ATOM     47  C   UNL A   1      46.871  24.985  26.279  1.00  0.00     0.029 A 
ATOM     48  C   UNL A   1      46.733  26.376  26.695  1.00  0.00     0.049 A 
ATOM     49  H   UNL A   1      45.030  27.310  27.452  1.00  0.00     0.167 HD
ATOM     50  C   UNL A   1      41.304  29.154  28.905  1.00  0.00     0.034 A 
ATOM     51  C   UNL A   1      47.710  27.304  26.657  1.00  0.00     0.034 A 
ATOM     52  C   UNL A   1      42.305  30.190  28.979  1.00  0.00     0.049 A 
ATOM     53  C   UNL A   1      47.406  28.697  27.146  1.00  0.00     0.074 A 
ATOM     54  C   UNL A   1      42.174  31.484  29.450  1.00  0.00     0.029 A 
ATOM     55  N   UNL A   1      43.625  30.049  28.568  1.00  0.00    -0.354 N 
ATOM     56  N   UNL A   1      46.273  29.186  27.597  1.00  0.00    -0.248 NA
ATOM     57  C   UNL A   1      48.516  29.656  27.135  1.00  0.00     0.031 C 
ATOM     58  C   UNL A   1      43.396  32.143  29.270  1.00  0.00     0.029 A 
ATOM     59  C   UNL A   1      44.311  31.240  28.753  1.00  0.00     0.049 A 
ATOM     60  H   UNL A   1      44.016  29.225  28.199  1.00  0.00     0.167 HD
ATOM     61  C   UNL A   1      46.545  30.504  27.953  1.00  0.00     0.074 A 
ATOM     62  C   UNL A   1      47.951  30.724  27.680  1.00  0.00     0.031 C 
ATOM     63  C   UNL A   1      45.711  31.446  28.462  1.00  0.00     0.034 A 
BRANCH  50  64
ATOM     64  C   UNL A   1      39.884  29.470  29.309  1.00  0.00     0.023 A 
ATOM     65  C   UNL A   1      39.501  29.537  30.662  1.00  0.00     0.031 A 
ATOM     66  C   UNL A   1      38.889  29.666  28.337  1.00  0.00     0.131 A 
ATOM     67  C   UNL A   1      38.151  29.705  31.002  1.00  0.00     0.055 A 
ATOM     68  C   UNL A   1      37.560  29.921  28.683  1.00  0.00     0.041 A 
ATOM     69  F   UNL A   1      39.187  29.595  27.029  1.00  0.00    -0.206 F 
ATOM     70  C   UNL A   1      37.181  29.923  30.023  1.00  0.00     0.022 A 
BRANCH  67  71
ATOM     71  S   UNL A   1      37.662  29.476  32.734  1.00  0.00     0.124 S 
ATOM     72  O   UNL A   1      38.747  30.157  33.437  1.00  0.00    -0.237 OA
ATOM     73  O   UNL A   1      36.360  30.129  32.783  1.00  0.00    -0.237 OA
ATOM     74  O   UNL A   1      37.641  28.024  32.894  1.00  0.00    -0.744 OA
ENDBRANCH  67  71
ENDBRANCH  50  64
BRANCH  51  75
ATOM     75  C   UNL A   1      49.066  26.954  26.147  1.00  0.00     0.023 A 
ATOM     76  C   UNL A   1      49.490  27.374  24.877  1.00  0.00     0.031 A 
ATOM     77  C   UNL A   1      49.943  26.159  26.905  1.00  0.00     0.131 A 
ATOM     78  C   UNL A   1      50.735  26.960  24.381  1.00  0.00     0.055 A 
ATOM     79  C   UNL A   1      51.202  25.790  26.429  1.00  0.00     0.041 A 
ATOM     80  F   UNL A   1      49.590  25.739  28.131  1.00  0.00    -0.206 F 
ATOM     81  C   UNL A   1      51.599  26.179  25.153  1.00  0.00     0.022 A 
BRANCH  78  82
ATOM     82  S   UNL A   1      51.179  27.393  22.677  1.00  0.00     0.124 S 
ATOM     83  O   UNL A   1      51.116  28.849  22.714  1.00  0.00    -0.237 OA
ATOM     84  O   UNL A   1      52.511  26.811  22.555  1.00  0.00    -0.237 OA
ATOM     85  O   UNL A   1      50.142  26.741  21.879  1.00  0.00    -0.744 OA
ENDBRANCH  78  82
ENDBRANCH  51  75
BRANCH  63  86
ATOM     86  C   UNL A   1      46.321  32.786  28.793  1.00  0.00     0.023 A 
ATOM     87  C   UNL A   1      46.396  33.819  27.843  1.00  0.00     0.031 A 
ATOM     88  C   UNL A   1      46.855  33.022  30.072  1.00  0.00     0.131 A 
ATOM     89  C   UNL A   1      47.049  35.018  28.166  1.00  0.00     0.055 A 
ATOM     90  C   UNL A   1      47.449  34.240  30.407  1.00  0.00     0.041 A 
ATOM     91  F   UNL A   1      46.811  32.070  31.018  1.00  0.00    -0.206 F 
ATOM     92  C   UNL A   1      47.562  35.240  29.446  1.00  0.00     0.022 A 
BRANCH  89  93
ATOM     93  S   UNL A   1      47.311  36.246  26.856  1.00  0.00     0.124 S 
ATOM     94  O   UNL A   1      46.867  35.522  25.669  1.00  0.00    -0.237 OA
ATOM     95  O   UNL A   1      46.457  37.348  27.288  1.00  0.00    -0.237 OA
ATOM     96  O   UNL A   1      48.746  36.513  26.918  1.00  0.00    -0.744 OA
ENDBRANCH  89  93
ENDBRANCH  63  86
ENDBRANCH  37  38
ENDBRANCH  29  32
ENDBRANCH  27  28
ENDBRANCH  26  27
ENDBRANCH   1  26
TORSDOF 18
ENDMDL
