MODEL 1
REMARK VINA RESULT:     -11.2      0.000      0.000
REMARK SMILES CCC(CC)[C@H](C(=O)NCCCCNC(=O)c1ccc(-c2c3nc(c(-c4cc(S(=O)(=O)[O-])ccc4F)c4ccc([nH]4)c(-c4cc(S(=O)(=O)[O-])ccc4F)c4nc(c(-c5cc(S(=O)(=O)[O-])ccc5F)c5ccc2[nH]5)C=C4)C=C3)cc1)c1ccc(OC(F)F)cc1
REMARK SMILES IDX 11 1 10 2 9 3 7 4 8 5 6 7 3 8 2 9 1 10 4 11 5 12 80 13 81 14
REMARK SMILES IDX 89 15 82 16 88 17 83 18 84 19 85 20 86 21 87 22 12 23 13 24
REMARK SMILES IDX 14 25 15 26 16 28 17 29 18 30 79 31 19 32 78 33 20 34 21 35
REMARK SMILES IDX 22 36 72 37 23 38 77 39 71 40 73 41 24 42 76 43 70 44 69 45
REMARK SMILES IDX 25 47 57 48 37 49 56 50 38 51 41 52 55 53 74 54 39 55 40 56
REMARK SMILES IDX 54 58 75 59 42 60 26 61 27 62 35 63 28 64 34 65 36 66 33 67
REMARK SMILES IDX 29 68 30 69 31 70 32 71 58 72 59 73 67 74 60 75 66 76 68 77
REMARK SMILES IDX 65 78 61 79 62 80 63 81 64 82 43 83 44 84 52 85 45 86 51 87
REMARK SMILES IDX 53 88 50 89 46 90 47 91 48 92 49 93
REMARK H PARENT 9 6 14 27 73 46 41 57
REMARK Flexibility Score: inf
ROOT
ATOM      1  C   UNL A   1      32.047  27.083  26.237  1.00  0.00     0.023 C 
ENDROOT
BRANCH   1   2
ATOM      2  C   UNL A   1      31.275  25.838  25.807  1.00  0.00     0.116 C 
BRANCH   2   3
ATOM      3  N   UNL A   1      31.411  24.757  26.768  1.00  0.00    -0.356 N 
ATOM      4  C   UNL A   1      32.078  23.567  26.674  1.00  0.00     0.227 C 
ATOM      5  O   UNL A   1      32.053  22.823  27.656  1.00  0.00    -0.274 OA
ATOM      6  H   UNL A   1      30.950  24.905  27.624  1.00  0.00     0.163 HD
BRANCH   4   7
ATOM      7  C   UNL A   1      32.862  23.229  25.390  1.00  0.00     0.111 C 
BRANCH   7   8
ATOM      8  C   UNL A   1      34.231  23.998  25.453  1.00  0.00     0.005 C 
BRANCH   8   9
ATOM      9  C   UNL A   1      35.252  23.354  26.429  1.00  0.00     0.001 C 
ATOM     10  C   UNL A   1      36.678  23.213  25.927  1.00  0.00     0.004 C 
ENDBRANCH   8   9
BRANCH   8  11
ATOM     11  C   UNL A   1      34.728  24.544  24.090  1.00  0.00     0.001 C 
ATOM     12  C   UNL A   1      33.938  24.233  22.834  1.00  0.00     0.004 C 
ENDBRANCH   8  11
ENDBRANCH   7   8
BRANCH   7  13
ATOM     13  C   UNL A   1      32.835  21.723  25.095  1.00  0.00    -0.035 A 
ATOM     14  C   UNL A   1      32.491  21.295  23.800  1.00  0.00     0.008 A 
ATOM     15  C   UNL A   1      33.149  20.727  26.027  1.00  0.00     0.008 A 
ATOM     16  C   UNL A   1      32.480  19.935  23.462  1.00  0.00     0.047 A 
ATOM     17  C   UNL A   1      33.148  19.368  25.689  1.00  0.00     0.047 A 
ATOM     18  C   UNL A   1      32.821  18.963  24.401  1.00  0.00     0.126 A 
BRANCH  18  19
ATOM     19  O   UNL A   1      32.794  17.676  23.946  1.00  0.00    -0.435 OA
BRANCH  19  20
ATOM     20  C   UNL A   1      34.034  17.004  23.771  1.00  0.00     0.542 C 
ATOM     21  F   UNL A   1      34.117  16.487  22.520  1.00  0.00    -0.167 F 
ATOM     22  F   UNL A   1      35.066  17.865  23.945  1.00  0.00    -0.167 F 
ENDBRANCH  19  20
ENDBRANCH  18  19
ENDBRANCH   7  13
ENDBRANCH   4   7
ENDBRANCH   2   3
ENDBRANCH   1   2
BRANCH   1  23
ATOM     23  C   UNL A   1      32.187  28.158  25.156  1.00  0.00     0.023 C 
BRANCH  23  24
ATOM     24  C   UNL A   1      33.212  29.249  25.449  1.00  0.00     0.116 C 
BRANCH  24  25
ATOM     25  N   UNL A   1      32.607  30.463  25.972  1.00  0.00    -0.352 N 
ATOM     26  C   UNL A   1      33.054  31.283  26.986  1.00  0.00     0.251 C 
ATOM     27  H   UNL A   1      31.764  30.737  25.545  1.00  0.00     0.163 HD
ATOM     28  O   UNL A   1      32.340  32.181  27.406  1.00  0.00    -0.269 OA
BRANCH  26  29
ATOM     29  C   UNL A   1      34.390  31.042  27.578  1.00  0.00     0.039 A 
ATOM     30  C   UNL A   1      35.284  32.110  27.700  1.00  0.00     0.014 A 
ATOM     31  C   UNL A   1      34.749  29.770  28.031  1.00  0.00     0.014 A 
ATOM     32  C   UNL A   1      36.511  31.917  28.345  1.00  0.00     0.010 A 
ATOM     33  C   UNL A   1      35.940  29.597  28.730  1.00  0.00     0.010 A 
ATOM     34  C   UNL A   1      36.834  30.668  28.897  1.00  0.00    -0.014 A 
BRANCH  34  35
ATOM     35  C   UNL A   1      38.103  30.431  29.634  1.00  0.00     0.031 A 
ATOM     36  C   UNL A   1      39.125  29.490  29.056  1.00  0.00     0.074 A 
ATOM     37  C   UNL A   1      38.295  30.971  30.854  1.00  0.00     0.049 A 
ATOM     38  N   UNL A   1      40.196  28.984  29.610  1.00  0.00    -0.248 NA
ATOM     39  C   UNL A   1      38.884  29.034  27.679  1.00  0.00     0.031 C 
ATOM     40  C   UNL A   1      37.375  31.890  31.527  1.00  0.00     0.029 A 
ATOM     41  N   UNL A   1      39.315  30.804  31.758  1.00  0.00    -0.354 N 
ATOM     42  C   UNL A   1      40.741  28.125  28.661  1.00  0.00     0.074 A 
ATOM     43  C   UNL A   1      39.853  28.145  27.518  1.00  0.00     0.031 C 
ATOM     44  C   UNL A   1      37.875  32.207  32.733  1.00  0.00     0.029 A 
ATOM     45  C   UNL A   1      39.119  31.473  32.945  1.00  0.00     0.049 A 
ATOM     46  H   UNL A   1      40.114  30.257  31.574  1.00  0.00     0.167 HD
ATOM     47  C   UNL A   1      41.884  27.397  28.733  1.00  0.00     0.034 A 
ATOM     48  C   UNL A   1      39.842  31.471  34.084  1.00  0.00     0.034 A 
ATOM     49  C   UNL A   1      42.768  27.406  29.872  1.00  0.00     0.049 A 
ATOM     50  C   UNL A   1      41.095  30.631  34.155  1.00  0.00     0.074 A 
ATOM     51  C   UNL A   1      43.971  26.740  30.036  1.00  0.00     0.029 A 
ATOM     52  N   UNL A   1      42.545  28.116  31.046  1.00  0.00    -0.354 N 
ATOM     53  N   UNL A   1      41.605  29.833  33.246  1.00  0.00    -0.248 NA
ATOM     54  C   UNL A   1      41.871  30.694  35.401  1.00  0.00     0.031 C 
ATOM     55  C   UNL A   1      44.443  26.998  31.327  1.00  0.00     0.029 A 
ATOM     56  C   UNL A   1      43.576  27.887  31.943  1.00  0.00     0.049 A 
ATOM     57  H   UNL A   1      41.768  28.696  31.215  1.00  0.00     0.167 HD
ATOM     58  C   UNL A   1      42.785  29.338  33.794  1.00  0.00     0.074 A 
ATOM     59  C   UNL A   1      42.907  29.919  35.114  1.00  0.00     0.031 C 
ATOM     60  C   UNL A   1      43.692  28.489  33.249  1.00  0.00     0.034 A 
BRANCH  47  61
ATOM     61  C   UNL A   1      42.218  26.511  27.557  1.00  0.00     0.023 A 
ATOM     62  C   UNL A   1      41.764  25.183  27.482  1.00  0.00     0.031 A 
ATOM     63  C   UNL A   1      43.031  26.987  26.513  1.00  0.00     0.131 A 
ATOM     64  C   UNL A   1      42.191  24.355  26.432  1.00  0.00     0.055 A 
ATOM     65  C   UNL A   1      43.381  26.184  25.427  1.00  0.00     0.041 A 
ATOM     66  F   UNL A   1      43.513  28.240  26.540  1.00  0.00    -0.206 F 
ATOM     67  C   UNL A   1      42.974  24.853  25.390  1.00  0.00     0.022 A 
BRANCH  64  68
ATOM     68  S   UNL A   1      41.834  22.580  26.534  1.00  0.00     0.124 S 
ATOM     69  O   UNL A   1      42.457  22.084  25.310  1.00  0.00    -0.237 OA
ATOM     70  O   UNL A   1      42.486  22.198  27.783  1.00  0.00    -0.237 OA
ATOM     71  O   UNL A   1      40.375  22.524  26.549  1.00  0.00    -0.744 OA
ENDBRANCH  64  68
ENDBRANCH  47  61
BRANCH  48  72
ATOM     72  C   UNL A   1      39.398  32.270  35.263  1.00  0.00     0.023 A 
ATOM     73  C   UNL A   1      38.712  31.665  36.327  1.00  0.00     0.031 A 
ATOM     74  C   UNL A   1      39.617  33.658  35.324  1.00  0.00     0.131 A 
ATOM     75  C   UNL A   1      38.225  32.450  37.383  1.00  0.00     0.055 A 
ATOM     76  C   UNL A   1      39.177  34.427  36.403  1.00  0.00     0.041 A 
ATOM     77  F   UNL A   1      40.273  34.286  34.336  1.00  0.00    -0.206 F 
ATOM     78  C   UNL A   1      38.464  33.825  37.436  1.00  0.00     0.022 A 
BRANCH  75  79
ATOM     79  S   UNL A   1      37.195  31.659  38.650  1.00  0.00     0.124 S 
ATOM     80  O   UNL A   1      36.006  32.504  38.635  1.00  0.00    -0.237 OA
ATOM     81  O   UNL A   1      37.033  30.313  38.111  1.00  0.00    -0.237 OA
ATOM     82  O   UNL A   1      38.011  31.752  39.859  1.00  0.00    -0.744 OA
ENDBRANCH  75  79
ENDBRANCH  48  72
BRANCH  60  83
ATOM     83  C   UNL A   1      44.943  28.203  34.042  1.00  0.00     0.023 A 
ATOM     84  C   UNL A   1      45.046  27.102  34.908  1.00  0.00     0.031 A 
ATOM     85  C   UNL A   1      46.064  29.039  33.891  1.00  0.00     0.131 A 
ATOM     86  C   UNL A   1      46.238  26.883  35.615  1.00  0.00     0.055 A 
ATOM     87  C   UNL A   1      47.263  28.788  34.559  1.00  0.00     0.041 A 
ATOM     88  F   UNL A   1      46.017  30.103  33.075  1.00  0.00    -0.206 F 
ATOM     89  C   UNL A   1      47.352  27.709  35.432  1.00  0.00     0.022 A 
BRANCH  86  90
ATOM     90  S   UNL A   1      46.309  25.525  36.816  1.00  0.00     0.124 S 
ATOM     91  O   UNL A   1      44.896  25.203  36.992  1.00  0.00    -0.237 OA
ATOM     92  O   UNL A   1      47.107  24.526  36.114  1.00  0.00    -0.237 OA
ATOM     93  O   UNL A   1      46.957  26.128  37.980  1.00  0.00    -0.744 OA
ENDBRANCH  86  90
ENDBRANCH  60  83
ENDBRANCH  34  35
ENDBRANCH  26  29
ENDBRANCH  24  25
ENDBRANCH  23  24
ENDBRANCH   1  23
TORSDOF 20
ENDMDL
MODEL 2
REMARK VINA RESULT:     -11.1      4.946      8.059
REMARK SMILES CCC(CC)[C@H](C(=O)NCCCCNC(=O)c1ccc(-c2c3nc(c(-c4cc(S(=O)(=O)[O-])ccc4F)c4ccc([nH]4)c(-c4cc(S(=O)(=O)[O-])ccc4F)c4nc(c(-c5cc(S(=O)(=O)[O-])ccc5F)c5ccc2[nH]5)C=C4)C=C3)cc1)c1ccc(OC(F)F)cc1
REMARK SMILES IDX 11 1 10 2 9 3 7 4 8 5 6 7 3 8 2 9 1 10 4 11 5 12 80 13 81 14
REMARK SMILES IDX 89 15 82 16 88 17 83 18 84 19 85 20 86 21 87 22 12 23 13 24
REMARK SMILES IDX 14 25 15 26 16 28 17 29 18 30 79 31 19 32 78 33 20 34 21 35
REMARK SMILES IDX 22 36 72 37 23 38 77 39 71 40 73 41 24 42 76 43 70 44 69 45
REMARK SMILES IDX 25 47 57 48 37 49 56 50 38 51 41 52 55 53 74 54 39 55 40 56
REMARK SMILES IDX 54 58 75 59 42 60 26 61 27 62 35 63 28 64 34 65 36 66 33 67
REMARK SMILES IDX 29 68 30 69 31 70 32 71 58 72 59 73 67 74 60 75 66 76 68 77
REMARK SMILES IDX 65 78 61 79 62 80 63 81 64 82 43 83 44 84 52 85 45 86 51 87
REMARK SMILES IDX 53 88 50 89 46 90 47 91 48 92 49 93
REMARK H PARENT 9 6 14 27 73 46 41 57
REMARK Flexibility Score: inf
ROOT
ATOM      1  C   UNL A   1      34.659  22.643  26.841  1.00  0.00     0.023 C 
ENDROOT
BRANCH   1   2
ATOM      2  C   UNL A   1      33.515  21.637  26.927  1.00  0.00     0.116 C 
BRANCH   2   3
ATOM      3  N   UNL A   1      32.256  22.275  27.272  1.00  0.00    -0.356 N 
ATOM      4  C   UNL A   1      31.603  23.322  26.682  1.00  0.00     0.227 C 
ATOM      5  O   UNL A   1      30.522  23.662  27.167  1.00  0.00    -0.274 OA
ATOM      6  H   UNL A   1      31.801  21.894  28.056  1.00  0.00     0.163 HD
BRANCH   4   7
ATOM      7  C   UNL A   1      32.202  23.989  25.428  1.00  0.00     0.111 C 
BRANCH   7   8
ATOM      8  C   UNL A   1      31.310  23.581  24.200  1.00  0.00     0.005 C 
BRANCH   8   9
ATOM      9  C   UNL A   1      30.387  24.726  23.705  1.00  0.00     0.001 C 
ATOM     10  C   UNL A   1      30.910  25.577  22.562  1.00  0.00     0.004 C 
ENDBRANCH   8   9
BRANCH   8  11
ATOM     11  C   UNL A   1      32.020  22.677  23.158  1.00  0.00     0.001 C 
ATOM     12  C   UNL A   1      33.519  22.803  22.967  1.00  0.00     0.004 C 
ENDBRANCH   8  11
ENDBRANCH   7   8
BRANCH   7  13
ATOM     13  C   UNL A   1      32.538  25.465  25.683  1.00  0.00    -0.035 A 
ATOM     14  C   UNL A   1      33.625  26.038  24.998  1.00  0.00     0.008 A 
ATOM     15  C   UNL A   1      31.822  26.302  26.546  1.00  0.00     0.008 A 
ATOM     16  C   UNL A   1      33.959  27.388  25.165  1.00  0.00     0.047 A 
ATOM     17  C   UNL A   1      32.149  27.654  26.708  1.00  0.00     0.047 A 
ATOM     18  C   UNL A   1      33.215  28.209  26.011  1.00  0.00     0.126 A 
BRANCH  18  19
ATOM     19  O   UNL A   1      33.626  29.510  26.073  1.00  0.00    -0.435 OA
BRANCH  19  20
ATOM     20  C   UNL A   1      33.937  30.051  27.350  1.00  0.00     0.542 C 
ATOM     21  F   UNL A   1      34.707  29.184  28.054  1.00  0.00    -0.167 F 
ATOM     22  F   UNL A   1      34.619  31.214  27.217  1.00  0.00    -0.167 F 
ENDBRANCH  19  20
ENDBRANCH  18  19
ENDBRANCH   7  13
ENDBRANCH   4   7
ENDBRANCH   2   3
ENDBRANCH   1   2
BRANCH   1  23
ATOM     23  C   UNL A   1      35.658  22.385  25.710  1.00  0.00     0.023 C 
BRANCH  23  24
ATOM     24  C   UNL A   1      36.968  23.163  25.806  1.00  0.00     0.116 C 
BRANCH  24  25
ATOM     25  N   UNL A   1      38.101  22.316  26.142  1.00  0.00    -0.352 N 
ATOM     26  C   UNL A   1      39.345  22.684  26.604  1.00  0.00     0.251 C 
ATOM     27  H   UNL A   1      37.960  21.350  26.022  1.00  0.00     0.163 HD
ATOM     28  O   UNL A   1      40.237  21.853  26.688  1.00  0.00    -0.269 OA
BRANCH  26  29
ATOM     29  C   UNL A   1      39.597  24.098  26.966  1.00  0.00     0.039 A 
ATOM     30  C   UNL A   1      39.365  24.518  28.279  1.00  0.00     0.014 A 
ATOM     31  C   UNL A   1      40.081  25.000  26.016  1.00  0.00     0.014 A 
ATOM     32  C   UNL A   1      39.689  25.826  28.657  1.00  0.00     0.010 A 
ATOM     33  C   UNL A   1      40.464  26.279  26.410  1.00  0.00     0.010 A 
ATOM     34  C   UNL A   1      40.276  26.706  27.735  1.00  0.00    -0.014 A 
BRANCH  34  35
ATOM     35  C   UNL A   1      40.682  28.087  28.106  1.00  0.00     0.031 A 
ATOM     36  C   UNL A   1      42.146  28.434  28.160  1.00  0.00     0.074 A 
ATOM     37  C   UNL A   1      39.759  28.990  28.490  1.00  0.00     0.049 A 
ATOM     38  N   UNL A   1      42.731  29.498  28.646  1.00  0.00    -0.248 NA
ATOM     39  C   UNL A   1      43.073  27.427  27.624  1.00  0.00     0.031 C 
ATOM     40  C   UNL A   1      38.311  28.772  28.492  1.00  0.00     0.029 A 
ATOM     41  N   UNL A   1      39.902  30.266  28.979  1.00  0.00    -0.354 N 
ATOM     42  C   UNL A   1      44.097  29.276  28.503  1.00  0.00     0.074 A 
ATOM     43  C   UNL A   1      44.248  27.955  27.929  1.00  0.00     0.031 C 
ATOM     44  C   UNL A   1      37.702  29.876  28.955  1.00  0.00     0.029 A 
ATOM     45  C   UNL A   1      38.712  30.859  29.336  1.00  0.00     0.049 A 
ATOM     46  H   UNL A   1      40.774  30.715  29.065  1.00  0.00     0.167 HD
ATOM     47  C   UNL A   1      45.127  30.104  28.809  1.00  0.00     0.034 A 
ATOM     48  C   UNL A   1      38.466  32.044  29.932  1.00  0.00     0.034 A 
ATOM     49  C   UNL A   1      44.955  31.425  29.361  1.00  0.00     0.049 A 
ATOM     50  C   UNL A   1      39.628  32.938  30.294  1.00  0.00     0.074 A 
ATOM     51  C   UNL A   1      45.925  32.363  29.671  1.00  0.00     0.029 A 
ATOM     52  N   UNL A   1      43.731  31.997  29.687  1.00  0.00    -0.354 N 
ATOM     53  N   UNL A   1      40.913  32.720  30.141  1.00  0.00    -0.248 NA
ATOM     54  C   UNL A   1      39.307  34.236  30.901  1.00  0.00     0.031 C 
ATOM     55  C   UNL A   1      45.294  33.474  30.239  1.00  0.00     0.029 A 
ATOM     56  C   UNL A   1      43.925  33.265  30.213  1.00  0.00     0.049 A 
ATOM     57  H   UNL A   1      42.856  31.564  29.563  1.00  0.00     0.167 HD
ATOM     58  C   UNL A   1      41.549  33.874  30.591  1.00  0.00     0.074 A 
ATOM     59  C   UNL A   1      40.509  34.781  31.028  1.00  0.00     0.031 C 
ATOM     60  C   UNL A   1      42.875  34.163  30.628  1.00  0.00     0.034 A 
BRANCH  47  61
ATOM     61  C   UNL A   1      46.526  29.584  28.583  1.00  0.00     0.023 A 
ATOM     62  C   UNL A   1      47.209  28.849  29.568  1.00  0.00     0.031 A 
ATOM     63  C   UNL A   1      47.201  29.856  27.380  1.00  0.00     0.131 A 
ATOM     64  C   UNL A   1      48.549  28.484  29.366  1.00  0.00     0.055 A 
ATOM     65  C   UNL A   1      48.505  29.413  27.151  1.00  0.00     0.041 A 
ATOM     66  F   UNL A   1      46.609  30.571  26.410  1.00  0.00    -0.206 F 
ATOM     67  C   UNL A   1      49.193  28.737  28.154  1.00  0.00     0.022 A 
BRANCH  64  68
ATOM     68  S   UNL A   1      49.480  27.812  30.769  1.00  0.00     0.124 S 
ATOM     69  O   UNL A   1      49.048  28.688  31.856  1.00  0.00    -0.237 OA
ATOM     70  O   UNL A   1      49.006  26.434  30.832  1.00  0.00    -0.237 OA
ATOM     71  O   UNL A   1      50.875  27.975  30.365  1.00  0.00    -0.744 OA
ENDBRANCH  64  68
ENDBRANCH  47  61
BRANCH  48  72
ATOM     72  C   UNL A   1      37.067  32.455  30.248  1.00  0.00     0.023 A 
ATOM     73  C   UNL A   1      36.280  33.126  29.299  1.00  0.00     0.031 A 
ATOM     74  C   UNL A   1      36.510  32.220  31.518  1.00  0.00     0.131 A 
ATOM     75  C   UNL A   1      34.999  33.582  29.648  1.00  0.00     0.055 A 
ATOM     76  C   UNL A   1      35.216  32.629  31.843  1.00  0.00     0.041 A 
ATOM     77  F   UNL A   1      37.218  31.578  32.461  1.00  0.00    -0.206 F 
ATOM     78  C   UNL A   1      34.456  33.326  30.909  1.00  0.00     0.022 A 
BRANCH  75  79
ATOM     79  S   UNL A   1      34.083  34.594  28.454  1.00  0.00     0.124 S 
ATOM     80  O   UNL A   1      32.849  33.831  28.303  1.00  0.00    -0.237 OA
ATOM     81  O   UNL A   1      33.969  35.866  29.159  1.00  0.00    -0.237 OA
ATOM     82  O   UNL A   1      34.955  34.609  27.281  1.00  0.00    -0.744 OA
ENDBRANCH  75  79
ENDBRANCH  48  72
BRANCH  60  83
ATOM     83  C   UNL A   1      43.274  35.546  31.075  1.00  0.00     0.023 A 
ATOM     84  C   UNL A   1      43.472  36.600  30.166  1.00  0.00     0.031 A 
ATOM     85  C   UNL A   1      43.423  35.815  32.448  1.00  0.00     0.131 A 
ATOM     86  C   UNL A   1      43.837  37.869  30.642  1.00  0.00     0.055 A 
ATOM     87  C   UNL A   1      43.738  37.090  32.917  1.00  0.00     0.041 A 
ATOM     88  F   UNL A   1      43.245  34.843  33.356  1.00  0.00    -0.206 F 
ATOM     89  C   UNL A   1      43.954  38.124  32.012  1.00  0.00     0.022 A 
BRANCH  86  90
ATOM     90  S   UNL A   1      44.201  39.182  29.445  1.00  0.00     0.124 S 
ATOM     91  O   UNL A   1      45.326  39.865  30.076  1.00  0.00    -0.237 OA
ATOM     92  O   UNL A   1      44.512  38.428  28.235  1.00  0.00    -0.237 OA
ATOM     93  O   UNL A   1      42.959  39.953  29.390  1.00  0.00    -0.744 OA
ENDBRANCH  86  90
ENDBRANCH  60  83
ENDBRANCH  34  35
ENDBRANCH  26  29
ENDBRANCH  24  25
ENDBRANCH  23  24
ENDBRANCH   1  23
TORSDOF 20
ENDMDL
MODEL 3
REMARK VINA RESULT:     -11.1      5.343      7.859
REMARK SMILES CCC(CC)[C@H](C(=O)NCCCCNC(=O)c1ccc(-c2c3nc(c(-c4cc(S(=O)(=O)[O-])ccc4F)c4ccc([nH]4)c(-c4cc(S(=O)(=O)[O-])ccc4F)c4nc(c(-c5cc(S(=O)(=O)[O-])ccc5F)c5ccc2[nH]5)C=C4)C=C3)cc1)c1ccc(OC(F)F)cc1
REMARK SMILES IDX 11 1 10 2 9 3 7 4 8 5 6 7 3 8 2 9 1 10 4 11 5 12 80 13 81 14
REMARK SMILES IDX 89 15 82 16 88 17 83 18 84 19 85 20 86 21 87 22 12 23 13 24
REMARK SMILES IDX 14 25 15 26 16 28 17 29 18 30 79 31 19 32 78 33 20 34 21 35
REMARK SMILES IDX 22 36 72 37 23 38 77 39 71 40 73 41 24 42 76 43 70 44 69 45
REMARK SMILES IDX 25 47 57 48 37 49 56 50 38 51 41 52 55 53 74 54 39 55 40 56
REMARK SMILES IDX 54 58 75 59 42 60 26 61 27 62 35 63 28 64 34 65 36 66 33 67
REMARK SMILES IDX 29 68 30 69 31 70 32 71 58 72 59 73 67 74 60 75 66 76 68 77
REMARK SMILES IDX 65 78 61 79 62 80 63 81 64 82 43 83 44 84 52 85 45 86 51 87
REMARK SMILES IDX 53 88 50 89 46 90 47 91 48 92 49 93
REMARK H PARENT 9 6 14 27 73 46 41 57
REMARK Flexibility Score: inf
ROOT
ATOM      1  C   UNL A   1      33.632  21.707  25.692  1.00  0.00     0.023 C 
ENDROOT
BRANCH   1   2
ATOM      2  C   UNL A   1      33.482  22.619  26.907  1.00  0.00     0.116 C 
BRANCH   2   3
ATOM      3  N   UNL A   1      32.131  23.141  27.029  1.00  0.00    -0.356 N 
ATOM      4  C   UNL A   1      31.552  24.242  26.461  1.00  0.00     0.227 C 
ATOM      5  O   UNL A   1      30.365  24.454  26.716  1.00  0.00    -0.274 OA
ATOM      6  H   UNL A   1      31.538  22.618  27.615  1.00  0.00     0.163 HD
BRANCH   4   7
ATOM      7  C   UNL A   1      32.372  25.129  25.503  1.00  0.00     0.111 C 
BRANCH   7   8
ATOM      8  C   UNL A   1      31.665  25.092  24.100  1.00  0.00     0.005 C 
BRANCH   8   9
ATOM      9  C   UNL A   1      31.562  26.487  23.427  1.00  0.00     0.001 C 
ATOM     10  C   UNL A   1      30.167  26.971  23.075  1.00  0.00     0.004 C 
ENDBRANCH   8   9
BRANCH   8  11
ATOM     11  C   UNL A   1      32.021  23.857  23.230  1.00  0.00     0.001 C 
ATOM     12  C   UNL A   1      33.318  23.852  22.446  1.00  0.00     0.004 C 
ENDBRANCH   8  11
ENDBRANCH   7   8
BRANCH   7  13
ATOM     13  C   UNL A   1      32.733  26.473  26.151  1.00  0.00    -0.035 A 
ATOM     14  C   UNL A   1      34.022  26.996  25.946  1.00  0.00     0.008 A 
ATOM     15  C   UNL A   1      31.856  27.238  26.929  1.00  0.00     0.008 A 
ATOM     16  C   UNL A   1      34.399  28.233  26.485  1.00  0.00     0.047 A 
ATOM     17  C   UNL A   1      32.227  28.479  27.461  1.00  0.00     0.047 A 
ATOM     18  C   UNL A   1      33.499  28.990  27.236  1.00  0.00     0.126 A 
BRANCH  18  19
ATOM     19  O   UNL A   1      33.977  30.186  27.688  1.00  0.00    -0.435 OA
BRANCH  19  20
ATOM     20  C   UNL A   1      35.385  30.342  27.801  1.00  0.00     0.542 C 
ATOM     21  F   UNL A   1      35.729  31.644  27.644  1.00  0.00    -0.167 F 
ATOM     22  F   UNL A   1      35.809  29.935  29.022  1.00  0.00    -0.167 F 
ENDBRANCH  19  20
ENDBRANCH  18  19
ENDBRANCH   7  13
ENDBRANCH   4   7
ENDBRANCH   2   3
ENDBRANCH   1   2
BRANCH   1  23
ATOM     23  C   UNL A   1      34.953  21.857  24.935  1.00  0.00     0.023 C 
BRANCH  23  24
ATOM     24  C   UNL A   1      36.163  22.212  25.795  1.00  0.00     0.116 C 
BRANCH  24  25
ATOM     25  N   UNL A   1      37.184  21.177  25.782  1.00  0.00    -0.352 N 
ATOM     26  C   UNL A   1      38.545  21.307  25.954  1.00  0.00     0.251 C 
ATOM     27  H   UNL A   1      36.860  20.261  25.629  1.00  0.00     0.163 HD
ATOM     28  O   UNL A   1      39.280  20.351  25.756  1.00  0.00    -0.269 OA
BRANCH  26  29
ATOM     29  C   UNL A   1      39.106  22.620  26.347  1.00  0.00     0.039 A 
ATOM     30  C   UNL A   1      40.231  22.661  27.175  1.00  0.00     0.014 A 
ATOM     31  C   UNL A   1      38.534  23.806  25.881  1.00  0.00     0.014 A 
ATOM     32  C   UNL A   1      40.828  23.890  27.475  1.00  0.00     0.010 A 
ATOM     33  C   UNL A   1      39.167  25.021  26.127  1.00  0.00     0.010 A 
ATOM     34  C   UNL A   1      40.322  25.077  26.924  1.00  0.00    -0.014 A 
BRANCH  34  35
ATOM     35  C   UNL A   1      40.954  26.400  27.175  1.00  0.00     0.031 A 
ATOM     36  C   UNL A   1      42.340  26.665  26.652  1.00  0.00     0.074 A 
ATOM     37  C   UNL A   1      40.337  27.314  27.950  1.00  0.00     0.049 A 
ATOM     38  N   UNL A   1      43.154  27.653  26.918  1.00  0.00    -0.248 NA
ATOM     39  C   UNL A   1      42.891  25.660  25.731  1.00  0.00     0.031 C 
ATOM     40  C   UNL A   1      38.999  27.172  28.525  1.00  0.00     0.029 A 
ATOM     41  N   UNL A   1      40.767  28.535  28.410  1.00  0.00    -0.354 N 
ATOM     42  C   UNL A   1      44.326  27.373  26.223  1.00  0.00     0.074 A 
ATOM     43  C   UNL A   1      44.128  26.099  25.564  1.00  0.00     0.031 C 
ATOM     44  C   UNL A   1      38.716  28.263  29.256  1.00  0.00     0.029 A 
ATOM     45  C   UNL A   1      39.871  29.156  29.250  1.00  0.00     0.049 A 
ATOM     46  H   UNL A   1      41.634  28.930  28.160  1.00  0.00     0.167 HD
ATOM     47  C   UNL A   1      45.457  28.118  26.132  1.00  0.00     0.034 A 
ATOM     48  C   UNL A   1      39.980  30.299  29.960  1.00  0.00     0.034 A 
ATOM     49  C   UNL A   1      45.627  29.395  26.779  1.00  0.00     0.049 A 
ATOM     50  C   UNL A   1      41.258  31.098  29.870  1.00  0.00     0.074 A 
ATOM     51  C   UNL A   1      46.712  30.253  26.723  1.00  0.00     0.029 A 
ATOM     52  N   UNL A   1      44.686  30.000  27.604  1.00  0.00    -0.354 N 
ATOM     53  N   UNL A   1      42.353  30.828  29.198  1.00  0.00    -0.248 NA
ATOM     54  C   UNL A   1      41.313  32.356  30.627  1.00  0.00     0.031 C 
ATOM     55  C   UNL A   1      46.454  31.344  27.558  1.00  0.00     0.029 A 
ATOM     56  C   UNL A   1      45.176  31.208  28.076  1.00  0.00     0.049 A 
ATOM     57  H   UNL A   1      43.802  29.626  27.820  1.00  0.00     0.167 HD
ATOM     58  C   UNL A   1      43.207  31.905  29.416  1.00  0.00     0.074 A 
ATOM     59  C   UNL A   1      42.505  32.825  30.286  1.00  0.00     0.031 C 
ATOM     60  C   UNL A   1      44.455  32.121  28.930  1.00  0.00     0.034 A 
BRANCH  47  61
ATOM     61  C   UNL A   1      46.601  27.548  25.330  1.00  0.00     0.023 A 
ATOM     62  C   UNL A   1      46.934  28.049  24.059  1.00  0.00     0.031 A 
ATOM     63  C   UNL A   1      47.351  26.467  25.827  1.00  0.00     0.131 A 
ATOM     64  C   UNL A   1      47.928  27.417  23.296  1.00  0.00     0.055 A 
ATOM     65  C   UNL A   1      48.397  25.899  25.097  1.00  0.00     0.041 A 
ATOM     66  F   UNL A   1      47.067  25.931  27.025  1.00  0.00    -0.206 F 
ATOM     67  C   UNL A   1      48.680  26.364  23.817  1.00  0.00     0.022 A 
BRANCH  64  68
ATOM     68  S   UNL A   1      48.114  27.897  21.557  1.00  0.00     0.124 S 
ATOM     69  O   UNL A   1      49.249  28.814  21.625  1.00  0.00    -0.237 OA
ATOM     70  O   UNL A   1      48.365  26.618  20.901  1.00  0.00    -0.237 OA
ATOM     71  O   UNL A   1      46.834  28.524  21.236  1.00  0.00    -0.744 OA
ENDBRANCH  64  68
ENDBRANCH  47  61
BRANCH  48  72
ATOM     72  C   UNL A   1      38.863  30.753  30.837  1.00  0.00     0.023 A 
ATOM     73  C   UNL A   1      37.920  31.688  30.380  1.00  0.00     0.031 A 
ATOM     74  C   UNL A   1      38.744  30.291  32.161  1.00  0.00     0.131 A 
ATOM     75  C   UNL A   1      36.931  32.168  31.251  1.00  0.00     0.055 A 
ATOM     76  C   UNL A   1      37.726  30.733  33.007  1.00  0.00     0.041 A 
ATOM     77  F   UNL A   1      39.615  29.394  32.647  1.00  0.00    -0.206 F 
ATOM     78  C   UNL A   1      36.818  31.687  32.557  1.00  0.00     0.022 A 
BRANCH  75  79
ATOM     79  S   UNL A   1      35.841  33.500  30.677  1.00  0.00     0.124 S 
ATOM     80  O   UNL A   1      34.593  32.782  30.444  1.00  0.00    -0.237 OA
ATOM     81  O   UNL A   1      35.853  34.412  31.816  1.00  0.00    -0.237 OA
ATOM     82  O   UNL A   1      36.511  33.995  29.477  1.00  0.00    -0.744 OA
ENDBRANCH  75  79
ENDBRANCH  48  72
BRANCH  60  83
ATOM     83  C   UNL A   1      45.111  33.440  29.253  1.00  0.00     0.023 A 
ATOM     84  C   UNL A   1      44.963  34.572  28.434  1.00  0.00     0.031 A 
ATOM     85  C   UNL A   1      45.870  33.566  30.431  1.00  0.00     0.131 A 
ATOM     86  C   UNL A   1      45.591  35.775  28.790  1.00  0.00     0.055 A 
ATOM     87  C   UNL A   1      46.453  34.777  30.804  1.00  0.00     0.041 A 
ATOM     88  F   UNL A   1      46.042  32.514  31.248  1.00  0.00    -0.206 F 
ATOM     89  C   UNL A   1      46.320  35.888  29.979  1.00  0.00     0.022 A 
BRANCH  86  90
ATOM     90  S   UNL A   1      45.484  37.189  27.659  1.00  0.00     0.124 S 
ATOM     91  O   UNL A   1      44.062  37.205  27.329  1.00  0.00    -0.237 OA
ATOM     92  O   UNL A   1      45.957  38.292  28.488  1.00  0.00    -0.237 OA
ATOM     93  O   UNL A   1      46.372  36.818  26.558  1.00  0.00    -0.744 OA
ENDBRANCH  86  90
ENDBRANCH  60  83
ENDBRANCH  34  35
ENDBRANCH  26  29
ENDBRANCH  24  25
ENDBRANCH  23  24
ENDBRANCH   1  23
TORSDOF 20
ENDMDL
