MODEL 1
REMARK VINA RESULT:     -11.2      0.000      0.000
REMARK SMILES COc1c(Br)cc(C)cc1C(=O)NCCCCNC(=O)c1ccc(-c2c3nc(c(-c4cc(S(=O)(=O)[O-])ccc4F)c4ccc([nH]4)c(-c4cc(S(=O)(=O)[O-])ccc4F)c4nc(c(-c5cc(S(=O)(=O)[O-])ccc5F)c5ccc2[nH]5)C=C4)C=C3)cc1
REMARK SMILES IDX 16 1 15 2 14 3 13 4 11 5 12 6 10 8 3 9 4 10 5 11 6 12 9 13
REMARK SMILES IDX 7 14 8 15 2 16 1 17 17 18 18 19 19 20 20 22 21 23 22 24
REMARK SMILES IDX 83 25 23 26 82 27 24 28 25 29 26 30 76 31 27 32 81 33 75 34
REMARK SMILES IDX 77 35 28 36 80 37 74 38 73 39 29 41 61 42 41 43 60 44 42 45
REMARK SMILES IDX 45 46 59 47 78 48 43 49 44 50 58 52 79 53 46 54 30 55 31 56
REMARK SMILES IDX 39 57 32 58 38 59 40 60 37 61 33 62 34 63 35 64 36 65 62 66
REMARK SMILES IDX 63 67 71 68 64 69 70 70 72 71 69 72 65 73 66 74 67 75 68 76
REMARK SMILES IDX 47 77 48 78 56 79 49 80 55 81 57 82 54 83 50 84 51 85 52 86
REMARK SMILES IDX 53 87
REMARK H PARENT 13 7 18 21 77 40 45 51
REMARK Flexibility Score: inf
ROOT
ATOM      1  C   UNL A   1      33.186  27.989  27.271  1.00  0.00     0.023 C 
ENDROOT
BRANCH   1   2
ATOM      2  C   UNL A   1      31.653  28.011  27.211  1.00  0.00     0.023 C 
BRANCH   2   3
ATOM      3  C   UNL A   1      31.048  27.011  26.223  1.00  0.00     0.116 C 
BRANCH   3   4
ATOM      4  N   UNL A   1      30.983  25.686  26.803  1.00  0.00    -0.352 N 
ATOM      5  C   UNL A   1      31.676  24.512  26.641  1.00  0.00     0.255 C 
ATOM      6  O   UNL A   1      31.295  23.608  27.386  1.00  0.00    -0.269 OA
ATOM      7  H   UNL A   1      30.270  25.608  27.478  1.00  0.00     0.163 HD
BRANCH   5   8
ATOM      8  C   UNL A   1      32.825  24.298  25.686  1.00  0.00     0.083 A 
ATOM      9  C   UNL A   1      32.577  24.019  24.322  1.00  0.00     0.145 A 
ATOM     10  C   UNL A   1      33.634  23.651  23.465  1.00  0.00     0.061 A 
ATOM     11  Br  UNL A   1      33.334  23.201  21.641  1.00  0.00    -0.047 Br
ATOM     12  C   UNL A   1      34.945  23.592  23.932  1.00  0.00     0.023 A 
ATOM     13  C   UNL A   1      34.169  24.323  26.094  1.00  0.00     0.021 A 
ATOM     14  C   UNL A   1      35.223  23.932  25.253  1.00  0.00    -0.049 A 
ATOM     15  C   UNL A   1      36.628  23.840  25.777  1.00  0.00     0.044 C 
BRANCH   9  16
ATOM     16  O   UNL A   1      31.310  24.024  23.787  1.00  0.00    -0.495 OA
ATOM     17  C   UNL A   1      31.029  25.270  23.142  1.00  0.00     0.278 C 
ENDBRANCH   9  16
ENDBRANCH   5   8
ENDBRANCH   3   4
ENDBRANCH   2   3
ENDBRANCH   1   2
BRANCH   1  18
ATOM     18  C   UNL A   1      33.885  28.944  26.309  1.00  0.00     0.116 C 
BRANCH  18  19
ATOM     19  N   UNL A   1      33.643  30.344  26.617  1.00  0.00    -0.352 N 
ATOM     20  C   UNL A   1      34.368  31.174  27.441  1.00  0.00     0.251 C 
ATOM     21  H   UNL A   1      32.860  30.751  26.180  1.00  0.00     0.163 HD
ATOM     22  O   UNL A   1      33.964  32.298  27.685  1.00  0.00    -0.269 OA
BRANCH  20  23
ATOM     23  C   UNL A   1      35.611  30.660  28.056  1.00  0.00     0.039 A 
ATOM     24  C   UNL A   1      35.548  30.111  29.339  1.00  0.00     0.014 A 
ATOM     25  C   UNL A   1      36.820  30.691  27.357  1.00  0.00     0.014 A 
ATOM     26  C   UNL A   1      36.692  29.542  29.901  1.00  0.00     0.010 A 
ATOM     27  C   UNL A   1      37.938  30.056  27.886  1.00  0.00     0.010 A 
ATOM     28  C   UNL A   1      37.888  29.485  29.167  1.00  0.00    -0.014 A 
BRANCH  28  29
ATOM     29  C   UNL A   1      39.110  28.866  29.738  1.00  0.00     0.031 A 
ATOM     30  C   UNL A   1      39.687  29.398  31.022  1.00  0.00     0.074 A 
ATOM     31  C   UNL A   1      39.727  27.867  29.079  1.00  0.00     0.049 A 
ATOM     32  N   UNL A   1      40.769  29.036  31.661  1.00  0.00    -0.248 NA
ATOM     33  C   UNL A   1      38.963  30.514  31.647  1.00  0.00     0.031 C 
ATOM     34  C   UNL A   1      39.284  27.294  27.806  1.00  0.00     0.029 A 
ATOM     35  N   UNL A   1      40.858  27.156  29.388  1.00  0.00    -0.354 N 
ATOM     36  C   UNL A   1      40.864  29.888  32.756  1.00  0.00     0.074 A 
ATOM     37  C   UNL A   1      39.774  30.834  32.642  1.00  0.00     0.031 C 
ATOM     38  C   UNL A   1      40.110  26.292  27.465  1.00  0.00     0.029 A 
ATOM     39  C   UNL A   1      41.163  26.179  28.470  1.00  0.00     0.049 A 
ATOM     40  H   UNL A   1      41.400  27.329  30.191  1.00  0.00     0.167 HD
ATOM     41  C   UNL A   1      41.754  29.862  33.780  1.00  0.00     0.034 A 
ATOM     42  C   UNL A   1      42.176  25.290  28.446  1.00  0.00     0.034 A 
ATOM     43  C   UNL A   1      42.831  28.906  33.875  1.00  0.00     0.049 A 
ATOM     44  C   UNL A   1      43.178  25.300  29.574  1.00  0.00     0.074 A 
ATOM     45  C   UNL A   1      43.770  28.756  34.881  1.00  0.00     0.029 A 
ATOM     46  N   UNL A   1      43.118  27.937  32.920  1.00  0.00    -0.354 N 
ATOM     47  N   UNL A   1      43.229  26.078  30.630  1.00  0.00    -0.248 NA
ATOM     48  C   UNL A   1      44.249  24.299  29.509  1.00  0.00     0.031 C 
ATOM     49  C   UNL A   1      44.659  27.743  34.505  1.00  0.00     0.029 A 
ATOM     50  C   UNL A   1      44.232  27.205  33.299  1.00  0.00     0.049 A 
ATOM     51  H   UNL A   1      42.604  27.791  32.093  1.00  0.00     0.167 HD
ATOM     52  C   UNL A   1      44.316  25.633  31.377  1.00  0.00     0.074 A 
ATOM     53  C   UNL A   1      44.885  24.516  30.650  1.00  0.00     0.031 C 
ATOM     54  C   UNL A   1      44.795  26.098  32.559  1.00  0.00     0.034 A 
BRANCH  41  55
ATOM     55  C   UNL A   1      41.600  30.922  34.848  1.00  0.00     0.023 A 
ATOM     56  C   UNL A   1      40.487  30.943  35.708  1.00  0.00     0.031 A 
ATOM     57  C   UNL A   1      42.531  31.971  34.959  1.00  0.00     0.131 A 
ATOM     58  C   UNL A   1      40.271  32.042  36.552  1.00  0.00     0.055 A 
ATOM     59  C   UNL A   1      42.362  33.011  35.876  1.00  0.00     0.041 A 
ATOM     60  F   UNL A   1      43.605  32.021  34.156  1.00  0.00    -0.206 F 
ATOM     61  C   UNL A   1      41.215  33.064  36.662  1.00  0.00     0.022 A 
BRANCH  58  62
ATOM     62  S   UNL A   1      38.648  32.212  37.346  1.00  0.00     0.124 S 
ATOM     63  O   UNL A   1      38.007  30.951  36.981  1.00  0.00    -0.237 OA
ATOM     64  O   UNL A   1      38.999  32.367  38.752  1.00  0.00    -0.237 OA
ATOM     65  O   UNL A   1      38.078  33.398  36.709  1.00  0.00    -0.744 OA
ENDBRANCH  58  62
ENDBRANCH  41  55
BRANCH  42  66
ATOM     66  C   UNL A   1      42.285  24.299  27.339  1.00  0.00     0.023 A 
ATOM     67  C   UNL A   1      41.524  23.120  27.359  1.00  0.00     0.031 A 
ATOM     68  C   UNL A   1      43.166  24.499  26.263  1.00  0.00     0.131 A 
ATOM     69  C   UNL A   1      41.688  22.164  26.344  1.00  0.00     0.055 A 
ATOM     70  C   UNL A   1      43.292  23.567  25.231  1.00  0.00     0.041 A 
ATOM     71  F   UNL A   1      43.910  25.615  26.193  1.00  0.00    -0.206 F 
ATOM     72  C   UNL A   1      42.559  22.385  25.275  1.00  0.00     0.022 A 
BRANCH  69  73
ATOM     73  S   UNL A   1      40.791  20.593  26.479  1.00  0.00     0.124 S 
ATOM     74  O   UNL A   1      40.855  20.337  27.914  1.00  0.00    -0.237 OA
ATOM     75  O   UNL A   1      39.479  20.947  25.947  1.00  0.00    -0.237 OA
ATOM     76  O   UNL A   1      41.573  19.683  25.646  1.00  0.00    -0.744 OA
ENDBRANCH  69  73
ENDBRANCH  42  66
BRANCH  54  77
ATOM     77  C   UNL A   1      45.961  25.353  33.164  1.00  0.00     0.023 A 
ATOM     78  C   UNL A   1      45.777  24.238  34.001  1.00  0.00     0.031 A 
ATOM     79  C   UNL A   1      47.276  25.784  32.916  1.00  0.00     0.131 A 
ATOM     80  C   UNL A   1      46.888  23.629  34.606  1.00  0.00     0.055 A 
ATOM     81  C   UNL A   1      48.379  25.137  33.470  1.00  0.00     0.041 A 
ATOM     82  F   UNL A   1      47.510  26.846  32.127  1.00  0.00    -0.206 F 
ATOM     83  C   UNL A   1      48.188  24.061  34.332  1.00  0.00     0.022 A 
BRANCH  80  84
ATOM     84  S   UNL A   1      46.605  22.328  35.838  1.00  0.00     0.124 S 
ATOM     85  O   UNL A   1      47.323  22.848  36.998  1.00  0.00    -0.237 OA
ATOM     86  O   UNL A   1      45.150  22.310  35.944  1.00  0.00    -0.237 OA
ATOM     87  O   UNL A   1      47.196  21.140  35.225  1.00  0.00    -0.744 OA
ENDBRANCH  80  84
ENDBRANCH  54  77
ENDBRANCH  28  29
ENDBRANCH  20  23
ENDBRANCH  18  19
ENDBRANCH   1  18
TORSDOF 15
ENDMDL
MODEL 2
REMARK VINA RESULT:     -11.1      1.176      1.742
REMARK SMILES COc1c(Br)cc(C)cc1C(=O)NCCCCNC(=O)c1ccc(-c2c3nc(c(-c4cc(S(=O)(=O)[O-])ccc4F)c4ccc([nH]4)c(-c4cc(S(=O)(=O)[O-])ccc4F)c4nc(c(-c5cc(S(=O)(=O)[O-])ccc5F)c5ccc2[nH]5)C=C4)C=C3)cc1
REMARK SMILES IDX 16 1 15 2 14 3 13 4 11 5 12 6 10 8 3 9 4 10 5 11 6 12 9 13
REMARK SMILES IDX 7 14 8 15 2 16 1 17 17 18 18 19 19 20 20 22 21 23 22 24
REMARK SMILES IDX 83 25 23 26 82 27 24 28 25 29 26 30 76 31 27 32 81 33 75 34
REMARK SMILES IDX 77 35 28 36 80 37 74 38 73 39 29 41 61 42 41 43 60 44 42 45
REMARK SMILES IDX 45 46 59 47 78 48 43 49 44 50 58 52 79 53 46 54 30 55 31 56
REMARK SMILES IDX 39 57 32 58 38 59 40 60 37 61 33 62 34 63 35 64 36 65 62 66
REMARK SMILES IDX 63 67 71 68 64 69 70 70 72 71 69 72 65 73 66 74 67 75 68 76
REMARK SMILES IDX 47 77 48 78 56 79 49 80 55 81 57 82 54 83 50 84 51 85 52 86
REMARK SMILES IDX 53 87
REMARK H PARENT 13 7 18 21 77 40 45 51
REMARK Flexibility Score: inf
ROOT
ATOM      1  C   UNL A   1      33.911  28.241  25.256  1.00  0.00     0.023 C 
ENDROOT
BRANCH   1   2
ATOM      2  C   UNL A   1      33.433  28.960  23.988  1.00  0.00     0.023 C 
BRANCH   2   3
ATOM      3  C   UNL A   1      32.220  28.312  23.317  1.00  0.00     0.116 C 
BRANCH   3   4
ATOM      4  N   UNL A   1      32.630  27.435  22.241  1.00  0.00    -0.352 N 
ATOM      5  C   UNL A   1      33.058  26.134  22.149  1.00  0.00     0.255 C 
ATOM      6  O   UNL A   1      33.279  25.769  20.994  1.00  0.00    -0.269 OA
ATOM      7  H   UNL A   1      32.591  27.878  21.363  1.00  0.00     0.163 HD
BRANCH   5   8
ATOM      8  C   UNL A   1      33.227  25.183  23.309  1.00  0.00     0.083 A 
ATOM      9  C   UNL A   1      32.101  24.553  23.887  1.00  0.00     0.145 A 
ATOM     10  C   UNL A   1      32.233  23.802  25.071  1.00  0.00     0.061 A 
ATOM     11  Br  UNL A   1      30.732  22.996  25.919  1.00  0.00    -0.047 Br
ATOM     12  C   UNL A   1      33.477  23.632  25.676  1.00  0.00     0.023 A 
ATOM     13  C   UNL A   1      34.476  24.908  23.891  1.00  0.00     0.021 A 
ATOM     14  C   UNL A   1      34.611  24.183  25.086  1.00  0.00    -0.049 A 
ATOM     15  C   UNL A   1      35.953  24.034  25.745  1.00  0.00     0.044 C 
BRANCH   9  16
ATOM     16  O   UNL A   1      30.833  24.695  23.373  1.00  0.00    -0.495 OA
ATOM     17  C   UNL A   1      30.087  25.672  24.107  1.00  0.00     0.278 C 
ENDBRANCH   9  16
ENDBRANCH   5   8
ENDBRANCH   3   4
ENDBRANCH   2   3
ENDBRANCH   1   2
BRANCH   1  18
ATOM     18  C   UNL A   1      33.309  28.758  26.559  1.00  0.00     0.116 C 
BRANCH  18  19
ATOM     19  N   UNL A   1      33.377  30.204  26.687  1.00  0.00    -0.352 N 
ATOM     20  C   UNL A   1      34.341  30.960  27.315  1.00  0.00     0.251 C 
ATOM     21  H   UNL A   1      32.640  30.708  26.273  1.00  0.00     0.163 HD
ATOM     22  O   UNL A   1      34.192  32.164  27.435  1.00  0.00    -0.269 OA
BRANCH  20  23
ATOM     23  C   UNL A   1      35.528  30.278  27.877  1.00  0.00     0.039 A 
ATOM     24  C   UNL A   1      36.685  30.194  27.100  1.00  0.00     0.014 A 
ATOM     25  C   UNL A   1      35.505  29.757  29.173  1.00  0.00     0.014 A 
ATOM     26  C   UNL A   1      37.841  29.633  27.646  1.00  0.00     0.010 A 
ATOM     27  C   UNL A   1      36.676  29.269  29.740  1.00  0.00     0.010 A 
ATOM     28  C   UNL A   1      37.853  29.192  28.979  1.00  0.00    -0.014 A 
BRANCH  28  29
ATOM     29  C   UNL A   1      39.077  28.610  29.584  1.00  0.00     0.031 A 
ATOM     30  C   UNL A   1      39.579  29.134  30.902  1.00  0.00     0.074 A 
ATOM     31  C   UNL A   1      39.761  27.655  28.927  1.00  0.00     0.049 A 
ATOM     32  N   UNL A   1      40.650  28.801  31.575  1.00  0.00    -0.248 NA
ATOM     33  C   UNL A   1      38.784  30.203  31.524  1.00  0.00     0.031 C 
ATOM     34  C   UNL A   1      39.393  27.096  27.624  1.00  0.00     0.029 A 
ATOM     35  N   UNL A   1      40.908  26.984  29.264  1.00  0.00    -0.354 N 
ATOM     36  C   UNL A   1      40.665  29.628  32.693  1.00  0.00     0.074 A 
ATOM     37  C   UNL A   1      39.541  30.531  32.558  1.00  0.00     0.031 C 
ATOM     38  C   UNL A   1      40.274  26.139  27.293  1.00  0.00     0.029 A 
ATOM     39  C   UNL A   1      41.291  26.045  28.337  1.00  0.00     0.049 A 
ATOM     40  H   UNL A   1      41.411  27.160  30.092  1.00  0.00     0.167 HD
ATOM     41  C   UNL A   1      41.514  29.614  33.752  1.00  0.00     0.034 A 
ATOM     42  C   UNL A   1      42.341  25.200  28.333  1.00  0.00     0.034 A 
ATOM     43  C   UNL A   1      42.626  28.702  33.868  1.00  0.00     0.049 A 
ATOM     44  C   UNL A   1      43.296  25.223  29.500  1.00  0.00     0.074 A 
ATOM     45  C   UNL A   1      43.530  28.565  34.907  1.00  0.00     0.029 A 
ATOM     46  N   UNL A   1      42.992  27.770  32.902  1.00  0.00    -0.354 N 
ATOM     47  N   UNL A   1      43.273  25.976  30.575  1.00  0.00    -0.248 NA
ATOM     48  C   UNL A   1      44.412  24.270  29.455  1.00  0.00     0.031 C 
ATOM     49  C   UNL A   1      44.477  27.600  34.543  1.00  0.00     0.029 A 
ATOM     50  C   UNL A   1      44.121  27.076  33.309  1.00  0.00     0.049 A 
ATOM     51  H   UNL A   1      42.517  27.623  32.052  1.00  0.00     0.167 HD
ATOM     52  C   UNL A   1      44.348  25.558  31.355  1.00  0.00     0.074 A 
ATOM     53  C   UNL A   1      44.992  24.484  30.626  1.00  0.00     0.031 C 
ATOM     54  C   UNL A   1      44.759  26.013  32.566  1.00  0.00     0.034 A 
BRANCH  41  55
ATOM     55  C   UNL A   1      41.273  30.639  34.837  1.00  0.00     0.023 A 
ATOM     56  C   UNL A   1      40.123  30.597  35.646  1.00  0.00     0.031 A 
ATOM     57  C   UNL A   1      42.158  31.718  35.017  1.00  0.00     0.131 A 
ATOM     58  C   UNL A   1      39.828  31.665  36.506  1.00  0.00     0.055 A 
ATOM     59  C   UNL A   1      41.910  32.727  35.950  1.00  0.00     0.041 A 
ATOM     60  F   UNL A   1      43.264  31.828  34.265  1.00  0.00    -0.206 F 
ATOM     61  C   UNL A   1      40.727  32.718  36.684  1.00  0.00     0.022 A 
BRANCH  58  62
ATOM     62  S   UNL A   1      38.166  31.756  37.228  1.00  0.00     0.124 S 
ATOM     63  O   UNL A   1      38.428  32.456  38.485  1.00  0.00    -0.237 OA
ATOM     64  O   UNL A   1      37.425  32.506  36.222  1.00  0.00    -0.237 OA
ATOM     65  O   UNL A   1      37.778  30.355  37.375  1.00  0.00    -0.744 OA
ENDBRANCH  58  62
ENDBRANCH  41  55
BRANCH  42  66
ATOM     66  C   UNL A   1      42.536  24.243  27.208  1.00  0.00     0.023 A 
ATOM     67  C   UNL A   1      41.964  22.962  27.253  1.00  0.00     0.031 A 
ATOM     68  C   UNL A   1      43.315  24.580  26.088  1.00  0.00     0.131 A 
ATOM     69  C   UNL A   1      42.213  22.047  26.219  1.00  0.00     0.055 A 
ATOM     70  C   UNL A   1      43.522  23.683  25.038  1.00  0.00     0.041 A 
ATOM     71  F   UNL A   1      43.877  25.796  25.993  1.00  0.00    -0.206 F 
ATOM     72  C   UNL A   1      42.979  22.403  25.106  1.00  0.00     0.022 A 
BRANCH  69  73
ATOM     73  S   UNL A   1      41.572  20.358  26.380  1.00  0.00     0.124 S 
ATOM     74  O   UNL A   1      41.922  20.039  27.761  1.00  0.00    -0.237 OA
ATOM     75  O   UNL A   1      40.152  20.545  26.104  1.00  0.00    -0.237 OA
ATOM     76  O   UNL A   1      42.310  19.616  25.361  1.00  0.00    -0.744 OA
ENDBRANCH  69  73
ENDBRANCH  42  66
BRANCH  54  77
ATOM     77  C   UNL A   1      45.931  25.302  33.201  1.00  0.00     0.023 A 
ATOM     78  C   UNL A   1      45.757  24.212  34.072  1.00  0.00     0.031 A 
ATOM     79  C   UNL A   1      47.242  25.740  32.943  1.00  0.00     0.131 A 
ATOM     80  C   UNL A   1      46.872  23.638  34.701  1.00  0.00     0.055 A 
ATOM     81  C   UNL A   1      48.351  25.125  33.522  1.00  0.00     0.041 A 
ATOM     82  F   UNL A   1      47.467  26.778  32.121  1.00  0.00    -0.206 F 
ATOM     83  C   UNL A   1      48.169  24.075  34.419  1.00  0.00     0.022 A 
BRANCH  80  84
ATOM     84  S   UNL A   1      46.600  22.374  35.975  1.00  0.00     0.124 S 
ATOM     85  O   UNL A   1      47.725  21.472  35.752  1.00  0.00    -0.237 OA
ATOM     86  O   UNL A   1      46.644  23.157  37.205  1.00  0.00    -0.237 OA
ATOM     87  O   UNL A   1      45.288  21.824  35.638  1.00  0.00    -0.744 OA
ENDBRANCH  80  84
ENDBRANCH  54  77
ENDBRANCH  28  29
ENDBRANCH  20  23
ENDBRANCH  18  19
ENDBRANCH   1  18
TORSDOF 15
ENDMDL
MODEL 3
REMARK VINA RESULT:     -11.0      2.479      3.451
REMARK SMILES COc1c(Br)cc(C)cc1C(=O)NCCCCNC(=O)c1ccc(-c2c3nc(c(-c4cc(S(=O)(=O)[O-])ccc4F)c4ccc([nH]4)c(-c4cc(S(=O)(=O)[O-])ccc4F)c4nc(c(-c5cc(S(=O)(=O)[O-])ccc5F)c5ccc2[nH]5)C=C4)C=C3)cc1
REMARK SMILES IDX 16 1 15 2 14 3 13 4 11 5 12 6 10 8 3 9 4 10 5 11 6 12 9 13
REMARK SMILES IDX 7 14 8 15 2 16 1 17 17 18 18 19 19 20 20 22 21 23 22 24
REMARK SMILES IDX 83 25 23 26 82 27 24 28 25 29 26 30 76 31 27 32 81 33 75 34
REMARK SMILES IDX 77 35 28 36 80 37 74 38 73 39 29 41 61 42 41 43 60 44 42 45
REMARK SMILES IDX 45 46 59 47 78 48 43 49 44 50 58 52 79 53 46 54 30 55 31 56
REMARK SMILES IDX 39 57 32 58 38 59 40 60 37 61 33 62 34 63 35 64 36 65 62 66
REMARK SMILES IDX 63 67 71 68 64 69 70 70 72 71 69 72 65 73 66 74 67 75 68 76
REMARK SMILES IDX 47 77 48 78 56 79 49 80 55 81 57 82 54 83 50 84 51 85 52 86
REMARK SMILES IDX 53 87
REMARK H PARENT 13 7 18 21 77 40 45 51
REMARK Flexibility Score: inf
ROOT
ATOM      1  C   UNL A   1      31.426  32.077  26.895  1.00  0.00     0.023 C 
ENDROOT
BRANCH   1   2
ATOM      2  C   UNL A   1      31.456  30.862  25.958  1.00  0.00     0.023 C 
BRANCH   2   3
ATOM      3  C   UNL A   1      32.750  30.048  26.024  1.00  0.00     0.116 C 
BRANCH   3   4
ATOM      4  N   UNL A   1      33.209  29.698  24.696  1.00  0.00    -0.352 N 
ATOM      5  C   UNL A   1      33.398  28.529  24.003  1.00  0.00     0.255 C 
ATOM      6  O   UNL A   1      33.788  28.699  22.847  1.00  0.00    -0.269 OA
ATOM      7  H   UNL A   1      33.441  30.491  24.160  1.00  0.00     0.163 HD
BRANCH   5   8
ATOM      8  C   UNL A   1      33.138  27.142  24.538  1.00  0.00     0.083 A 
ATOM      9  C   UNL A   1      31.831  26.756  24.916  1.00  0.00     0.145 A 
ATOM     10  C   UNL A   1      31.611  25.528  25.572  1.00  0.00     0.061 A 
ATOM     11  Br  UNL A   1      29.879  25.002  26.160  1.00  0.00    -0.047 Br
ATOM     12  C   UNL A   1      32.666  24.655  25.827  1.00  0.00     0.023 A 
ATOM     13  C   UNL A   1      34.158  26.194  24.723  1.00  0.00     0.021 A 
ATOM     14  C   UNL A   1      33.950  24.981  25.399  1.00  0.00    -0.049 A 
ATOM     15  C   UNL A   1      35.101  24.062  25.697  1.00  0.00     0.044 C 
BRANCH   9  16
ATOM     16  O   UNL A   1      30.739  27.571  24.731  1.00  0.00    -0.495 OA
ATOM     17  C   UNL A   1      30.195  27.411  23.417  1.00  0.00     0.278 C 
ENDBRANCH   9  16
ENDBRANCH   5   8
ENDBRANCH   3   4
ENDBRANCH   2   3
ENDBRANCH   1   2
BRANCH   1  18
ATOM     18  C   UNL A   1      32.757  32.808  27.047  1.00  0.00     0.116 C 
BRANCH  18  19
ATOM     19  N   UNL A   1      32.637  34.076  27.745  1.00  0.00    -0.352 N 
ATOM     20  C   UNL A   1      33.395  34.550  28.792  1.00  0.00     0.251 C 
ATOM     21  H   UNL A   1      31.921  34.674  27.430  1.00  0.00     0.163 HD
ATOM     22  O   UNL A   1      33.090  35.592  29.346  1.00  0.00    -0.269 OA
BRANCH  20  23
ATOM     23  C   UNL A   1      34.548  33.748  29.256  1.00  0.00     0.039 A 
ATOM     24  C   UNL A   1      35.833  34.134  28.870  1.00  0.00     0.014 A 
ATOM     25  C   UNL A   1      34.361  32.644  30.092  1.00  0.00     0.014 A 
ATOM     26  C   UNL A   1      36.939  33.443  29.369  1.00  0.00     0.010 A 
ATOM     27  C   UNL A   1      35.464  32.006  30.648  1.00  0.00     0.010 A 
ATOM     28  C   UNL A   1      36.763  32.392  30.284  1.00  0.00    -0.014 A 
BRANCH  28  29
ATOM     29  C   UNL A   1      37.926  31.657  30.841  1.00  0.00     0.031 A 
ATOM     30  C   UNL A   1      38.394  31.952  32.240  1.00  0.00     0.074 A 
ATOM     31  C   UNL A   1      38.588  30.769  30.076  1.00  0.00     0.049 A 
ATOM     32  N   UNL A   1      39.414  31.461  32.896  1.00  0.00    -0.248 NA
ATOM     33  C   UNL A   1      37.629  32.963  32.984  1.00  0.00     0.031 C 
ATOM     34  C   UNL A   1      38.251  30.430  28.691  1.00  0.00     0.029 A 
ATOM     35  N   UNL A   1      39.682  29.990  30.352  1.00  0.00    -0.354 N 
ATOM     36  C   UNL A   1      39.421  32.114  34.124  1.00  0.00     0.074 A 
ATOM     37  C   UNL A   1      38.354  33.091  34.083  1.00  0.00     0.031 C 
ATOM     38  C   UNL A   1      39.095  29.480  28.255  1.00  0.00     0.029 A 
ATOM     39  C   UNL A   1      40.056  29.175  29.310  1.00  0.00     0.049 A 
ATOM     40  H   UNL A   1      40.155  30.012  31.215  1.00  0.00     0.167 HD
ATOM     41  C   UNL A   1      40.219  31.895  35.200  1.00  0.00     0.034 A 
ATOM     42  C   UNL A   1      41.060  28.280  29.220  1.00  0.00     0.034 A 
ATOM     43  C   UNL A   1      41.275  30.911  35.221  1.00  0.00     0.049 A 
ATOM     44  C   UNL A   1      41.960  28.076  30.413  1.00  0.00     0.074 A 
ATOM     45  C   UNL A   1      42.123  30.572  36.261  1.00  0.00     0.029 A 
ATOM     46  N   UNL A   1      41.635  30.111  34.142  1.00  0.00    -0.354 N 
ATOM     47  N   UNL A   1      41.927  28.663  31.587  1.00  0.00    -0.248 NA
ATOM     48  C   UNL A   1      43.025  27.076  30.268  1.00  0.00     0.031 C 
ATOM     49  C   UNL A   1      43.032  29.616  35.794  1.00  0.00     0.029 A 
ATOM     50  C   UNL A   1      42.707  29.300  34.483  1.00  0.00     0.049 A 
ATOM     51  H   UNL A   1      41.193  30.119  33.263  1.00  0.00     0.167 HD
ATOM     52  C   UNL A   1      42.942  28.073  32.335  1.00  0.00     0.074 A 
ATOM     53  C   UNL A   1      43.561  27.081  31.479  1.00  0.00     0.031 C 
ATOM     54  C   UNL A   1      43.321  28.321  33.615  1.00  0.00     0.034 A 
BRANCH  41  55
ATOM     55  C   UNL A   1      39.984  32.763  36.416  1.00  0.00     0.023 A 
ATOM     56  C   UNL A   1      39.175  32.330  37.482  1.00  0.00     0.031 A 
ATOM     57  C   UNL A   1      40.504  34.068  36.479  1.00  0.00     0.131 A 
ATOM     58  C   UNL A   1      38.814  33.225  38.501  1.00  0.00     0.055 A 
ATOM     59  C   UNL A   1      40.224  34.922  37.549  1.00  0.00     0.041 A 
ATOM     60  F   UNL A   1      41.267  34.550  35.486  1.00  0.00    -0.206 F 
ATOM     61  C   UNL A   1      39.355  34.510  38.556  1.00  0.00     0.022 A 
BRANCH  58  62
ATOM     62  S   UNL A   1      37.475  32.751  39.630  1.00  0.00     0.124 S 
ATOM     63  O   UNL A   1      37.490  33.856  40.586  1.00  0.00    -0.237 OA
ATOM     64  O   UNL A   1      36.321  32.690  38.742  1.00  0.00    -0.237 OA
ATOM     65  O   UNL A   1      37.918  31.467  40.168  1.00  0.00    -0.744 OA
ENDBRANCH  58  62
ENDBRANCH  41  55
BRANCH  42  66
ATOM     66  C   UNL A   1      41.255  27.488  27.974  1.00  0.00     0.023 A 
ATOM     67  C   UNL A   1      40.928  26.123  27.937  1.00  0.00     0.031 A 
ATOM     68  C   UNL A   1      41.794  28.070  26.814  1.00  0.00     0.131 A 
ATOM     69  C   UNL A   1      41.182  25.374  26.777  1.00  0.00     0.055 A 
ATOM     70  C   UNL A   1      42.001  27.332  25.648  1.00  0.00     0.041 A 
ATOM     71  F   UNL A   1      42.115  29.374  26.796  1.00  0.00    -0.206 F 
ATOM     72  C   UNL A   1      41.706  25.972  25.629  1.00  0.00     0.022 A 
BRANCH  69  73
ATOM     73  S   UNL A   1      40.876  23.587  26.814  1.00  0.00     0.124 S 
ATOM     74  O   UNL A   1      41.879  23.094  25.876  1.00  0.00    -0.237 OA
ATOM     75  O   UNL A   1      41.101  23.269  28.220  1.00  0.00    -0.237 OA
ATOM     76  O   UNL A   1      39.490  23.470  26.366  1.00  0.00    -0.744 OA
ENDBRANCH  69  73
ENDBRANCH  42  66
BRANCH  54  77
ATOM     77  C   UNL A   1      44.424  27.457  34.180  1.00  0.00     0.023 A 
ATOM     78  C   UNL A   1      44.165  26.195  34.744  1.00  0.00     0.031 A 
ATOM     79  C   UNL A   1      45.752  27.919  34.172  1.00  0.00     0.131 A 
ATOM     80  C   UNL A   1      45.210  25.466  35.331  1.00  0.00     0.055 A 
ATOM     81  C   UNL A   1      46.797  27.162  34.700  1.00  0.00     0.041 A 
ATOM     82  F   UNL A   1      46.056  29.117  33.649  1.00  0.00    -0.206 F 
ATOM     83  C   UNL A   1      46.527  25.933  35.297  1.00  0.00     0.022 A 
BRANCH  80  84
ATOM     84  S   UNL A   1      44.813  23.942  36.231  1.00  0.00     0.124 S 
ATOM     85  O   UNL A   1      45.914  23.066  35.844  1.00  0.00    -0.237 OA
ATOM     86  O   UNL A   1      44.813  24.391  37.620  1.00  0.00    -0.237 OA
ATOM     87  O   UNL A   1      43.504  23.563  35.704  1.00  0.00    -0.744 OA
ENDBRANCH  80  84
ENDBRANCH  54  77
ENDBRANCH  28  29
ENDBRANCH  20  23
ENDBRANCH  18  19
ENDBRANCH   1  18
TORSDOF 15
ENDMDL
