MODEL 1
REMARK VINA RESULT:     -13.1      0.000      0.000
REMARK SMILES O=C(COc1ccc(Cl)c2ccccc12)N[C@@H](Cc1c[nH]c2ccccc12)C(=O)NCCCCNC(=O)c1ccc(-c2c3nc(c(-c4cc(S(=O)(=O)[O-])ccc4F)c4ccc([nH]4)c(-c4cc(S(=O)(=O)[O-])ccc4F)c4nc(c(-c5cc(S(=O)(=O)[O-])ccc5F)c5ccc2[nH]5)C=C4)C=C3)cc1
REMARK SMILES IDX 32 1 31 2 30 3 28 4 29 5 17 7 16 8 1 9 2 10 3 12 4 13 5 14
REMARK SMILES IDX 6 15 15 16 7 17 10 18 14 19 8 20 11 21 13 22 9 23 12 24
REMARK SMILES IDX 18 25 19 26 20 27 27 28 21 29 22 30 26 31 23 33 25 34 24 35
REMARK SMILES IDX 33 36 34 37 35 38 36 39 37 41 38 42 39 43 100 44 40 45 99 46
REMARK SMILES IDX 41 47 42 48 43 49 93 50 44 51 98 52 92 53 94 54 45 55 97 56
REMARK SMILES IDX 91 57 90 58 46 60 78 61 58 62 77 63 59 64 62 65 76 66 95 67
REMARK SMILES IDX 60 68 61 69 75 71 96 72 63 73 47 74 48 75 56 76 49 77 55 78
REMARK SMILES IDX 57 79 54 80 50 81 51 82 52 83 53 84 79 85 80 86 88 87 81 88
REMARK SMILES IDX 87 89 89 90 86 91 82 92 83 93 84 94 85 95 64 96 65 97 73 98
REMARK SMILES IDX 66 99 72 100 74 101 71 102 67 103 68 104 69 105 70 106
REMARK H PARENT 30 6 16 11 21 32 35 40 94 59 62 70
REMARK Flexibility Score: inf
ROOT
ATOM      1  C   UNL A   1      31.481  30.961  25.902  1.00  0.00     0.023 C 
ENDROOT
BRANCH   1   2
ATOM      2  C   UNL A   1      31.896  29.740  25.095  1.00  0.00     0.116 C 
BRANCH   2   3
ATOM      3  N   UNL A   1      31.287  29.659  23.782  1.00  0.00    -0.354 N 
ATOM      4  C   UNL A   1      30.576  28.641  23.209  1.00  0.00     0.242 C 
ATOM      5  O   UNL A   1      29.784  28.954  22.313  1.00  0.00    -0.273 OA
ATOM      6  H   UNL A   1      31.403  30.458  23.218  1.00  0.00     0.163 HD
BRANCH   4   7
ATOM      7  C   UNL A   1      30.677  27.166  23.673  1.00  0.00     0.175 C 
BRANCH   7   8
ATOM      8  N   UNL A   1      31.179  26.293  22.607  1.00  0.00    -0.341 N 
ATOM      9  O   UNL A   1      33.352  27.046  22.622  1.00  0.00    -0.271 OA
ATOM     10  C   UNL A   1      32.526  26.186  22.329  1.00  0.00     0.258 C 
ATOM     11  H   UNL A   1      30.539  25.769  22.074  1.00  0.00     0.164 HD
BRANCH  10  12
ATOM     12  C   UNL A   1      32.918  24.875  21.644  1.00  0.00     0.329 C 
BRANCH  12  13
ATOM     13  O   UNL A   1      34.071  24.256  22.226  1.00  0.00    -0.483 OA
BRANCH  13  14
ATOM     14  C   UNL A   1      33.757  23.122  22.948  1.00  0.00     0.128 A 
ATOM     15  C   UNL A   1      32.447  22.640  22.944  1.00  0.00     0.048 A 
ATOM     16  C   UNL A   1      34.790  22.410  23.603  1.00  0.00     0.025 A 
ATOM     17  C   UNL A   1      32.129  21.479  23.638  1.00  0.00     0.025 A 
ATOM     18  C   UNL A   1      34.471  21.218  24.311  1.00  0.00     0.004 A 
ATOM     19  C   UNL A   1      36.134  22.844  23.579  1.00  0.00     0.012 A 
ATOM     20  C   UNL A   1      33.123  20.779  24.321  1.00  0.00     0.049 A 
ATOM     21  C   UNL A   1      35.517  20.522  24.963  1.00  0.00     0.010 A 
ATOM     22  C   UNL A   1      37.145  22.135  24.229  1.00  0.00     0.001 A 
ATOM     23  Cl  UNL A   1      32.622  19.348  25.165  1.00  0.00    -0.084 Cl
ATOM     24  C   UNL A   1      36.837  20.974  24.922  1.00  0.00     0.001 A 
ENDBRANCH  13  14
ENDBRANCH  12  13
ENDBRANCH  10  12
ENDBRANCH   7   8
BRANCH   7  25
ATOM     25  C   UNL A   1      31.310  26.974  25.062  1.00  0.00     0.072 C 
BRANCH  25  26
ATOM     26  C   UNL A   1      31.137  25.634  25.706  1.00  0.00    -0.020 A 
ATOM     27  C   UNL A   1      29.932  25.008  25.974  1.00  0.00     0.087 A 
ATOM     28  C   UNL A   1      32.168  24.746  26.152  1.00  0.00     0.003 A 
ATOM     29  N   UNL A   1      30.190  23.836  26.634  1.00  0.00    -0.361 N 
ATOM     30  C   UNL A   1      31.546  23.668  26.784  1.00  0.00     0.046 A 
ATOM     31  C   UNL A   1      33.577  24.778  26.108  1.00  0.00     0.010 A 
ATOM     32  H   UNL A   1      29.504  23.206  26.955  1.00  0.00     0.166 HD
ATOM     33  C   UNL A   1      32.260  22.648  27.422  1.00  0.00     0.026 A 
ATOM     34  C   UNL A   1      34.307  23.749  26.712  1.00  0.00     0.001 A 
ATOM     35  C   UNL A   1      33.655  22.708  27.373  1.00  0.00     0.002 A 
ENDBRANCH  25  26
ENDBRANCH   7  25
ENDBRANCH   4   7
ENDBRANCH   2   3
ENDBRANCH   1   2
BRANCH   1  36
ATOM     36  C   UNL A   1      32.217  31.130  27.231  1.00  0.00     0.023 C 
BRANCH  36  37
ATOM     37  C   UNL A   1      33.302  32.206  27.272  1.00  0.00     0.116 C 
BRANCH  37  38
ATOM     38  N   UNL A   1      32.806  33.541  27.582  1.00  0.00    -0.352 N 
ATOM     39  C   UNL A   1      33.249  34.426  28.543  1.00  0.00     0.251 C 
ATOM     40  H   UNL A   1      32.053  33.853  27.031  1.00  0.00     0.163 HD
ATOM     41  O   UNL A   1      32.679  35.494  28.705  1.00  0.00    -0.269 OA
BRANCH  39  42
ATOM     42  C   UNL A   1      34.399  34.046  29.394  1.00  0.00     0.039 A 
ATOM     43  C   UNL A   1      34.169  33.283  30.541  1.00  0.00     0.014 A 
ATOM     44  C   UNL A   1      35.701  34.389  29.023  1.00  0.00     0.014 A 
ATOM     45  C   UNL A   1      35.256  32.786  31.268  1.00  0.00     0.010 A 
ATOM     46  C   UNL A   1      36.781  33.839  29.709  1.00  0.00     0.010 A 
ATOM     47  C   UNL A   1      36.570  33.020  30.830  1.00  0.00    -0.014 A 
BRANCH  47  48
ATOM     48  C   UNL A   1      37.737  32.400  31.514  1.00  0.00     0.031 A 
ATOM     49  C   UNL A   1      38.471  31.259  30.867  1.00  0.00     0.074 A 
ATOM     50  C   UNL A   1      38.080  32.808  32.752  1.00  0.00     0.049 A 
ATOM     51  N   UNL A   1      39.444  30.523  31.342  1.00  0.00    -0.248 NA
ATOM     52  C   UNL A   1      38.029  30.874  29.520  1.00  0.00     0.031 C 
ATOM     53  C   UNL A   1      37.415  33.873  33.507  1.00  0.00     0.029 A 
ATOM     54  N   UNL A   1      39.065  32.366  33.602  1.00  0.00    -0.354 N 
ATOM     55  C   UNL A   1      39.721  29.580  30.359  1.00  0.00     0.074 A 
ATOM     56  C   UNL A   1      38.770  29.801  29.289  1.00  0.00     0.031 C 
ATOM     57  C   UNL A   1      38.021  34.012  34.698  1.00  0.00     0.029 A 
ATOM     58  C   UNL A   1      39.087  33.022  34.811  1.00  0.00     0.049 A 
ATOM     59  H   UNL A   1      39.695  31.647  33.367  1.00  0.00     0.167 HD
ATOM     60  C   UNL A   1      40.693  28.632  30.339  1.00  0.00     0.034 A 
ATOM     61  C   UNL A   1      39.869  32.840  35.894  1.00  0.00     0.034 A 
ATOM     62  C   UNL A   1      41.641  28.431  31.408  1.00  0.00     0.049 A 
ATOM     63  C   UNL A   1      40.931  31.769  35.857  1.00  0.00     0.074 A 
ATOM     64  C   UNL A   1      42.703  27.543  31.464  1.00  0.00     0.029 A 
ATOM     65  N   UNL A   1      41.640  29.121  32.614  1.00  0.00    -0.354 N 
ATOM     66  N   UNL A   1      41.215  30.920  34.897  1.00  0.00    -0.248 NA
ATOM     67  C   UNL A   1      41.781  31.641  37.048  1.00  0.00     0.031 C 
ATOM     68  C   UNL A   1      43.302  27.652  32.724  1.00  0.00     0.029 A 
ATOM     69  C   UNL A   1      42.662  28.658  33.430  1.00  0.00     0.049 A 
ATOM     70  H   UNL A   1      41.007  29.835  32.854  1.00  0.00     0.167 HD
ATOM     71  C   UNL A   1      42.296  30.175  35.360  1.00  0.00     0.074 A 
ATOM     72  C   UNL A   1      42.620  30.685  36.677  1.00  0.00     0.031 C 
ATOM     73  C   UNL A   1      42.964  29.163  34.749  1.00  0.00     0.034 A 
BRANCH  60  74
ATOM     74  C   UNL A   1      40.753  27.731  29.128  1.00  0.00     0.023 A 
ATOM     75  C   UNL A   1      41.692  27.937  28.102  1.00  0.00     0.031 A 
ATOM     76  C   UNL A   1      39.835  26.677  28.976  1.00  0.00     0.131 A 
ATOM     77  C   UNL A   1      41.637  27.162  26.934  1.00  0.00     0.055 A 
ATOM     78  C   UNL A   1      39.842  25.852  27.849  1.00  0.00     0.041 A 
ATOM     79  F   UNL A   1      38.902  26.442  29.912  1.00  0.00    -0.206 F 
ATOM     80  C   UNL A   1      40.734  26.104  26.811  1.00  0.00     0.022 A 
BRANCH  77  81
ATOM     81  S   UNL A   1      42.656  27.661  25.519  1.00  0.00     0.124 S 
ATOM     82  O   UNL A   1      42.559  26.484  24.659  1.00  0.00    -0.237 OA
ATOM     83  O   UNL A   1      41.973  28.857  25.044  1.00  0.00    -0.237 OA
ATOM     84  O   UNL A   1      43.974  27.886  26.110  1.00  0.00    -0.744 OA
ENDBRANCH  77  81
ENDBRANCH  60  74
BRANCH  61  85
ATOM     85  C   UNL A   1      39.678  33.677  37.112  1.00  0.00     0.023 A 
ATOM     86  C   UNL A   1      40.501  34.785  37.363  1.00  0.00     0.031 A 
ATOM     87  C   UNL A   1      38.694  33.356  38.064  1.00  0.00     0.131 A 
ATOM     88  C   UNL A   1      40.353  35.509  38.556  1.00  0.00     0.055 A 
ATOM     89  C   UNL A   1      38.519  34.108  39.227  1.00  0.00     0.041 A 
ATOM     90  F   UNL A   1      37.876  32.308  37.868  1.00  0.00    -0.206 F 
ATOM     91  C   UNL A   1      39.361  35.185  39.484  1.00  0.00     0.022 A 
BRANCH  88  92
ATOM     92  S   UNL A   1      41.529  36.843  38.912  1.00  0.00     0.124 S 
ATOM     93  O   UNL A   1      42.194  37.006  37.624  1.00  0.00    -0.237 OA
ATOM     94  O   UNL A   1      40.642  37.929  39.318  1.00  0.00    -0.237 OA
ATOM     95  O   UNL A   1      42.361  36.289  39.979  1.00  0.00    -0.744 OA
ENDBRANCH  88  92
ENDBRANCH  61  85
BRANCH  73  96
ATOM     96  C   UNL A   1      44.138  28.574  35.490  1.00  0.00     0.023 A 
ATOM     97  C   UNL A   1      43.981  27.522  36.409  1.00  0.00     0.031 A 
ATOM     98  C   UNL A   1      45.433  29.084  35.283  1.00  0.00     0.131 A 
ATOM     99  C   UNL A   1      45.091  27.048  37.126  1.00  0.00     0.055 A 
ATOM    100  C   UNL A   1      46.541  28.571  35.957  1.00  0.00     0.041 A 
ATOM    101  F   UNL A   1      45.641  30.090  34.419  1.00  0.00    -0.206 F 
ATOM    102  C   UNL A   1      46.372  27.556  36.894  1.00  0.00     0.022 A 
BRANCH  99 103
ATOM    103  S   UNL A   1      44.824  25.817  38.431  1.00  0.00     0.124 S 
ATOM    104  O   UNL A   1      44.089  24.776  37.721  1.00  0.00    -0.237 OA
ATOM    105  O   UNL A   1      46.189  25.478  38.825  1.00  0.00    -0.237 OA
ATOM    106  O   UNL A   1      44.053  26.544  39.437  1.00  0.00    -0.744 OA
ENDBRANCH  99 103
ENDBRANCH  73  96
ENDBRANCH  47  48
ENDBRANCH  39  42
ENDBRANCH  37  38
ENDBRANCH  36  37
ENDBRANCH   1  36
TORSDOF 20
ENDMDL
MODEL 2
REMARK VINA RESULT:     -12.9      5.610     10.562
REMARK SMILES O=C(COc1ccc(Cl)c2ccccc12)N[C@@H](Cc1c[nH]c2ccccc12)C(=O)NCCCCNC(=O)c1ccc(-c2c3nc(c(-c4cc(S(=O)(=O)[O-])ccc4F)c4ccc([nH]4)c(-c4cc(S(=O)(=O)[O-])ccc4F)c4nc(c(-c5cc(S(=O)(=O)[O-])ccc5F)c5ccc2[nH]5)C=C4)C=C3)cc1
REMARK SMILES IDX 32 1 31 2 30 3 28 4 29 5 17 7 16 8 1 9 2 10 3 12 4 13 5 14
REMARK SMILES IDX 6 15 15 16 7 17 10 18 14 19 8 20 11 21 13 22 9 23 12 24
REMARK SMILES IDX 18 25 19 26 20 27 27 28 21 29 22 30 26 31 23 33 25 34 24 35
REMARK SMILES IDX 33 36 34 37 35 38 36 39 37 41 38 42 39 43 100 44 40 45 99 46
REMARK SMILES IDX 41 47 42 48 43 49 93 50 44 51 98 52 92 53 94 54 45 55 97 56
REMARK SMILES IDX 91 57 90 58 46 60 78 61 58 62 77 63 59 64 62 65 76 66 95 67
REMARK SMILES IDX 60 68 61 69 75 71 96 72 63 73 47 74 48 75 56 76 49 77 55 78
REMARK SMILES IDX 57 79 54 80 50 81 51 82 52 83 53 84 79 85 80 86 88 87 81 88
REMARK SMILES IDX 87 89 89 90 86 91 82 92 83 93 84 94 85 95 64 96 65 97 73 98
REMARK SMILES IDX 66 99 72 100 74 101 71 102 67 103 68 104 69 105 70 106
REMARK H PARENT 30 6 16 11 21 32 35 40 94 59 62 70
REMARK Flexibility Score: inf
ROOT
ATOM      1  C   UNL A   1      36.693  23.195  23.646  1.00  0.00     0.023 C 
ENDROOT
BRANCH   1   2
ATOM      2  C   UNL A   1      35.337  23.763  24.041  1.00  0.00     0.116 C 
BRANCH   2   3
ATOM      3  N   UNL A   1      34.355  23.755  22.975  1.00  0.00    -0.354 N 
ATOM      4  C   UNL A   1      33.060  23.314  22.981  1.00  0.00     0.242 C 
ATOM      5  O   UNL A   1      32.299  23.816  22.146  1.00  0.00    -0.273 OA
ATOM      6  H   UNL A   1      34.667  24.123  22.117  1.00  0.00     0.163 HD
BRANCH   4   7
ATOM      7  C   UNL A   1      32.516  22.289  24.008  1.00  0.00     0.175 C 
BRANCH   7   8
ATOM      8  N   UNL A   1      31.349  22.809  24.730  1.00  0.00    -0.341 N 
ATOM      9  O   UNL A   1      32.341  22.960  26.800  1.00  0.00    -0.271 OA
ATOM     10  C   UNL A   1      31.446  23.282  26.022  1.00  0.00     0.258 C 
ATOM     11  H   UNL A   1      30.473  22.819  24.282  1.00  0.00     0.164 HD
BRANCH  10  12
ATOM     12  C   UNL A   1      30.350  24.279  26.403  1.00  0.00     0.329 C 
BRANCH  12  13
ATOM     13  O   UNL A   1      30.860  25.565  26.774  1.00  0.00    -0.483 OA
BRANCH  13  14
ATOM     14  C   UNL A   1      30.753  26.493  25.758  1.00  0.00     0.128 A 
ATOM     15  C   UNL A   1      30.069  26.161  24.588  1.00  0.00     0.048 A 
ATOM     16  C   UNL A   1      31.256  27.800  25.958  1.00  0.00     0.025 A 
ATOM     17  C   UNL A   1      29.923  27.100  23.574  1.00  0.00     0.025 A 
ATOM     18  C   UNL A   1      31.106  28.768  24.925  1.00  0.00     0.004 A 
ATOM     19  C   UNL A   1      31.906  28.181  27.153  1.00  0.00     0.012 A 
ATOM     20  C   UNL A   1      30.441  28.385  23.734  1.00  0.00     0.049 A 
ATOM     21  C   UNL A   1      31.620  30.069  25.143  1.00  0.00     0.010 A 
ATOM     22  C   UNL A   1      32.400  29.473  27.340  1.00  0.00     0.001 A 
ATOM     23  Cl  UNL A   1      30.218  29.480  22.407  1.00  0.00    -0.084 Cl
ATOM     24  C   UNL A   1      32.258  30.417  26.334  1.00  0.00     0.001 A 
ENDBRANCH  13  14
ENDBRANCH  12  13
ENDBRANCH  10  12
ENDBRANCH   7   8
BRANCH   7  25
ATOM     25  C   UNL A   1      32.400  20.850  23.478  1.00  0.00     0.072 C 
BRANCH  25  26
ATOM     26  C   UNL A   1      32.669  19.745  24.450  1.00  0.00    -0.020 A 
ATOM     27  C   UNL A   1      32.473  19.799  25.819  1.00  0.00     0.087 A 
ATOM     28  C   UNL A   1      33.161  18.433  24.158  1.00  0.00     0.003 A 
ATOM     29  N   UNL A   1      32.905  18.620  26.366  1.00  0.00    -0.361 N 
ATOM     30  C   UNL A   1      33.359  17.781  25.377  1.00  0.00     0.046 A 
ATOM     31  C   UNL A   1      33.489  17.750  22.970  1.00  0.00     0.010 A 
ATOM     32  H   UNL A   1      32.893  18.405  27.328  1.00  0.00     0.166 HD
ATOM     33  C   UNL A   1      33.922  16.503  25.471  1.00  0.00     0.026 A 
ATOM     34  C   UNL A   1      34.022  16.458  23.043  1.00  0.00     0.001 A 
ATOM     35  C   UNL A   1      34.248  15.852  24.278  1.00  0.00     0.002 A 
ENDBRANCH  25  26
ENDBRANCH   7  25
ENDBRANCH   4   7
ENDBRANCH   2   3
ENDBRANCH   1   2
BRANCH   1  36
ATOM     36  C   UNL A   1      36.906  21.729  24.023  1.00  0.00     0.023 C 
BRANCH  36  37
ATOM     37  C   UNL A   1      37.277  21.453  25.480  1.00  0.00     0.116 C 
BRANCH  37  38
ATOM     38  N   UNL A   1      38.306  20.436  25.650  1.00  0.00    -0.352 N 
ATOM     39  C   UNL A   1      39.569  20.565  26.192  1.00  0.00     0.251 C 
ATOM     40  H   UNL A   1      38.069  19.533  25.337  1.00  0.00     0.163 HD
ATOM     41  O   UNL A   1      40.331  19.610  26.209  1.00  0.00    -0.269 OA
BRANCH  39  42
ATOM     42  C   UNL A   1      39.993  21.882  26.717  1.00  0.00     0.039 A 
ATOM     43  C   UNL A   1      40.992  21.932  27.692  1.00  0.00     0.014 A 
ATOM     44  C   UNL A   1      39.451  23.061  26.199  1.00  0.00     0.014 A 
ATOM     45  C   UNL A   1      41.512  23.169  28.084  1.00  0.00     0.010 A 
ATOM     46  C   UNL A   1      40.015  24.287  26.543  1.00  0.00     0.010 A 
ATOM     47  C   UNL A   1      41.061  24.354  27.477  1.00  0.00    -0.014 A 
BRANCH  47  48
ATOM     48  C   UNL A   1      41.684  25.669  27.787  1.00  0.00     0.031 A 
ATOM     49  C   UNL A   1      40.904  26.717  28.531  1.00  0.00     0.074 A 
ATOM     50  C   UNL A   1      42.919  25.949  27.324  1.00  0.00     0.049 A 
ATOM     51  N   UNL A   1      41.231  27.953  28.809  1.00  0.00    -0.248 NA
ATOM     52  C   UNL A   1      39.564  26.330  28.994  1.00  0.00     0.031 C 
ATOM     53  C   UNL A   1      43.759  25.034  26.548  1.00  0.00     0.029 A 
ATOM     54  N   UNL A   1      43.678  27.088  27.426  1.00  0.00    -0.354 N 
ATOM     55  C   UNL A   1      40.134  28.497  29.466  1.00  0.00     0.074 A 
ATOM     56  C   UNL A   1      39.111  27.472  29.489  1.00  0.00     0.031 C 
ATOM     57  C   UNL A   1      44.922  25.642  26.259  1.00  0.00     0.029 A 
ATOM     58  C   UNL A   1      44.896  27.001  26.791  1.00  0.00     0.049 A 
ATOM     59  H   UNL A   1      43.379  27.893  27.908  1.00  0.00     0.167 HD
ATOM     60  C   UNL A   1      39.999  29.729  30.021  1.00  0.00     0.034 A 
ATOM     61  C   UNL A   1      45.875  27.915  26.642  1.00  0.00     0.034 A 
ATOM     62  C   UNL A   1      41.032  30.736  30.001  1.00  0.00     0.049 A 
ATOM     63  C   UNL A   1      45.698  29.283  27.250  1.00  0.00     0.074 A 
ATOM     64  C   UNL A   1      41.024  31.992  30.585  1.00  0.00     0.029 A 
ATOM     65  N   UNL A   1      42.257  30.609  29.357  1.00  0.00    -0.354 N 
ATOM     66  N   UNL A   1      44.674  29.765  27.917  1.00  0.00    -0.248 NA
ATOM     67  C   UNL A   1      46.813  30.226  27.093  1.00  0.00     0.031 C 
ATOM     68  C   UNL A   1      42.213  32.645  30.242  1.00  0.00     0.029 A 
ATOM     69  C   UNL A   1      42.997  31.773  29.504  1.00  0.00     0.049 A 
ATOM     70  H   UNL A   1      42.555  29.808  28.868  1.00  0.00     0.167 HD
ATOM     71  C   UNL A   1      45.035  31.059  28.281  1.00  0.00     0.074 A 
ATOM     72  C   UNL A   1      46.375  31.276  27.773  1.00  0.00     0.031 C 
ATOM     73  C   UNL A   1      44.325  31.983  28.977  1.00  0.00     0.034 A 
BRANCH  60  74
ATOM     74  C   UNL A   1      38.675  30.051  30.672  1.00  0.00     0.023 A 
ATOM     75  C   UNL A   1      37.666  30.748  29.983  1.00  0.00     0.031 A 
ATOM     76  C   UNL A   1      38.432  29.696  32.010  1.00  0.00     0.131 A 
ATOM     77  C   UNL A   1      36.501  31.143  30.657  1.00  0.00     0.055 A 
ATOM     78  C   UNL A   1      37.232  30.016  32.650  1.00  0.00     0.041 A 
ATOM     79  F   UNL A   1      39.363  29.047  32.726  1.00  0.00    -0.206 F 
ATOM     80  C   UNL A   1      36.266  30.759  31.979  1.00  0.00     0.022 A 
BRANCH  77  81
ATOM     81  S   UNL A   1      35.374  32.298  29.828  1.00  0.00     0.124 S 
ATOM     82  O   UNL A   1      36.281  33.384  29.465  1.00  0.00    -0.237 OA
ATOM     83  O   UNL A   1      34.860  31.498  28.724  1.00  0.00    -0.237 OA
ATOM     84  O   UNL A   1      34.400  32.630  30.867  1.00  0.00    -0.744 OA
ENDBRANCH  77  81
ENDBRANCH  60  74
BRANCH  61  85
ATOM     85  C   UNL A   1      47.110  27.580  25.876  1.00  0.00     0.023 A 
ATOM     86  C   UNL A   1      47.201  27.850  24.502  1.00  0.00     0.031 A 
ATOM     87  C   UNL A   1      48.200  26.949  26.500  1.00  0.00     0.131 A 
ATOM     88  C   UNL A   1      48.341  27.452  23.786  1.00  0.00     0.055 A 
ATOM     89  C   UNL A   1      49.352  26.598  25.793  1.00  0.00     0.041 A 
ATOM     90  F   UNL A   1      48.164  26.675  27.815  1.00  0.00    -0.206 F 
ATOM     91  C   UNL A   1      49.422  26.839  24.425  1.00  0.00     0.022 A 
BRANCH  88  92
ATOM     92  S   UNL A   1      48.362  27.685  21.988  1.00  0.00     0.124 S 
ATOM     93  O   UNL A   1      49.488  28.597  21.819  1.00  0.00    -0.237 OA
ATOM     94  O   UNL A   1      48.564  26.321  21.508  1.00  0.00    -0.237 OA
ATOM     95  O   UNL A   1      47.047  28.256  21.703  1.00  0.00    -0.744 OA
ENDBRANCH  88  92
ENDBRANCH  61  85
BRANCH  73  96
ATOM     96  C   UNL A   1      45.009  33.298  29.262  1.00  0.00     0.023 A 
ATOM     97  C   UNL A   1      44.774  34.439  28.475  1.00  0.00     0.031 A 
ATOM     98  C   UNL A   1      45.919  33.404  30.329  1.00  0.00     0.131 A 
ATOM     99  C   UNL A   1      45.482  35.623  28.733  1.00  0.00     0.055 A 
ATOM    100  C   UNL A   1      46.577  34.601  30.616  1.00  0.00     0.041 A 
ATOM    101  F   UNL A   1      46.183  32.346  31.110  1.00  0.00    -0.206 F 
ATOM    102  C   UNL A   1      46.370  35.715  29.808  1.00  0.00     0.022 A 
BRANCH  99 103
ATOM    103  S   UNL A   1      45.290  37.020  27.591  1.00  0.00     0.124 S 
ATOM    104  O   UNL A   1      45.184  38.150  28.508  1.00  0.00    -0.237 OA
ATOM    105  O   UNL A   1      46.518  36.951  26.804  1.00  0.00    -0.237 OA
ATOM    106  O   UNL A   1      44.066  36.699  26.859  1.00  0.00    -0.744 OA
ENDBRANCH  99 103
ENDBRANCH  73  96
ENDBRANCH  47  48
ENDBRANCH  39  42
ENDBRANCH  37  38
ENDBRANCH  36  37
ENDBRANCH   1  36
TORSDOF 20
ENDMDL
MODEL 3
REMARK VINA RESULT:     -12.8      5.374      8.866
REMARK SMILES O=C(COc1ccc(Cl)c2ccccc12)N[C@@H](Cc1c[nH]c2ccccc12)C(=O)NCCCCNC(=O)c1ccc(-c2c3nc(c(-c4cc(S(=O)(=O)[O-])ccc4F)c4ccc([nH]4)c(-c4cc(S(=O)(=O)[O-])ccc4F)c4nc(c(-c5cc(S(=O)(=O)[O-])ccc5F)c5ccc2[nH]5)C=C4)C=C3)cc1
REMARK SMILES IDX 32 1 31 2 30 3 28 4 29 5 17 7 16 8 1 9 2 10 3 12 4 13 5 14
REMARK SMILES IDX 6 15 15 16 7 17 10 18 14 19 8 20 11 21 13 22 9 23 12 24
REMARK SMILES IDX 18 25 19 26 20 27 27 28 21 29 22 30 26 31 23 33 25 34 24 35
REMARK SMILES IDX 33 36 34 37 35 38 36 39 37 41 38 42 39 43 100 44 40 45 99 46
REMARK SMILES IDX 41 47 42 48 43 49 93 50 44 51 98 52 92 53 94 54 45 55 97 56
REMARK SMILES IDX 91 57 90 58 46 60 78 61 58 62 77 63 59 64 62 65 76 66 95 67
REMARK SMILES IDX 60 68 61 69 75 71 96 72 63 73 47 74 48 75 56 76 49 77 55 78
REMARK SMILES IDX 57 79 54 80 50 81 51 82 52 83 53 84 79 85 80 86 88 87 81 88
REMARK SMILES IDX 87 89 89 90 86 91 82 92 83 93 84 94 85 95 64 96 65 97 73 98
REMARK SMILES IDX 66 99 72 100 74 101 71 102 67 103 68 104 69 105 70 106
REMARK H PARENT 30 6 16 11 21 32 35 40 94 59 62 70
REMARK Flexibility Score: inf
ROOT
ATOM      1  C   UNL A   1      36.224  22.949  23.498  1.00  0.00     0.023 C 
ENDROOT
BRANCH   1   2
ATOM      2  C   UNL A   1      35.260  24.043  23.932  1.00  0.00     0.116 C 
BRANCH   2   3
ATOM      3  N   UNL A   1      34.100  24.190  23.076  1.00  0.00    -0.354 N 
ATOM      4  C   UNL A   1      32.816  23.756  23.259  1.00  0.00     0.242 C 
ATOM      5  O   UNL A   1      31.931  24.374  22.657  1.00  0.00    -0.273 OA
ATOM      6  H   UNL A   1      34.262  24.675  22.234  1.00  0.00     0.163 HD
BRANCH   4   7
ATOM      7  C   UNL A   1      32.438  22.597  24.216  1.00  0.00     0.175 C 
BRANCH   7   8
ATOM      8  N   UNL A   1      31.215  22.892  24.970  1.00  0.00    -0.341 N 
ATOM      9  O   UNL A   1      32.237  23.674  26.876  1.00  0.00    -0.271 OA
ATOM     10  C   UNL A   1      31.244  23.592  26.158  1.00  0.00     0.258 C 
ATOM     11  H   UNL A   1      30.349  22.580  24.621  1.00  0.00     0.164 HD
BRANCH  10  12
ATOM     12  C   UNL A   1      29.929  24.297  26.497  1.00  0.00     0.329 C 
BRANCH  12  13
ATOM     13  O   UNL A   1      30.103  25.669  26.870  1.00  0.00    -0.483 OA
BRANCH  13  14
ATOM     14  C   UNL A   1      30.335  26.489  25.784  1.00  0.00     0.128 A 
ATOM     15  C   UNL A   1      29.573  26.333  24.625  1.00  0.00     0.048 A 
ATOM     16  C   UNL A   1      31.276  27.540  25.897  1.00  0.00     0.025 A 
ATOM     17  C   UNL A   1      29.772  27.178  23.539  1.00  0.00     0.025 A 
ATOM     18  C   UNL A   1      31.481  28.411  24.791  1.00  0.00     0.004 A 
ATOM     19  C   UNL A   1      32.022  27.755  27.077  1.00  0.00     0.012 A 
ATOM     20  C   UNL A   1      30.720  28.199  23.615  1.00  0.00     0.049 A 
ATOM     21  C   UNL A   1      32.430  29.453  24.923  1.00  0.00     0.010 A 
ATOM     22  C   UNL A   1      32.949  28.794  27.178  1.00  0.00     0.001 A 
ATOM     23  Cl  UNL A   1      30.902  29.192  22.203  1.00  0.00    -0.084 Cl
ATOM     24  C   UNL A   1      33.154  29.643  26.101  1.00  0.00     0.001 A 
ENDBRANCH  13  14
ENDBRANCH  12  13
ENDBRANCH  10  12
ENDBRANCH   7   8
BRANCH   7  25
ATOM     25  C   UNL A   1      32.530  21.195  23.592  1.00  0.00     0.072 C 
BRANCH  25  26
ATOM     26  C   UNL A   1      32.718  20.045  24.532  1.00  0.00    -0.020 A 
ATOM     27  C   UNL A   1      32.575  20.086  25.907  1.00  0.00     0.087 A 
ATOM     28  C   UNL A   1      33.064  18.698  24.195  1.00  0.00     0.003 A 
ATOM     29  N   UNL A   1      32.903  18.857  26.415  1.00  0.00    -0.361 N 
ATOM     30  C   UNL A   1      33.236  18.000  25.392  1.00  0.00     0.046 A 
ATOM     31  C   UNL A   1      33.281  18.014  22.982  1.00  0.00     0.010 A 
ATOM     32  H   UNL A   1      32.902  18.621  27.371  1.00  0.00     0.166 HD
ATOM     33  C   UNL A   1      33.669  16.670  25.440  1.00  0.00     0.026 A 
ATOM     34  C   UNL A   1      33.682  16.674  23.010  1.00  0.00     0.001 A 
ATOM     35  C   UNL A   1      33.887  16.018  24.223  1.00  0.00     0.002 A 
ENDBRANCH  25  26
ENDBRANCH   7  25
ENDBRANCH   4   7
ENDBRANCH   2   3
ENDBRANCH   1   2
BRANCH   1  36
ATOM     36  C   UNL A   1      36.126  21.653  24.303  1.00  0.00     0.023 C 
BRANCH  36  37
ATOM     37  C   UNL A   1      36.859  21.632  25.644  1.00  0.00     0.116 C 
BRANCH  37  38
ATOM     38  N   UNL A   1      37.941  20.659  25.717  1.00  0.00    -0.352 N 
ATOM     39  C   UNL A   1      39.243  20.843  26.133  1.00  0.00     0.251 C 
ATOM     40  H   UNL A   1      37.711  19.746  25.430  1.00  0.00     0.163 HD
ATOM     41  O   UNL A   1      40.042  19.921  26.080  1.00  0.00    -0.269 OA
BRANCH  39  42
ATOM     42  C   UNL A   1      39.662  22.180  26.611  1.00  0.00     0.039 A 
ATOM     43  C   UNL A   1      40.667  22.269  27.577  1.00  0.00     0.014 A 
ATOM     44  C   UNL A   1      39.106  23.337  26.060  1.00  0.00     0.014 A 
ATOM     45  C   UNL A   1      41.181  23.523  27.923  1.00  0.00     0.010 A 
ATOM     46  C   UNL A   1      39.664  24.578  26.358  1.00  0.00     0.010 A 
ATOM     47  C   UNL A   1      40.716  24.684  27.281  1.00  0.00    -0.014 A 
BRANCH  47  48
ATOM     48  C   UNL A   1      41.332  26.012  27.542  1.00  0.00     0.031 A 
ATOM     49  C   UNL A   1      42.744  26.288  27.109  1.00  0.00     0.074 A 
ATOM     50  C   UNL A   1      40.649  26.939  28.244  1.00  0.00     0.049 A 
ATOM     51  N   UNL A   1      43.490  27.341  27.329  1.00  0.00    -0.248 NA
ATOM     52  C   UNL A   1      43.418  25.222  26.354  1.00  0.00     0.031 C 
ATOM     53  C   UNL A   1      39.288  26.775  28.762  1.00  0.00     0.029 A 
ATOM     54  N   UNL A   1      41.009  28.199  28.655  1.00  0.00    -0.354 N 
ATOM     55  C   UNL A   1      44.724  27.060  26.755  1.00  0.00     0.074 A 
ATOM     56  C   UNL A   1      44.642  25.712  26.231  1.00  0.00     0.031 C 
ATOM     57  C   UNL A   1      38.925  27.896  29.406  1.00  0.00     0.029 A 
ATOM     58  C   UNL A   1      40.036  28.843  29.386  1.00  0.00     0.049 A 
ATOM     59  H   UNL A   1      41.882  28.604  28.447  1.00  0.00     0.167 HD
ATOM     60  C   UNL A   1      45.817  27.859  26.653  1.00  0.00     0.034 A 
ATOM     61  C   UNL A   1      40.042  30.051  29.982  1.00  0.00     0.034 A 
ATOM     62  C   UNL A   1      45.879  29.204  27.170  1.00  0.00     0.049 A 
ATOM     63  C   UNL A   1      41.272  30.916  29.871  1.00  0.00     0.074 A 
ATOM     64  C   UNL A   1      46.912  30.121  27.067  1.00  0.00     0.029 A 
ATOM     65  N   UNL A   1      44.871  29.827  27.895  1.00  0.00    -0.354 N 
ATOM     66  N   UNL A   1      42.414  30.656  29.277  1.00  0.00    -0.248 NA
ATOM     67  C   UNL A   1      41.209  32.239  30.505  1.00  0.00     0.031 C 
ATOM     68  C   UNL A   1      46.554  31.270  27.781  1.00  0.00     0.029 A 
ATOM     69  C   UNL A   1      45.269  31.101  28.271  1.00  0.00     0.049 A 
ATOM     70  H   UNL A   1      44.000  29.422  28.111  1.00  0.00     0.167 HD
ATOM     71  C   UNL A   1      43.195  31.796  29.443  1.00  0.00     0.074 A 
ATOM     72  C   UNL A   1      42.389  32.748  30.180  1.00  0.00     0.031 C 
ATOM     73  C   UNL A   1      44.462  32.036  29.020  1.00  0.00     0.034 A 
BRANCH  60  74
ATOM     74  C   UNL A   1      47.035  27.278  25.975  1.00  0.00     0.023 A 
ATOM     75  C   UNL A   1      48.001  26.550  26.693  1.00  0.00     0.031 A 
ATOM     76  C   UNL A   1      47.257  27.489  24.603  1.00  0.00     0.131 A 
ATOM     77  C   UNL A   1      49.181  26.136  26.059  1.00  0.00     0.055 A 
ATOM     78  C   UNL A   1      48.394  26.997  23.958  1.00  0.00     0.041 A 
ATOM     79  F   UNL A   1      46.382  28.192  23.868  1.00  0.00    -0.206 F 
ATOM     80  C   UNL A   1      49.374  26.332  24.689  1.00  0.00     0.022 A 
BRANCH  77  81
ATOM     81  S   UNL A   1      50.527  25.479  27.083  1.00  0.00     0.124 S 
ATOM     82  O   UNL A   1      51.448  24.975  26.069  1.00  0.00    -0.237 OA
ATOM     83  O   UNL A   1      50.968  26.658  27.818  1.00  0.00    -0.237 OA
ATOM     84  O   UNL A   1      49.872  24.449  27.887  1.00  0.00    -0.744 OA
ENDBRANCH  77  81
ENDBRANCH  60  74
BRANCH  61  85
ATOM     85  C   UNL A   1      38.852  30.520  30.749  1.00  0.00     0.023 A 
ATOM     86  C   UNL A   1      37.792  31.176  30.106  1.00  0.00     0.031 A 
ATOM     87  C   UNL A   1      38.778  30.352  32.143  1.00  0.00     0.131 A 
ATOM     88  C   UNL A   1      36.721  31.679  30.861  1.00  0.00     0.055 A 
ATOM     89  C   UNL A   1      37.688  30.812  32.884  1.00  0.00     0.041 A 
ATOM     90  F   UNL A   1      39.765  29.725  32.805  1.00  0.00    -0.206 F 
ATOM     91  C   UNL A   1      36.656  31.491  32.243  1.00  0.00     0.022 A 
BRANCH  88  92
ATOM     92  S   UNL A   1      35.443  32.648  30.015  1.00  0.00     0.124 S 
ATOM     93  O   UNL A   1      35.166  31.821  28.846  1.00  0.00    -0.237 OA
ATOM     94  O   UNL A   1      34.389  32.707  31.024  1.00  0.00    -0.237 OA
ATOM     95  O   UNL A   1      36.108  33.920  29.737  1.00  0.00    -0.744 OA
ENDBRANCH  88  92
ENDBRANCH  61  85
BRANCH  73  96
ATOM     96  C   UNL A   1      45.033  33.401  29.313  1.00  0.00     0.023 A 
ATOM     97  C   UNL A   1      44.837  34.488  28.443  1.00  0.00     0.031 A 
ATOM     98  C   UNL A   1      45.797  33.613  30.475  1.00  0.00     0.131 A 
ATOM     99  C   UNL A   1      45.443  35.723  28.721  1.00  0.00     0.055 A 
ATOM    100  C   UNL A   1      46.350  34.859  30.775  1.00  0.00     0.041 A 
ATOM    101  F   UNL A   1      46.019  32.610  31.339  1.00  0.00    -0.206 F 
ATOM    102  C   UNL A   1      46.184  35.919  29.889  1.00  0.00     0.022 A 
BRANCH  99 103
ATOM    103  S   UNL A   1      45.319  37.051  27.490  1.00  0.00     0.124 S 
ATOM    104  O   UNL A   1      43.883  37.097  27.236  1.00  0.00    -0.237 OA
ATOM    105  O   UNL A   1      45.878  38.194  28.206  1.00  0.00    -0.237 OA
ATOM    106  O   UNL A   1      46.130  36.562  26.376  1.00  0.00    -0.744 OA
ENDBRANCH  99 103
ENDBRANCH  73  96
ENDBRANCH  47  48
ENDBRANCH  39  42
ENDBRANCH  37  38
ENDBRANCH  36  37
ENDBRANCH   1  36
TORSDOF 20
ENDMDL
