MODEL 1
REMARK VINA RESULT:     -12.0      0.000      0.000
REMARK SMILES CC(=O)O[C@H]1C[C@@H](C(=O)NCCCCNC(=O)c2ccc(-c3c4nc(c(-c5cc(S(=O)(=O)[O-])ccc5F)c5ccc([nH]5)c(-c5cc(S(=O)(=O)[O-])ccc5F)c5nc(c(-c6cc(S(=O)(=O)[O-])ccc6F)c6ccc3[nH]6)C=C5)C=C4)cc2)N(S(=O)(=O)c2ccc(F)cc2)C1
REMARK SMILES IDX 13 1 12 2 11 3 10 4 8 5 9 6 7 8 5 9 6 10 92 11 81 12 4 13
REMARK SMILES IDX 2 14 1 15 3 16 82 17 83 18 84 19 85 20 86 21 91 22 87 23
REMARK SMILES IDX 90 24 88 25 89 26 14 27 15 28 16 29 17 31 18 32 19 33 80 34
REMARK SMILES IDX 20 35 79 36 21 37 22 38 23 39 73 40 24 41 78 42 72 43 74 44
REMARK SMILES IDX 25 45 77 46 71 47 70 48 26 50 58 51 38 52 57 53 39 54 42 55
REMARK SMILES IDX 56 56 75 57 40 58 41 59 55 61 76 62 43 63 27 64 28 65 36 66
REMARK SMILES IDX 29 67 35 68 37 69 34 70 30 71 31 72 32 73 33 74 59 75 60 76
REMARK SMILES IDX 68 77 61 78 67 79 69 80 66 81 62 82 63 83 64 84 65 85 44 86
REMARK SMILES IDX 45 87 53 88 46 89 52 90 54 91 51 92 47 93 48 94 49 95 50 96
REMARK H PARENT 10 7 15 30 74 49 42 60
REMARK Flexibility Score: inf
ROOT
ATOM      1  C   UNL A   1      31.371  32.327  26.573  1.00  0.00     0.023 C 
ENDROOT
BRANCH   1   2
ATOM      2  C   UNL A   1      31.359  30.856  26.131  1.00  0.00     0.023 C 
BRANCH   2   3
ATOM      3  C   UNL A   1      32.746  30.260  25.856  1.00  0.00     0.116 C 
BRANCH   3   4
ATOM      4  N   UNL A   1      32.752  29.550  24.588  1.00  0.00    -0.355 N 
ATOM      5  C   UNL A   1      33.365  28.332  24.444  1.00  0.00     0.238 C 
ATOM      6  O   UNL A   1      34.306  28.247  23.661  1.00  0.00    -0.273 OA
ATOM      7  H   UNL A   1      32.302  29.955  23.811  1.00  0.00     0.163 HD
BRANCH   5   8
ATOM      8  C   UNL A   1      32.849  27.181  25.279  1.00  0.00     0.166 C 
ATOM      9  C   UNL A   1      33.214  24.992  26.131  1.00  0.00     0.193 C 
ATOM     10  C   UNL A   1      33.938  26.129  25.438  1.00  0.00     0.077 C 
ATOM     11  C   UNL A   1      31.802  25.044  25.523  1.00  0.00     0.148 C 
ATOM     12  N   UNL A   1      31.638  26.398  24.877  1.00  0.00    -0.182 NA
BRANCH   9  13
ATOM     13  O   UNL A   1      33.821  23.723  25.817  1.00  0.00    -0.461 OA
BRANCH  13  14
ATOM     14  C   UNL A   1      33.370  22.528  26.260  1.00  0.00     0.302 C 
ATOM     15  C   UNL A   1      33.605  22.187  27.700  1.00  0.00     0.139 C 
ATOM     16  O   UNL A   1      32.759  21.770  25.514  1.00  0.00    -0.253 OA
ENDBRANCH  13  14
ENDBRANCH   9  13
BRANCH  12  17
ATOM     17  S   UNL A   1      31.175  26.268  23.232  1.00  0.00     0.243 S 
ATOM     18  O   UNL A   1      32.337  26.509  22.409  1.00  0.00    -0.207 OA
ATOM     19  O   UNL A   1      30.467  25.006  23.117  1.00  0.00    -0.207 OA
BRANCH  17  20
ATOM     20  C   UNL A   1      29.950  27.531  22.937  1.00  0.00     0.082 A 
ATOM     21  C   UNL A   1      30.359  28.748  22.370  1.00  0.00     0.025 A 
ATOM     22  C   UNL A   1      28.650  27.408  23.441  1.00  0.00     0.025 A 
ATOM     23  C   UNL A   1      29.452  29.806  22.257  1.00  0.00     0.040 A 
ATOM     24  C   UNL A   1      27.731  28.449  23.279  1.00  0.00     0.040 A 
ATOM     25  C   UNL A   1      28.142  29.640  22.694  1.00  0.00     0.123 A 
ATOM     26  F   UNL A   1      27.274  30.653  22.579  1.00  0.00    -0.207 F 
ENDBRANCH  17  20
ENDBRANCH  12  17
ENDBRANCH   5   8
ENDBRANCH   3   4
ENDBRANCH   2   3
ENDBRANCH   1   2
BRANCH   1  27
ATOM     27  C   UNL A   1      32.680  32.803  27.194  1.00  0.00     0.116 C 
BRANCH  27  28
ATOM     28  N   UNL A   1      32.597  34.172  27.672  1.00  0.00    -0.352 N 
ATOM     29  C   UNL A   1      33.291  34.784  28.686  1.00  0.00     0.251 C 
ATOM     30  H   UNL A   1      31.948  34.743  27.200  1.00  0.00     0.163 HD
ATOM     31  O   UNL A   1      32.949  35.903  29.056  1.00  0.00    -0.269 OA
BRANCH  29  32
ATOM     32  C   UNL A   1      34.421  34.089  29.342  1.00  0.00     0.039 A 
ATOM     33  C   UNL A   1      35.724  34.409  28.952  1.00  0.00     0.014 A 
ATOM     34  C   UNL A   1      34.200  33.118  30.324  1.00  0.00     0.014 A 
ATOM     35  C   UNL A   1      36.807  33.796  29.586  1.00  0.00     0.010 A 
ATOM     36  C   UNL A   1      35.281  32.556  30.999  1.00  0.00     0.010 A 
ATOM     37  C   UNL A   1      36.596  32.887  30.634  1.00  0.00    -0.014 A 
BRANCH  37  38
ATOM     38  C   UNL A   1      37.738  32.270  31.357  1.00  0.00     0.031 A 
ATOM     39  C   UNL A   1      38.501  31.132  30.736  1.00  0.00     0.074 A 
ATOM     40  C   UNL A   1      38.047  32.694  32.598  1.00  0.00     0.049 A 
ATOM     41  N   UNL A   1      39.487  30.427  31.228  1.00  0.00    -0.248 NA
ATOM     42  C   UNL A   1      38.075  30.714  29.393  1.00  0.00     0.031 C 
ATOM     43  C   UNL A   1      37.356  33.762  33.322  1.00  0.00     0.029 A 
ATOM     44  N   UNL A   1      39.017  32.275  33.473  1.00  0.00    -0.354 N 
ATOM     45  C   UNL A   1      39.788  29.470  30.265  1.00  0.00     0.074 A 
ATOM     46  C   UNL A   1      38.836  29.651  29.189  1.00  0.00     0.031 C 
ATOM     47  C   UNL A   1      37.943  33.935  34.516  1.00  0.00     0.029 A 
ATOM     48  C   UNL A   1      39.024  32.965  34.661  1.00  0.00     0.049 A 
ATOM     49  H   UNL A   1      39.649  31.548  33.268  1.00  0.00     0.167 HD
ATOM     50  C   UNL A   1      40.780  28.543  30.269  1.00  0.00     0.034 A 
ATOM     51  C   UNL A   1      39.810  32.829  35.747  1.00  0.00     0.034 A 
ATOM     52  C   UNL A   1      41.728  28.387  31.346  1.00  0.00     0.049 A 
ATOM     53  C   UNL A   1      40.887  31.774  35.741  1.00  0.00     0.074 A 
ATOM     54  C   UNL A   1      42.815  27.534  31.423  1.00  0.00     0.029 A 
ATOM     55  N   UNL A   1      41.695  29.093  32.543  1.00  0.00    -0.354 N 
ATOM     56  N   UNL A   1      41.199  30.916  34.798  1.00  0.00    -0.248 NA
ATOM     57  C   UNL A   1      41.721  31.679  36.946  1.00  0.00     0.031 C 
ATOM     58  C   UNL A   1      43.397  27.675  32.690  1.00  0.00     0.029 A 
ATOM     59  C   UNL A   1      42.719  28.669  33.378  1.00  0.00     0.049 A 
ATOM     60  H   UNL A   1      41.040  29.793  32.766  1.00  0.00     0.167 HD
ATOM     61  C   UNL A   1      42.289  30.199  35.284  1.00  0.00     0.074 A 
ATOM     62  C   UNL A   1      42.582  30.734  36.600  1.00  0.00     0.031 C 
ATOM     63  C   UNL A   1      42.988  29.196  34.695  1.00  0.00     0.034 A 
BRANCH  50  64
ATOM     64  C   UNL A   1      40.855  27.609  29.082  1.00  0.00     0.023 A 
ATOM     65  C   UNL A   1      41.797  27.796  28.053  1.00  0.00     0.031 A 
ATOM     66  C   UNL A   1      39.940  26.551  28.947  1.00  0.00     0.131 A 
ATOM     67  C   UNL A   1      41.738  27.005  26.895  1.00  0.00     0.055 A 
ATOM     68  C   UNL A   1      39.946  25.709  27.832  1.00  0.00     0.041 A 
ATOM     69  F   UNL A   1      39.005  26.332  29.885  1.00  0.00    -0.206 F 
ATOM     70  C   UNL A   1      40.834  25.947  26.788  1.00  0.00     0.022 A 
BRANCH  67  71
ATOM     71  S   UNL A   1      42.736  27.496  25.463  1.00  0.00     0.124 S 
ATOM     72  O   UNL A   1      44.004  27.854  26.095  1.00  0.00    -0.237 OA
ATOM     73  O   UNL A   1      42.745  26.283  24.654  1.00  0.00    -0.237 OA
ATOM     74  O   UNL A   1      41.994  28.621  24.896  1.00  0.00    -0.744 OA
ENDBRANCH  67  71
ENDBRANCH  50  64
BRANCH  51  75
ATOM     75  C   UNL A   1      39.622  33.715  36.929  1.00  0.00     0.023 A 
ATOM     76  C   UNL A   1      38.979  33.242  38.083  1.00  0.00     0.031 A 
ATOM     77  C   UNL A   1      40.055  35.052  36.912  1.00  0.00     0.131 A 
ATOM     78  C   UNL A   1      38.752  34.109  39.161  1.00  0.00     0.055 A 
ATOM     79  C   UNL A   1      39.866  35.900  38.006  1.00  0.00     0.041 A 
ATOM     80  F   UNL A   1      40.683  35.550  35.835  1.00  0.00    -0.206 F 
ATOM     81  C   UNL A   1      39.200  35.432  39.135  1.00  0.00     0.022 A 
BRANCH  78  82
ATOM     82  S   UNL A   1      37.803  33.498  40.580  1.00  0.00     0.124 S 
ATOM     83  O   UNL A   1      36.617  32.950  39.931  1.00  0.00    -0.237 OA
ATOM     84  O   UNL A   1      38.722  32.526  41.164  1.00  0.00    -0.237 OA
ATOM     85  O   UNL A   1      37.578  34.699  41.382  1.00  0.00    -0.744 OA
ENDBRANCH  78  82
ENDBRANCH  51  75
BRANCH  63  86
ATOM     86  C   UNL A   1      44.167  28.648  35.462  1.00  0.00     0.023 A 
ATOM     87  C   UNL A   1      44.027  27.589  36.376  1.00  0.00     0.031 A 
ATOM     88  C   UNL A   1      45.443  29.214  35.295  1.00  0.00     0.131 A 
ATOM     89  C   UNL A   1      45.132  27.167  37.131  1.00  0.00     0.055 A 
ATOM     90  C   UNL A   1      46.551  28.752  36.006  1.00  0.00     0.041 A 
ATOM     91  F   UNL A   1      45.633  30.231  34.438  1.00  0.00    -0.206 F 
ATOM     92  C   UNL A   1      46.396  27.732  36.941  1.00  0.00     0.022 A 
BRANCH  89  93
ATOM     93  S   UNL A   1      44.877  25.934  38.436  1.00  0.00     0.124 S 
ATOM     94  O   UNL A   1      44.029  24.953  37.766  1.00  0.00    -0.237 OA
ATOM     95  O   UNL A   1      46.239  25.503  38.730  1.00  0.00    -0.237 OA
ATOM     96  O   UNL A   1      44.224  26.692  39.502  1.00  0.00    -0.744 OA
ENDBRANCH  89  93
ENDBRANCH  63  86
ENDBRANCH  37  38
ENDBRANCH  29  32
ENDBRANCH  27  28
ENDBRANCH   1  27
TORSDOF 18
ENDMDL
MODEL 2
REMARK VINA RESULT:     -12.0      1.814      2.728
REMARK SMILES CC(=O)O[C@H]1C[C@@H](C(=O)NCCCCNC(=O)c2ccc(-c3c4nc(c(-c5cc(S(=O)(=O)[O-])ccc5F)c5ccc([nH]5)c(-c5cc(S(=O)(=O)[O-])ccc5F)c5nc(c(-c6cc(S(=O)(=O)[O-])ccc6F)c6ccc3[nH]6)C=C5)C=C4)cc2)N(S(=O)(=O)c2ccc(F)cc2)C1
REMARK SMILES IDX 13 1 12 2 11 3 10 4 8 5 9 6 7 8 5 9 6 10 92 11 81 12 4 13
REMARK SMILES IDX 2 14 1 15 3 16 82 17 83 18 84 19 85 20 86 21 91 22 87 23
REMARK SMILES IDX 90 24 88 25 89 26 14 27 15 28 16 29 17 31 18 32 19 33 80 34
REMARK SMILES IDX 20 35 79 36 21 37 22 38 23 39 73 40 24 41 78 42 72 43 74 44
REMARK SMILES IDX 25 45 77 46 71 47 70 48 26 50 58 51 38 52 57 53 39 54 42 55
REMARK SMILES IDX 56 56 75 57 40 58 41 59 55 61 76 62 43 63 27 64 28 65 36 66
REMARK SMILES IDX 29 67 35 68 37 69 34 70 30 71 31 72 32 73 33 74 59 75 60 76
REMARK SMILES IDX 68 77 61 78 67 79 69 80 66 81 62 82 63 83 64 84 65 85 44 86
REMARK SMILES IDX 45 87 53 88 46 89 52 90 54 91 51 92 47 93 48 94 49 95 50 96
REMARK H PARENT 10 7 15 30 74 49 42 60
REMARK Flexibility Score: inf
ROOT
ATOM      1  C   UNL A   1      31.527  32.052  26.653  1.00  0.00     0.023 C 
ENDROOT
BRANCH   1   2
ATOM      2  C   UNL A   1      31.589  30.527  26.485  1.00  0.00     0.023 C 
BRANCH   2   3
ATOM      3  C   UNL A   1      31.508  30.041  25.032  1.00  0.00     0.116 C 
BRANCH   3   4
ATOM      4  N   UNL A   1      32.625  29.162  24.727  1.00  0.00    -0.355 N 
ATOM      5  C   UNL A   1      32.679  27.873  25.194  1.00  0.00     0.238 C 
ATOM      6  O   UNL A   1      33.596  27.571  25.952  1.00  0.00    -0.273 OA
ATOM      7  H   UNL A   1      33.361  29.501  24.170  1.00  0.00     0.163 HD
BRANCH   5   8
ATOM      8  C   UNL A   1      31.590  26.920  24.758  1.00  0.00     0.166 C 
ATOM      9  C   UNL A   1      30.489  24.838  25.084  1.00  0.00     0.193 C 
ATOM     10  C   UNL A   1      31.479  25.772  25.752  1.00  0.00     0.077 C 
ATOM     11  C   UNL A   1      30.816  24.981  23.588  1.00  0.00     0.148 C 
ATOM     12  N   UNL A   1      31.624  26.246  23.422  1.00  0.00    -0.182 NA
BRANCH   9  13
ATOM     13  O   UNL A   1      30.709  23.473  25.491  1.00  0.00    -0.461 OA
BRANCH  13  14
ATOM     14  C   UNL A   1      30.842  23.067  26.773  1.00  0.00     0.302 C 
ATOM     15  C   UNL A   1      32.195  22.607  27.220  1.00  0.00     0.139 C 
ATOM     16  O   UNL A   1      29.892  23.112  27.549  1.00  0.00    -0.253 OA
ENDBRANCH  13  14
ENDBRANCH   9  13
BRANCH  12  17
ATOM     17  S   UNL A   1      33.108  25.952  22.616  1.00  0.00     0.243 S 
ATOM     18  O   UNL A   1      32.820  25.556  21.258  1.00  0.00    -0.207 OA
ATOM     19  O   UNL A   1      33.931  27.123  22.862  1.00  0.00    -0.207 OA
BRANCH  17  20
ATOM     20  C   UNL A   1      33.911  24.615  23.481  1.00  0.00     0.082 A 
ATOM     21  C   UNL A   1      34.804  24.923  24.520  1.00  0.00     0.025 A 
ATOM     22  C   UNL A   1      33.826  23.298  23.015  1.00  0.00     0.025 A 
ATOM     23  C   UNL A   1      35.554  23.908  25.121  1.00  0.00     0.040 A 
ATOM     24  C   UNL A   1      34.538  22.278  23.652  1.00  0.00     0.040 A 
ATOM     25  C   UNL A   1      35.400  22.593  24.696  1.00  0.00     0.123 A 
ATOM     26  F   UNL A   1      36.115  21.622  25.277  1.00  0.00    -0.207 F 
ENDBRANCH  17  20
ENDBRANCH  12  17
ENDBRANCH   5   8
ENDBRANCH   3   4
ENDBRANCH   2   3
ENDBRANCH   1   2
BRANCH   1  27
ATOM     27  C   UNL A   1      32.736  32.674  27.344  1.00  0.00     0.116 C 
BRANCH  27  28
ATOM     28  N   UNL A   1      32.521  34.071  27.679  1.00  0.00    -0.352 N 
ATOM     29  C   UNL A   1      33.119  34.836  28.651  1.00  0.00     0.251 C 
ATOM     30  H   UNL A   1      31.849  34.536  27.130  1.00  0.00     0.163 HD
ATOM     31  O   UNL A   1      32.671  35.952  28.894  1.00  0.00    -0.269 OA
BRANCH  29  32
ATOM     32  C   UNL A   1      34.272  34.307  29.411  1.00  0.00     0.039 A 
ATOM     33  C   UNL A   1      34.030  33.578  30.578  1.00  0.00     0.014 A 
ATOM     34  C   UNL A   1      35.585  34.536  28.986  1.00  0.00     0.014 A 
ATOM     35  C   UNL A   1      35.102  33.032  31.289  1.00  0.00     0.010 A 
ATOM     36  C   UNL A   1      36.647  33.938  29.660  1.00  0.00     0.010 A 
ATOM     37  C   UNL A   1      36.416  33.182  30.821  1.00  0.00    -0.014 A 
BRANCH  37  38
ATOM     38  C   UNL A   1      37.561  32.560  31.534  1.00  0.00     0.031 A 
ATOM     39  C   UNL A   1      38.314  31.419  30.906  1.00  0.00     0.074 A 
ATOM     40  C   UNL A   1      37.882  32.981  32.773  1.00  0.00     0.049 A 
ATOM     41  N   UNL A   1      39.301  30.710  31.389  1.00  0.00    -0.248 NA
ATOM     42  C   UNL A   1      37.875  31.004  29.566  1.00  0.00     0.031 C 
ATOM     43  C   UNL A   1      37.201  34.052  33.503  1.00  0.00     0.029 A 
ATOM     44  N   UNL A   1      38.857  32.558  33.639  1.00  0.00    -0.354 N 
ATOM     45  C   UNL A   1      39.590  29.752  30.423  1.00  0.00     0.074 A 
ATOM     46  C   UNL A   1      38.630  29.938  29.355  1.00  0.00     0.031 C 
ATOM     47  C   UNL A   1      37.799  34.221  34.693  1.00  0.00     0.029 A 
ATOM     48  C   UNL A   1      38.877  33.247  34.828  1.00  0.00     0.049 A 
ATOM     49  H   UNL A   1      39.484  31.828  33.429  1.00  0.00     0.167 HD
ATOM     50  C   UNL A   1      40.578  28.821  30.418  1.00  0.00     0.034 A 
ATOM     51  C   UNL A   1      39.672  33.106  35.907  1.00  0.00     0.034 A 
ATOM     52  C   UNL A   1      41.534  28.660  31.488  1.00  0.00     0.049 A 
ATOM     53  C   UNL A   1      40.744  32.048  35.892  1.00  0.00     0.074 A 
ATOM     54  C   UNL A   1      42.619  27.802  31.555  1.00  0.00     0.029 A 
ATOM     55  N   UNL A   1      41.514  29.365  32.685  1.00  0.00    -0.354 N 
ATOM     56  N   UNL A   1      41.044  31.189  34.946  1.00  0.00    -0.248 NA
ATOM     57  C   UNL A   1      41.587  31.948  37.089  1.00  0.00     0.031 C 
ATOM     58  C   UNL A   1      43.211  27.941  32.817  1.00  0.00     0.029 A 
ATOM     59  C   UNL A   1      42.543  28.936  33.511  1.00  0.00     0.049 A 
ATOM     60  H   UNL A   1      40.864  30.068  32.914  1.00  0.00     0.167 HD
ATOM     61  C   UNL A   1      42.135  30.467  35.422  1.00  0.00     0.074 A 
ATOM     62  C   UNL A   1      42.441  31.000  36.735  1.00  0.00     0.031 C 
ATOM     63  C   UNL A   1      42.826  29.462  34.826  1.00  0.00     0.034 A 
BRANCH  50  64
ATOM     64  C   UNL A   1      40.640  27.888  29.230  1.00  0.00     0.023 A 
ATOM     65  C   UNL A   1      41.591  28.056  28.206  1.00  0.00     0.031 A 
ATOM     66  C   UNL A   1      39.702  26.850  29.088  1.00  0.00     0.131 A 
ATOM     67  C   UNL A   1      41.521  27.269  27.047  1.00  0.00     0.055 A 
ATOM     68  C   UNL A   1      39.696  26.009  27.972  1.00  0.00     0.041 A 
ATOM     69  F   UNL A   1      38.758  26.649  30.020  1.00  0.00    -0.206 F 
ATOM     70  C   UNL A   1      40.595  26.230  26.933  1.00  0.00     0.022 A 
BRANCH  67  71
ATOM     71  S   UNL A   1      42.537  27.741  25.621  1.00  0.00     0.124 S 
ATOM     72  O   UNL A   1      41.817  28.908  25.118  1.00  0.00    -0.237 OA
ATOM     73  O   UNL A   1      43.834  28.005  26.232  1.00  0.00    -0.237 OA
ATOM     74  O   UNL A   1      42.481  26.564  24.754  1.00  0.00    -0.744 OA
ENDBRANCH  67  71
ENDBRANCH  50  64
BRANCH  51  75
ATOM     75  C   UNL A   1      39.497  33.992  37.091  1.00  0.00     0.023 A 
ATOM     76  C   UNL A   1      38.900  33.509  38.265  1.00  0.00     0.031 A 
ATOM     77  C   UNL A   1      39.896  35.340  37.057  1.00  0.00     0.131 A 
ATOM     78  C   UNL A   1      38.683  34.375  39.347  1.00  0.00     0.055 A 
ATOM     79  C   UNL A   1      39.719  36.187  38.153  1.00  0.00     0.041 A 
ATOM     80  F   UNL A   1      40.481  35.848  35.960  1.00  0.00    -0.206 F 
ATOM     81  C   UNL A   1      39.098  35.708  39.303  1.00  0.00     0.022 A 
BRANCH  78  82
ATOM     82  S   UNL A   1      37.791  33.746  40.795  1.00  0.00     0.124 S 
ATOM     83  O   UNL A   1      36.660  33.065  40.176  1.00  0.00    -0.237 OA
ATOM     84  O   UNL A   1      38.793  32.889  41.420  1.00  0.00    -0.237 OA
ATOM     85  O   UNL A   1      37.458  34.958  41.542  1.00  0.00    -0.744 OA
ENDBRANCH  78  82
ENDBRANCH  51  75
BRANCH  63  86
ATOM     86  C   UNL A   1      44.008  28.908  35.583  1.00  0.00     0.023 A 
ATOM     87  C   UNL A   1      43.883  27.807  36.449  1.00  0.00     0.031 A 
ATOM     88  C   UNL A   1      45.272  29.510  35.456  1.00  0.00     0.131 A 
ATOM     89  C   UNL A   1      44.989  27.378  37.198  1.00  0.00     0.055 A 
ATOM     90  C   UNL A   1      46.382  29.043  36.161  1.00  0.00     0.041 A 
ATOM     91  F   UNL A   1      45.448  30.567  34.647  1.00  0.00    -0.206 F 
ATOM     92  C   UNL A   1      46.242  27.980  37.048  1.00  0.00     0.022 A 
BRANCH  89  93
ATOM     93  S   UNL A   1      44.748  26.084  38.446  1.00  0.00     0.124 S 
ATOM     94  O   UNL A   1      43.841  25.168  37.762  1.00  0.00    -0.237 OA
ATOM     95  O   UNL A   1      46.107  25.596  38.656  1.00  0.00    -0.237 OA
ATOM     96  O   UNL A   1      44.167  26.802  39.579  1.00  0.00    -0.744 OA
ENDBRANCH  89  93
ENDBRANCH  63  86
ENDBRANCH  37  38
ENDBRANCH  29  32
ENDBRANCH  27  28
ENDBRANCH   1  27
TORSDOF 18
ENDMDL
MODEL 3
REMARK VINA RESULT:     -12.0      5.235      8.302
REMARK SMILES CC(=O)O[C@H]1C[C@@H](C(=O)NCCCCNC(=O)c2ccc(-c3c4nc(c(-c5cc(S(=O)(=O)[O-])ccc5F)c5ccc([nH]5)c(-c5cc(S(=O)(=O)[O-])ccc5F)c5nc(c(-c6cc(S(=O)(=O)[O-])ccc6F)c6ccc3[nH]6)C=C5)C=C4)cc2)N(S(=O)(=O)c2ccc(F)cc2)C1
REMARK SMILES IDX 13 1 12 2 11 3 10 4 8 5 9 6 7 8 5 9 6 10 92 11 81 12 4 13
REMARK SMILES IDX 2 14 1 15 3 16 82 17 83 18 84 19 85 20 86 21 91 22 87 23
REMARK SMILES IDX 90 24 88 25 89 26 14 27 15 28 16 29 17 31 18 32 19 33 80 34
REMARK SMILES IDX 20 35 79 36 21 37 22 38 23 39 73 40 24 41 78 42 72 43 74 44
REMARK SMILES IDX 25 45 77 46 71 47 70 48 26 50 58 51 38 52 57 53 39 54 42 55
REMARK SMILES IDX 56 56 75 57 40 58 41 59 55 61 76 62 43 63 27 64 28 65 36 66
REMARK SMILES IDX 29 67 35 68 37 69 34 70 30 71 31 72 32 73 33 74 59 75 60 76
REMARK SMILES IDX 68 77 61 78 67 79 69 80 66 81 62 82 63 83 64 84 65 85 44 86
REMARK SMILES IDX 45 87 53 88 46 89 52 90 54 91 51 92 47 93 48 94 49 95 50 96
REMARK H PARENT 10 7 15 30 74 49 42 60
REMARK Flexibility Score: inf
ROOT
ATOM      1  C   UNL A   1      36.323  23.531  24.272  1.00  0.00     0.023 C 
ENDROOT
BRANCH   1   2
ATOM      2  C   UNL A   1      34.928  23.181  23.733  1.00  0.00     0.023 C 
BRANCH   2   3
ATOM      3  C   UNL A   1      34.150  24.370  23.155  1.00  0.00     0.116 C 
BRANCH   3   4
ATOM      4  N   UNL A   1      33.940  25.385  24.175  1.00  0.00    -0.355 N 
ATOM      5  C   UNL A   1      33.295  26.563  23.900  1.00  0.00     0.238 C 
ATOM      6  O   UNL A   1      33.923  27.610  24.025  1.00  0.00    -0.273 OA
ATOM      7  H   UNL A   1      34.271  25.221  25.087  1.00  0.00     0.163 HD
BRANCH   5   8
ATOM      8  C   UNL A   1      31.856  26.487  23.440  1.00  0.00     0.166 C 
ATOM      9  C   UNL A   1      29.807  27.627  23.046  1.00  0.00     0.193 C 
ATOM     10  C   UNL A   1      31.271  27.889  23.338  1.00  0.00     0.077 C 
ATOM     11  C   UNL A   1      29.503  26.355  23.856  1.00  0.00     0.148 C 
ATOM     12  N   UNL A   1      30.826  25.715  24.203  1.00  0.00    -0.182 NA
BRANCH   9  13
ATOM     13  O   UNL A   1      28.981  28.705  23.527  1.00  0.00    -0.461 OA
BRANCH  13  14
ATOM     14  C   UNL A   1      27.927  29.220  22.856  1.00  0.00     0.302 C 
ATOM     15  C   UNL A   1      28.214  30.082  21.665  1.00  0.00     0.139 C 
ATOM     16  O   UNL A   1      26.776  28.957  23.194  1.00  0.00    -0.253 OA
ENDBRANCH  13  14
ENDBRANCH   9  13
BRANCH  12  17
ATOM     17  S   UNL A   1      30.985  25.455  25.890  1.00  0.00     0.243 S 
ATOM     18  O   UNL A   1      31.908  26.432  26.417  1.00  0.00    -0.207 OA
ATOM     19  O   UNL A   1      29.632  25.393  26.412  1.00  0.00    -0.207 OA
BRANCH  17  20
ATOM     20  C   UNL A   1      31.652  23.814  26.101  1.00  0.00     0.082 A 
ATOM     21  C   UNL A   1      32.670  23.616  27.047  1.00  0.00     0.025 A 
ATOM     22  C   UNL A   1      31.328  22.783  25.212  1.00  0.00     0.025 A 
ATOM     23  C   UNL A   1      33.310  22.377  27.137  1.00  0.00     0.040 A 
ATOM     24  C   UNL A   1      31.932  21.529  25.340  1.00  0.00     0.040 A 
ATOM     25  C   UNL A   1      32.922  21.339  26.297  1.00  0.00     0.123 A 
ATOM     26  F   UNL A   1      33.532  20.151  26.389  1.00  0.00    -0.207 F 
ENDBRANCH  17  20
ENDBRANCH  12  17
ENDBRANCH   5   8
ENDBRANCH   3   4
ENDBRANCH   2   3
ENDBRANCH   1   2
BRANCH   1  27
ATOM     27  C   UNL A   1      36.520  23.281  25.763  1.00  0.00     0.116 C 
BRANCH  27  28
ATOM     28  N   UNL A   1      37.609  22.357  26.028  1.00  0.00    -0.352 N 
ATOM     29  C   UNL A   1      38.894  22.620  26.436  1.00  0.00     0.251 C 
ATOM     30  H   UNL A   1      37.396  21.406  25.894  1.00  0.00     0.163 HD
ATOM     31  O   UNL A   1      39.721  21.714  26.432  1.00  0.00    -0.269 OA
BRANCH  29  32
ATOM     32  C   UNL A   1      39.279  23.988  26.849  1.00  0.00     0.039 A 
ATOM     33  C   UNL A   1      39.033  24.386  28.166  1.00  0.00     0.014 A 
ATOM     34  C   UNL A   1      39.867  24.878  25.945  1.00  0.00     0.014 A 
ATOM     35  C   UNL A   1      39.426  25.657  28.590  1.00  0.00     0.010 A 
ATOM     36  C   UNL A   1      40.316  26.120  26.387  1.00  0.00     0.010 A 
ATOM     37  C   UNL A   1      40.097  26.523  27.714  1.00  0.00    -0.014 A 
BRANCH  37  38
ATOM     38  C   UNL A   1      40.573  27.856  28.166  1.00  0.00     0.031 A 
ATOM     39  C   UNL A   1      42.039  28.194  28.115  1.00  0.00     0.074 A 
ATOM     40  C   UNL A   1      39.694  28.738  28.680  1.00  0.00     0.049 A 
ATOM     41  N   UNL A   1      42.655  29.276  28.514  1.00  0.00    -0.248 NA
ATOM     42  C   UNL A   1      42.930  27.160  27.570  1.00  0.00     0.031 C 
ATOM     43  C   UNL A   1      38.254  28.511  28.817  1.00  0.00     0.029 A 
ATOM     44  N   UNL A   1      39.881  29.999  29.186  1.00  0.00    -0.354 N 
ATOM     45  C   UNL A   1      44.008  29.048  28.286  1.00  0.00     0.074 A 
ATOM     46  C   UNL A   1      44.121  27.700  27.771  1.00  0.00     0.031 C 
ATOM     47  C   UNL A   1      37.685  29.607  29.342  1.00  0.00     0.029 A 
ATOM     48  C   UNL A   1      38.721  30.598  29.617  1.00  0.00     0.049 A 
ATOM     49  H   UNL A   1      40.763  30.434  29.236  1.00  0.00     0.167 HD
ATOM     50  C   UNL A   1      45.055  29.894  28.468  1.00  0.00     0.034 A 
ATOM     51  C   UNL A   1      38.517  31.808  30.174  1.00  0.00     0.034 A 
ATOM     52  C   UNL A   1      44.920  31.241  28.970  1.00  0.00     0.049 A 
ATOM     53  C   UNL A   1      39.697  32.720  30.393  1.00  0.00     0.074 A 
ATOM     54  C   UNL A   1      45.899  32.207  29.125  1.00  0.00     0.029 A 
ATOM     55  N   UNL A   1      43.732  31.810  29.413  1.00  0.00    -0.354 N 
ATOM     56  N   UNL A   1      40.963  32.514  30.117  1.00  0.00    -0.248 NA
ATOM     57  C   UNL A   1      39.413  34.029  30.992  1.00  0.00     0.031 C 
ATOM     58  C   UNL A   1      45.317  33.332  29.722  1.00  0.00     0.029 A 
ATOM     59  C   UNL A   1      43.959  33.098  29.874  1.00  0.00     0.049 A 
ATOM     60  H   UNL A   1      42.855  31.363  29.401  1.00  0.00     0.167 HD
ATOM     61  C   UNL A   1      41.624  33.684  30.479  1.00  0.00     0.074 A 
ATOM     62  C   UNL A   1      40.613  34.591  30.985  1.00  0.00     0.031 C 
ATOM     63  C   UNL A   1      42.946  33.985  30.394  1.00  0.00     0.034 A 
BRANCH  50  64
ATOM     64  C   UNL A   1      46.435  29.361  28.152  1.00  0.00     0.023 A 
ATOM     65  C   UNL A   1      46.825  29.056  26.835  1.00  0.00     0.031 A 
ATOM     66  C   UNL A   1      47.353  29.102  29.185  1.00  0.00     0.131 A 
ATOM     67  C   UNL A   1      48.054  28.422  26.597  1.00  0.00     0.055 A 
ATOM     68  C   UNL A   1      48.613  28.554  28.930  1.00  0.00     0.041 A 
ATOM     69  F   UNL A   1      47.034  29.354  30.463  1.00  0.00    -0.206 F 
ATOM     70  C   UNL A   1      48.961  28.190  27.633  1.00  0.00     0.022 A 
BRANCH  67  71
ATOM     71  S   UNL A   1      48.368  27.742  24.945  1.00  0.00     0.124 S 
ATOM     72  O   UNL A   1      47.300  28.361  24.163  1.00  0.00    -0.237 OA
ATOM     73  O   UNL A   1      49.720  28.210  24.664  1.00  0.00    -0.237 OA
ATOM     74  O   UNL A   1      48.232  26.299  25.136  1.00  0.00    -0.744 OA
ENDBRANCH  67  71
ENDBRANCH  50  64
BRANCH  51  75
ATOM     75  C   UNL A   1      37.144  32.238  30.557  1.00  0.00     0.023 A 
ATOM     76  C   UNL A   1      36.285  32.815  29.610  1.00  0.00     0.031 A 
ATOM     77  C   UNL A   1      36.681  32.104  31.878  1.00  0.00     0.131 A 
ATOM     78  C   UNL A   1      35.019  33.275  30.004  1.00  0.00     0.055 A 
ATOM     79  C   UNL A   1      35.404  32.523  32.255  1.00  0.00     0.041 A 
ATOM     80  F   UNL A   1      37.462  31.549  32.818  1.00  0.00    -0.206 F 
ATOM     81  C   UNL A   1      34.568  33.123  31.318  1.00  0.00     0.022 A 
BRANCH  78  82
ATOM     82  S   UNL A   1      33.990  34.134  28.783  1.00  0.00     0.124 S 
ATOM     83  O   UNL A   1      34.885  35.194  28.332  1.00  0.00    -0.237 OA
ATOM     84  O   UNL A   1      33.715  33.074  27.819  1.00  0.00    -0.237 OA
ATOM     85  O   UNL A   1      32.837  34.579  29.562  1.00  0.00    -0.744 OA
ENDBRANCH  78  82
ENDBRANCH  51  75
BRANCH  63  86
ATOM     86  C   UNL A   1      43.355  35.373  30.823  1.00  0.00     0.023 A 
ATOM     87  C   UNL A   1      43.541  35.704  32.177  1.00  0.00     0.031 A 
ATOM     88  C   UNL A   1      43.534  36.384  29.863  1.00  0.00     0.131 A 
ATOM     89  C   UNL A   1      43.838  37.028  32.537  1.00  0.00     0.055 A 
ATOM     90  C   UNL A   1      43.886  37.685  30.223  1.00  0.00     0.041 A 
ATOM     91  F   UNL A   1      43.365  36.124  28.556  1.00  0.00    -0.206 F 
ATOM     92  C   UNL A   1      44.027  38.017  31.568  1.00  0.00     0.022 A 
BRANCH  89  93
ATOM     93  S   UNL A   1      43.881  37.464  34.297  1.00  0.00     0.124 S 
ATOM     94  O   UNL A   1      42.472  37.369  34.668  1.00  0.00    -0.237 OA
ATOM     95  O   UNL A   1      44.756  36.437  34.852  1.00  0.00    -0.237 OA
ATOM     96  O   UNL A   1      44.434  38.817  34.303  1.00  0.00    -0.744 OA
ENDBRANCH  89  93
ENDBRANCH  63  86
ENDBRANCH  37  38
ENDBRANCH  29  32
ENDBRANCH  27  28
ENDBRANCH   1  27
TORSDOF 18
ENDMDL
