MODEL 1
REMARK VINA RESULT:     -11.8      0.000      0.000
REMARK SMILES CC(C)(C)OC(=O)N[C@H](Cc1ccc(N=[N+]=[N-])cc1)C(=O)NCCCCNC(=O)c1ccc(-c2c3nc(c(-c4cc(S(=O)(=O)[O-])ccc4F)c4ccc([nH]4)c(-c4cc(S(=O)(=O)[O-])ccc4F)c4nc(c(-c5cc(S(=O)(=O)[O-])ccc5F)c5ccc2[nH]5)C=C4)C=C3)cc1
REMARK SMILES IDX 24 1 23 2 22 3 20 4 21 5 9 7 8 8 6 9 7 10 5 12 2 13 1 14
REMARK SMILES IDX 3 15 4 16 10 17 11 18 12 19 19 20 13 21 18 22 14 23 15 24
REMARK SMILES IDX 16 25 17 26 25 27 26 28 27 29 28 30 29 32 30 33 31 34 92 35
REMARK SMILES IDX 32 36 91 37 33 38 34 39 35 40 85 41 36 42 90 43 84 44 86 45
REMARK SMILES IDX 37 46 89 47 83 48 82 49 38 51 70 52 50 53 69 54 51 55 54 56
REMARK SMILES IDX 68 57 87 58 52 59 53 60 67 62 88 63 55 64 39 65 40 66 48 67
REMARK SMILES IDX 41 68 47 69 49 70 46 71 42 72 43 73 44 74 45 75 71 76 72 77
REMARK SMILES IDX 80 78 73 79 79 80 81 81 78 82 74 83 75 84 76 85 77 86 56 87
REMARK SMILES IDX 57 88 65 89 58 90 64 91 66 92 63 93 59 94 60 95 61 96 62 97
REMARK H PARENT 22 6 8 11 27 31 86 50 54 61
REMARK Flexibility Score: inf
ROOT
ATOM      1  C   UNL A   1      34.778  23.284  24.026  1.00  0.00     0.023 C 
ENDROOT
BRANCH   1   2
ATOM      2  C   UNL A   1      34.360  24.046  25.273  1.00  0.00     0.116 C 
BRANCH   2   3
ATOM      3  N   UNL A   1      33.215  23.467  25.951  1.00  0.00    -0.354 N 
ATOM      4  C   UNL A   1      31.908  23.872  25.945  1.00  0.00     0.243 C 
ATOM      5  O   UNL A   1      31.058  23.067  26.339  1.00  0.00    -0.273 OA
ATOM      6  H   UNL A   1      33.406  22.668  26.494  1.00  0.00     0.163 HD
BRANCH   4   7
ATOM      7  C   UNL A   1      31.487  25.261  25.409  1.00  0.00     0.179 C 
BRANCH   7   8
ATOM      8  N   UNL A   1      31.112  26.258  26.422  1.00  0.00    -0.309 N 
ATOM      9  C   UNL A   1      31.805  27.268  27.021  1.00  0.00     0.408 C 
ATOM     10  O   UNL A   1      31.346  27.787  28.030  1.00  0.00    -0.225 OA
ATOM     11  H   UNL A   1      30.179  26.182  26.727  1.00  0.00     0.167 HD
BRANCH   9  12
ATOM     12  O   UNL A   1      32.942  27.644  26.392  1.00  0.00    -0.444 OA
BRANCH  12  13
ATOM     13  C   UNL A   1      33.064  28.983  25.815  1.00  0.00     0.106 C 
ATOM     14  C   UNL A   1      31.636  29.545  25.682  1.00  0.00     0.056 C 
ATOM     15  C   UNL A   1      33.682  28.901  24.415  1.00  0.00     0.056 C 
ATOM     16  C   UNL A   1      33.826  29.938  26.741  1.00  0.00     0.056 C 
ENDBRANCH  12  13
ENDBRANCH   9  12
ENDBRANCH   7   8
BRANCH   7  17
ATOM     17  C   UNL A   1      30.550  25.201  24.177  1.00  0.00     0.070 C 
BRANCH  17  18
ATOM     18  C   UNL A   1      29.860  26.482  23.735  1.00  0.00    -0.045 A 
ATOM     19  C   UNL A   1      30.579  27.420  22.977  1.00  0.00     0.004 A 
ATOM     20  C   UNL A   1      28.499  26.715  23.950  1.00  0.00     0.004 A 
ATOM     21  C   UNL A   1      29.949  28.554  22.451  1.00  0.00     0.010 A 
ATOM     22  C   UNL A   1      27.875  27.858  23.426  1.00  0.00     0.010 A 
ATOM     23  C   UNL A   1      28.588  28.790  22.659  1.00  0.00     0.038 A 
BRANCH  23  24
ATOM     24  N   UNL A   1      28.049  29.958  22.085  1.00  0.00    -0.061 NA
ATOM     25  N   UNL A   1      27.601  30.804  22.877  1.00  0.00     0.005 N 
ATOM     26  N   UNL A   1      27.189  31.595  23.591  1.00  0.00    -0.003 NA
ENDBRANCH  23  24
ENDBRANCH  17  18
ENDBRANCH   7  17
ENDBRANCH   4   7
ENDBRANCH   2   3
ENDBRANCH   1   2
BRANCH   1  27
ATOM     27  C   UNL A   1      36.129  22.567  24.131  1.00  0.00     0.023 C 
BRANCH  27  28
ATOM     28  C   UNL A   1      36.534  22.042  25.511  1.00  0.00     0.116 C 
BRANCH  28  29
ATOM     29  N   UNL A   1      37.553  21.005  25.490  1.00  0.00    -0.352 N 
ATOM     30  C   UNL A   1      38.855  21.074  25.931  1.00  0.00     0.251 C 
ATOM     31  H   UNL A   1      37.276  20.141  25.110  1.00  0.00     0.163 HD
ATOM     32  O   UNL A   1      39.593  20.102  25.812  1.00  0.00    -0.269 OA
BRANCH  30  33
ATOM     33  C   UNL A   1      39.367  22.339  26.498  1.00  0.00     0.039 A 
ATOM     34  C   UNL A   1      40.423  22.275  27.407  1.00  0.00     0.014 A 
ATOM     35  C   UNL A   1      38.838  23.575  26.115  1.00  0.00     0.014 A 
ATOM     36  C   UNL A   1      40.997  23.456  27.880  1.00  0.00     0.010 A 
ATOM     37  C   UNL A   1      39.450  24.754  26.546  1.00  0.00     0.010 A 
ATOM     38  C   UNL A   1      40.546  24.706  27.421  1.00  0.00    -0.014 A 
BRANCH  38  39
ATOM     39  C   UNL A   1      41.277  25.944  27.810  1.00  0.00     0.031 A 
ATOM     40  C   UNL A   1      42.694  26.186  27.372  1.00  0.00     0.074 A 
ATOM     41  C   UNL A   1      40.644  26.857  28.574  1.00  0.00     0.049 A 
ATOM     42  N   UNL A   1      43.443  27.246  27.550  1.00  0.00    -0.248 NA
ATOM     43  C   UNL A   1      43.367  25.090  26.661  1.00  0.00     0.031 C 
ATOM     44  C   UNL A   1      39.289  26.704  29.115  1.00  0.00     0.029 A 
ATOM     45  N   UNL A   1      41.036  28.095  29.016  1.00  0.00    -0.354 N 
ATOM     46  C   UNL A   1      44.669  26.950  26.966  1.00  0.00     0.074 A 
ATOM     47  C   UNL A   1      44.584  25.585  26.490  1.00  0.00     0.031 C 
ATOM     48  C   UNL A   1      38.945  27.826  29.765  1.00  0.00     0.029 A 
ATOM     49  C   UNL A   1      40.065  28.760  29.731  1.00  0.00     0.049 A 
ATOM     50  H   UNL A   1      41.928  28.472  28.838  1.00  0.00     0.167 HD
ATOM     51  C   UNL A   1      45.756  27.752  26.821  1.00  0.00     0.034 A 
ATOM     52  C   UNL A   1      40.071  29.985  30.295  1.00  0.00     0.034 A 
ATOM     53  C   UNL A   1      45.826  29.108  27.317  1.00  0.00     0.049 A 
ATOM     54  C   UNL A   1      41.298  30.846  30.137  1.00  0.00     0.074 A 
ATOM     55  C   UNL A   1      46.857  30.024  27.180  1.00  0.00     0.029 A 
ATOM     56  N   UNL A   1      44.838  29.739  28.063  1.00  0.00    -0.354 N 
ATOM     57  N   UNL A   1      42.420  30.581  29.507  1.00  0.00    -0.248 NA
ATOM     58  C   UNL A   1      41.247  32.179  30.748  1.00  0.00     0.031 C 
ATOM     59  C   UNL A   1      46.530  31.169  27.914  1.00  0.00     0.029 A 
ATOM     60  C   UNL A   1      45.253  31.013  28.429  1.00  0.00     0.049 A 
ATOM     61  H   UNL A   1      43.969  29.342  28.298  1.00  0.00     0.167 HD
ATOM     62  C   UNL A   1      43.201  31.728  29.630  1.00  0.00     0.074 A 
ATOM     63  C   UNL A   1      42.403  32.693  30.358  1.00  0.00     0.031 C 
ATOM     64  C   UNL A   1      44.464  31.961  29.185  1.00  0.00     0.034 A 
BRANCH  51  65
ATOM     65  C   UNL A   1      46.965  27.170  26.122  1.00  0.00     0.023 A 
ATOM     66  C   UNL A   1      47.956  26.461  26.824  1.00  0.00     0.031 A 
ATOM     67  C   UNL A   1      47.139  27.339  24.736  1.00  0.00     0.131 A 
ATOM     68  C   UNL A   1      49.107  26.013  26.155  1.00  0.00     0.055 A 
ATOM     69  C   UNL A   1      48.243  26.814  24.061  1.00  0.00     0.041 A 
ATOM     70  F   UNL A   1      46.241  28.025  24.013  1.00  0.00    -0.206 F 
ATOM     71  C   UNL A   1      49.244  26.160  24.774  1.00  0.00     0.022 A 
BRANCH  68  72
ATOM     72  S   UNL A   1      50.489  25.376  27.143  1.00  0.00     0.124 S 
ATOM     73  O   UNL A   1      51.427  24.959  26.104  1.00  0.00    -0.237 OA
ATOM     74  O   UNL A   1      50.880  26.540  27.928  1.00  0.00    -0.237 OA
ATOM     75  O   UNL A   1      49.888  24.281  27.904  1.00  0.00    -0.744 OA
ENDBRANCH  68  72
ENDBRANCH  51  65
BRANCH  52  76
ATOM     76  C   UNL A   1      38.888  30.471  31.063  1.00  0.00     0.023 A 
ATOM     77  C   UNL A   1      37.928  31.311  30.474  1.00  0.00     0.031 A 
ATOM     78  C   UNL A   1      38.723  30.139  32.420  1.00  0.00     0.131 A 
ATOM     79  C   UNL A   1      36.880  31.831  31.250  1.00  0.00     0.055 A 
ATOM     80  C   UNL A   1      37.643  30.606  33.171  1.00  0.00     0.041 A 
ATOM     81  F   UNL A   1      39.609  29.338  33.036  1.00  0.00    -0.206 F 
ATOM     82  C   UNL A   1      36.722  31.470  32.590  1.00  0.00     0.022 A 
BRANCH  79  83
ATOM     83  S   UNL A   1      35.778  33.067  30.510  1.00  0.00     0.124 S 
ATOM     84  O   UNL A   1      36.049  34.239  31.335  1.00  0.00    -0.237 OA
ATOM     85  O   UNL A   1      36.265  33.123  29.135  1.00  0.00    -0.237 OA
ATOM     86  O   UNL A   1      34.450  32.479  30.674  1.00  0.00    -0.744 OA
ENDBRANCH  79  83
ENDBRANCH  52  76
BRANCH  64  87
ATOM     87  C   UNL A   1      45.040  33.332  29.463  1.00  0.00     0.023 A 
ATOM     88  C   UNL A   1      44.874  34.397  28.559  1.00  0.00     0.031 A 
ATOM     89  C   UNL A   1      45.814  33.563  30.613  1.00  0.00     0.131 A 
ATOM     90  C   UNL A   1      45.554  35.607  28.768  1.00  0.00     0.055 A 
ATOM     91  C   UNL A   1      46.415  34.798  30.861  1.00  0.00     0.041 A 
ATOM     92  F   UNL A   1      46.014  32.586  31.513  1.00  0.00    -0.206 F 
ATOM     93  C   UNL A   1      46.307  35.821  29.924  1.00  0.00     0.022 A 
BRANCH  90  94
ATOM     94  S   UNL A   1      45.572  36.831  27.429  1.00  0.00     0.124 S 
ATOM     95  O   UNL A   1      46.232  37.966  28.068  1.00  0.00    -0.237 OA
ATOM     96  O   UNL A   1      46.339  36.148  26.393  1.00  0.00    -0.237 OA
ATOM     97  O   UNL A   1      44.156  37.027  27.125  1.00  0.00    -0.744 OA
ENDBRANCH  90  94
ENDBRANCH  64  87
ENDBRANCH  38  39
ENDBRANCH  30  33
ENDBRANCH  28  29
ENDBRANCH  27  28
ENDBRANCH   1  27
TORSDOF 20
ENDMDL
MODEL 2
REMARK VINA RESULT:     -11.8      2.456      3.091
REMARK SMILES CC(C)(C)OC(=O)N[C@H](Cc1ccc(N=[N+]=[N-])cc1)C(=O)NCCCCNC(=O)c1ccc(-c2c3nc(c(-c4cc(S(=O)(=O)[O-])ccc4F)c4ccc([nH]4)c(-c4cc(S(=O)(=O)[O-])ccc4F)c4nc(c(-c5cc(S(=O)(=O)[O-])ccc5F)c5ccc2[nH]5)C=C4)C=C3)cc1
REMARK SMILES IDX 24 1 23 2 22 3 20 4 21 5 9 7 8 8 6 9 7 10 5 12 2 13 1 14
REMARK SMILES IDX 3 15 4 16 10 17 11 18 12 19 19 20 13 21 18 22 14 23 15 24
REMARK SMILES IDX 16 25 17 26 25 27 26 28 27 29 28 30 29 32 30 33 31 34 92 35
REMARK SMILES IDX 32 36 91 37 33 38 34 39 35 40 85 41 36 42 90 43 84 44 86 45
REMARK SMILES IDX 37 46 89 47 83 48 82 49 38 51 70 52 50 53 69 54 51 55 54 56
REMARK SMILES IDX 68 57 87 58 52 59 53 60 67 62 88 63 55 64 39 65 40 66 48 67
REMARK SMILES IDX 41 68 47 69 49 70 46 71 42 72 43 73 44 74 45 75 71 76 72 77
REMARK SMILES IDX 80 78 73 79 79 80 81 81 78 82 74 83 75 84 76 85 77 86 56 87
REMARK SMILES IDX 57 88 65 89 58 90 64 91 66 92 63 93 59 94 60 95 61 96 62 97
REMARK H PARENT 22 6 8 11 27 31 86 50 54 61
REMARK Flexibility Score: inf
ROOT
ATOM      1  C   UNL A   1      34.481  23.491  25.804  1.00  0.00     0.023 C 
ENDROOT
BRANCH   1   2
ATOM      2  C   UNL A   1      33.143  22.943  25.335  1.00  0.00     0.116 C 
BRANCH   2   3
ATOM      3  N   UNL A   1      32.124  22.932  26.369  1.00  0.00    -0.354 N 
ATOM      4  C   UNL A   1      31.094  23.808  26.579  1.00  0.00     0.243 C 
ATOM      5  O   UNL A   1      30.178  23.444  27.324  1.00  0.00    -0.273 OA
ATOM      6  H   UNL A   1      32.184  22.188  27.010  1.00  0.00     0.163 HD
BRANCH   4   7
ATOM      7  C   UNL A   1      31.034  25.182  25.871  1.00  0.00     0.179 C 
BRANCH   7   8
ATOM      8  N   UNL A   1      30.811  26.347  26.739  1.00  0.00    -0.309 N 
ATOM      9  C   UNL A   1      31.622  27.371  27.131  1.00  0.00     0.408 C 
ATOM     10  O   UNL A   1      31.279  28.073  28.074  1.00  0.00    -0.225 OA
ATOM     11  H   UNL A   1      29.900  26.399  27.108  1.00  0.00     0.167 HD
BRANCH   9  12
ATOM     12  O   UNL A   1      32.736  27.549  26.384  1.00  0.00    -0.444 OA
BRANCH  12  13
ATOM     13  C   UNL A   1      33.123  28.886  25.936  1.00  0.00     0.106 C 
ATOM     14  C   UNL A   1      33.911  28.709  24.624  1.00  0.00     0.056 C 
ATOM     15  C   UNL A   1      34.048  29.542  26.968  1.00  0.00     0.056 C 
ATOM     16  C   UNL A   1      31.904  29.754  25.601  1.00  0.00     0.056 C 
ENDBRANCH  12  13
ENDBRANCH   9  12
ENDBRANCH   7   8
BRANCH   7  17
ATOM     17  C   UNL A   1      30.205  25.178  24.562  1.00  0.00     0.070 C 
BRANCH  17  18
ATOM     18  C   UNL A   1      29.988  26.501  23.845  1.00  0.00    -0.045 A 
ATOM     19  C   UNL A   1      31.053  27.078  23.137  1.00  0.00     0.004 A 
ATOM     20  C   UNL A   1      28.733  27.111  23.757  1.00  0.00     0.004 A 
ATOM     21  C   UNL A   1      30.864  28.231  22.366  1.00  0.00     0.010 A 
ATOM     22  C   UNL A   1      28.552  28.272  22.989  1.00  0.00     0.010 A 
ATOM     23  C   UNL A   1      29.612  28.843  22.272  1.00  0.00     0.038 A 
BRANCH  23  24
ATOM     24  N   UNL A   1      29.526  29.997  21.469  1.00  0.00    -0.061 NA
ATOM     25  N   UNL A   1      28.762  30.891  21.870  1.00  0.00     0.005 N 
ATOM     26  N   UNL A   1      28.068  31.726  22.227  1.00  0.00    -0.003 NA
ENDBRANCH  23  24
ENDBRANCH  17  18
ENDBRANCH   7  17
ENDBRANCH   4   7
ENDBRANCH   2   3
ENDBRANCH   1   2
BRANCH   1  27
ATOM     27  C   UNL A   1      35.678  22.566  25.559  1.00  0.00     0.023 C 
BRANCH  27  28
ATOM     28  C   UNL A   1      37.067  23.213  25.545  1.00  0.00     0.116 C 
BRANCH  28  29
ATOM     29  N   UNL A   1      38.151  22.330  25.945  1.00  0.00    -0.352 N 
ATOM     30  C   UNL A   1      39.309  22.645  26.617  1.00  0.00     0.251 C 
ATOM     31  H   UNL A   1      38.042  21.382  25.702  1.00  0.00     0.163 HD
ATOM     32  O   UNL A   1      40.136  21.771  26.853  1.00  0.00    -0.269 OA
BRANCH  30  33
ATOM     33  C   UNL A   1      39.569  24.047  27.005  1.00  0.00     0.039 A 
ATOM     34  C   UNL A   1      39.364  24.413  28.336  1.00  0.00     0.014 A 
ATOM     35  C   UNL A   1      40.040  24.984  26.080  1.00  0.00     0.014 A 
ATOM     36  C   UNL A   1      39.699  25.701  28.755  1.00  0.00     0.010 A 
ATOM     37  C   UNL A   1      40.427  26.253  26.514  1.00  0.00     0.010 A 
ATOM     38  C   UNL A   1      40.276  26.620  27.860  1.00  0.00    -0.014 A 
BRANCH  38  39
ATOM     39  C   UNL A   1      40.776  27.928  28.364  1.00  0.00     0.031 A 
ATOM     40  C   UNL A   1      42.238  28.273  28.329  1.00  0.00     0.074 A 
ATOM     41  C   UNL A   1      39.888  28.813  28.862  1.00  0.00     0.049 A 
ATOM     42  N   UNL A   1      42.828  29.398  28.647  1.00  0.00    -0.248 NA
ATOM     43  C   UNL A   1      43.161  27.212  27.904  1.00  0.00     0.031 C 
ATOM     44  C   UNL A   1      38.449  28.567  29.007  1.00  0.00     0.029 A 
ATOM     45  N   UNL A   1      40.049  30.096  29.321  1.00  0.00    -0.354 N 
ATOM     46  C   UNL A   1      44.188  29.186  28.451  1.00  0.00     0.074 A 
ATOM     47  C   UNL A   1      44.338  27.801  28.054  1.00  0.00     0.031 C 
ATOM     48  C   UNL A   1      37.856  29.679  29.465  1.00  0.00     0.029 A 
ATOM     49  C   UNL A   1      38.870  30.702  29.692  1.00  0.00     0.049 A 
ATOM     50  H   UNL A   1      40.926  30.540  29.379  1.00  0.00     0.167 HD
ATOM     51  C   UNL A   1      45.211  30.070  28.570  1.00  0.00     0.034 A 
ATOM     52  C   UNL A   1      38.629  31.944  30.160  1.00  0.00     0.034 A 
ATOM     53  C   UNL A   1      45.042  31.445  28.983  1.00  0.00     0.049 A 
ATOM     54  C   UNL A   1      39.786  32.900  30.302  1.00  0.00     0.074 A 
ATOM     55  C   UNL A   1      46.001  32.439  29.087  1.00  0.00     0.029 A 
ATOM     56  N   UNL A   1      43.839  32.019  29.381  1.00  0.00    -0.354 N 
ATOM     57  N   UNL A   1      41.057  32.707  30.031  1.00  0.00    -0.248 NA
ATOM     58  C   UNL A   1      39.469  34.245  30.792  1.00  0.00     0.031 C 
ATOM     59  C   UNL A   1      45.398  33.580  29.629  1.00  0.00     0.029 A 
ATOM     60  C   UNL A   1      44.042  33.336  29.771  1.00  0.00     0.049 A 
ATOM     61  H   UNL A   1      42.969  31.558  29.385  1.00  0.00     0.167 HD
ATOM     62  C   UNL A   1      41.688  33.919  30.300  1.00  0.00     0.074 A 
ATOM     63  C   UNL A   1      40.649  34.841  30.713  1.00  0.00     0.031 C 
ATOM     64  C   UNL A   1      43.005  34.242  30.216  1.00  0.00     0.034 A 
BRANCH  51  65
ATOM     65  C   UNL A   1      46.608  29.567  28.276  1.00  0.00     0.023 A 
ATOM     66  C   UNL A   1      47.446  29.074  29.293  1.00  0.00     0.031 A 
ATOM     67  C   UNL A   1      47.115  29.592  26.965  1.00  0.00     0.131 A 
ATOM     68  C   UNL A   1      48.766  28.700  28.995  1.00  0.00     0.055 A 
ATOM     69  C   UNL A   1      48.399  29.135  26.661  1.00  0.00     0.041 A 
ATOM     70  F   UNL A   1      46.374  30.071  25.954  1.00  0.00    -0.206 F 
ATOM     71  C   UNL A   1      49.239  28.699  27.682  1.00  0.00     0.022 A 
BRANCH  68  72
ATOM     72  S   UNL A   1      49.900  28.360  30.369  1.00  0.00     0.124 S 
ATOM     73  O   UNL A   1      49.763  26.913  30.515  1.00  0.00    -0.237 OA
ATOM     74  O   UNL A   1      51.178  28.833  29.850  1.00  0.00    -0.237 OA
ATOM     75  O   UNL A   1      49.345  29.144  31.472  1.00  0.00    -0.744 OA
ENDBRANCH  68  72
ENDBRANCH  51  65
BRANCH  52  76
ATOM     76  C   UNL A   1      37.244  32.358  30.532  1.00  0.00     0.023 A 
ATOM     77  C   UNL A   1      36.340  32.837  29.570  1.00  0.00     0.031 A 
ATOM     78  C   UNL A   1      36.818  32.323  31.873  1.00  0.00     0.131 A 
ATOM     79  C   UNL A   1      35.079  33.310  29.967  1.00  0.00     0.055 A 
ATOM     80  C   UNL A   1      35.539  32.734  32.253  1.00  0.00     0.041 A 
ATOM     81  F   UNL A   1      37.640  31.873  32.835  1.00  0.00    -0.206 F 
ATOM     82  C   UNL A   1      34.667  33.245  31.300  1.00  0.00     0.022 A 
BRANCH  79  83
ATOM     83  S   UNL A   1      34.017  34.105  28.728  1.00  0.00     0.124 S 
ATOM     84  O   UNL A   1      33.735  32.996  27.824  1.00  0.00    -0.237 OA
ATOM     85  O   UNL A   1      32.900  34.571  29.542  1.00  0.00    -0.237 OA
ATOM     86  O   UNL A   1      34.868  35.159  28.180  1.00  0.00    -0.744 OA
ENDBRANCH  79  83
ENDBRANCH  52  76
BRANCH  64  87
ATOM     87  C   UNL A   1      43.380  35.666  30.560  1.00  0.00     0.023 A 
ATOM     88  C   UNL A   1      43.598  36.069  31.890  1.00  0.00     0.031 A 
ATOM     89  C   UNL A   1      43.460  36.647  29.556  1.00  0.00     0.131 A 
ATOM     90  C   UNL A   1      43.785  37.427  32.190  1.00  0.00     0.055 A 
ATOM     91  C   UNL A   1      43.736  37.983  29.852  1.00  0.00     0.041 A 
ATOM     92  F   UNL A   1      43.259  36.327  28.268  1.00  0.00    -0.206 F 
ATOM     93  C   UNL A   1      43.876  38.384  31.177  1.00  0.00     0.022 A 
BRANCH  90  94
ATOM     94  S   UNL A   1      43.741  37.943  33.929  1.00  0.00     0.124 S 
ATOM     95  O   UNL A   1      45.139  38.284  34.177  1.00  0.00    -0.237 OA
ATOM     96  O   UNL A   1      42.808  39.063  33.897  1.00  0.00    -0.237 OA
ATOM     97  O   UNL A   1      43.260  36.752  34.627  1.00  0.00    -0.744 OA
ENDBRANCH  90  94
ENDBRANCH  64  87
ENDBRANCH  38  39
ENDBRANCH  30  33
ENDBRANCH  28  29
ENDBRANCH  27  28
ENDBRANCH   1  27
TORSDOF 20
ENDMDL
MODEL 3
REMARK VINA RESULT:     -11.6      5.079      9.902
REMARK SMILES CC(C)(C)OC(=O)N[C@H](Cc1ccc(N=[N+]=[N-])cc1)C(=O)NCCCCNC(=O)c1ccc(-c2c3nc(c(-c4cc(S(=O)(=O)[O-])ccc4F)c4ccc([nH]4)c(-c4cc(S(=O)(=O)[O-])ccc4F)c4nc(c(-c5cc(S(=O)(=O)[O-])ccc5F)c5ccc2[nH]5)C=C4)C=C3)cc1
REMARK SMILES IDX 24 1 23 2 22 3 20 4 21 5 9 7 8 8 6 9 7 10 5 12 2 13 1 14
REMARK SMILES IDX 3 15 4 16 10 17 11 18 12 19 19 20 13 21 18 22 14 23 15 24
REMARK SMILES IDX 16 25 17 26 25 27 26 28 27 29 28 30 29 32 30 33 31 34 92 35
REMARK SMILES IDX 32 36 91 37 33 38 34 39 35 40 85 41 36 42 90 43 84 44 86 45
REMARK SMILES IDX 37 46 89 47 83 48 82 49 38 51 70 52 50 53 69 54 51 55 54 56
REMARK SMILES IDX 68 57 87 58 52 59 53 60 67 62 88 63 55 64 39 65 40 66 48 67
REMARK SMILES IDX 41 68 47 69 49 70 46 71 42 72 43 73 44 74 45 75 71 76 72 77
REMARK SMILES IDX 80 78 73 79 79 80 81 81 78 82 74 83 75 84 76 85 77 86 56 87
REMARK SMILES IDX 57 88 65 89 58 90 64 91 66 92 63 93 59 94 60 95 61 96 62 97
REMARK H PARENT 22 6 8 11 27 31 86 50 54 61
REMARK Flexibility Score: inf
ROOT
ATOM      1  C   UNL A   1      31.784  29.256  26.832  1.00  0.00     0.023 C 
ENDROOT
BRANCH   1   2
ATOM      2  C   UNL A   1      33.055  28.437  26.986  1.00  0.00     0.116 C 
BRANCH   2   3
ATOM      3  N   UNL A   1      33.425  27.708  25.786  1.00  0.00    -0.354 N 
ATOM      4  C   UNL A   1      32.625  27.053  24.889  1.00  0.00     0.243 C 
ATOM      5  O   UNL A   1      33.114  26.765  23.792  1.00  0.00    -0.273 OA
ATOM      6  H   UNL A   1      34.389  27.680  25.591  1.00  0.00     0.163 HD
BRANCH   4   7
ATOM      7  C   UNL A   1      31.143  26.734  25.198  1.00  0.00     0.179 C 
BRANCH   7   8
ATOM      8  N   UNL A   1      30.903  25.757  26.270  1.00  0.00    -0.309 N 
ATOM      9  C   UNL A   1      30.858  24.394  26.280  1.00  0.00     0.408 C 
ATOM     10  O   UNL A   1      30.373  23.823  27.248  1.00  0.00    -0.225 OA
ATOM     11  H   UNL A   1      30.745  26.166  27.152  1.00  0.00     0.167 HD
BRANCH   9  12
ATOM     12  O   UNL A   1      31.418  23.787  25.209  1.00  0.00    -0.444 OA
BRANCH  12  13
ATOM     13  C   UNL A   1      32.712  23.116  25.328  1.00  0.00     0.106 C 
ATOM     14  C   UNL A   1      33.409  23.239  23.959  1.00  0.00     0.056 C 
ATOM     15  C   UNL A   1      32.509  21.627  25.632  1.00  0.00     0.056 C 
ATOM     16  C   UNL A   1      33.624  23.807  26.348  1.00  0.00     0.056 C 
ENDBRANCH  12  13
ENDBRANCH   9  12
ENDBRANCH   7   8
BRANCH   7  17
ATOM     17  C   UNL A   1      30.266  26.545  23.937  1.00  0.00     0.070 C 
BRANCH  17  18
ATOM     18  C   UNL A   1      29.699  27.784  23.262  1.00  0.00    -0.045 A 
ATOM     19  C   UNL A   1      28.320  28.034  23.338  1.00  0.00     0.004 A 
ATOM     20  C   UNL A   1      30.511  28.754  22.668  1.00  0.00     0.004 A 
ATOM     21  C   UNL A   1      27.776  29.222  22.834  1.00  0.00     0.010 A 
ATOM     22  C   UNL A   1      29.959  29.939  22.157  1.00  0.00     0.010 A 
ATOM     23  C   UNL A   1      28.583  30.196  22.243  1.00  0.00     0.038 A 
BRANCH  23  24
ATOM     24  N   UNL A   1      27.939  31.356  21.769  1.00  0.00    -0.061 NA
ATOM     25  N   UNL A   1      28.280  32.429  22.294  1.00  0.00     0.005 N 
ATOM     26  N   UNL A   1      28.586  33.425  22.762  1.00  0.00    -0.003 NA
ENDBRANCH  23  24
ENDBRANCH  17  18
ENDBRANCH   7  17
ENDBRANCH   4   7
ENDBRANCH   2   3
ENDBRANCH   1   2
BRANCH   1  27
ATOM     27  C   UNL A   1      32.005  30.719  26.432  1.00  0.00     0.023 C 
BRANCH  27  28
ATOM     28  C   UNL A   1      33.073  31.500  27.205  1.00  0.00     0.116 C 
BRANCH  28  29
ATOM     29  N   UNL A   1      32.725  32.883  27.490  1.00  0.00    -0.352 N 
ATOM     30  C   UNL A   1      33.395  33.789  28.279  1.00  0.00     0.251 C 
ATOM     31  H   UNL A   1      31.902  33.214  27.063  1.00  0.00     0.163 HD
ATOM     32  O   UNL A   1      32.942  34.919  28.432  1.00  0.00    -0.269 OA
BRANCH  30  33
ATOM     33  C   UNL A   1      34.630  33.377  28.977  1.00  0.00     0.039 A 
ATOM     34  C   UNL A   1      34.520  32.478  30.039  1.00  0.00     0.014 A 
ATOM     35  C   UNL A   1      35.885  33.842  28.572  1.00  0.00     0.014 A 
ATOM     36  C   UNL A   1      35.676  31.990  30.650  1.00  0.00     0.010 A 
ATOM     37  C   UNL A   1      37.040  33.309  29.147  1.00  0.00     0.010 A 
ATOM     38  C   UNL A   1      36.948  32.365  30.181  1.00  0.00    -0.014 A 
BRANCH  38  39
ATOM     39  C   UNL A   1      38.163  31.708  30.738  1.00  0.00     0.031 A 
ATOM     40  C   UNL A   1      38.695  32.069  32.096  1.00  0.00     0.074 A 
ATOM     41  C   UNL A   1      38.791  30.773  29.996  1.00  0.00     0.049 A 
ATOM     42  N   UNL A   1      39.687  31.533  32.762  1.00  0.00    -0.248 NA
ATOM     43  C   UNL A   1      38.045  33.190  32.788  1.00  0.00     0.031 C 
ATOM     44  C   UNL A   1      38.405  30.383  28.636  1.00  0.00     0.029 A 
ATOM     45  N   UNL A   1      39.867  29.969  30.276  1.00  0.00    -0.354 N 
ATOM     46  C   UNL A   1      39.774  32.243  33.955  1.00  0.00     0.074 A 
ATOM     47  C   UNL A   1      38.779  33.292  33.887  1.00  0.00     0.031 C 
ATOM     48  C   UNL A   1      39.195  29.380  28.225  1.00  0.00     0.029 A 
ATOM     49  C   UNL A   1      40.171  29.083  29.267  1.00  0.00     0.049 A 
ATOM     50  H   UNL A   1      40.372  30.020  31.119  1.00  0.00     0.167 HD
ATOM     51  C   UNL A   1      40.594  32.024  35.015  1.00  0.00     0.034 A 
ATOM     52  C   UNL A   1      41.128  28.135  29.187  1.00  0.00     0.034 A 
ATOM     53  C   UNL A   1      41.592  30.979  35.057  1.00  0.00     0.049 A 
ATOM     54  C   UNL A   1      42.037  27.927  30.370  1.00  0.00     0.074 A 
ATOM     55  C   UNL A   1      42.439  30.637  36.098  1.00  0.00     0.029 A 
ATOM     56  N   UNL A   1      41.897  30.120  34.007  1.00  0.00    -0.354 N 
ATOM     57  N   UNL A   1      42.052  28.553  31.525  1.00  0.00    -0.248 NA
ATOM     58  C   UNL A   1      43.046  26.869  30.244  1.00  0.00     0.031 C 
ATOM     59  C   UNL A   1      43.309  29.637  35.650  1.00  0.00     0.029 A 
ATOM     60  C   UNL A   1      42.945  29.281  34.362  1.00  0.00     0.049 A 
ATOM     61  H   UNL A   1      41.435  30.108  33.137  1.00  0.00     0.167 HD
ATOM     62  C   UNL A   1      43.058  27.947  32.272  1.00  0.00     0.074 A 
ATOM     63  C   UNL A   1      43.596  26.882  31.448  1.00  0.00     0.031 C 
ATOM     64  C   UNL A   1      43.501  28.243  33.522  1.00  0.00     0.034 A 
BRANCH  51  65
ATOM     65  C   UNL A   1      40.462  32.951  36.203  1.00  0.00     0.023 A 
ATOM     66  C   UNL A   1      39.681  32.613  37.323  1.00  0.00     0.031 A 
ATOM     67  C   UNL A   1      41.115  34.197  36.214  1.00  0.00     0.131 A 
ATOM     68  C   UNL A   1      39.511  33.537  38.366  1.00  0.00     0.055 A 
ATOM     69  C   UNL A   1      41.014  35.075  37.295  1.00  0.00     0.041 A 
ATOM     70  F   UNL A   1      41.858  34.588  35.167  1.00  0.00    -0.206 F 
ATOM     71  C   UNL A   1      40.195  34.753  38.374  1.00  0.00     0.022 A 
BRANCH  68  72
ATOM     72  S   UNL A   1      38.264  33.188  39.637  1.00  0.00     0.124 S 
ATOM     73  O   UNL A   1      37.070  32.963  38.825  1.00  0.00    -0.237 OA
ATOM     74  O   UNL A   1      38.813  32.014  40.305  1.00  0.00    -0.237 OA
ATOM     75  O   UNL A   1      38.240  34.411  40.438  1.00  0.00    -0.744 OA
ENDBRANCH  68  72
ENDBRANCH  51  65
BRANCH  52  76
ATOM     76  C   UNL A   1      41.281  27.316  27.949  1.00  0.00     0.023 A 
ATOM     77  C   UNL A   1      40.911  25.961  27.919  1.00  0.00     0.031 A 
ATOM     78  C   UNL A   1      41.848  27.867  26.786  1.00  0.00     0.131 A 
ATOM     79  C   UNL A   1      41.158  25.192  26.770  1.00  0.00     0.055 A 
ATOM     80  C   UNL A   1      42.032  27.115  25.625  1.00  0.00     0.041 A 
ATOM     81  F   UNL A   1      42.220  29.158  26.757  1.00  0.00    -0.206 F 
ATOM     82  C   UNL A   1      41.701  25.765  25.618  1.00  0.00     0.022 A 
BRANCH  79  83
ATOM     83  S   UNL A   1      40.852  23.405  26.836  1.00  0.00     0.124 S 
ATOM     84  O   UNL A   1      41.223  23.090  28.210  1.00  0.00    -0.237 OA
ATOM     85  O   UNL A   1      39.430  23.330  26.520  1.00  0.00    -0.237 OA
ATOM     86  O   UNL A   1      41.745  22.871  25.809  1.00  0.00    -0.744 OA
ENDBRANCH  79  83
ENDBRANCH  52  76
BRANCH  64  87
ATOM     87  C   UNL A   1      44.612  27.376  34.073  1.00  0.00     0.023 A 
ATOM     88  C   UNL A   1      44.349  26.124  34.656  1.00  0.00     0.031 A 
ATOM     89  C   UNL A   1      45.942  27.833  34.071  1.00  0.00     0.131 A 
ATOM     90  C   UNL A   1      45.378  25.419  35.299  1.00  0.00     0.055 A 
ATOM     91  C   UNL A   1      46.978  27.085  34.634  1.00  0.00     0.041 A 
ATOM     92  F   UNL A   1      46.258  29.022  33.534  1.00  0.00    -0.206 F 
ATOM     93  C   UNL A   1      46.695  25.882  35.274  1.00  0.00     0.022 A 
BRANCH  90  94
ATOM     94  S   UNL A   1      44.940  23.977  36.308  1.00  0.00     0.124 S 
ATOM     95  O   UNL A   1      43.695  23.539  35.683  1.00  0.00    -0.237 OA
ATOM     96  O   UNL A   1      46.091  23.102  36.118  1.00  0.00    -0.237 OA
ATOM     97  O   UNL A   1      44.797  24.531  37.654  1.00  0.00    -0.744 OA
ENDBRANCH  90  94
ENDBRANCH  64  87
ENDBRANCH  38  39
ENDBRANCH  30  33
ENDBRANCH  28  29
ENDBRANCH  27  28
ENDBRANCH   1  27
TORSDOF 20
ENDMDL
