MODEL 1
REMARK VINA RESULT:     -12.7      0.000      0.000
REMARK SMILES CC1(C)[C@@H](C(=O)NCCc2ccccc2)CC[C@@]1(C)C(=O)NCCCCNC(=O)c1ccc(-c2c3nc(c(-c4cc(S(=O)(=O)[O-])ccc4F)c4ccc([nH]4)c(-c4cc(S(=O)(=O)[O-])ccc4F)c4nc(c(-c5cc(S(=O)(=O)[O-])ccc5F)c5ccc2[nH]5)C=C4)C=C3)cc1
REMARK SMILES IDX 24 1 23 2 22 3 20 4 21 5 18 7 1 8 2 9 3 10 4 11 16 12 17 13
REMARK SMILES IDX 19 14 5 15 6 16 7 17 8 19 9 20 10 21 11 22 15 23 12 24 14 25
REMARK SMILES IDX 13 26 25 27 26 28 27 29 28 30 29 32 30 33 31 34 92 35 32 36
REMARK SMILES IDX 91 37 33 38 34 39 35 40 85 41 36 42 90 43 84 44 86 45 37 46
REMARK SMILES IDX 89 47 83 48 82 49 38 51 70 52 50 53 69 54 51 55 54 56 68 57
REMARK SMILES IDX 87 58 52 59 53 60 67 62 88 63 55 64 39 65 40 66 48 67 41 68
REMARK SMILES IDX 47 69 49 70 46 71 42 72 43 73 44 74 45 75 71 76 72 77 80 78
REMARK SMILES IDX 73 79 79 80 81 81 78 82 74 83 75 84 76 85 77 86 56 87 57 88
REMARK SMILES IDX 65 89 58 90 64 91 66 92 63 93 59 94 60 95 61 96 62 97
REMARK H PARENT 22 6 7 18 27 31 86 50 54 61
REMARK Flexibility Score: inf
ROOT
ATOM      1  C   UNL A   1      35.005  20.365  24.703  1.00  0.00     0.023 C 
ENDROOT
BRANCH   1   2
ATOM      2  C   UNL A   1      33.709  21.156  24.625  1.00  0.00     0.116 C 
BRANCH   2   3
ATOM      3  N   UNL A   1      33.617  22.123  23.564  1.00  0.00    -0.356 N 
ATOM      4  C   UNL A   1      33.910  23.455  23.567  1.00  0.00     0.226 C 
ATOM      5  O   UNL A   1      33.912  23.982  22.447  1.00  0.00    -0.274 OA
ATOM      6  H   UNL A   1      33.292  21.768  22.705  1.00  0.00     0.163 HD
BRANCH   4   7
ATOM      7  C   UNL A   1      34.018  24.317  24.876  1.00  0.00     0.052 C 
ATOM      8  C   UNL A   1      32.829  26.604  23.902  1.00  0.00     0.013 C 
ATOM      9  C   UNL A   1      33.162  25.654  25.064  1.00  0.00    -0.010 C 
ATOM     10  C   UNL A   1      33.870  26.603  26.085  1.00  0.00     0.013 C 
ATOM     11  C   UNL A   1      31.825  25.138  25.683  1.00  0.00     0.085 C 
ATOM     12  C   UNL A   1      32.292  24.130  26.718  1.00  0.00     0.015 C 
ATOM     13  C   UNL A   1      33.488  23.429  26.080  1.00  0.00     0.018 C 
ATOM     14  C   UNL A   1      35.544  24.472  25.104  1.00  0.00     0.022 C 
BRANCH  11  15
ATOM     15  C   UNL A   1      30.853  24.496  24.683  1.00  0.00     0.223 C 
ATOM     16  O   UNL A   1      30.937  23.328  24.309  1.00  0.00    -0.275 OA
ATOM     17  N   UNL A   1      29.863  25.243  24.133  1.00  0.00    -0.356 N 
ATOM     18  H   UNL A   1      29.418  24.835  23.355  1.00  0.00     0.163 HD
BRANCH  17  19
ATOM     19  C   UNL A   1      29.359  26.549  24.509  1.00  0.00     0.120 C 
BRANCH  19  20
ATOM     20  C   UNL A   1      28.303  27.079  23.536  1.00  0.00     0.056 C 
BRANCH  20  21
ATOM     21  C   UNL A   1      28.438  28.496  23.017  1.00  0.00    -0.046 A 
ATOM     22  C   UNL A   1      29.646  28.844  22.390  1.00  0.00     0.004 A 
ATOM     23  C   UNL A   1      27.436  29.473  23.107  1.00  0.00     0.004 A 
ATOM     24  C   UNL A   1      29.835  30.114  21.842  1.00  0.00     0.000 A 
ATOM     25  C   UNL A   1      27.617  30.737  22.539  1.00  0.00     0.000 A 
ATOM     26  C   UNL A   1      28.815  31.057  21.906  1.00  0.00     0.000 A 
ENDBRANCH  20  21
ENDBRANCH  19  20
ENDBRANCH  17  19
ENDBRANCH  11  15
ENDBRANCH   4   7
ENDBRANCH   2   3
ENDBRANCH   1   2
BRANCH   1  27
ATOM     27  C   UNL A   1      36.100  20.969  25.579  1.00  0.00     0.023 C 
BRANCH  27  28
ATOM     28  C   UNL A   1      37.474  21.160  24.938  1.00  0.00     0.116 C 
BRANCH  28  29
ATOM     29  N   UNL A   1      38.477  20.200  25.379  1.00  0.00    -0.352 N 
ATOM     30  C   UNL A   1      39.632  20.373  26.112  1.00  0.00     0.251 C 
ATOM     31  H   UNL A   1      38.300  19.271  25.108  1.00  0.00     0.163 HD
ATOM     32  O   UNL A   1      40.376  19.421  26.299  1.00  0.00    -0.269 OA
BRANCH  30  33
ATOM     33  C   UNL A   1      40.000  21.715  26.623  1.00  0.00     0.039 A 
ATOM     34  C   UNL A   1      41.039  21.816  27.550  1.00  0.00     0.014 A 
ATOM     35  C   UNL A   1      39.352  22.868  26.177  1.00  0.00     0.014 A 
ATOM     36  C   UNL A   1      41.504  23.076  27.935  1.00  0.00     0.010 A 
ATOM     37  C   UNL A   1      39.878  24.121  26.486  1.00  0.00     0.010 A 
ATOM     38  C   UNL A   1      40.972  24.240  27.355  1.00  0.00    -0.014 A 
BRANCH  38  39
ATOM     39  C   UNL A   1      41.578  25.575  27.618  1.00  0.00     0.031 A 
ATOM     40  C   UNL A   1      40.814  26.631  28.370  1.00  0.00     0.074 A 
ATOM     41  C   UNL A   1      42.799  25.858  27.117  1.00  0.00     0.049 A 
ATOM     42  N   UNL A   1      41.164  27.861  28.655  1.00  0.00    -0.248 NA
ATOM     43  C   UNL A   1      39.468  26.269  28.836  1.00  0.00     0.031 C 
ATOM     44  C   UNL A   1      43.616  24.942  26.315  1.00  0.00     0.029 A 
ATOM     45  N   UNL A   1      43.568  26.993  27.202  1.00  0.00    -0.354 N 
ATOM     46  C   UNL A   1      40.079  28.421  29.323  1.00  0.00     0.074 A 
ATOM     47  C   UNL A   1      39.037  27.416  29.339  1.00  0.00     0.031 C 
ATOM     48  C   UNL A   1      44.781  25.537  26.015  1.00  0.00     0.029 A 
ATOM     49  C   UNL A   1      44.781  26.890  26.559  1.00  0.00     0.049 A 
ATOM     50  H   UNL A   1      43.278  27.804  27.678  1.00  0.00     0.167 HD
ATOM     51  C   UNL A   1      39.972  29.647  29.893  1.00  0.00     0.034 A 
ATOM     52  C   UNL A   1      45.780  27.785  26.418  1.00  0.00     0.034 A 
ATOM     53  C   UNL A   1      41.024  30.636  29.877  1.00  0.00     0.049 A 
ATOM     54  C   UNL A   1      45.633  29.145  27.050  1.00  0.00     0.074 A 
ATOM     55  C   UNL A   1      41.045  31.882  30.478  1.00  0.00     0.029 A 
ATOM     56  N   UNL A   1      42.239  30.497  29.217  1.00  0.00    -0.354 N 
ATOM     57  N   UNL A   1      44.627  29.632  27.738  1.00  0.00    -0.248 NA
ATOM     58  C   UNL A   1      46.762  30.071  26.895  1.00  0.00     0.031 C 
ATOM     59  C   UNL A   1      42.238  32.523  30.126  1.00  0.00     0.029 A 
ATOM     60  C   UNL A   1      43.000  31.647  29.369  1.00  0.00     0.049 A 
ATOM     61  H   UNL A   1      42.520  29.698  28.715  1.00  0.00     0.167 HD
ATOM     62  C   UNL A   1      45.015  30.913  28.120  1.00  0.00     0.074 A 
ATOM     63  C   UNL A   1      46.355  31.112  27.606  1.00  0.00     0.031 C 
ATOM     64  C   UNL A   1      44.327  31.842  28.833  1.00  0.00     0.034 A 
BRANCH  51  65
ATOM     65  C   UNL A   1      38.661  29.989  30.562  1.00  0.00     0.023 A 
ATOM     66  C   UNL A   1      37.636  30.667  29.876  1.00  0.00     0.031 A 
ATOM     67  C   UNL A   1      38.438  29.657  31.909  1.00  0.00     0.131 A 
ATOM     68  C   UNL A   1      36.474  31.057  30.558  1.00  0.00     0.055 A 
ATOM     69  C   UNL A   1      37.243  29.974  32.560  1.00  0.00     0.041 A 
ATOM     70  F   UNL A   1      39.385  29.027  32.624  1.00  0.00    -0.206 F 
ATOM     71  C   UNL A   1      36.259  30.693  31.889  1.00  0.00     0.022 A 
BRANCH  68  72
ATOM     72  S   UNL A   1      35.312  32.172  29.722  1.00  0.00     0.124 S 
ATOM     73  O   UNL A   1      34.420  32.542  30.816  1.00  0.00    -0.237 OA
ATOM     74  O   UNL A   1      36.189  33.227  29.226  1.00  0.00    -0.237 OA
ATOM     75  O   UNL A   1      34.708  31.328  28.692  1.00  0.00    -0.744 OA
ENDBRANCH  68  72
ENDBRANCH  51  65
BRANCH  52  76
ATOM     76  C   UNL A   1      47.006  27.434  25.644  1.00  0.00     0.023 A 
ATOM     77  C   UNL A   1      47.138  27.797  24.293  1.00  0.00     0.031 A 
ATOM     78  C   UNL A   1      48.047  26.693  26.232  1.00  0.00     0.131 A 
ATOM     79  C   UNL A   1      48.260  27.377  23.562  1.00  0.00     0.055 A 
ATOM     80  C   UNL A   1      49.186  26.324  25.514  1.00  0.00     0.041 A 
ATOM     81  F   UNL A   1      47.974  26.324  27.520  1.00  0.00    -0.206 F 
ATOM     82  C   UNL A   1      49.292  26.656  24.167  1.00  0.00     0.022 A 
BRANCH  79  83
ATOM     83  S   UNL A   1      48.315  27.717  21.781  1.00  0.00     0.124 S 
ATOM     84  O   UNL A   1      49.446  28.633  21.688  1.00  0.00    -0.237 OA
ATOM     85  O   UNL A   1      48.522  26.384  21.225  1.00  0.00    -0.237 OA
ATOM     86  O   UNL A   1      47.007  28.309  21.506  1.00  0.00    -0.744 OA
ENDBRANCH  79  83
ENDBRANCH  52  76
BRANCH  64  87
ATOM     87  C   UNL A   1      45.036  33.144  29.121  1.00  0.00     0.023 A 
ATOM     88  C   UNL A   1      44.985  34.228  28.228  1.00  0.00     0.031 A 
ATOM     89  C   UNL A   1      45.800  33.291  30.294  1.00  0.00     0.131 A 
ATOM     90  C   UNL A   1      45.732  35.387  28.488  1.00  0.00     0.055 A 
ATOM     91  C   UNL A   1      46.489  34.470  30.580  1.00  0.00     0.041 A 
ATOM     92  F   UNL A   1      45.889  32.288  31.182  1.00  0.00    -0.206 F 
ATOM     93  C   UNL A   1      46.470  35.521  29.667  1.00  0.00     0.022 A 
BRANCH  90  94
ATOM     94  S   UNL A   1      45.813  36.676  27.214  1.00  0.00     0.124 S 
ATOM     95  O   UNL A   1      46.814  37.583  27.764  1.00  0.00    -0.237 OA
ATOM     96  O   UNL A   1      46.215  35.921  26.032  1.00  0.00    -0.237 OA
ATOM     97  O   UNL A   1      44.450  37.206  27.177  1.00  0.00    -0.744 OA
ENDBRANCH  90  94
ENDBRANCH  64  87
ENDBRANCH  38  39
ENDBRANCH  30  33
ENDBRANCH  28  29
ENDBRANCH  27  28
ENDBRANCH   1  27
TORSDOF 18
ENDMDL
MODEL 2
REMARK VINA RESULT:     -12.5      1.473      7.558
REMARK SMILES CC1(C)[C@@H](C(=O)NCCc2ccccc2)CC[C@@]1(C)C(=O)NCCCCNC(=O)c1ccc(-c2c3nc(c(-c4cc(S(=O)(=O)[O-])ccc4F)c4ccc([nH]4)c(-c4cc(S(=O)(=O)[O-])ccc4F)c4nc(c(-c5cc(S(=O)(=O)[O-])ccc5F)c5ccc2[nH]5)C=C4)C=C3)cc1
REMARK SMILES IDX 24 1 23 2 22 3 20 4 21 5 18 7 1 8 2 9 3 10 4 11 16 12 17 13
REMARK SMILES IDX 19 14 5 15 6 16 7 17 8 19 9 20 10 21 11 22 15 23 12 24 14 25
REMARK SMILES IDX 13 26 25 27 26 28 27 29 28 30 29 32 30 33 31 34 92 35 32 36
REMARK SMILES IDX 91 37 33 38 34 39 35 40 85 41 36 42 90 43 84 44 86 45 37 46
REMARK SMILES IDX 89 47 83 48 82 49 38 51 70 52 50 53 69 54 51 55 54 56 68 57
REMARK SMILES IDX 87 58 52 59 53 60 67 62 88 63 55 64 39 65 40 66 48 67 41 68
REMARK SMILES IDX 47 69 49 70 46 71 42 72 43 73 44 74 45 75 71 76 72 77 80 78
REMARK SMILES IDX 73 79 79 80 81 81 78 82 74 83 75 84 76 85 77 86 56 87 57 88
REMARK SMILES IDX 65 89 58 90 64 91 66 92 63 93 59 94 60 95 61 96 62 97
REMARK H PARENT 22 6 7 18 27 31 86 50 54 61
REMARK Flexibility Score: inf
ROOT
ATOM      1  C   UNL A   1      34.759  20.865  24.634  1.00  0.00     0.023 C 
ENDROOT
BRANCH   1   2
ATOM      2  C   UNL A   1      33.613  21.861  24.567  1.00  0.00     0.116 C 
BRANCH   2   3
ATOM      3  N   UNL A   1      33.654  22.806  23.484  1.00  0.00    -0.356 N 
ATOM      4  C   UNL A   1      33.922  24.143  23.499  1.00  0.00     0.226 C 
ATOM      5  O   UNL A   1      34.072  24.649  22.380  1.00  0.00    -0.274 OA
ATOM      6  H   UNL A   1      33.458  22.429  22.595  1.00  0.00     0.163 HD
BRANCH   4   7
ATOM      7  C   UNL A   1      33.833  25.031  24.792  1.00  0.00     0.052 C 
ATOM      8  C   UNL A   1      33.719  27.483  23.539  1.00  0.00     0.013 C 
ATOM      9  C   UNL A   1      33.373  26.561  24.719  1.00  0.00    -0.010 C 
ATOM     10  C   UNL A   1      33.942  27.349  25.943  1.00  0.00     0.013 C 
ATOM     11  C   UNL A   1      31.819  26.473  24.842  1.00  0.00     0.085 C 
ATOM     12  C   UNL A   1      31.619  25.450  25.947  1.00  0.00     0.015 C 
ATOM     13  C   UNL A   1      32.710  24.407  25.726  1.00  0.00     0.018 C 
ATOM     14  C   UNL A   1      35.178  24.780  25.520  1.00  0.00     0.022 C 
BRANCH  11  15
ATOM     15  C   UNL A   1      31.090  26.053  23.558  1.00  0.00     0.223 C 
ATOM     16  O   UNL A   1      30.863  24.883  23.258  1.00  0.00    -0.275 OA
ATOM     17  N   UNL A   1      30.699  26.998  22.667  1.00  0.00    -0.356 N 
ATOM     18  H   UNL A   1      30.433  26.652  21.783  1.00  0.00     0.163 HD
BRANCH  17  19
ATOM     19  C   UNL A   1      30.612  28.438  22.810  1.00  0.00     0.120 C 
BRANCH  19  20
ATOM     20  C   UNL A   1      29.187  28.920  23.094  1.00  0.00     0.056 C 
BRANCH  20  21
ATOM     21  C   UNL A   1      28.745  30.256  22.534  1.00  0.00    -0.046 A 
ATOM     22  C   UNL A   1      28.848  31.377  23.376  1.00  0.00     0.004 A 
ATOM     23  C   UNL A   1      28.260  30.450  21.233  1.00  0.00     0.004 A 
ATOM     24  C   UNL A   1      28.507  32.652  22.924  1.00  0.00     0.000 A 
ATOM     25  C   UNL A   1      27.940  31.731  20.774  1.00  0.00     0.000 A 
ATOM     26  C   UNL A   1      28.064  32.831  21.618  1.00  0.00     0.000 A 
ENDBRANCH  20  21
ENDBRANCH  19  20
ENDBRANCH  17  19
ENDBRANCH  11  15
ENDBRANCH   4   7
ENDBRANCH   2   3
ENDBRANCH   1   2
BRANCH   1  27
ATOM     27  C   UNL A   1      35.882  21.208  25.610  1.00  0.00     0.023 C 
BRANCH  27  28
ATOM     28  C   UNL A   1      37.257  21.501  25.010  1.00  0.00     0.116 C 
BRANCH  28  29
ATOM     29  N   UNL A   1      38.297  20.564  25.414  1.00  0.00    -0.352 N 
ATOM     30  C   UNL A   1      39.461  20.760  26.126  1.00  0.00     0.251 C 
ATOM     31  H   UNL A   1      38.141  19.635  25.131  1.00  0.00     0.163 HD
ATOM     32  O   UNL A   1      40.236  19.828  26.282  1.00  0.00    -0.269 OA
BRANCH  30  33
ATOM     33  C   UNL A   1      39.799  22.104  26.651  1.00  0.00     0.039 A 
ATOM     34  C   UNL A   1      40.799  22.211  27.620  1.00  0.00     0.014 A 
ATOM     35  C   UNL A   1      39.163  23.253  26.180  1.00  0.00     0.014 A 
ATOM     36  C   UNL A   1      41.241  23.474  28.024  1.00  0.00     0.010 A 
ATOM     37  C   UNL A   1      39.669  24.510  26.510  1.00  0.00     0.010 A 
ATOM     38  C   UNL A   1      40.725  24.635  27.424  1.00  0.00    -0.014 A 
BRANCH  38  39
ATOM     39  C   UNL A   1      41.312  25.973  27.711  1.00  0.00     0.031 A 
ATOM     40  C   UNL A   1      42.695  26.324  27.235  1.00  0.00     0.074 A 
ATOM     41  C   UNL A   1      40.618  26.852  28.464  1.00  0.00     0.049 A 
ATOM     42  N   UNL A   1      43.384  27.422  27.427  1.00  0.00    -0.248 NA
ATOM     43  C   UNL A   1      43.413  25.295  26.469  1.00  0.00     0.031 C 
ATOM     44  C   UNL A   1      39.293  26.608  29.042  1.00  0.00     0.029 A 
ATOM     45  N   UNL A   1      40.925  28.126  28.878  1.00  0.00    -0.354 N 
ATOM     46  C   UNL A   1      44.616  27.211  26.816  1.00  0.00     0.074 A 
ATOM     47  C   UNL A   1      44.602  25.856  26.307  1.00  0.00     0.031 C 
ATOM     48  C   UNL A   1      38.889  27.706  29.700  1.00  0.00     0.029 A 
ATOM     49  C   UNL A   1      39.938  28.716  29.635  1.00  0.00     0.049 A 
ATOM     50  H   UNL A   1      41.772  28.574  28.654  1.00  0.00     0.167 HD
ATOM     51  C   UNL A   1      45.651  28.076  26.669  1.00  0.00     0.034 A 
ATOM     52  C   UNL A   1      39.886  29.931  30.218  1.00  0.00     0.034 A 
ATOM     53  C   UNL A   1      45.647  29.429  27.173  1.00  0.00     0.049 A 
ATOM     54  C   UNL A   1      41.053  30.870  30.050  1.00  0.00     0.074 A 
ATOM     55  C   UNL A   1      46.614  30.407  27.024  1.00  0.00     0.029 A 
ATOM     56  N   UNL A   1      44.631  29.993  27.936  1.00  0.00    -0.354 N 
ATOM     57  N   UNL A   1      42.182  30.678  29.409  1.00  0.00    -0.248 NA
ATOM     58  C   UNL A   1      40.932  32.192  30.676  1.00  0.00     0.031 C 
ATOM     59  C   UNL A   1      46.217  31.536  27.751  1.00  0.00     0.029 A 
ATOM     60  C   UNL A   1      44.964  31.292  28.290  1.00  0.00     0.049 A 
ATOM     61  H   UNL A   1      43.795  29.536  28.187  1.00  0.00     0.167 HD
ATOM     62  C   UNL A   1      42.895  31.867  29.534  1.00  0.00     0.074 A 
ATOM     63  C   UNL A   1      42.057  32.775  30.290  1.00  0.00     0.031 C 
ATOM     64  C   UNL A   1      44.129  32.182  29.064  1.00  0.00     0.034 A 
BRANCH  51  65
ATOM     65  C   UNL A   1      46.880  27.571  25.950  1.00  0.00     0.023 A 
ATOM     66  C   UNL A   1      47.142  27.904  24.608  1.00  0.00     0.031 A 
ATOM     67  C   UNL A   1      47.794  26.725  26.604  1.00  0.00     0.131 A 
ATOM     68  C   UNL A   1      48.237  27.336  23.944  1.00  0.00     0.055 A 
ATOM     69  C   UNL A   1      48.931  26.229  25.961  1.00  0.00     0.041 A 
ATOM     70  F   UNL A   1      47.592  26.354  27.878  1.00  0.00    -0.206 F 
ATOM     71  C   UNL A   1      49.149  26.521  24.617  1.00  0.00     0.022 A 
BRANCH  68  72
ATOM     72  S   UNL A   1      48.374  27.562  22.149  1.00  0.00     0.124 S 
ATOM     73  O   UNL A   1      48.594  26.191  21.695  1.00  0.00    -0.237 OA
ATOM     74  O   UNL A   1      47.085  28.150  21.805  1.00  0.00    -0.237 OA
ATOM     75  O   UNL A   1      49.525  28.452  22.001  1.00  0.00    -0.744 OA
ENDBRANCH  68  72
ENDBRANCH  51  65
BRANCH  52  76
ATOM     76  C   UNL A   1      38.694  30.335  31.019  1.00  0.00     0.023 A 
ATOM     77  C   UNL A   1      37.623  31.023  30.426  1.00  0.00     0.031 A 
ATOM     78  C   UNL A   1      38.627  30.077  32.400  1.00  0.00     0.131 A 
ATOM     79  C   UNL A   1      36.554  31.472  31.218  1.00  0.00     0.055 A 
ATOM     80  C   UNL A   1      37.536  30.478  33.174  1.00  0.00     0.041 A 
ATOM     81  F   UNL A   1      39.621  29.419  33.017  1.00  0.00    -0.206 F 
ATOM     82  C   UNL A   1      36.497  31.192  32.585  1.00  0.00     0.022 A 
BRANCH  79  83
ATOM     83  S   UNL A   1      35.275  32.504  30.449  1.00  0.00     0.124 S 
ATOM     84  O   UNL A   1      34.910  31.706  29.285  1.00  0.00    -0.237 OA
ATOM     85  O   UNL A   1      34.276  32.587  31.510  1.00  0.00    -0.237 OA
ATOM     86  O   UNL A   1      35.975  33.753  30.157  1.00  0.00    -0.744 OA
ENDBRANCH  79  83
ENDBRANCH  52  76
BRANCH  64  87
ATOM     87  C   UNL A   1      44.625  33.582  29.333  1.00  0.00     0.023 A 
ATOM     88  C   UNL A   1      45.380  33.892  30.478  1.00  0.00     0.031 A 
ATOM     89  C   UNL A   1      44.313  34.628  28.446  1.00  0.00     0.131 A 
ATOM     90  C   UNL A   1      45.744  35.222  30.739  1.00  0.00     0.055 A 
ATOM     91  C   UNL A   1      44.733  35.938  28.677  1.00  0.00     0.041 A 
ATOM     92  F   UNL A   1      43.592  34.393  27.338  1.00  0.00    -0.206 F 
ATOM     93  C   UNL A   1      45.439  36.244  29.836  1.00  0.00     0.022 A 
BRANCH  90  94
ATOM     94  S   UNL A   1      46.528  35.615  32.327  1.00  0.00     0.124 S 
ATOM     95  O   UNL A   1      47.059  34.318  32.733  1.00  0.00    -0.237 OA
ATOM     96  O   UNL A   1      47.516  36.619  31.947  1.00  0.00    -0.237 OA
ATOM     97  O   UNL A   1      45.420  36.114  33.142  1.00  0.00    -0.744 OA
ENDBRANCH  90  94
ENDBRANCH  64  87
ENDBRANCH  38  39
ENDBRANCH  30  33
ENDBRANCH  28  29
ENDBRANCH  27  28
ENDBRANCH   1  27
TORSDOF 18
ENDMDL
MODEL 3
REMARK VINA RESULT:     -12.3      4.996      8.370
REMARK SMILES CC1(C)[C@@H](C(=O)NCCc2ccccc2)CC[C@@]1(C)C(=O)NCCCCNC(=O)c1ccc(-c2c3nc(c(-c4cc(S(=O)(=O)[O-])ccc4F)c4ccc([nH]4)c(-c4cc(S(=O)(=O)[O-])ccc4F)c4nc(c(-c5cc(S(=O)(=O)[O-])ccc5F)c5ccc2[nH]5)C=C4)C=C3)cc1
REMARK SMILES IDX 24 1 23 2 22 3 20 4 21 5 18 7 1 8 2 9 3 10 4 11 16 12 17 13
REMARK SMILES IDX 19 14 5 15 6 16 7 17 8 19 9 20 10 21 11 22 15 23 12 24 14 25
REMARK SMILES IDX 13 26 25 27 26 28 27 29 28 30 29 32 30 33 31 34 92 35 32 36
REMARK SMILES IDX 91 37 33 38 34 39 35 40 85 41 36 42 90 43 84 44 86 45 37 46
REMARK SMILES IDX 89 47 83 48 82 49 38 51 70 52 50 53 69 54 51 55 54 56 68 57
REMARK SMILES IDX 87 58 52 59 53 60 67 62 88 63 55 64 39 65 40 66 48 67 41 68
REMARK SMILES IDX 47 69 49 70 46 71 42 72 43 73 44 74 45 75 71 76 72 77 80 78
REMARK SMILES IDX 73 79 79 80 81 81 78 82 74 83 75 84 76 85 77 86 56 87 57 88
REMARK SMILES IDX 65 89 58 90 64 91 66 92 63 93 59 94 60 95 61 96 62 97
REMARK H PARENT 22 6 7 18 27 31 86 50 54 61
REMARK Flexibility Score: inf
ROOT
ATOM      1  C   UNL A   1      30.938  29.335  24.281  1.00  0.00     0.023 C 
ENDROOT
BRANCH   1   2
ATOM      2  C   UNL A   1      31.203  27.893  23.881  1.00  0.00     0.116 C 
BRANCH   2   3
ATOM      3  N   UNL A   1      30.888  26.892  24.864  1.00  0.00    -0.356 N 
ATOM      4  C   UNL A   1      31.718  26.137  25.639  1.00  0.00     0.226 C 
ATOM      5  O   UNL A   1      31.145  25.497  26.532  1.00  0.00    -0.274 OA
ATOM      6  H   UNL A   1      29.927  26.727  24.996  1.00  0.00     0.163 HD
BRANCH   4   7
ATOM      7  C   UNL A   1      33.237  25.904  25.314  1.00  0.00     0.052 C 
ATOM      8  C   UNL A   1      33.438  23.351  26.332  1.00  0.00     0.013 C 
ATOM      9  C   UNL A   1      33.878  24.439  25.339  1.00  0.00    -0.010 C 
ATOM     10  C   UNL A   1      35.416  24.532  25.599  1.00  0.00     0.013 C 
ATOM     11  C   UNL A   1      33.632  23.917  23.889  1.00  0.00     0.085 C 
ATOM     12  C   UNL A   1      33.985  25.117  23.027  1.00  0.00     0.015 C 
ATOM     13  C   UNL A   1      33.474  26.327  23.802  1.00  0.00     0.018 C 
ATOM     14  C   UNL A   1      33.977  26.963  26.172  1.00  0.00     0.022 C 
BRANCH  11  15
ATOM     15  C   UNL A   1      32.202  23.433  23.607  1.00  0.00     0.223 C 
ATOM     16  O   UNL A   1      31.273  24.187  23.330  1.00  0.00    -0.275 OA
ATOM     17  N   UNL A   1      31.908  22.112  23.704  1.00  0.00    -0.356 N 
ATOM     18  H   UNL A   1      30.946  21.900  23.720  1.00  0.00     0.163 HD
BRANCH  17  19
ATOM     19  C   UNL A   1      32.788  20.962  23.788  1.00  0.00     0.120 C 
BRANCH  19  20
ATOM     20  C   UNL A   1      32.246  19.870  24.714  1.00  0.00     0.056 C 
BRANCH  20  21
ATOM     21  C   UNL A   1      32.820  18.472  24.603  1.00  0.00    -0.046 A 
ATOM     22  C   UNL A   1      32.673  17.622  25.713  1.00  0.00     0.004 A 
ATOM     23  C   UNL A   1      33.469  17.969  23.467  1.00  0.00     0.004 A 
ATOM     24  C   UNL A   1      33.131  16.304  25.677  1.00  0.00     0.000 A 
ATOM     25  C   UNL A   1      33.907  16.642  23.424  1.00  0.00     0.000 A 
ATOM     26  C   UNL A   1      33.738  15.810  24.527  1.00  0.00     0.000 A 
ENDBRANCH  20  21
ENDBRANCH  19  20
ENDBRANCH  17  19
ENDBRANCH  11  15
ENDBRANCH   4   7
ENDBRANCH   2   3
ENDBRANCH   1   2
BRANCH   1  27
ATOM     27  C   UNL A   1      31.283  29.698  25.723  1.00  0.00     0.023 C 
BRANCH  27  28
ATOM     28  C   UNL A   1      32.610  30.419  25.958  1.00  0.00     0.116 C 
BRANCH  28  29
ATOM     29  N   UNL A   1      32.473  31.749  26.537  1.00  0.00    -0.352 N 
ATOM     30  C   UNL A   1      33.296  32.450  27.393  1.00  0.00     0.251 C 
ATOM     31  H   UNL A   1      31.654  32.227  26.273  1.00  0.00     0.163 HD
ATOM     32  O   UNL A   1      32.935  33.538  27.819  1.00  0.00    -0.269 OA
BRANCH  30  33
ATOM     33  C   UNL A   1      34.583  31.867  27.838  1.00  0.00     0.039 A 
ATOM     34  C   UNL A   1      35.686  32.712  27.982  1.00  0.00     0.014 A 
ATOM     35  C   UNL A   1      34.704  30.510  28.139  1.00  0.00     0.014 A 
ATOM     36  C   UNL A   1      36.869  32.219  28.540  1.00  0.00     0.010 A 
ATOM     37  C   UNL A   1      35.848  30.043  28.784  1.00  0.00     0.010 A 
ATOM     38  C   UNL A   1      36.938  30.896  29.008  1.00  0.00    -0.014 A 
BRANCH  38  39
ATOM     39  C   UNL A   1      38.125  30.411  29.767  1.00  0.00     0.031 A 
ATOM     40  C   UNL A   1      38.374  30.870  31.178  1.00  0.00     0.074 A 
ATOM     41  C   UNL A   1      39.018  29.606  29.155  1.00  0.00     0.049 A 
ATOM     42  N   UNL A   1      39.373  30.587  31.977  1.00  0.00    -0.248 NA
ATOM     43  C   UNL A   1      37.387  31.792  31.758  1.00  0.00     0.031 C 
ATOM     44  C   UNL A   1      38.926  29.142  27.767  1.00  0.00     0.029 A 
ATOM     45  N   UNL A   1      40.180  29.035  29.614  1.00  0.00    -0.354 N 
ATOM     46  C   UNL A   1      39.141  31.304  33.146  1.00  0.00     0.074 A 
ATOM     47  C   UNL A   1      37.942  32.084  32.925  1.00  0.00     0.031 C 
ATOM     48  C   UNL A   1      39.962  28.331  27.503  1.00  0.00     0.029 A 
ATOM     49  C   UNL A   1      40.820  28.252  28.679  1.00  0.00     0.049 A 
ATOM     50  H   UNL A   1      40.523  29.173  30.526  1.00  0.00     0.167 HD
ATOM     51  C   UNL A   1      39.846  31.291  34.306  1.00  0.00     0.034 A 
ATOM     52  C   UNL A   1      41.971  27.553  28.757  1.00  0.00     0.034 A 
ATOM     53  C   UNL A   1      41.035  30.499  34.515  1.00  0.00     0.049 A 
ATOM     54  C   UNL A   1      42.742  27.563  30.052  1.00  0.00     0.074 A 
ATOM     55  C   UNL A   1      41.787  30.362  35.669  1.00  0.00     0.029 A 
ATOM     56  N   UNL A   1      41.654  29.718  33.546  1.00  0.00    -0.354 N 
ATOM     57  N   UNL A   1      42.469  28.192  31.171  1.00  0.00    -0.248 NA
ATOM     58  C   UNL A   1      43.970  26.760  30.095  1.00  0.00     0.031 C 
ATOM     59  C   UNL A   1      42.895  29.556  35.381  1.00  0.00     0.029 A 
ATOM     60  C   UNL A   1      42.794  29.125  34.068  1.00  0.00     0.049 A 
ATOM     61  H   UNL A   1      41.329  29.601  32.624  1.00  0.00     0.167 HD
ATOM     62  C   UNL A   1      43.480  27.838  32.060  1.00  0.00     0.074 A 
ATOM     63  C   UNL A   1      44.353  26.923  31.352  1.00  0.00     0.031 C 
ATOM     64  C   UNL A   1      43.670  28.231  33.346  1.00  0.00     0.034 A 
BRANCH  51  65
ATOM     65  C   UNL A   1      39.355  32.177  35.426  1.00  0.00     0.023 A 
ATOM     66  C   UNL A   1      39.744  33.526  35.527  1.00  0.00     0.031 A 
ATOM     67  C   UNL A   1      38.504  31.666  36.422  1.00  0.00     0.131 A 
ATOM     68  C   UNL A   1      39.351  34.289  36.635  1.00  0.00     0.055 A 
ATOM     69  C   UNL A   1      38.047  32.456  37.479  1.00  0.00     0.041 A 
ATOM     70  F   UNL A   1      38.111  30.382  36.393  1.00  0.00    -0.206 F 
ATOM     71  C   UNL A   1      38.483  33.772  37.600  1.00  0.00     0.022 A 
BRANCH  68  72
ATOM     72  S   UNL A   1      40.104  35.922  36.874  1.00  0.00     0.124 S 
ATOM     73  O   UNL A   1      39.743  36.598  35.630  1.00  0.00    -0.237 OA
ATOM     74  O   UNL A   1      39.440  36.404  38.079  1.00  0.00    -0.237 OA
ATOM     75  O   UNL A   1      41.528  35.625  37.022  1.00  0.00    -0.744 OA
ENDBRANCH  68  72
ENDBRANCH  51  65
BRANCH  52  76
ATOM     76  C   UNL A   1      42.473  26.788  27.578  1.00  0.00     0.023 A 
ATOM     77  C   UNL A   1      42.133  25.438  27.393  1.00  0.00     0.031 A 
ATOM     78  C   UNL A   1      43.336  27.384  26.641  1.00  0.00     0.131 A 
ATOM     79  C   UNL A   1      42.690  24.715  26.327  1.00  0.00     0.055 A 
ATOM     80  C   UNL A   1      43.844  26.675  25.552  1.00  0.00     0.041 A 
ATOM     81  F   UNL A   1      43.690  28.673  26.768  1.00  0.00    -0.206 F 
ATOM     82  C   UNL A   1      43.532  25.328  25.397  1.00  0.00     0.022 A 
BRANCH  79  83
ATOM     83  S   UNL A   1      42.364  22.934  26.219  1.00  0.00     0.124 S 
ATOM     84  O   UNL A   1      43.155  22.419  27.331  1.00  0.00    -0.237 OA
ATOM     85  O   UNL A   1      40.915  22.881  26.384  1.00  0.00    -0.237 OA
ATOM     86  O   UNL A   1      42.850  22.578  24.888  1.00  0.00    -0.744 OA
ENDBRANCH  79  83
ENDBRANCH  52  76
BRANCH  64  87
ATOM     87  C   UNL A   1      44.855  27.640  34.072  1.00  0.00     0.023 A 
ATOM     88  C   UNL A   1      44.762  26.423  34.770  1.00  0.00     0.031 A 
ATOM     89  C   UNL A   1      46.086  28.320  34.093  1.00  0.00     0.131 A 
ATOM     90  C   UNL A   1      45.859  25.953  35.508  1.00  0.00     0.055 A 
ATOM     91  C   UNL A   1      47.193  27.816  34.775  1.00  0.00     0.041 A 
ATOM     92  F   UNL A   1      46.232  29.488  33.448  1.00  0.00    -0.206 F 
ATOM     93  C   UNL A   1      47.079  26.634  35.501  1.00  0.00     0.022 A 
BRANCH  90  94
ATOM     94  S   UNL A   1      45.637  24.496  36.566  1.00  0.00     0.124 S 
ATOM     95  O   UNL A   1      46.682  24.685  37.566  1.00  0.00    -0.237 OA
ATOM     96  O   UNL A   1      44.266  24.658  37.036  1.00  0.00    -0.237 OA
ATOM     97  O   UNL A   1      45.850  23.374  35.652  1.00  0.00    -0.744 OA
ENDBRANCH  90  94
ENDBRANCH  64  87
ENDBRANCH  38  39
ENDBRANCH  30  33
ENDBRANCH  28  29
ENDBRANCH  27  28
ENDBRANCH   1  27
TORSDOF 18
ENDMDL
