MODEL 1
REMARK VINA RESULT:     -11.8      0.000      0.000
REMARK SMILES C=C(C(=O)NCCCCNC(=O)c1ccc(-c2c3nc(c(-c4cc(S(=O)(=O)[O-])ccc4F)c4ccc([nH]4)c(-c4cc(S(=O)(=O)[O-])ccc4F)c4nc(c(-c5cc(S(=O)(=O)[O-])ccc5F)c5ccc2[nH]5)C=C4)C=C3)cc1)[C@@H]1CC[C@]2(C)C[C@@H](O)CC(=C)[C@H]2C1
REMARK SMILES IDX 8 1 7 2 6 3 5 4 3 5 4 6 2 8 1 9 76 10 77 11 88 12 78 13
REMARK SMILES IDX 87 14 79 15 85 16 80 17 81 18 84 19 86 20 82 21 83 22 9 24
REMARK SMILES IDX 10 25 11 26 12 28 13 29 14 30 75 31 15 32 74 33 16 34 17 35
REMARK SMILES IDX 18 36 68 37 19 38 73 39 67 40 69 41 20 42 72 43 66 44 65 45
REMARK SMILES IDX 21 47 53 48 33 49 52 50 34 51 37 52 51 53 70 54 35 55 36 56
REMARK SMILES IDX 50 58 71 59 38 60 22 61 23 62 31 63 24 64 30 65 32 66 29 67
REMARK SMILES IDX 25 68 26 69 27 70 28 71 54 72 55 73 63 74 56 75 62 76 64 77
REMARK SMILES IDX 61 78 57 79 58 80 59 81 60 82 39 83 40 84 48 85 41 86 47 87
REMARK SMILES IDX 49 88 46 89 42 90 43 91 44 92 45 93
REMARK H PARENT 5 7 83 23 10 27 69 46 37 57
REMARK Flexibility Score: inf
ROOT
ATOM      1  C   UNL A   1      33.107  27.488  26.334  1.00  0.00     0.023 C 
ENDROOT
BRANCH   1   2
ATOM      2  C   UNL A   1      31.690  27.981  26.029  1.00  0.00     0.023 C 
BRANCH   2   3
ATOM      3  C   UNL A   1      30.739  26.908  25.488  1.00  0.00     0.116 C 
BRANCH   3   4
ATOM      4  N   UNL A   1      30.328  27.237  24.140  1.00  0.00    -0.352 N 
ATOM      5  C   UNL A   1      30.981  27.194  22.950  1.00  0.00     0.246 C 
ATOM      6  O   UNL A   1      30.423  27.732  21.996  1.00  0.00    -0.270 OA
ATOM      7  H   UNL A   1      29.397  27.550  24.072  1.00  0.00     0.163 HD
BRANCH   5   8
ATOM      8  C   UNL A   1      32.296  26.496  22.779  1.00  0.00     0.013 C 
ATOM      9  C   UNL A   1      33.445  27.185  22.639  1.00  0.00     0.018 C 
BRANCH   8  10
ATOM     10  C   UNL A   1      32.350  24.976  22.586  1.00  0.00     0.025 C 
ATOM     11  C   UNL A   1      31.265  24.121  23.271  1.00  0.00     0.009 C 
ATOM     12  C   UNL A   1      33.774  24.412  22.773  1.00  0.00     0.017 C 
ATOM     13  C   UNL A   1      31.639  23.591  24.657  1.00  0.00     0.008 C 
ATOM     14  C   UNL A   1      34.086  23.937  24.203  1.00  0.00     0.021 C 
ATOM     15  C   UNL A   1      33.028  22.910  24.708  1.00  0.00    -0.024 C 
ATOM     16  C   UNL A   1      35.495  23.387  24.419  1.00  0.00    -0.071 C 
ATOM     17  C   UNL A   1      32.980  21.626  23.842  1.00  0.00     0.012 C 
ATOM     18  C   UNL A   1      33.330  22.533  26.191  1.00  0.00     0.039 C 
ATOM     19  C   UNL A   1      35.805  23.095  25.875  1.00  0.00     0.062 C 
ATOM     20  C   UNL A   1      36.407  23.160  23.459  1.00  0.00     0.008 C 
ATOM     21  C   UNL A   1      34.782  22.128  26.487  1.00  0.00     0.119 C 
BRANCH  21  22
ATOM     22  O   UNL A   1      35.026  20.787  26.060  1.00  0.00    -0.393 OA
ATOM     23  H   UNL A   1      34.491  20.594  25.275  1.00  0.00     0.210 HD
ENDBRANCH  21  22
ENDBRANCH   8  10
ENDBRANCH   5   8
ENDBRANCH   3   4
ENDBRANCH   2   3
ENDBRANCH   1   2
BRANCH   1  24
ATOM     24  C   UNL A   1      34.204  28.527  26.150  1.00  0.00     0.116 C 
BRANCH  24  25
ATOM     25  N   UNL A   1      33.789  29.863  26.546  1.00  0.00    -0.352 N 
ATOM     26  C   UNL A   1      34.377  30.711  27.452  1.00  0.00     0.251 C 
ATOM     27  H   UNL A   1      32.976  30.205  26.107  1.00  0.00     0.163 HD
ATOM     28  O   UNL A   1      33.816  31.756  27.768  1.00  0.00    -0.269 OA
BRANCH  26  29
ATOM     29  C   UNL A   1      35.667  30.331  28.062  1.00  0.00     0.039 A 
ATOM     30  C   UNL A   1      35.663  29.707  29.312  1.00  0.00     0.014 A 
ATOM     31  C   UNL A   1      36.868  30.553  27.382  1.00  0.00     0.014 A 
ATOM     32  C   UNL A   1      36.864  29.247  29.852  1.00  0.00     0.010 A 
ATOM     33  C   UNL A   1      38.052  30.031  27.890  1.00  0.00     0.010 A 
ATOM     34  C   UNL A   1      38.063  29.372  29.129  1.00  0.00    -0.014 A 
BRANCH  34  35
ATOM     35  C   UNL A   1      39.338  28.827  29.656  1.00  0.00     0.031 A 
ATOM     36  C   UNL A   1      40.037  29.521  30.791  1.00  0.00     0.074 A 
ATOM     37  C   UNL A   1      39.895  27.749  29.068  1.00  0.00     0.049 A 
ATOM     38  N   UNL A   1      41.195  29.254  31.339  1.00  0.00    -0.248 NA
ATOM     39  C   UNL A   1      39.356  30.692  31.365  1.00  0.00     0.031 C 
ATOM     40  C   UNL A   1      39.330  27.021  27.929  1.00  0.00     0.029 A 
ATOM     41  N   UNL A   1      41.064  27.084  29.338  1.00  0.00    -0.354 N 
ATOM     42  C   UNL A   1      41.386  30.227  32.314  1.00  0.00     0.074 A 
ATOM     43  C   UNL A   1      40.256  31.129  32.232  1.00  0.00     0.031 C 
ATOM     44  C   UNL A   1      40.142  26.000  27.613  1.00  0.00     0.029 A 
ATOM     45  C   UNL A   1      41.306  26.025  28.493  1.00  0.00     0.049 A 
ATOM     46  H   UNL A   1      41.673  27.340  30.068  1.00  0.00     0.167 HD
ATOM     47  C   UNL A   1      42.397  30.342  33.211  1.00  0.00     0.034 A 
ATOM     48  C   UNL A   1      42.353  25.179  28.428  1.00  0.00     0.034 A 
ATOM     49  C   UNL A   1      43.511  29.428  33.281  1.00  0.00     0.049 A 
ATOM     50  C   UNL A   1      43.476  25.338  29.422  1.00  0.00     0.074 A 
ATOM     51  C   UNL A   1      44.566  29.421  34.175  1.00  0.00     0.029 A 
ATOM     52  N   UNL A   1      43.717  28.359  32.416  1.00  0.00    -0.354 N 
ATOM     53  N   UNL A   1      43.618  26.235  30.372  1.00  0.00    -0.248 NA
ATOM     54  C   UNL A   1      44.572  24.363  29.345  1.00  0.00     0.031 C 
ATOM     55  C   UNL A   1      45.442  28.392  33.813  1.00  0.00     0.029 A 
ATOM     56  C   UNL A   1      44.895  27.704  32.740  1.00  0.00     0.049 A 
ATOM     57  H   UNL A   1      43.114  28.104  31.681  1.00  0.00     0.167 HD
ATOM     58  C   UNL A   1      44.805  25.911  31.023  1.00  0.00     0.074 A 
ATOM     59  C   UNL A   1      45.328  24.729  30.368  1.00  0.00     0.031 C 
ATOM     60  C   UNL A   1      45.408  26.532  32.070  1.00  0.00     0.034 A 
BRANCH  47  61
ATOM     61  C   UNL A   1      42.344  31.510  34.168  1.00  0.00     0.023 A 
ATOM     62  C   UNL A   1      41.531  31.485  35.316  1.00  0.00     0.031 A 
ATOM     63  C   UNL A   1      43.088  32.676  33.915  1.00  0.00     0.131 A 
ATOM     64  C   UNL A   1      41.419  32.629  36.120  1.00  0.00     0.055 A 
ATOM     65  C   UNL A   1      43.036  33.781  34.767  1.00  0.00     0.041 A 
ATOM     66  F   UNL A   1      43.864  32.769  32.824  1.00  0.00    -0.206 F 
ATOM     67  C   UNL A   1      42.186  33.768  35.868  1.00  0.00     0.022 A 
BRANCH  64  68
ATOM     68  S   UNL A   1      40.142  32.658  37.407  1.00  0.00     0.124 S 
ATOM     69  O   UNL A   1      40.932  32.416  38.612  1.00  0.00    -0.237 OA
ATOM     70  O   UNL A   1      39.582  33.997  37.268  1.00  0.00    -0.237 OA
ATOM     71  O   UNL A   1      39.248  31.565  37.028  1.00  0.00    -0.744 OA
ENDBRANCH  64  68
ENDBRANCH  47  61
BRANCH  48  72
ATOM     72  C   UNL A   1      42.403  24.116  27.384  1.00  0.00     0.023 A 
ATOM     73  C   UNL A   1      41.787  22.872  27.588  1.00  0.00     0.031 A 
ATOM     74  C   UNL A   1      43.102  24.316  26.180  1.00  0.00     0.131 A 
ATOM     75  C   UNL A   1      41.924  21.856  26.627  1.00  0.00     0.055 A 
ATOM     76  C   UNL A   1      43.190  23.322  25.204  1.00  0.00     0.041 A 
ATOM     77  F   UNL A   1      43.703  25.490  25.931  1.00  0.00    -0.206 F 
ATOM     78  C   UNL A   1      42.610  22.078  25.430  1.00  0.00     0.022 A 
BRANCH  75  79
ATOM     79  S   UNL A   1      41.264  20.210  27.003  1.00  0.00     0.124 S 
ATOM     80  O   UNL A   1      42.443  19.369  26.825  1.00  0.00    -0.237 OA
ATOM     81  O   UNL A   1      40.798  20.378  28.375  1.00  0.00    -0.237 OA
ATOM     82  O   UNL A   1      40.212  20.029  26.006  1.00  0.00    -0.744 OA
ENDBRANCH  75  79
ENDBRANCH  48  72
BRANCH  60  83
ATOM     83  C   UNL A   1      46.677  25.909  32.596  1.00  0.00     0.023 A 
ATOM     84  C   UNL A   1      46.656  24.887  33.562  1.00  0.00     0.031 A 
ATOM     85  C   UNL A   1      47.928  26.353  32.130  1.00  0.00     0.131 A 
ATOM     86  C   UNL A   1      47.862  24.383  34.071  1.00  0.00     0.055 A 
ATOM     87  C   UNL A   1      49.123  25.804  32.595  1.00  0.00     0.041 A 
ATOM     88  F   UNL A   1      48.006  27.328  31.210  1.00  0.00    -0.206 F 
ATOM     89  C   UNL A   1      49.095  24.822  33.582  1.00  0.00     0.022 A 
BRANCH  86  90
ATOM     90  S   UNL A   1      47.801  23.205  35.450  1.00  0.00     0.124 S 
ATOM     91  O   UNL A   1      48.841  22.251  35.080  1.00  0.00    -0.237 OA
ATOM     92  O   UNL A   1      48.095  24.056  36.600  1.00  0.00    -0.237 OA
ATOM     93  O   UNL A   1      46.435  22.686  35.397  1.00  0.00    -0.744 OA
ENDBRANCH  86  90
ENDBRANCH  60  83
ENDBRANCH  34  35
ENDBRANCH  26  29
ENDBRANCH  24  25
ENDBRANCH   1  24
TORSDOF 16
ENDMDL
MODEL 2
REMARK VINA RESULT:     -11.7      4.805      9.747
REMARK SMILES C=C(C(=O)NCCCCNC(=O)c1ccc(-c2c3nc(c(-c4cc(S(=O)(=O)[O-])ccc4F)c4ccc([nH]4)c(-c4cc(S(=O)(=O)[O-])ccc4F)c4nc(c(-c5cc(S(=O)(=O)[O-])ccc5F)c5ccc2[nH]5)C=C4)C=C3)cc1)[C@@H]1CC[C@]2(C)C[C@@H](O)CC(=C)[C@H]2C1
REMARK SMILES IDX 8 1 7 2 6 3 5 4 3 5 4 6 2 8 1 9 76 10 77 11 88 12 78 13
REMARK SMILES IDX 87 14 79 15 85 16 80 17 81 18 84 19 86 20 82 21 83 22 9 24
REMARK SMILES IDX 10 25 11 26 12 28 13 29 14 30 75 31 15 32 74 33 16 34 17 35
REMARK SMILES IDX 18 36 68 37 19 38 73 39 67 40 69 41 20 42 72 43 66 44 65 45
REMARK SMILES IDX 21 47 53 48 33 49 52 50 34 51 37 52 51 53 70 54 35 55 36 56
REMARK SMILES IDX 50 58 71 59 38 60 22 61 23 62 31 63 24 64 30 65 32 66 29 67
REMARK SMILES IDX 25 68 26 69 27 70 28 71 54 72 55 73 63 74 56 75 62 76 64 77
REMARK SMILES IDX 61 78 57 79 58 80 59 81 60 82 39 83 40 84 48 85 41 86 47 87
REMARK SMILES IDX 49 88 46 89 42 90 43 91 44 92 45 93
REMARK H PARENT 5 7 83 23 10 27 69 46 37 57
REMARK Flexibility Score: inf
ROOT
ATOM      1  C   UNL A   1      36.091  21.913  25.408  1.00  0.00     0.023 C 
ENDROOT
BRANCH   1   2
ATOM      2  C   UNL A   1      35.348  22.933  26.275  1.00  0.00     0.023 C 
BRANCH   2   3
ATOM      3  C   UNL A   1      34.106  22.388  26.987  1.00  0.00     0.116 C 
BRANCH   3   4
ATOM      4  N   UNL A   1      33.477  21.363  26.183  1.00  0.00    -0.352 N 
ATOM      5  C   UNL A   1      32.311  21.336  25.487  1.00  0.00     0.246 C 
ATOM      6  O   UNL A   1      31.948  20.241  25.064  1.00  0.00    -0.270 OA
ATOM      7  H   UNL A   1      33.992  20.526  26.130  1.00  0.00     0.163 HD
BRANCH   5   8
ATOM      8  C   UNL A   1      31.514  22.574  25.204  1.00  0.00     0.013 C 
ATOM      9  C   UNL A   1      30.630  23.059  26.096  1.00  0.00     0.018 C 
BRANCH   8  10
ATOM     10  C   UNL A   1      31.559  23.226  23.818  1.00  0.00     0.025 C 
ATOM     11  C   UNL A   1      32.935  23.404  23.146  1.00  0.00     0.009 C 
ATOM     12  C   UNL A   1      30.677  24.491  23.738  1.00  0.00     0.017 C 
ATOM     13  C   UNL A   1      33.610  24.754  23.400  1.00  0.00     0.008 C 
ATOM     14  C   UNL A   1      31.420  25.802  24.046  1.00  0.00     0.021 C 
ATOM     15  C   UNL A   1      32.684  25.968  23.149  1.00  0.00    -0.024 C 
ATOM     16  C   UNL A   1      30.568  27.069  23.988  1.00  0.00    -0.071 C 
ATOM     17  C   UNL A   1      32.344  26.025  21.639  1.00  0.00     0.012 C 
ATOM     18  C   UNL A   1      33.455  27.259  23.564  1.00  0.00     0.039 C 
ATOM     19  C   UNL A   1      31.303  28.307  24.465  1.00  0.00     0.062 C 
ATOM     20  C   UNL A   1      29.295  27.142  23.563  1.00  0.00     0.008 C 
ATOM     21  C   UNL A   1      32.601  28.531  23.677  1.00  0.00     0.119 C 
BRANCH  21  22
ATOM     22  O   UNL A   1      32.327  29.068  22.382  1.00  0.00    -0.393 OA
ATOM     23  H   UNL A   1      32.847  29.876  22.249  1.00  0.00     0.210 HD
ENDBRANCH  21  22
ENDBRANCH   8  10
ENDBRANCH   5   8
ENDBRANCH   3   4
ENDBRANCH   2   3
ENDBRANCH   1   2
BRANCH   1  24
ATOM     24  C   UNL A   1      37.552  22.242  25.134  1.00  0.00     0.116 C 
BRANCH  24  25
ATOM     25  N   UNL A   1      38.464  21.239  25.660  1.00  0.00    -0.352 N 
ATOM     26  C   UNL A   1      39.608  21.421  26.396  1.00  0.00     0.251 C 
ATOM     27  H   UNL A   1      38.230  20.303  25.461  1.00  0.00     0.163 HD
ATOM     28  O   UNL A   1      40.337  20.465  26.645  1.00  0.00    -0.269 OA
BRANCH  26  29
ATOM     29  C   UNL A   1      39.966  22.781  26.846  1.00  0.00     0.039 A 
ATOM     30  C   UNL A   1      40.860  22.926  27.909  1.00  0.00     0.014 A 
ATOM     31  C   UNL A   1      39.450  23.905  26.193  1.00  0.00     0.014 A 
ATOM     32  C   UNL A   1      41.288  24.202  28.276  1.00  0.00     0.010 A 
ATOM     33  C   UNL A   1      39.934  25.169  26.514  1.00  0.00     0.010 A 
ATOM     34  C   UNL A   1      40.858  25.330  27.558  1.00  0.00    -0.014 A 
BRANCH  34  35
ATOM     35  C   UNL A   1      41.356  26.688  27.888  1.00  0.00     0.031 A 
ATOM     36  C   UNL A   1      42.776  27.063  27.567  1.00  0.00     0.074 A 
ATOM     37  C   UNL A   1      40.551  27.555  28.534  1.00  0.00     0.049 A 
ATOM     38  N   UNL A   1      43.426  28.164  27.845  1.00  0.00    -0.248 NA
ATOM     39  C   UNL A   1      43.581  26.050  26.866  1.00  0.00     0.031 C 
ATOM     40  C   UNL A   1      39.169  27.284  28.938  1.00  0.00     0.029 A 
ATOM     41  N   UNL A   1      40.778  28.834  28.975  1.00  0.00    -0.354 N 
ATOM     42  C   UNL A   1      44.716  27.974  27.364  1.00  0.00     0.074 A 
ATOM     43  C   UNL A   1      44.772  26.626  26.838  1.00  0.00     0.031 C 
ATOM     44  C   UNL A   1      38.668  28.370  29.548  1.00  0.00     0.029 A 
ATOM     45  C   UNL A   1      39.701  29.397  29.619  1.00  0.00     0.049 A 
ATOM     46  H   UNL A   1      41.633  29.305  28.842  1.00  0.00     0.167 HD
ATOM     47  C   UNL A   1      45.750  28.852  27.338  1.00  0.00     0.034 A 
ATOM     48  C   UNL A   1      39.568  30.601  30.212  1.00  0.00     0.034 A 
ATOM     49  C   UNL A   1      45.671  30.194  27.860  1.00  0.00     0.049 A 
ATOM     50  C   UNL A   1      40.737  31.553  30.190  1.00  0.00     0.074 A 
ATOM     51  C   UNL A   1      46.638  31.183  27.848  1.00  0.00     0.029 A 
ATOM     52  N   UNL A   1      44.560  30.735  28.496  1.00  0.00    -0.354 N 
ATOM     53  N   UNL A   1      41.937  31.376  29.685  1.00  0.00    -0.248 NA
ATOM     54  C   UNL A   1      40.529  32.871  30.803  1.00  0.00     0.031 C 
ATOM     55  C   UNL A   1      46.137  32.296  28.531  1.00  0.00     0.029 A 
ATOM     56  C   UNL A   1      44.828  32.034  28.903  1.00  0.00     0.049 A 
ATOM     57  H   UNL A   1      43.706  30.265  28.637  1.00  0.00     0.167 HD
ATOM     58  C   UNL A   1      42.616  32.574  29.896  1.00  0.00     0.074 A 
ATOM     59  C   UNL A   1      41.686  33.467  30.557  1.00  0.00     0.031 C 
ATOM     60  C   UNL A   1      43.891  32.907  29.570  1.00  0.00     0.034 A 
BRANCH  47  61
ATOM     61  C   UNL A   1      47.053  28.371  26.744  1.00  0.00     0.023 A 
ATOM     62  C   UNL A   1      47.248  28.309  25.352  1.00  0.00     0.031 A 
ATOM     63  C   UNL A   1      48.100  27.936  27.574  1.00  0.00     0.131 A 
ATOM     64  C   UNL A   1      48.426  27.750  24.834  1.00  0.00     0.055 A 
ATOM     65  C   UNL A   1      49.305  27.460  27.051  1.00  0.00     0.041 A 
ATOM     66  F   UNL A   1      47.965  27.949  28.909  1.00  0.00    -0.206 F 
ATOM     67  C   UNL A   1      49.467  27.349  25.674  1.00  0.00     0.022 A 
BRANCH  64  68
ATOM     68  S   UNL A   1      48.513  27.416  23.054  1.00  0.00     0.124 S 
ATOM     69  O   UNL A   1      47.364  28.168  22.556  1.00  0.00    -0.237 OA
ATOM     70  O   UNL A   1      49.825  27.942  22.696  1.00  0.00    -0.237 OA
ATOM     71  O   UNL A   1      48.380  25.962  22.970  1.00  0.00    -0.744 OA
ENDBRANCH  64  68
ENDBRANCH  47  61
BRANCH  48  72
ATOM     72  C   UNL A   1      38.291  30.974  30.886  1.00  0.00     0.023 A 
ATOM     73  C   UNL A   1      37.278  31.653  30.192  1.00  0.00     0.031 A 
ATOM     74  C   UNL A   1      38.083  30.691  32.247  1.00  0.00     0.131 A 
ATOM     75  C   UNL A   1      36.123  32.072  30.873  1.00  0.00     0.055 A 
ATOM     76  C   UNL A   1      36.909  31.062  32.907  1.00  0.00     0.041 A 
ATOM     77  F   UNL A   1      39.017  30.038  32.956  1.00  0.00    -0.206 F 
ATOM     78  C   UNL A   1      35.926  31.770  32.222  1.00  0.00     0.022 A 
BRANCH  75  79
ATOM     79  S   UNL A   1      34.917  33.097  29.987  1.00  0.00     0.124 S 
ATOM     80  O   UNL A   1      35.779  34.092  29.357  1.00  0.00    -0.237 OA
ATOM     81  O   UNL A   1      34.296  32.127  29.092  1.00  0.00    -0.237 OA
ATOM     82  O   UNL A   1      34.054  33.603  31.051  1.00  0.00    -0.744 OA
ENDBRANCH  75  79
ENDBRANCH  48  72
BRANCH  60  83
ATOM     83  C   UNL A   1      44.332  34.316  29.885  1.00  0.00     0.023 A 
ATOM     84  C   UNL A   1      44.175  35.365  28.963  1.00  0.00     0.031 A 
ATOM     85  C   UNL A   1      44.928  34.609  31.125  1.00  0.00     0.131 A 
ATOM     86  C   UNL A   1      44.659  36.645  29.272  1.00  0.00     0.055 A 
ATOM     87  C   UNL A   1      45.351  35.897  31.451  1.00  0.00     0.041 A 
ATOM     88  F   UNL A   1      45.104  33.644  32.042  1.00  0.00    -0.206 F 
ATOM     89  C   UNL A   1      45.230  36.922  30.517  1.00  0.00     0.022 A 
BRANCH  86  90
ATOM     90  S   UNL A   1      44.614  37.927  27.989  1.00  0.00     0.124 S 
ATOM     91  O   UNL A   1      45.840  37.656  27.247  1.00  0.00    -0.237 OA
ATOM     92  O   UNL A   1      43.367  37.628  27.292  1.00  0.00    -0.237 OA
ATOM     93  O   UNL A   1      44.614  39.175  28.752  1.00  0.00    -0.744 OA
ENDBRANCH  86  90
ENDBRANCH  60  83
ENDBRANCH  34  35
ENDBRANCH  26  29
ENDBRANCH  24  25
ENDBRANCH   1  24
TORSDOF 16
ENDMDL
MODEL 3
REMARK VINA RESULT:     -11.7      4.646      9.569
REMARK SMILES C=C(C(=O)NCCCCNC(=O)c1ccc(-c2c3nc(c(-c4cc(S(=O)(=O)[O-])ccc4F)c4ccc([nH]4)c(-c4cc(S(=O)(=O)[O-])ccc4F)c4nc(c(-c5cc(S(=O)(=O)[O-])ccc5F)c5ccc2[nH]5)C=C4)C=C3)cc1)[C@@H]1CC[C@]2(C)C[C@@H](O)CC(=C)[C@H]2C1
REMARK SMILES IDX 8 1 7 2 6 3 5 4 3 5 4 6 2 8 1 9 76 10 77 11 88 12 78 13
REMARK SMILES IDX 87 14 79 15 85 16 80 17 81 18 84 19 86 20 82 21 83 22 9 24
REMARK SMILES IDX 10 25 11 26 12 28 13 29 14 30 75 31 15 32 74 33 16 34 17 35
REMARK SMILES IDX 18 36 68 37 19 38 73 39 67 40 69 41 20 42 72 43 66 44 65 45
REMARK SMILES IDX 21 47 53 48 33 49 52 50 34 51 37 52 51 53 70 54 35 55 36 56
REMARK SMILES IDX 50 58 71 59 38 60 22 61 23 62 31 63 24 64 30 65 32 66 29 67
REMARK SMILES IDX 25 68 26 69 27 70 28 71 54 72 55 73 63 74 56 75 62 76 64 77
REMARK SMILES IDX 61 78 57 79 58 80 59 81 60 82 39 83 40 84 48 85 41 86 47 87
REMARK SMILES IDX 49 88 46 89 42 90 43 91 44 92 45 93
REMARK H PARENT 5 7 83 23 10 27 69 46 37 57
REMARK Flexibility Score: inf
ROOT
ATOM      1  C   UNL A   1      35.667  21.305  24.610  1.00  0.00     0.023 C 
ENDROOT
BRANCH   1   2
ATOM      2  C   UNL A   1      34.816  20.085  24.974  1.00  0.00     0.023 C 
BRANCH   2   3
ATOM      3  C   UNL A   1      33.358  20.399  25.323  1.00  0.00     0.116 C 
BRANCH   3   4
ATOM      4  N   UNL A   1      33.275  20.992  26.641  1.00  0.00    -0.352 N 
ATOM      5  C   UNL A   1      32.755  22.167  27.081  1.00  0.00     0.246 C 
ATOM      6  O   UNL A   1      33.017  22.484  28.239  1.00  0.00    -0.270 OA
ATOM      7  H   UNL A   1      33.669  20.439  27.353  1.00  0.00     0.163 HD
BRANCH   5   8
ATOM      8  C   UNL A   1      31.871  23.026  26.228  1.00  0.00     0.013 C 
ATOM      9  C   UNL A   1      30.532  23.022  26.377  1.00  0.00     0.018 C 
BRANCH   8  10
ATOM     10  C   UNL A   1      32.454  23.805  25.044  1.00  0.00     0.025 C 
ATOM     11  C   UNL A   1      33.962  24.123  25.059  1.00  0.00     0.009 C 
ATOM     12  C   UNL A   1      31.583  25.020  24.658  1.00  0.00     0.017 C 
ATOM     13  C   UNL A   1      34.332  25.480  25.663  1.00  0.00     0.008 C 
ATOM     14  C   UNL A   1      31.994  26.337  25.337  1.00  0.00     0.021 C 
ATOM     15  C   UNL A   1      33.500  26.657  25.101  1.00  0.00    -0.024 C 
ATOM     16  C   UNL A   1      31.138  27.553  24.982  1.00  0.00    -0.071 C 
ATOM     17  C   UNL A   1      33.847  26.835  23.602  1.00  0.00     0.012 C 
ATOM     18  C   UNL A   1      33.891  27.946  25.887  1.00  0.00     0.039 C 
ATOM     19  C   UNL A   1      31.475  28.781  25.806  1.00  0.00     0.062 C 
ATOM     20  C   UNL A   1      30.176  27.592  24.045  1.00  0.00     0.008 C 
ATOM     21  C   UNL A   1      32.960  29.151  25.686  1.00  0.00     0.119 C 
BRANCH  21  22
ATOM     22  O   UNL A   1      33.229  29.790  24.436  1.00  0.00    -0.393 OA
ATOM     23  H   UNL A   1      32.423  29.802  23.898  1.00  0.00     0.210 HD
ENDBRANCH  21  22
ENDBRANCH   8  10
ENDBRANCH   5   8
ENDBRANCH   3   4
ENDBRANCH   2   3
ENDBRANCH   1   2
BRANCH   1  24
ATOM     24  C   UNL A   1      36.748  21.661  25.621  1.00  0.00     0.116 C 
BRANCH  24  25
ATOM     25  N   UNL A   1      37.786  20.647  25.718  1.00  0.00    -0.352 N 
ATOM     26  C   UNL A   1      39.105  20.800  26.065  1.00  0.00     0.251 C 
ATOM     27  H   UNL A   1      37.505  19.727  25.504  1.00  0.00     0.163 HD
ATOM     28  O   UNL A   1      39.880  19.853  25.966  1.00  0.00    -0.269 OA
BRANCH  26  29
ATOM     29  C   UNL A   1      39.581  22.121  26.522  1.00  0.00     0.039 A 
ATOM     30  C   UNL A   1      40.586  22.178  27.489  1.00  0.00     0.014 A 
ATOM     31  C   UNL A   1      39.063  23.294  25.965  1.00  0.00     0.014 A 
ATOM     32  C   UNL A   1      41.119  23.415  27.852  1.00  0.00     0.010 A 
ATOM     33  C   UNL A   1      39.645  24.518  26.276  1.00  0.00     0.010 A 
ATOM     34  C   UNL A   1      40.679  24.591  27.223  1.00  0.00    -0.014 A 
BRANCH  34  35
ATOM     35  C   UNL A   1      41.283  25.908  27.544  1.00  0.00     0.031 A 
ATOM     36  C   UNL A   1      42.702  26.200  27.142  1.00  0.00     0.074 A 
ATOM     37  C   UNL A   1      40.576  26.810  28.254  1.00  0.00     0.049 A 
ATOM     38  N   UNL A   1      43.436  27.251  27.398  1.00  0.00    -0.248 NA
ATOM     39  C   UNL A   1      43.396  25.153  26.375  1.00  0.00     0.031 C 
ATOM     40  C   UNL A   1      39.206  26.617  28.738  1.00  0.00     0.029 A 
ATOM     41  N   UNL A   1      40.911  28.062  28.701  1.00  0.00    -0.354 N 
ATOM     42  C   UNL A   1      44.680  26.991  26.834  1.00  0.00     0.074 A 
ATOM     43  C   UNL A   1      44.618  25.653  26.283  1.00  0.00     0.031 C 
ATOM     44  C   UNL A   1      38.814  27.720  29.396  1.00  0.00     0.029 A 
ATOM     45  C   UNL A   1      39.914  28.678  29.421  1.00  0.00     0.049 A 
ATOM     46  H   UNL A   1      41.785  28.481  28.523  1.00  0.00     0.167 HD
ATOM     47  C   UNL A   1      45.764  27.802  26.760  1.00  0.00     0.034 A 
ATOM     48  C   UNL A   1      39.894  29.875  30.042  1.00  0.00     0.034 A 
ATOM     49  C   UNL A   1      45.803  29.136  27.309  1.00  0.00     0.049 A 
ATOM     50  C   UNL A   1      41.118  30.753  29.963  1.00  0.00     0.074 A 
ATOM     51  C   UNL A   1      46.830  30.062  27.254  1.00  0.00     0.029 A 
ATOM     52  N   UNL A   1      44.770  29.732  28.021  1.00  0.00    -0.354 N 
ATOM     53  N   UNL A   1      42.271  30.511  29.382  1.00  0.00    -0.248 NA
ATOM     54  C   UNL A   1      41.032  32.067  30.611  1.00  0.00     0.031 C 
ATOM     55  C   UNL A   1      46.443  31.190  27.986  1.00  0.00     0.029 A 
ATOM     56  C   UNL A   1      45.145  31.002  28.433  1.00  0.00     0.049 A 
ATOM     57  H   UNL A   1      43.898  29.314  28.207  1.00  0.00     0.167 HD
ATOM     58  C   UNL A   1      43.037  31.659  29.570  1.00  0.00     0.074 A 
ATOM     59  C   UNL A   1      42.208  32.595  30.303  1.00  0.00     0.031 C 
ATOM     60  C   UNL A   1      44.308  31.918  29.172  1.00  0.00     0.034 A 
BRANCH  47  61
ATOM     61  C   UNL A   1      46.995  27.253  26.078  1.00  0.00     0.023 A 
ATOM     62  C   UNL A   1      47.948  26.492  26.780  1.00  0.00     0.031 A 
ATOM     63  C   UNL A   1      47.240  27.520  24.720  1.00  0.00     0.131 A 
ATOM     64  C   UNL A   1      49.135  26.096  26.144  1.00  0.00     0.055 A 
ATOM     65  C   UNL A   1      48.384  27.049  24.071  1.00  0.00     0.041 A 
ATOM     66  F   UNL A   1      46.380  28.260  24.002  1.00  0.00    -0.206 F 
ATOM     67  C   UNL A   1      49.347  26.346  24.788  1.00  0.00     0.022 A 
BRANCH  64  68
ATOM     68  S   UNL A   1      50.460  25.383  27.157  1.00  0.00     0.124 S 
ATOM     69  O   UNL A   1      51.420  24.969  26.137  1.00  0.00    -0.237 OA
ATOM     70  O   UNL A   1      50.861  26.509  27.992  1.00  0.00    -0.237 OA
ATOM     71  O   UNL A   1      49.800  24.286  27.863  1.00  0.00    -0.744 OA
ENDBRANCH  64  68
ENDBRANCH  47  61
BRANCH  48  72
ATOM     72  C   UNL A   1      38.687  30.314  30.800  1.00  0.00     0.023 A 
ATOM     73  C   UNL A   1      37.644  31.004  30.163  1.00  0.00     0.031 A 
ATOM     74  C   UNL A   1      38.578  30.082  32.182  1.00  0.00     0.131 A 
ATOM     75  C   UNL A   1      36.560  31.485  30.917  1.00  0.00     0.055 A 
ATOM     76  C   UNL A   1      37.473  30.514  32.918  1.00  0.00     0.041 A 
ATOM     77  F   UNL A   1      39.544  29.420  32.838  1.00  0.00    -0.206 F 
ATOM     78  C   UNL A   1      36.462  31.233  32.288  1.00  0.00     0.022 A 
BRANCH  75  79
ATOM     79  S   UNL A   1      35.321  32.521  30.093  1.00  0.00     0.124 S 
ATOM     80  O   UNL A   1      34.842  31.631  29.041  1.00  0.00    -0.237 OA
ATOM     81  O   UNL A   1      34.385  32.794  31.178  1.00  0.00    -0.237 OA
ATOM     82  O   UNL A   1      36.093  33.673  29.634  1.00  0.00    -0.744 OA
ENDBRANCH  75  79
ENDBRANCH  48  72
BRANCH  60  83
ATOM     83  C   UNL A   1      44.857  33.289  29.483  1.00  0.00     0.023 A 
ATOM     84  C   UNL A   1      44.731  34.361  28.581  1.00  0.00     0.031 A 
ATOM     85  C   UNL A   1      45.525  33.524  30.699  1.00  0.00     0.131 A 
ATOM     86  C   UNL A   1      45.313  35.600  28.883  1.00  0.00     0.055 A 
ATOM     87  C   UNL A   1      46.048  34.776  31.021  1.00  0.00     0.041 A 
ATOM     88  F   UNL A   1      45.676  32.536  31.596  1.00  0.00    -0.206 F 
ATOM     89  C   UNL A   1      45.956  35.820  30.104  1.00  0.00     0.022 A 
BRANCH  86  90
ATOM     90  S   UNL A   1      45.299  36.901  27.619  1.00  0.00     0.124 S 
ATOM     91  O   UNL A   1      46.045  36.276  26.532  1.00  0.00    -0.237 OA
ATOM     92  O   UNL A   1      43.871  37.093  27.384  1.00  0.00    -0.237 OA
ATOM     93  O   UNL A   1      45.975  38.021  28.272  1.00  0.00    -0.744 OA
ENDBRANCH  86  90
ENDBRANCH  60  83
ENDBRANCH  34  35
ENDBRANCH  26  29
ENDBRANCH  24  25
ENDBRANCH   1  24
TORSDOF 16
ENDMDL
