MODEL 1
REMARK VINA RESULT:     -11.9      0.000      0.000
REMARK SMILES CCn1nc(-c2cccnc2)c2cc(C(=O)NCCCCNC(=O)c3ccc(-c4c5nc(c(-c6cc(S(=O)(=O)[O-])ccc6F)c6ccc([nH]6)c(-c6cc(S(=O)(=O)[O-])ccc6F)c6nc(c(-c7cc(S(=O)(=O)[O-])ccc7F)c7ccc4[nH]7)C=C6)C=C5)cc3)sc21
REMARK SMILES IDX 20 1 19 2 18 3 17 4 15 5 16 6 14 8 3 9 4 10 89 11 5 12 12 13
REMARK SMILES IDX 88 14 13 15 2 16 1 17 6 18 7 19 11 20 8 21 10 22 9 23 21 24
REMARK SMILES IDX 22 25 23 26 24 28 25 29 26 30 87 31 27 32 86 33 28 34 29 35
REMARK SMILES IDX 30 36 80 37 31 38 85 39 79 40 81 41 32 42 84 43 78 44 77 45
REMARK SMILES IDX 33 47 65 48 45 49 64 50 46 51 49 52 63 53 82 54 47 55 48 56
REMARK SMILES IDX 62 58 83 59 50 60 34 61 35 62 43 63 36 64 42 65 44 66 41 67
REMARK SMILES IDX 37 68 38 69 39 70 40 71 66 72 67 73 75 74 68 75 74 76 76 77
REMARK SMILES IDX 73 78 69 79 70 80 71 81 72 82 51 83 52 84 60 85 53 86 59 87
REMARK SMILES IDX 61 88 58 89 54 90 55 91 56 92 57 93
REMARK H PARENT 17 7 22 27 81 46 49 57
REMARK Flexibility Score: inf
ROOT
ATOM      1  C   UNL A   1      37.228  23.160  25.612  1.00  0.00     0.023 C 
ENDROOT
BRANCH   1   2
ATOM      2  C   UNL A   1      36.201  23.662  24.590  1.00  0.00     0.023 C 
BRANCH   2   3
ATOM      3  C   UNL A   1      35.100  22.662  24.194  1.00  0.00     0.116 C 
BRANCH   3   4
ATOM      4  N   UNL A   1      34.183  22.358  25.289  1.00  0.00    -0.351 N 
ATOM      5  C   UNL A   1      33.111  23.043  25.834  1.00  0.00     0.261 C 
ATOM      6  O   UNL A   1      32.450  22.425  26.673  1.00  0.00    -0.268 OA
ATOM      7  H   UNL A   1      34.363  21.494  25.725  1.00  0.00     0.163 HD
BRANCH   5   8
ATOM      8  C   UNL A   1      32.738  24.394  25.422  1.00  0.00     0.095 A 
ATOM      9  N   UNL A   1      30.697  27.266  24.256  1.00  0.00    -0.254 N 
ATOM     10  N   UNL A   1      31.102  28.409  24.877  1.00  0.00    -0.171 NA
ATOM     11  C   UNL A   1      31.528  26.247  24.525  1.00  0.00     0.122 A 
ATOM     12  C   UNL A   1      32.205  28.036  25.589  1.00  0.00     0.103 A 
ATOM     13  C   UNL A   1      32.382  26.654  25.459  1.00  0.00     0.040 A 
ATOM     14  S   UNL A   1      31.730  24.693  24.037  1.00  0.00    -0.110 S 
ATOM     15  C   UNL A   1      33.155  25.616  25.992  1.00  0.00     0.038 A 
BRANCH   9  16
ATOM     16  C   UNL A   1      29.463  27.185  23.503  1.00  0.00     0.142 C 
ATOM     17  C   UNL A   1      28.962  28.553  23.050  1.00  0.00     0.029 C 
ENDBRANCH   9  16
BRANCH  12  18
ATOM     18  C   UNL A   1      33.044  29.040  26.217  1.00  0.00     0.021 A 
ATOM     19  C   UNL A   1      34.336  28.757  26.659  1.00  0.00     0.013 A 
ATOM     20  C   UNL A   1      32.515  30.290  26.533  1.00  0.00     0.121 A 
ATOM     21  C   UNL A   1      35.038  29.718  27.386  1.00  0.00     0.021 A 
ATOM     22  N   UNL A   1      33.171  31.242  27.242  1.00  0.00    -0.264 NA
ATOM     23  C   UNL A   1      34.417  30.928  27.656  1.00  0.00     0.111 A 
ENDBRANCH  12  18
ENDBRANCH   5   8
ENDBRANCH   3   4
ENDBRANCH   2   3
ENDBRANCH   1   2
BRANCH   1  24
ATOM     24  C   UNL A   1      38.027  24.248  26.320  1.00  0.00     0.116 C 
BRANCH  24  25
ATOM     25  N   UNL A   1      39.471  24.163  26.077  1.00  0.00    -0.352 N 
ATOM     26  C   UNL A   1      40.430  25.155  26.248  1.00  0.00     0.251 C 
ATOM     27  H   UNL A   1      39.803  23.295  25.752  1.00  0.00     0.163 HD
ATOM     28  O   UNL A   1      41.478  25.127  25.629  1.00  0.00    -0.269 OA
BRANCH  26  29
ATOM     29  C   UNL A   1      40.149  26.228  27.223  1.00  0.00     0.039 A 
ATOM     30  C   UNL A   1      39.671  25.979  28.513  1.00  0.00     0.014 A 
ATOM     31  C   UNL A   1      40.434  27.523  26.806  1.00  0.00     0.014 A 
ATOM     32  C   UNL A   1      39.563  27.049  29.403  1.00  0.00     0.010 A 
ATOM     33  C   UNL A   1      40.526  28.521  27.731  1.00  0.00     0.010 A 
ATOM     34  C   UNL A   1      40.007  28.317  29.003  1.00  0.00    -0.014 A 
BRANCH  34  35
ATOM     35  C   UNL A   1      40.052  29.462  29.905  1.00  0.00     0.031 A 
ATOM     36  C   UNL A   1      38.743  30.133  30.110  1.00  0.00     0.074 A 
ATOM     37  C   UNL A   1      41.107  29.679  30.724  1.00  0.00     0.049 A 
ATOM     38  N   UNL A   1      38.379  31.297  29.690  1.00  0.00    -0.248 NA
ATOM     39  C   UNL A   1      37.641  29.350  30.698  1.00  0.00     0.031 C 
ATOM     40  C   UNL A   1      42.317  28.861  30.880  1.00  0.00     0.029 A 
ATOM     41  N   UNL A   1      41.258  30.604  31.706  1.00  0.00    -0.354 N 
ATOM     42  C   UNL A   1      37.103  31.503  30.205  1.00  0.00     0.074 A 
ATOM     43  C   UNL A   1      36.619  30.199  30.565  1.00  0.00     0.031 C 
ATOM     44  C   UNL A   1      42.924  29.167  32.047  1.00  0.00     0.029 A 
ATOM     45  C   UNL A   1      42.247  30.307  32.642  1.00  0.00     0.049 A 
ATOM     46  H   UNL A   1      40.710  31.421  31.755  1.00  0.00     0.167 HD
ATOM     47  C   UNL A   1      36.674  32.751  30.552  1.00  0.00     0.034 A 
ATOM     48  C   UNL A   1      42.457  30.921  33.840  1.00  0.00     0.034 A 
ATOM     49  C   UNL A   1      37.576  33.761  30.032  1.00  0.00     0.049 A 
ATOM     50  C   UNL A   1      41.785  32.246  33.754  1.00  0.00     0.074 A 
ATOM     51  C   UNL A   1      38.068  34.055  28.772  1.00  0.00     0.029 A 
ATOM     52  N   UNL A   1      38.447  34.370  30.912  1.00  0.00    -0.354 N 
ATOM     53  N   UNL A   1      42.161  33.184  32.925  1.00  0.00    -0.248 NA
ATOM     54  C   UNL A   1      40.394  32.328  34.184  1.00  0.00     0.031 C 
ATOM     55  C   UNL A   1      39.454  34.322  28.979  1.00  0.00     0.029 A 
ATOM     56  C   UNL A   1      39.702  34.303  30.355  1.00  0.00     0.049 A 
ATOM     57  H   UNL A   1      38.213  34.777  31.778  1.00  0.00     0.167 HD
ATOM     58  C   UNL A   1      40.984  33.690  32.392  1.00  0.00     0.074 A 
ATOM     59  C   UNL A   1      39.926  33.186  33.271  1.00  0.00     0.031 C 
ATOM     60  C   UNL A   1      40.931  34.204  31.124  1.00  0.00     0.034 A 
BRANCH  47  61
ATOM     61  C   UNL A   1      35.683  33.069  31.655  1.00  0.00     0.023 A 
ATOM     62  C   UNL A   1      34.580  33.873  31.305  1.00  0.00     0.031 A 
ATOM     63  C   UNL A   1      35.878  32.877  33.041  1.00  0.00     0.131 A 
ATOM     64  C   UNL A   1      33.821  34.532  32.287  1.00  0.00     0.055 A 
ATOM     65  C   UNL A   1      35.073  33.477  34.016  1.00  0.00     0.041 A 
ATOM     66  F   UNL A   1      36.902  32.181  33.546  1.00  0.00    -0.206 F 
ATOM     67  C   UNL A   1      34.060  34.341  33.643  1.00  0.00     0.022 A 
BRANCH  64  68
ATOM     68  S   UNL A   1      32.641  35.795  31.747  1.00  0.00     0.124 S 
ATOM     69  O   UNL A   1      33.322  37.020  32.152  1.00  0.00    -0.237 OA
ATOM     70  O   UNL A   1      32.569  35.542  30.312  1.00  0.00    -0.237 OA
ATOM     71  O   UNL A   1      31.433  35.473  32.500  1.00  0.00    -0.744 OA
ENDBRANCH  64  68
ENDBRANCH  47  61
BRANCH  48  72
ATOM     72  C   UNL A   1      42.912  30.293  35.121  1.00  0.00     0.023 A 
ATOM     73  C   UNL A   1      42.527  28.996  35.528  1.00  0.00     0.031 A 
ATOM     74  C   UNL A   1      43.945  30.902  35.871  1.00  0.00     0.131 A 
ATOM     75  C   UNL A   1      43.160  28.374  36.636  1.00  0.00     0.055 A 
ATOM     76  C   UNL A   1      44.562  30.286  36.964  1.00  0.00     0.041 A 
ATOM     77  F   UNL A   1      44.457  32.093  35.517  1.00  0.00    -0.206 F 
ATOM     78  C   UNL A   1      44.178  29.013  37.346  1.00  0.00     0.022 A 
BRANCH  75  79
ATOM     79  S   UNL A   1      42.734  26.666  37.122  1.00  0.00     0.124 S 
ATOM     80  O   UNL A   1      43.246  25.887  36.002  1.00  0.00    -0.237 OA
ATOM     81  O   UNL A   1      43.433  26.516  38.393  1.00  0.00    -0.237 OA
ATOM     82  O   UNL A   1      41.274  26.697  37.231  1.00  0.00    -0.744 OA
ENDBRANCH  75  79
ENDBRANCH  48  72
BRANCH  60  83
ATOM     83  C   UNL A   1      42.225  34.495  30.382  1.00  0.00     0.023 A 
ATOM     84  C   UNL A   1      42.984  35.684  30.489  1.00  0.00     0.031 A 
ATOM     85  C   UNL A   1      42.778  33.442  29.627  1.00  0.00     0.131 A 
ATOM     86  C   UNL A   1      44.238  35.782  29.847  1.00  0.00     0.055 A 
ATOM     87  C   UNL A   1      44.028  33.535  29.018  1.00  0.00     0.041 A 
ATOM     88  F   UNL A   1      42.122  32.277  29.502  1.00  0.00    -0.206 F 
ATOM     89  C   UNL A   1      44.761  34.709  29.120  1.00  0.00     0.022 A 
BRANCH  86  90
ATOM     90  S   UNL A   1      45.209  37.324  29.917  1.00  0.00     0.124 S 
ATOM     91  O   UNL A   1      46.181  37.168  28.842  1.00  0.00    -0.237 OA
ATOM     92  O   UNL A   1      44.189  38.349  29.713  1.00  0.00    -0.237 OA
ATOM     93  O   UNL A   1      45.784  37.300  31.264  1.00  0.00    -0.744 OA
ENDBRANCH  86  90
ENDBRANCH  60  83
ENDBRANCH  34  35
ENDBRANCH  26  29
ENDBRANCH  24  25
ENDBRANCH   1  24
TORSDOF 16
ENDMDL
MODEL 2
REMARK VINA RESULT:     -11.9      3.788      8.649
REMARK SMILES CCn1nc(-c2cccnc2)c2cc(C(=O)NCCCCNC(=O)c3ccc(-c4c5nc(c(-c6cc(S(=O)(=O)[O-])ccc6F)c6ccc([nH]6)c(-c6cc(S(=O)(=O)[O-])ccc6F)c6nc(c(-c7cc(S(=O)(=O)[O-])ccc7F)c7ccc4[nH]7)C=C6)C=C5)cc3)sc21
REMARK SMILES IDX 20 1 19 2 18 3 17 4 15 5 16 6 14 8 3 9 4 10 89 11 5 12 12 13
REMARK SMILES IDX 88 14 13 15 2 16 1 17 6 18 7 19 11 20 8 21 10 22 9 23 21 24
REMARK SMILES IDX 22 25 23 26 24 28 25 29 26 30 87 31 27 32 86 33 28 34 29 35
REMARK SMILES IDX 30 36 80 37 31 38 85 39 79 40 81 41 32 42 84 43 78 44 77 45
REMARK SMILES IDX 33 47 65 48 45 49 64 50 46 51 49 52 63 53 82 54 47 55 48 56
REMARK SMILES IDX 62 58 83 59 50 60 34 61 35 62 43 63 36 64 42 65 44 66 41 67
REMARK SMILES IDX 37 68 38 69 39 70 40 71 66 72 67 73 75 74 68 75 74 76 76 77
REMARK SMILES IDX 73 78 69 79 70 80 71 81 72 82 51 83 52 84 60 85 53 86 59 87
REMARK SMILES IDX 61 88 58 89 54 90 55 91 56 92 57 93
REMARK H PARENT 17 7 22 27 81 46 49 57
REMARK Flexibility Score: inf
ROOT
ATOM      1  C   UNL A   1      33.046  29.308  26.933  1.00  0.00     0.023 C 
ENDROOT
BRANCH   1   2
ATOM      2  C   UNL A   1      32.179  30.238  26.075  1.00  0.00     0.023 C 
BRANCH   2   3
ATOM      3  C   UNL A   1      31.431  29.573  24.906  1.00  0.00     0.116 C 
BRANCH   3   4
ATOM      4  N   UNL A   1      32.286  29.319  23.751  1.00  0.00    -0.351 N 
ATOM      5  C   UNL A   1      32.945  28.187  23.300  1.00  0.00     0.261 C 
ATOM      6  O   UNL A   1      33.474  28.282  22.189  1.00  0.00    -0.268 OA
ATOM      7  H   UNL A   1      32.420  30.108  23.178  1.00  0.00     0.163 HD
BRANCH   5   8
ATOM      8  C   UNL A   1      32.981  26.936  24.052  1.00  0.00     0.095 A 
ATOM      9  N   UNL A   1      32.000  23.610  25.375  1.00  0.00    -0.254 N 
ATOM     10  N   UNL A   1      33.102  22.823  25.522  1.00  0.00    -0.171 NA
ATOM     11  C   UNL A   1      32.342  24.871  25.066  1.00  0.00     0.122 A 
ATOM     12  C   UNL A   1      34.150  23.650  25.241  1.00  0.00     0.103 A 
ATOM     13  C   UNL A   1      33.650  24.892  24.833  1.00  0.00     0.040 A 
ATOM     14  S   UNL A   1      31.586  26.316  24.885  1.00  0.00    -0.110 S 
ATOM     15  C   UNL A   1      34.095  26.098  24.279  1.00  0.00     0.038 A 
BRANCH   9  16
ATOM     16  C   UNL A   1      30.653  23.083  25.443  1.00  0.00     0.142 C 
ATOM     17  C   UNL A   1      30.145  22.958  26.876  1.00  0.00     0.029 C 
ENDBRANCH   9  16
BRANCH  12  18
ATOM     18  C   UNL A   1      35.511  23.220  25.502  1.00  0.00     0.021 A 
ATOM     19  C   UNL A   1      36.471  24.078  26.039  1.00  0.00     0.013 A 
ATOM     20  C   UNL A   1      35.938  21.964  25.077  1.00  0.00     0.121 A 
ATOM     21  C   UNL A   1      37.797  23.654  26.130  1.00  0.00     0.021 A 
ATOM     22  N   UNL A   1      37.220  21.525  25.148  1.00  0.00    -0.264 NA
ATOM     23  C   UNL A   1      38.119  22.386  25.668  1.00  0.00     0.111 A 
ENDBRANCH  12  18
ENDBRANCH   5   8
ENDBRANCH   3   4
ENDBRANCH   2   3
ENDBRANCH   1   2
BRANCH   1  24
ATOM     24  C   UNL A   1      34.524  29.675  27.002  1.00  0.00     0.116 C 
BRANCH  24  25
ATOM     25  N   UNL A   1      34.759  31.101  27.251  1.00  0.00    -0.352 N 
ATOM     26  C   UNL A   1      35.551  31.680  28.236  1.00  0.00     0.251 C 
ATOM     27  H   UNL A   1      34.300  31.726  26.646  1.00  0.00     0.163 HD
ATOM     28  O   UNL A   1      35.342  32.816  28.623  1.00  0.00    -0.269 OA
BRANCH  26  29
ATOM     29  C   UNL A   1      36.670  30.886  28.781  1.00  0.00     0.039 A 
ATOM     30  C   UNL A   1      36.539  29.547  29.161  1.00  0.00     0.014 A 
ATOM     31  C   UNL A   1      37.899  31.530  28.855  1.00  0.00     0.014 A 
ATOM     32  C   UNL A   1      37.685  28.844  29.540  1.00  0.00     0.010 A 
ATOM     33  C   UNL A   1      39.035  30.793  29.021  1.00  0.00     0.010 A 
ATOM     34  C   UNL A   1      38.933  29.477  29.453  1.00  0.00    -0.014 A 
BRANCH  34  35
ATOM     35  C   UNL A   1      40.191  28.785  29.704  1.00  0.00     0.031 A 
ATOM     36  C   UNL A   1      40.505  28.585  31.141  1.00  0.00     0.074 A 
ATOM     37  C   UNL A   1      40.834  28.105  28.726  1.00  0.00     0.049 A 
ATOM     38  N   UNL A   1      41.429  29.160  31.834  1.00  0.00    -0.248 NA
ATOM     39  C   UNL A   1      39.573  27.784  31.955  1.00  0.00     0.031 C 
ATOM     40  C   UNL A   1      40.420  27.918  27.329  1.00  0.00     0.029 A 
ATOM     41  N   UNL A   1      41.929  27.306  28.810  1.00  0.00    -0.354 N 
ATOM     42  C   UNL A   1      41.369  28.580  33.098  1.00  0.00     0.074 A 
ATOM     43  C   UNL A   1      40.071  27.969  33.180  1.00  0.00     0.031 C 
ATOM     44  C   UNL A   1      41.088  26.873  26.794  1.00  0.00     0.029 A 
ATOM     45  C   UNL A   1      42.089  26.421  27.745  1.00  0.00     0.049 A 
ATOM     46  H   UNL A   1      42.559  27.348  29.565  1.00  0.00     0.167 HD
ATOM     47  C   UNL A   1      42.495  28.410  33.851  1.00  0.00     0.034 A 
ATOM     48  C   UNL A   1      42.945  25.363  27.677  1.00  0.00     0.034 A 
ATOM     49  C   UNL A   1      43.599  29.165  33.291  1.00  0.00     0.049 A 
ATOM     50  C   UNL A   1      43.998  25.611  28.700  1.00  0.00     0.074 A 
ATOM     51  C   UNL A   1      43.781  30.493  32.946  1.00  0.00     0.029 A 
ATOM     52  N   UNL A   1      44.574  28.475  32.598  1.00  0.00    -0.354 N 
ATOM     53  N   UNL A   1      44.835  26.613  28.634  1.00  0.00    -0.248 NA
ATOM     54  C   UNL A   1      43.775  25.085  30.041  1.00  0.00     0.031 C 
ATOM     55  C   UNL A   1      44.449  30.450  31.686  1.00  0.00     0.029 A 
ATOM     56  C   UNL A   1      44.750  29.117  31.395  1.00  0.00     0.049 A 
ATOM     57  H   UNL A   1      45.053  27.672  32.908  1.00  0.00     0.167 HD
ATOM     58  C   UNL A   1      44.894  27.122  29.924  1.00  0.00     0.074 A 
ATOM     59  C   UNL A   1      44.290  26.085  30.765  1.00  0.00     0.031 C 
ATOM     60  C   UNL A   1      45.133  28.448  30.164  1.00  0.00     0.034 A 
BRANCH  47  61
ATOM     61  C   UNL A   1      42.726  27.296  34.853  1.00  0.00     0.023 A 
ATOM     62  C   UNL A   1      43.531  26.219  34.431  1.00  0.00     0.031 A 
ATOM     63  C   UNL A   1      42.014  27.086  36.055  1.00  0.00     0.131 A 
ATOM     64  C   UNL A   1      43.508  24.987  35.106  1.00  0.00     0.055 A 
ATOM     65  C   UNL A   1      42.053  25.881  36.766  1.00  0.00     0.041 A 
ATOM     66  F   UNL A   1      41.171  27.986  36.572  1.00  0.00    -0.206 F 
ATOM     67  C   UNL A   1      42.774  24.808  36.273  1.00  0.00     0.022 A 
BRANCH  64  68
ATOM     68  S   UNL A   1      44.308  23.568  34.317  1.00  0.00     0.124 S 
ATOM     69  O   UNL A   1      45.615  24.121  33.979  1.00  0.00    -0.237 OA
ATOM     70  O   UNL A   1      44.286  22.578  35.389  1.00  0.00    -0.237 OA
ATOM     71  O   UNL A   1      43.439  23.277  33.180  1.00  0.00    -0.744 OA
ENDBRANCH  64  68
ENDBRANCH  47  61
BRANCH  48  72
ATOM     72  C   UNL A   1      42.711  24.039  27.019  1.00  0.00     0.023 A 
ATOM     73  C   UNL A   1      43.630  23.443  26.127  1.00  0.00     0.031 A 
ATOM     74  C   UNL A   1      41.643  23.220  27.455  1.00  0.00     0.131 A 
ATOM     75  C   UNL A   1      43.456  22.098  25.709  1.00  0.00     0.055 A 
ATOM     76  C   UNL A   1      41.475  21.896  27.037  1.00  0.00     0.041 A 
ATOM     77  F   UNL A   1      40.764  23.649  28.375  1.00  0.00    -0.206 F 
ATOM     78  C   UNL A   1      42.387  21.326  26.168  1.00  0.00     0.022 A 
BRANCH  75  79
ATOM     79  S   UNL A   1      44.681  21.287  24.623  1.00  0.00     0.124 S 
ATOM     80  O   UNL A   1      44.142  19.938  24.501  1.00  0.00    -0.237 OA
ATOM     81  O   UNL A   1      44.637  22.116  23.424  1.00  0.00    -0.237 OA
ATOM     82  O   UNL A   1      45.928  21.383  25.384  1.00  0.00    -0.744 OA
ENDBRANCH  75  79
ENDBRANCH  48  72
BRANCH  60  83
ATOM     83  C   UNL A   1      45.625  29.335  29.031  1.00  0.00     0.023 A 
ATOM     84  C   UNL A   1      44.847  30.297  28.345  1.00  0.00     0.031 A 
ATOM     85  C   UNL A   1      47.000  29.282  28.730  1.00  0.00     0.131 A 
ATOM     86  C   UNL A   1      45.454  31.150  27.398  1.00  0.00     0.055 A 
ATOM     87  C   UNL A   1      47.598  30.144  27.813  1.00  0.00     0.041 A 
ATOM     88  F   UNL A   1      47.801  28.406  29.359  1.00  0.00    -0.206 F 
ATOM     89  C   UNL A   1      46.825  31.078  27.138  1.00  0.00     0.022 A 
BRANCH  86  90
ATOM     90  S   UNL A   1      44.466  32.358  26.454  1.00  0.00     0.124 S 
ATOM     91  O   UNL A   1      43.463  31.537  25.786  1.00  0.00    -0.237 OA
ATOM     92  O   UNL A   1      43.970  33.247  27.501  1.00  0.00    -0.237 OA
ATOM     93  O   UNL A   1      45.449  32.968  25.555  1.00  0.00    -0.744 OA
ENDBRANCH  86  90
ENDBRANCH  60  83
ENDBRANCH  34  35
ENDBRANCH  26  29
ENDBRANCH  24  25
ENDBRANCH   1  24
TORSDOF 16
ENDMDL
MODEL 3
REMARK VINA RESULT:     -11.6      2.387      8.070
REMARK SMILES CCn1nc(-c2cccnc2)c2cc(C(=O)NCCCCNC(=O)c3ccc(-c4c5nc(c(-c6cc(S(=O)(=O)[O-])ccc6F)c6ccc([nH]6)c(-c6cc(S(=O)(=O)[O-])ccc6F)c6nc(c(-c7cc(S(=O)(=O)[O-])ccc7F)c7ccc4[nH]7)C=C6)C=C5)cc3)sc21
REMARK SMILES IDX 20 1 19 2 18 3 17 4 15 5 16 6 14 8 3 9 4 10 89 11 5 12 12 13
REMARK SMILES IDX 88 14 13 15 2 16 1 17 6 18 7 19 11 20 8 21 10 22 9 23 21 24
REMARK SMILES IDX 22 25 23 26 24 28 25 29 26 30 87 31 27 32 86 33 28 34 29 35
REMARK SMILES IDX 30 36 80 37 31 38 85 39 79 40 81 41 32 42 84 43 78 44 77 45
REMARK SMILES IDX 33 47 65 48 45 49 64 50 46 51 49 52 63 53 82 54 47 55 48 56
REMARK SMILES IDX 62 58 83 59 50 60 34 61 35 62 43 63 36 64 42 65 44 66 41 67
REMARK SMILES IDX 37 68 38 69 39 70 40 71 66 72 67 73 75 74 68 75 74 76 76 77
REMARK SMILES IDX 73 78 69 79 70 80 71 81 72 82 51 83 52 84 60 85 53 86 59 87
REMARK SMILES IDX 61 88 58 89 54 90 55 91 56 92 57 93
REMARK H PARENT 17 7 22 27 81 46 49 57
REMARK Flexibility Score: inf
ROOT
ATOM      1  C   UNL A   1      36.592  23.704  24.888  1.00  0.00     0.023 C 
ENDROOT
BRANCH   1   2
ATOM      2  C   UNL A   1      35.168  24.236  25.090  1.00  0.00     0.023 C 
BRANCH   2   3
ATOM      3  C   UNL A   1      34.373  24.536  23.807  1.00  0.00     0.116 C 
BRANCH   3   4
ATOM      4  N   UNL A   1      33.059  23.900  23.786  1.00  0.00    -0.351 N 
ATOM      5  C   UNL A   1      31.780  24.377  24.015  1.00  0.00     0.261 C 
ATOM      6  O   UNL A   1      30.862  23.590  23.769  1.00  0.00    -0.268 OA
ATOM      7  H   UNL A   1      33.089  22.941  23.565  1.00  0.00     0.163 HD
BRANCH   5   8
ATOM      8  C   UNL A   1      31.509  25.737  24.472  1.00  0.00     0.095 A 
ATOM      9  N   UNL A   1      31.937  29.030  26.130  1.00  0.00    -0.254 N 
ATOM     10  N   UNL A   1      31.392  30.014  25.361  1.00  0.00    -0.171 NA
ATOM     11  C   UNL A   1      31.644  27.815  25.642  1.00  0.00     0.122 A 
ATOM     12  C   UNL A   1      30.783  29.348  24.339  1.00  0.00     0.103 A 
ATOM     13  C   UNL A   1      31.059  27.981  24.460  1.00  0.00     0.040 A 
ATOM     14  S   UNL A   1      31.840  26.251  26.099  1.00  0.00    -0.110 S 
ATOM     15  C   UNL A   1      30.909  26.789  23.744  1.00  0.00     0.038 A 
BRANCH   9  16
ATOM     16  C   UNL A   1      32.805  29.311  27.255  1.00  0.00     0.142 C 
ATOM     17  C   UNL A   1      34.265  29.464  26.842  1.00  0.00     0.029 C 
ENDBRANCH   9  16
BRANCH  12  18
ATOM     18  C   UNL A   1      29.905  30.055  23.425  1.00  0.00     0.021 A 
ATOM     19  C   UNL A   1      29.119  31.132  23.834  1.00  0.00     0.013 A 
ATOM     20  C   UNL A   1      29.714  29.574  22.131  1.00  0.00     0.121 A 
ATOM     21  C   UNL A   1      28.187  31.676  22.950  1.00  0.00     0.021 A 
ATOM     22  N   UNL A   1      28.814  30.079  21.251  1.00  0.00    -0.264 NA
ATOM     23  C   UNL A   1      28.068  31.116  21.686  1.00  0.00     0.111 A 
ENDBRANCH  12  18
ENDBRANCH   5   8
ENDBRANCH   3   4
ENDBRANCH   2   3
ENDBRANCH   1   2
BRANCH   1  24
ATOM     24  C   UNL A   1      37.550  23.953  26.047  1.00  0.00     0.116 C 
BRANCH  24  25
ATOM     25  N   UNL A   1      38.495  22.853  26.270  1.00  0.00    -0.352 N 
ATOM     26  C   UNL A   1      39.809  22.929  26.718  1.00  0.00     0.251 C 
ATOM     27  H   UNL A   1      38.156  21.949  26.080  1.00  0.00     0.163 HD
ATOM     28  O   UNL A   1      40.610  22.049  26.460  1.00  0.00    -0.269 OA
BRANCH  26  29
ATOM     29  C   UNL A   1      40.195  24.093  27.538  1.00  0.00     0.039 A 
ATOM     30  C   UNL A   1      41.497  24.299  28.005  1.00  0.00     0.014 A 
ATOM     31  C   UNL A   1      39.193  25.023  27.792  1.00  0.00     0.014 A 
ATOM     32  C   UNL A   1      41.791  25.496  28.660  1.00  0.00     0.010 A 
ATOM     33  C   UNL A   1      39.528  26.267  28.241  1.00  0.00     0.010 A 
ATOM     34  C   UNL A   1      40.798  26.481  28.761  1.00  0.00    -0.014 A 
BRANCH  34  35
ATOM     35  C   UNL A   1      41.050  27.806  29.312  1.00  0.00     0.031 A 
ATOM     36  C   UNL A   1      42.093  28.582  28.593  1.00  0.00     0.074 A 
ATOM     37  C   UNL A   1      40.190  28.390  30.179  1.00  0.00     0.049 A 
ATOM     38  N   UNL A   1      43.274  28.891  29.009  1.00  0.00    -0.248 NA
ATOM     39  C   UNL A   1      41.868  28.902  27.172  1.00  0.00     0.031 C 
ATOM     40  C   UNL A   1      38.915  27.863  30.684  1.00  0.00     0.029 A 
ATOM     41  N   UNL A   1      40.199  29.651  30.682  1.00  0.00    -0.354 N 
ATOM     42  C   UNL A   1      43.830  29.685  28.010  1.00  0.00     0.074 A 
ATOM     43  C   UNL A   1      43.049  29.427  26.833  1.00  0.00     0.031 C 
ATOM     44  C   UNL A   1      38.174  28.875  31.186  1.00  0.00     0.029 A 
ATOM     45  C   UNL A   1      38.975  30.086  31.190  1.00  0.00     0.049 A 
ATOM     46  H   UNL A   1      41.006  30.215  30.687  1.00  0.00     0.167 HD
ATOM     47  C   UNL A   1      44.699  30.694  28.313  1.00  0.00     0.034 A 
ATOM     48  C   UNL A   1      38.634  31.359  31.536  1.00  0.00     0.034 A 
ATOM     49  C   UNL A   1      45.145  30.585  29.689  1.00  0.00     0.049 A 
ATOM     50  C   UNL A   1      39.914  32.092  31.744  1.00  0.00     0.074 A 
ATOM     51  C   UNL A   1      45.733  29.577  30.433  1.00  0.00     0.029 A 
ATOM     52  N   UNL A   1      44.610  31.455  30.617  1.00  0.00    -0.354 N 
ATOM     53  N   UNL A   1      40.760  31.794  32.694  1.00  0.00    -0.248 NA
ATOM     54  C   UNL A   1      40.496  32.775  30.595  1.00  0.00     0.031 C 
ATOM     55  C   UNL A   1      45.047  29.605  31.683  1.00  0.00     0.029 A 
ATOM     56  C   UNL A   1      44.178  30.699  31.681  1.00  0.00     0.049 A 
ATOM     57  H   UNL A   1      44.548  32.435  30.532  1.00  0.00     0.167 HD
ATOM     58  C   UNL A   1      42.010  31.840  32.094  1.00  0.00     0.074 A 
ATOM     59  C   UNL A   1      41.792  32.537  30.824  1.00  0.00     0.031 C 
ATOM     60  C   UNL A   1      43.042  31.047  32.518  1.00  0.00     0.034 A 
BRANCH  47  61
ATOM     61  C   UNL A   1      44.865  31.980  27.527  1.00  0.00     0.023 A 
ATOM     62  C   UNL A   1      46.150  32.249  27.014  1.00  0.00     0.031 A 
ATOM     63  C   UNL A   1      43.955  33.060  27.480  1.00  0.00     0.131 A 
ATOM     64  C   UNL A   1      46.515  33.544  26.611  1.00  0.00     0.055 A 
ATOM     65  C   UNL A   1      44.302  34.330  27.006  1.00  0.00     0.041 A 
ATOM     66  F   UNL A   1      42.712  32.989  27.965  1.00  0.00    -0.206 F 
ATOM     67  C   UNL A   1      45.599  34.590  26.603  1.00  0.00     0.022 A 
BRANCH  64  68
ATOM     68  S   UNL A   1      48.264  33.874  26.279  1.00  0.00     0.124 S 
ATOM     69  O   UNL A   1      48.630  34.687  27.434  1.00  0.00    -0.237 OA
ATOM     70  O   UNL A   1      48.819  32.525  26.239  1.00  0.00    -0.237 OA
ATOM     71  O   UNL A   1      48.239  34.578  25.001  1.00  0.00    -0.744 OA
ENDBRANCH  64  68
ENDBRANCH  47  61
BRANCH  48  72
ATOM     72  C   UNL A   1      37.304  32.024  31.374  1.00  0.00     0.023 A 
ATOM     73  C   UNL A   1      36.814  32.486  30.131  1.00  0.00     0.031 A 
ATOM     74  C   UNL A   1      36.377  32.008  32.443  1.00  0.00     0.131 A 
ATOM     75  C   UNL A   1      35.464  32.906  30.003  1.00  0.00     0.055 A 
ATOM     76  C   UNL A   1      35.050  32.427  32.311  1.00  0.00     0.041 A 
ATOM     77  F   UNL A   1      36.705  31.502  33.643  1.00  0.00    -0.206 F 
ATOM     78  C   UNL A   1      34.585  32.870  31.086  1.00  0.00     0.022 A 
BRANCH  75  79
ATOM     79  S   UNL A   1      34.793  33.425  28.385  1.00  0.00     0.124 S 
ATOM     80  O   UNL A   1      33.674  32.509  28.205  1.00  0.00    -0.237 OA
ATOM     81  O   UNL A   1      34.458  34.825  28.617  1.00  0.00    -0.237 OA
ATOM     82  O   UNL A   1      35.914  33.211  27.467  1.00  0.00    -0.744 OA
ENDBRANCH  75  79
ENDBRANCH  48  72
BRANCH  60  83
ATOM     83  C   UNL A   1      42.920  30.309  33.842  1.00  0.00     0.023 A 
ATOM     84  C   UNL A   1      42.402  29.003  34.010  1.00  0.00     0.031 A 
ATOM     85  C   UNL A   1      43.489  30.928  34.972  1.00  0.00     0.131 A 
ATOM     86  C   UNL A   1      42.461  28.376  35.273  1.00  0.00     0.055 A 
ATOM     87  C   UNL A   1      43.569  30.294  36.211  1.00  0.00     0.041 A 
ATOM     88  F   UNL A   1      44.019  32.159  34.880  1.00  0.00    -0.206 F 
ATOM     89  C   UNL A   1      43.049  29.017  36.368  1.00  0.00     0.022 A 
BRANCH  86  90
ATOM     90  S   UNL A   1      41.746  26.719  35.533  1.00  0.00     0.124 S 
ATOM     91  O   UNL A   1      40.775  26.589  34.454  1.00  0.00    -0.237 OA
ATOM     92  O   UNL A   1      42.919  25.853  35.446  1.00  0.00    -0.237 OA
ATOM     93  O   UNL A   1      41.159  26.812  36.872  1.00  0.00    -0.744 OA
ENDBRANCH  86  90
ENDBRANCH  60  83
ENDBRANCH  34  35
ENDBRANCH  26  29
ENDBRANCH  24  25
ENDBRANCH   1  24
TORSDOF 16
ENDMDL
