MODEL 1
REMARK VINA RESULT:     -11.0      0.000      0.000
REMARK SMILES CCN(CC(C)(C)O)C(=O)Nc1ccc(C(=O)NCCCCNC(=O)c2ccc(-c3c4nc(c(-c5cc(S(=O)(=O)[O-])ccc5F)c5ccc([nH]5)c(-c5cc(S(=O)(=O)[O-])ccc5F)c5nc(c(-c6cc(S(=O)(=O)[O-])ccc6F)c6ccc3[nH]6)C=C5)C=C4)cc2)c(O)c1
REMARK SMILES IDX 19 1 18 2 16 3 17 4 15 6 12 7 13 8 91 9 14 10 89 11 11 12
REMARK SMILES IDX 9 13 10 14 3 16 2 17 1 18 4 19 5 20 6 21 7 22 8 23 90 25
REMARK SMILES IDX 20 27 21 28 22 29 23 30 24 31 25 33 26 34 27 35 88 36 28 37
REMARK SMILES IDX 87 38 29 39 30 40 31 41 81 42 32 43 86 44 80 45 82 46 33 47
REMARK SMILES IDX 85 48 79 49 78 50 34 52 66 53 46 54 65 55 47 56 50 57 64 58
REMARK SMILES IDX 83 59 48 60 49 61 63 63 84 64 51 65 35 66 36 67 44 68 37 69
REMARK SMILES IDX 43 70 45 71 42 72 38 73 39 74 40 75 41 76 67 77 68 78 76 79
REMARK SMILES IDX 69 80 75 81 77 82 74 83 70 84 71 85 72 86 73 87 52 88 53 89
REMARK SMILES IDX 61 90 54 91 60 92 62 93 59 94 55 95 56 96 57 97 58 98
REMARK H PARENT 18 5 11 15 8 24 90 26 23 32 82 51 50 62
REMARK Flexibility Score: inf
ROOT
ATOM      1  C   UNL A   1      31.745  30.282  25.496  1.00  0.00     0.116 C 
ENDROOT
BRANCH   1   2
ATOM      2  N   UNL A   1      31.174  29.672  24.309  1.00  0.00    -0.352 N 
ATOM      3  C   UNL A   1      31.027  28.341  24.010  1.00  0.00     0.255 C 
ATOM      4  O   UNL A   1      30.412  28.005  23.002  1.00  0.00    -0.269 OA
ATOM      5  H   UNL A   1      30.847  30.298  23.624  1.00  0.00     0.163 HD
BRANCH   3   6
ATOM      6  C   UNL A   1      31.716  27.314  24.817  1.00  0.00     0.081 A 
ATOM      7  C   UNL A   1      32.691  24.980  26.078  1.00  0.00     0.046 A 
ATOM      8  C   UNL A   1      31.406  25.436  26.296  1.00  0.00     0.027 A 
ATOM      9  C   UNL A   1      33.549  25.834  25.370  1.00  0.00     0.073 A 
ATOM     10  C   UNL A   1      30.894  26.555  25.641  1.00  0.00     0.020 A 
ATOM     11  C   UNL A   1      33.075  27.016  24.787  1.00  0.00     0.130 A 
BRANCH   7  12
ATOM     12  N   UNL A   1      33.239  23.787  26.568  1.00  0.00    -0.308 N 
ATOM     13  C   UNL A   1      33.325  22.462  26.340  1.00  0.00     0.321 C 
ATOM     14  O   UNL A   1      33.841  21.851  27.292  1.00  0.00    -0.248 OA
ATOM     15  H   UNL A   1      33.752  23.993  27.383  1.00  0.00     0.171 HD
BRANCH  13  16
ATOM     16  N   UNL A   1      33.002  21.785  25.197  1.00  0.00    -0.322 N 
BRANCH  16  17
ATOM     17  C   UNL A   1      33.502  22.364  23.937  1.00  0.00     0.118 C 
ATOM     18  C   UNL A   1      32.419  22.471  22.867  1.00  0.00     0.027 C 
ENDBRANCH  16  17
BRANCH  16  19
ATOM     19  C   UNL A   1      32.211  20.565  25.006  1.00  0.00     0.155 C 
BRANCH  19  20
ATOM     20  C   UNL A   1      33.029  19.240  25.220  1.00  0.00     0.077 C 
ATOM     21  C   UNL A   1      32.408  18.003  24.539  1.00  0.00     0.043 C 
ATOM     22  C   UNL A   1      34.506  19.443  24.825  1.00  0.00     0.043 C 
BRANCH  20  23
ATOM     23  O   UNL A   1      33.041  18.933  26.630  1.00  0.00    -0.389 OA
ATOM     24  H   UNL A   1      33.949  19.003  26.968  1.00  0.00     0.211 HD
ENDBRANCH  20  23
ENDBRANCH  19  20
ENDBRANCH  16  19
ENDBRANCH  13  16
ENDBRANCH   7  12
BRANCH  11  25
ATOM     25  O   UNL A   1      34.017  27.835  24.231  1.00  0.00    -0.507 OA
ATOM     26  H   UNL A   1      33.915  28.132  23.349  1.00  0.00     0.293 HD
ENDBRANCH  11  25
ENDBRANCH   3   6
ENDBRANCH   1   2
BRANCH   1  27
ATOM     27  C   UNL A   1      31.014  31.514  26.010  1.00  0.00     0.023 C 
BRANCH  27  28
ATOM     28  C   UNL A   1      31.616  32.210  27.225  1.00  0.00     0.023 C 
BRANCH  28  29
ATOM     29  C   UNL A   1      32.716  33.229  26.963  1.00  0.00     0.116 C 
BRANCH  29  30
ATOM     30  N   UNL A   1      32.700  34.372  27.862  1.00  0.00    -0.352 N 
ATOM     31  C   UNL A   1      33.566  34.665  28.890  1.00  0.00     0.251 C 
ATOM     32  H   UNL A   1      31.974  35.021  27.716  1.00  0.00     0.163 HD
ATOM     33  O   UNL A   1      33.392  35.660  29.588  1.00  0.00    -0.269 OA
BRANCH  31  34
ATOM     34  C   UNL A   1      34.667  33.726  29.172  1.00  0.00     0.039 A 
ATOM     35  C   UNL A   1      35.976  34.125  28.897  1.00  0.00     0.014 A 
ATOM     36  C   UNL A   1      34.411  32.520  29.828  1.00  0.00     0.014 A 
ATOM     37  C   UNL A   1      37.040  33.355  29.368  1.00  0.00     0.010 A 
ATOM     38  C   UNL A   1      35.470  31.809  30.377  1.00  0.00     0.010 A 
ATOM     39  C   UNL A   1      36.796  32.221  30.159  1.00  0.00    -0.014 A 
BRANCH  39  40
ATOM     40  C   UNL A   1      37.903  31.429  30.755  1.00  0.00     0.031 A 
ATOM     41  C   UNL A   1      38.358  31.743  32.153  1.00  0.00     0.074 A 
ATOM     42  C   UNL A   1      38.551  30.503  30.019  1.00  0.00     0.049 A 
ATOM     43  N   UNL A   1      39.401  31.303  32.807  1.00  0.00    -0.248 NA
ATOM     44  C   UNL A   1      37.551  32.726  32.895  1.00  0.00     0.031 C 
ATOM     45  C   UNL A   1      38.227  30.135  28.639  1.00  0.00     0.029 A 
ATOM     46  N   UNL A   1      39.631  29.712  30.325  1.00  0.00    -0.354 N 
ATOM     47  C   UNL A   1      39.395  31.981  34.022  1.00  0.00     0.074 A 
ATOM     48  C   UNL A   1      38.284  32.906  33.982  1.00  0.00     0.031 C 
ATOM     49  C   UNL A   1      39.075  29.178  28.227  1.00  0.00     0.029 A 
ATOM     50  C   UNL A   1      40.035  28.898  29.290  1.00  0.00     0.049 A 
ATOM     51  H   UNL A   1      40.076  29.725  31.202  1.00  0.00     0.167 HD
ATOM     52  C   UNL A   1      40.224  31.826  35.083  1.00  0.00     0.034 A 
ATOM     53  C   UNL A   1      41.070  28.038  29.205  1.00  0.00     0.034 A 
ATOM     54  C   UNL A   1      41.304  30.871  35.116  1.00  0.00     0.049 A 
ATOM     55  C   UNL A   1      41.980  27.878  30.398  1.00  0.00     0.074 A 
ATOM     56  C   UNL A   1      42.173  30.586  36.153  1.00  0.00     0.029 A 
ATOM     57  N   UNL A   1      41.658  30.039  34.061  1.00  0.00    -0.354 N 
ATOM     58  N   UNL A   1      41.944  28.502  31.553  1.00  0.00    -0.248 NA
ATOM     59  C   UNL A   1      43.064  26.894  30.281  1.00  0.00     0.031 C 
ATOM     60  C   UNL A   1      43.085  29.623  35.709  1.00  0.00     0.029 A 
ATOM     61  C   UNL A   1      42.742  29.255  34.418  1.00  0.00     0.049 A 
ATOM     62  H   UNL A   1      41.204  30.011  33.187  1.00  0.00     0.167 HD
ATOM     63  C   UNL A   1      42.974  27.957  32.312  1.00  0.00     0.074 A 
ATOM     64  C   UNL A   1      43.613  26.952  31.486  1.00  0.00     0.031 C 
ATOM     65  C   UNL A   1      43.356  28.253  33.580  1.00  0.00     0.034 A 
BRANCH  52  66
ATOM     66  C   UNL A   1      40.000  32.726  36.274  1.00  0.00     0.023 A 
ATOM     67  C   UNL A   1      39.205  32.325  37.361  1.00  0.00     0.031 A 
ATOM     68  C   UNL A   1      40.545  34.022  36.302  1.00  0.00     0.131 A 
ATOM     69  C   UNL A   1      38.899  33.237  38.381  1.00  0.00     0.055 A 
ATOM     70  C   UNL A   1      40.311  34.896  37.366  1.00  0.00     0.041 A 
ATOM     71  F   UNL A   1      41.295  34.470  35.283  1.00  0.00    -0.206 F 
ATOM     72  C   UNL A   1      39.469  34.512  38.405  1.00  0.00     0.022 A 
BRANCH  69  73
ATOM     73  S   UNL A   1      37.619  32.788  39.585  1.00  0.00     0.124 S 
ATOM     74  O   UNL A   1      37.680  33.917  40.511  1.00  0.00    -0.237 OA
ATOM     75  O   UNL A   1      36.422  32.707  38.757  1.00  0.00    -0.237 OA
ATOM     76  O   UNL A   1      38.090  31.517  40.129  1.00  0.00    -0.744 OA
ENDBRANCH  69  73
ENDBRANCH  52  66
BRANCH  53  77
ATOM     77  C   UNL A   1      41.315  27.266  27.952  1.00  0.00     0.023 A 
ATOM     78  C   UNL A   1      41.038  25.891  27.887  1.00  0.00     0.031 A 
ATOM     79  C   UNL A   1      41.872  27.879  26.816  1.00  0.00     0.131 A 
ATOM     80  C   UNL A   1      41.360  25.164  26.730  1.00  0.00     0.055 A 
ATOM     81  C   UNL A   1      42.144  27.163  25.650  1.00  0.00     0.041 A 
ATOM     82  F   UNL A   1      42.150  29.193  26.822  1.00  0.00    -0.206 F 
ATOM     83  C   UNL A   1      41.902  25.793  25.607  1.00  0.00     0.022 A 
BRANCH  80  84
ATOM     84  S   UNL A   1      41.141  23.363  26.745  1.00  0.00     0.124 S 
ATOM     85  O   UNL A   1      41.442  23.039  28.134  1.00  0.00    -0.237 OA
ATOM     86  O   UNL A   1      39.746  23.228  26.340  1.00  0.00    -0.237 OA
ATOM     87  O   UNL A   1      42.120  22.893  25.767  1.00  0.00    -0.744 OA
ENDBRANCH  80  84
ENDBRANCH  53  77
BRANCH  65  88
ATOM     88  C   UNL A   1      44.470  27.430  34.174  1.00  0.00     0.023 A 
ATOM     89  C   UNL A   1      44.252  26.139  34.685  1.00  0.00     0.031 A 
ATOM     90  C   UNL A   1      45.779  27.945  34.205  1.00  0.00     0.131 A 
ATOM     91  C   UNL A   1      45.321  25.422  35.242  1.00  0.00     0.055 A 
ATOM     92  C   UNL A   1      46.847  27.206  34.713  1.00  0.00     0.041 A 
ATOM     93  F   UNL A   1      46.040  29.173  33.728  1.00  0.00    -0.206 F 
ATOM     94  C   UNL A   1      46.619  25.940  35.244  1.00  0.00     0.022 A 
BRANCH  91  95
ATOM     95  S   UNL A   1      44.984  23.818  36.021  1.00  0.00     0.124 S 
ATOM     96  O   UNL A   1      43.583  23.602  35.675  1.00  0.00    -0.237 OA
ATOM     97  O   UNL A   1      45.945  22.942  35.361  1.00  0.00    -0.237 OA
ATOM     98  O   UNL A   1      45.243  24.064  37.438  1.00  0.00    -0.744 OA
ENDBRANCH  91  95
ENDBRANCH  65  88
ENDBRANCH  39  40
ENDBRANCH  31  34
ENDBRANCH  29  30
ENDBRANCH  28  29
ENDBRANCH  27  28
ENDBRANCH   1  27
TORSDOF 21
ENDMDL
MODEL 2
REMARK VINA RESULT:     -10.8      5.491     11.003
REMARK SMILES CCN(CC(C)(C)O)C(=O)Nc1ccc(C(=O)NCCCCNC(=O)c2ccc(-c3c4nc(c(-c5cc(S(=O)(=O)[O-])ccc5F)c5ccc([nH]5)c(-c5cc(S(=O)(=O)[O-])ccc5F)c5nc(c(-c6cc(S(=O)(=O)[O-])ccc6F)c6ccc3[nH]6)C=C5)C=C4)cc2)c(O)c1
REMARK SMILES IDX 19 1 18 2 16 3 17 4 15 6 12 7 13 8 91 9 14 10 89 11 11 12
REMARK SMILES IDX 9 13 10 14 3 16 2 17 1 18 4 19 5 20 6 21 7 22 8 23 90 25
REMARK SMILES IDX 20 27 21 28 22 29 23 30 24 31 25 33 26 34 27 35 88 36 28 37
REMARK SMILES IDX 87 38 29 39 30 40 31 41 81 42 32 43 86 44 80 45 82 46 33 47
REMARK SMILES IDX 85 48 79 49 78 50 34 52 66 53 46 54 65 55 47 56 50 57 64 58
REMARK SMILES IDX 83 59 48 60 49 61 63 63 84 64 51 65 35 66 36 67 44 68 37 69
REMARK SMILES IDX 43 70 45 71 42 72 38 73 39 74 40 75 41 76 67 77 68 78 76 79
REMARK SMILES IDX 69 80 75 81 77 82 74 83 70 84 71 85 72 86 73 87 52 88 53 89
REMARK SMILES IDX 61 90 54 91 60 92 62 93 59 94 55 95 56 96 57 97 58 98
REMARK H PARENT 18 5 11 15 8 24 90 26 23 32 82 51 50 62
REMARK Flexibility Score: inf
ROOT
ATOM      1  C   UNL A   1      35.766  21.999  24.722  1.00  0.00     0.116 C 
ENDROOT
BRANCH   1   2
ATOM      2  N   UNL A   1      35.247  21.302  25.886  1.00  0.00    -0.352 N 
ATOM      3  C   UNL A   1      34.198  21.646  26.700  1.00  0.00     0.255 C 
ATOM      4  O   UNL A   1      33.825  20.872  27.576  1.00  0.00    -0.269 OA
ATOM      5  H   UNL A   1      35.712  20.468  26.124  1.00  0.00     0.163 HD
BRANCH   3   6
ATOM      6  C   UNL A   1      33.600  22.994  26.618  1.00  0.00     0.081 A 
ATOM      7  C   UNL A   1      32.576  25.528  25.898  1.00  0.00     0.046 A 
ATOM      8  C   UNL A   1      33.927  25.250  25.833  1.00  0.00     0.027 A 
ATOM      9  C   UNL A   1      31.766  24.571  26.527  1.00  0.00     0.073 A 
ATOM     10  C   UNL A   1      34.441  23.989  26.134  1.00  0.00     0.020 A 
ATOM     11  C   UNL A   1      32.287  23.334  26.929  1.00  0.00     0.130 A 
BRANCH   7  12
ATOM     12  N   UNL A   1      31.954  26.710  25.471  1.00  0.00    -0.308 N 
ATOM     13  C   UNL A   1      31.342  27.291  24.421  1.00  0.00     0.321 C 
ATOM     14  O   UNL A   1      31.150  28.506  24.600  1.00  0.00    -0.248 OA
ATOM     15  H   UNL A   1      31.970  27.355  26.215  1.00  0.00     0.171 HD
BRANCH  13  16
ATOM     16  N   UNL A   1      30.864  26.689  23.291  1.00  0.00    -0.322 N 
BRANCH  16  17
ATOM     17  C   UNL A   1      29.677  25.833  23.463  1.00  0.00     0.118 C 
ATOM     18  C   UNL A   1      28.471  26.598  24.000  1.00  0.00     0.027 C 
ENDBRANCH  16  17
BRANCH  16  19
ATOM     19  C   UNL A   1      31.353  26.739  21.909  1.00  0.00     0.155 C 
BRANCH  19  20
ATOM     20  C   UNL A   1      32.815  26.188  21.734  1.00  0.00     0.077 C 
ATOM     21  C   UNL A   1      33.910  27.129  22.276  1.00  0.00     0.043 C 
ATOM     22  C   UNL A   1      32.932  24.763  22.313  1.00  0.00     0.043 C 
BRANCH  20  23
ATOM     23  O   UNL A   1      33.089  26.058  20.323  1.00  0.00    -0.389 OA
ATOM     24  H   UNL A   1      32.998  26.925  19.895  1.00  0.00     0.211 HD
ENDBRANCH  20  23
ENDBRANCH  19  20
ENDBRANCH  16  19
ENDBRANCH  13  16
ENDBRANCH   7  12
BRANCH  11  25
ATOM     25  O   UNL A   1      31.447  22.529  27.644  1.00  0.00    -0.507 OA
ATOM     26  H   UNL A   1      30.762  22.062  27.206  1.00  0.00     0.293 HD
ENDBRANCH  11  25
ENDBRANCH   3   6
ENDBRANCH   1   2
BRANCH   1  27
ATOM     27  C   UNL A   1      37.253  21.809  24.460  1.00  0.00     0.023 C 
BRANCH  27  28
ATOM     28  C   UNL A   1      37.875  20.511  24.964  1.00  0.00     0.023 C 
BRANCH  28  29
ATOM     29  C   UNL A   1      39.001  20.635  25.982  1.00  0.00     0.116 C 
BRANCH  29  30
ATOM     30  N   UNL A   1      39.966  19.549  25.941  1.00  0.00    -0.352 N 
ATOM     31  C   UNL A   1      41.329  19.606  26.129  1.00  0.00     0.251 C 
ATOM     32  H   UNL A   1      39.598  18.654  25.755  1.00  0.00     0.163 HD
ATOM     33  O   UNL A   1      42.015  18.595  26.023  1.00  0.00    -0.269 OA
BRANCH  31  34
ATOM     34  C   UNL A   1      41.948  20.917  26.396  1.00  0.00     0.039 A 
ATOM     35  C   UNL A   1      42.208  21.768  25.320  1.00  0.00     0.014 A 
ATOM     36  C   UNL A   1      42.141  21.348  27.710  1.00  0.00     0.014 A 
ATOM     37  C   UNL A   1      42.572  23.092  25.567  1.00  0.00     0.010 A 
ATOM     38  C   UNL A   1      42.410  22.689  27.951  1.00  0.00     0.010 A 
ATOM     39  C   UNL A   1      42.622  23.577  26.883  1.00  0.00    -0.014 A 
BRANCH  39  40
ATOM     40  C   UNL A   1      42.916  25.004  27.180  1.00  0.00     0.031 A 
ATOM     41  C   UNL A   1      44.301  25.533  26.929  1.00  0.00     0.074 A 
ATOM     42  C   UNL A   1      41.980  25.787  27.753  1.00  0.00     0.049 A 
ATOM     43  N   UNL A   1      44.826  26.682  27.267  1.00  0.00    -0.248 NA
ATOM     44  C   UNL A   1      45.234  24.621  26.248  1.00  0.00     0.031 C 
ATOM     45  C   UNL A   1      40.612  25.377  28.080  1.00  0.00     0.029 A 
ATOM     46  N   UNL A   1      42.043  27.092  28.179  1.00  0.00    -0.354 N 
ATOM     47  C   UNL A   1      46.157  26.617  26.870  1.00  0.00     0.074 A 
ATOM     48  C   UNL A   1      46.371  25.292  26.330  1.00  0.00     0.031 C 
ATOM     49  C   UNL A   1      39.961  26.414  28.634  1.00  0.00     0.029 A 
ATOM     50  C   UNL A   1      40.875  27.546  28.750  1.00  0.00     0.049 A 
ATOM     51  H   UNL A   1      42.846  27.650  28.084  1.00  0.00     0.167 HD
ATOM     52  C   UNL A   1      47.107  27.582  26.927  1.00  0.00     0.034 A 
ATOM     53  C   UNL A   1      40.582  28.733  29.317  1.00  0.00     0.034 A 
ATOM     54  C   UNL A   1      46.863  28.909  27.437  1.00  0.00     0.049 A 
ATOM     55  C   UNL A   1      41.652  29.796  29.369  1.00  0.00     0.074 A 
ATOM     56  C   UNL A   1      47.731  29.984  27.494  1.00  0.00     0.029 A 
ATOM     57  N   UNL A   1      45.657  29.342  27.974  1.00  0.00    -0.354 N 
ATOM     58  N   UNL A   1      42.899  29.732  28.961  1.00  0.00    -0.248 NA
ATOM     59  C   UNL A   1      41.277  31.092  29.948  1.00  0.00     0.031 C 
ATOM     60  C   UNL A   1      47.068  31.050  28.112  1.00  0.00     0.029 A 
ATOM     61  C   UNL A   1      45.764  30.662  28.378  1.00  0.00     0.049 A 
ATOM     62  H   UNL A   1      44.845  28.791  28.054  1.00  0.00     0.167 HD
ATOM     63  C   UNL A   1      43.442  30.991  29.199  1.00  0.00     0.074 A 
ATOM     64  C   UNL A   1      42.389  31.795  29.784  1.00  0.00     0.031 C 
ATOM     65  C   UNL A   1      44.696  31.446  28.951  1.00  0.00     0.034 A 
BRANCH  52  66
ATOM     66  C   UNL A   1      48.492  27.220  26.447  1.00  0.00     0.023 A 
ATOM     67  C   UNL A   1      48.942  27.576  25.164  1.00  0.00     0.031 A 
ATOM     68  C   UNL A   1      49.355  26.466  27.260  1.00  0.00     0.131 A 
ATOM     69  C   UNL A   1      50.175  27.100  24.696  1.00  0.00     0.055 A 
ATOM     70  C   UNL A   1      50.621  26.072  26.822  1.00  0.00     0.041 A 
ATOM     71  F   UNL A   1      48.974  26.079  28.487  1.00  0.00    -0.206 F 
ATOM     72  C   UNL A   1      51.031  26.373  25.527  1.00  0.00     0.022 A 
BRANCH  69  73
ATOM     73  S   UNL A   1      50.570  27.307  22.938  1.00  0.00     0.124 S 
ATOM     74  O   UNL A   1      50.403  28.748  22.768  1.00  0.00    -0.237 OA
ATOM     75  O   UNL A   1      51.939  26.810  22.862  1.00  0.00    -0.237 OA
ATOM     76  O   UNL A   1      49.568  26.486  22.263  1.00  0.00    -0.744 OA
ENDBRANCH  69  73
ENDBRANCH  52  66
BRANCH  53  77
ATOM     77  C   UNL A   1      39.229  28.989  29.890  1.00  0.00     0.023 A 
ATOM     78  C   UNL A   1      38.243  29.653  29.141  1.00  0.00     0.031 A 
ATOM     79  C   UNL A   1      38.914  28.616  31.208  1.00  0.00     0.131 A 
ATOM     80  C   UNL A   1      37.007  29.964  29.729  1.00  0.00     0.055 A 
ATOM     81  C   UNL A   1      37.665  28.884  31.772  1.00  0.00     0.041 A 
ATOM     82  F   UNL A   1      39.818  27.974  31.966  1.00  0.00    -0.206 F 
ATOM     83  C   UNL A   1      36.707  29.574  31.037  1.00  0.00     0.022 A 
BRANCH  80  84
ATOM     84  S   UNL A   1      35.823  30.965  28.786  1.00  0.00     0.124 S 
ATOM     85  O   UNL A   1      36.711  31.800  27.986  1.00  0.00    -0.237 OA
ATOM     86  O   UNL A   1      35.075  29.942  28.062  1.00  0.00    -0.237 OA
ATOM     87  O   UNL A   1      35.070  31.667  29.823  1.00  0.00    -0.744 OA
ENDBRANCH  80  84
ENDBRANCH  53  77
BRANCH  65  88
ATOM     88  C   UNL A   1      44.973  32.898  29.245  1.00  0.00     0.023 A 
ATOM     89  C   UNL A   1      44.918  33.883  28.245  1.00  0.00     0.031 A 
ATOM     90  C   UNL A   1      45.275  33.299  30.559  1.00  0.00     0.131 A 
ATOM     91  C   UNL A   1      45.201  35.219  28.569  1.00  0.00     0.055 A 
ATOM     92  C   UNL A   1      45.504  34.636  30.884  1.00  0.00     0.041 A 
ATOM     93  F   UNL A   1      45.339  32.395  31.550  1.00  0.00    -0.206 F 
ATOM     94  C   UNL A   1      45.477  35.603  29.884  1.00  0.00     0.022 A 
BRANCH  91  95
ATOM     95  S   UNL A   1      45.261  36.446  27.234  1.00  0.00     0.124 S 
ATOM     96  O   UNL A   1      45.702  35.641  26.100  1.00  0.00    -0.237 OA
ATOM     97  O   UNL A   1      43.882  36.919  27.182  1.00  0.00    -0.237 OA
ATOM     98  O   UNL A   1      46.232  37.427  27.714  1.00  0.00    -0.744 OA
ENDBRANCH  91  95
ENDBRANCH  65  88
ENDBRANCH  39  40
ENDBRANCH  31  34
ENDBRANCH  29  30
ENDBRANCH  28  29
ENDBRANCH  27  28
ENDBRANCH   1  27
TORSDOF 21
ENDMDL
MODEL 3
REMARK VINA RESULT:     -10.7      3.325      4.219
REMARK SMILES CCN(CC(C)(C)O)C(=O)Nc1ccc(C(=O)NCCCCNC(=O)c2ccc(-c3c4nc(c(-c5cc(S(=O)(=O)[O-])ccc5F)c5ccc([nH]5)c(-c5cc(S(=O)(=O)[O-])ccc5F)c5nc(c(-c6cc(S(=O)(=O)[O-])ccc6F)c6ccc3[nH]6)C=C5)C=C4)cc2)c(O)c1
REMARK SMILES IDX 19 1 18 2 16 3 17 4 15 6 12 7 13 8 91 9 14 10 89 11 11 12
REMARK SMILES IDX 9 13 10 14 3 16 2 17 1 18 4 19 5 20 6 21 7 22 8 23 90 25
REMARK SMILES IDX 20 27 21 28 22 29 23 30 24 31 25 33 26 34 27 35 88 36 28 37
REMARK SMILES IDX 87 38 29 39 30 40 31 41 81 42 32 43 86 44 80 45 82 46 33 47
REMARK SMILES IDX 85 48 79 49 78 50 34 52 66 53 46 54 65 55 47 56 50 57 64 58
REMARK SMILES IDX 83 59 48 60 49 61 63 63 84 64 51 65 35 66 36 67 44 68 37 69
REMARK SMILES IDX 43 70 45 71 42 72 38 73 39 74 40 75 41 76 67 77 68 78 76 79
REMARK SMILES IDX 69 80 75 81 77 82 74 83 70 84 71 85 72 86 73 87 52 88 53 89
REMARK SMILES IDX 61 90 54 91 60 92 62 93 59 94 55 95 56 96 57 97 58 98
REMARK H PARENT 18 5 11 15 8 24 90 26 23 32 82 51 50 62
REMARK Flexibility Score: inf
ROOT
ATOM      1  C   UNL A   1      31.220  29.295  24.926  1.00  0.00     0.116 C 
ENDROOT
BRANCH   1   2
ATOM      2  N   UNL A   1      30.441  29.723  23.778  1.00  0.00    -0.352 N 
ATOM      3  C   UNL A   1      29.829  28.959  22.817  1.00  0.00     0.255 C 
ATOM      4  O   UNL A   1      29.110  29.492  21.978  1.00  0.00    -0.269 OA
ATOM      5  H   UNL A   1      30.337  30.696  23.674  1.00  0.00     0.163 HD
BRANCH   3   6
ATOM      6  C   UNL A   1      30.135  27.518  22.704  1.00  0.00     0.081 A 
ATOM      7  C   UNL A   1      31.217  24.908  22.739  1.00  0.00     0.046 A 
ATOM      8  C   UNL A   1      31.751  25.901  21.941  1.00  0.00     0.027 A 
ATOM      9  C   UNL A   1      29.998  25.195  23.369  1.00  0.00     0.073 A 
ATOM     10  C   UNL A   1      31.261  27.206  21.953  1.00  0.00     0.020 A 
ATOM     11  C   UNL A   1      29.437  26.477  23.309  1.00  0.00     0.130 A 
BRANCH   7  12
ATOM     12  N   UNL A   1      31.735  23.616  22.908  1.00  0.00    -0.308 N 
ATOM     13  C   UNL A   1      32.749  22.921  23.459  1.00  0.00     0.321 C 
ATOM     14  O   UNL A   1      32.762  21.733  23.093  1.00  0.00    -0.248 OA
ATOM     15  H   UNL A   1      31.135  22.979  22.457  1.00  0.00     0.171 HD
BRANCH  13  16
ATOM     16  N   UNL A   1      33.652  23.352  24.391  1.00  0.00    -0.322 N 
BRANCH  16  17
ATOM     17  C   UNL A   1      34.983  23.726  23.881  1.00  0.00     0.118 C 
ATOM     18  C   UNL A   1      36.028  23.837  24.987  1.00  0.00     0.027 C 
ENDBRANCH  16  17
BRANCH  16  19
ATOM     19  C   UNL A   1      33.523  23.490  25.846  1.00  0.00     0.155 C 
BRANCH  19  20
ATOM     20  C   UNL A   1      33.179  22.145  26.581  1.00  0.00     0.077 C 
ATOM     21  C   UNL A   1      34.102  20.968  26.204  1.00  0.00     0.043 C 
ATOM     22  C   UNL A   1      33.106  22.362  28.106  1.00  0.00     0.043 C 
BRANCH  20  23
ATOM     23  O   UNL A   1      31.855  21.732  26.183  1.00  0.00    -0.389 OA
ATOM     24  H   UNL A   1      31.832  20.766  26.087  1.00  0.00     0.211 HD
ENDBRANCH  20  23
ENDBRANCH  19  20
ENDBRANCH  16  19
ENDBRANCH  13  16
ENDBRANCH   7  12
BRANCH  11  25
ATOM     25  O   UNL A   1      28.190  26.615  23.848  1.00  0.00    -0.507 OA
ATOM     26  H   UNL A   1      27.908  27.451  24.165  1.00  0.00     0.293 HD
ENDBRANCH  11  25
ENDBRANCH   3   6
ENDBRANCH   1   2
BRANCH   1  27
ATOM     27  C   UNL A   1      32.727  29.263  24.713  1.00  0.00     0.023 C 
BRANCH  27  28
ATOM     28  C   UNL A   1      33.568  28.709  25.857  1.00  0.00     0.023 C 
BRANCH  28  29
ATOM     29  C   UNL A   1      33.325  29.297  27.241  1.00  0.00     0.116 C 
BRANCH  29  30
ATOM     30  N   UNL A   1      33.667  30.705  27.361  1.00  0.00    -0.352 N 
ATOM     31  C   UNL A   1      34.854  31.266  27.774  1.00  0.00     0.251 C 
ATOM     32  H   UNL A   1      32.956  31.341  27.114  1.00  0.00     0.163 HD
ATOM     33  O   UNL A   1      34.971  32.485  27.857  1.00  0.00    -0.269 OA
BRANCH  31  34
ATOM     34  C   UNL A   1      35.954  30.370  28.172  1.00  0.00     0.039 A 
ATOM     35  C   UNL A   1      37.076  30.278  27.347  1.00  0.00     0.014 A 
ATOM     36  C   UNL A   1      35.929  29.737  29.417  1.00  0.00     0.014 A 
ATOM     37  C   UNL A   1      38.218  29.626  27.814  1.00  0.00     0.010 A 
ATOM     38  C   UNL A   1      37.097  29.173  29.914  1.00  0.00     0.010 A 
ATOM     39  C   UNL A   1      38.256  29.116  29.121  1.00  0.00    -0.014 A 
BRANCH  39  40
ATOM     40  C   UNL A   1      39.484  28.497  29.686  1.00  0.00     0.031 A 
ATOM     41  C   UNL A   1      40.101  29.091  30.921  1.00  0.00     0.074 A 
ATOM     42  C   UNL A   1      40.087  27.474  29.046  1.00  0.00     0.049 A 
ATOM     43  N   UNL A   1      41.249  28.825  31.486  1.00  0.00    -0.248 NA
ATOM     44  C   UNL A   1      39.339  30.164  31.580  1.00  0.00     0.031 C 
ATOM     45  C   UNL A   1      39.604  26.837  27.819  1.00  0.00     0.029 A 
ATOM     46  N   UNL A   1      41.248  26.800  29.332  1.00  0.00    -0.354 N 
ATOM     47  C   UNL A   1      41.363  29.722  32.544  1.00  0.00     0.074 A 
ATOM     48  C   UNL A   1      40.198  30.578  32.497  1.00  0.00     0.031 C 
ATOM     49  C   UNL A   1      40.450  25.853  27.470  1.00  0.00     0.029 A 
ATOM     50  C   UNL A   1      41.561  25.820  28.416  1.00  0.00     0.049 A 
ATOM     51  H   UNL A   1      41.805  26.997  30.118  1.00  0.00     0.167 HD
ATOM     52  C   UNL A   1      42.336  29.805  33.484  1.00  0.00     0.034 A 
ATOM     53  C   UNL A   1      42.630  25.002  28.340  1.00  0.00     0.034 A 
ATOM     54  C   UNL A   1      43.471  28.917  33.534  1.00  0.00     0.049 A 
ATOM     55  C   UNL A   1      43.701  25.108  29.398  1.00  0.00     0.074 A 
ATOM     56  C   UNL A   1      44.490  28.871  34.469  1.00  0.00     0.029 A 
ATOM     57  N   UNL A   1      43.735  27.914  32.610  1.00  0.00    -0.354 N 
ATOM     58  N   UNL A   1      43.780  25.940  30.412  1.00  0.00    -0.248 NA
ATOM     59  C   UNL A   1      44.823  24.164  29.307  1.00  0.00     0.031 C 
ATOM     60  C   UNL A   1      45.395  27.878  34.082  1.00  0.00     0.029 A 
ATOM     61  C   UNL A   1      44.907  27.257  32.943  1.00  0.00     0.049 A 
ATOM     62  H   UNL A   1      43.170  27.703  31.831  1.00  0.00     0.167 HD
ATOM     63  C   UNL A   1      44.938  25.591  31.100  1.00  0.00     0.074 A 
ATOM     64  C   UNL A   1      45.525  24.473  30.388  1.00  0.00     0.031 C 
ATOM     65  C   UNL A   1      45.467  26.138  32.224  1.00  0.00     0.034 A 
BRANCH  52  66
ATOM     66  C   UNL A   1      42.216  30.906  34.509  1.00  0.00     0.023 A 
ATOM     67  C   UNL A   1      42.803  32.168  34.307  1.00  0.00     0.031 A 
ATOM     68  C   UNL A   1      41.552  30.679  35.727  1.00  0.00     0.131 A 
ATOM     69  C   UNL A   1      42.796  33.117  35.338  1.00  0.00     0.055 A 
ATOM     70  C   UNL A   1      41.470  31.662  36.716  1.00  0.00     0.041 A 
ATOM     71  F   UNL A   1      40.990  29.488  35.987  1.00  0.00    -0.206 F 
ATOM     72  C   UNL A   1      42.110  32.883  36.532  1.00  0.00     0.022 A 
BRANCH  69  73
ATOM     73  S   UNL A   1      43.835  34.593  35.159  1.00  0.00     0.124 S 
ATOM     74  O   UNL A   1      44.938  34.288  36.068  1.00  0.00    -0.237 OA
ATOM     75  O   UNL A   1      44.158  34.581  33.737  1.00  0.00    -0.237 OA
ATOM     76  O   UNL A   1      42.962  35.682  35.592  1.00  0.00    -0.744 OA
ENDBRANCH  69  73
ENDBRANCH  52  66
BRANCH  53  77
ATOM     77  C   UNL A   1      42.754  24.015  27.229  1.00  0.00     0.023 A 
ATOM     78  C   UNL A   1      42.115  22.767  27.298  1.00  0.00     0.031 A 
ATOM     79  C   UNL A   1      43.551  24.285  26.102  1.00  0.00     0.131 A 
ATOM     80  C   UNL A   1      42.318  21.818  26.284  1.00  0.00     0.055 A 
ATOM     81  C   UNL A   1      43.710  23.357  25.072  1.00  0.00     0.041 A 
ATOM     82  F   UNL A   1      44.180  25.465  25.983  1.00  0.00    -0.206 F 
ATOM     83  C   UNL A   1      43.103  22.108  25.165  1.00  0.00     0.022 A 
BRANCH  80  84
ATOM     84  S   UNL A   1      41.609  20.160  26.489  1.00  0.00     0.124 S 
ATOM     85  O   UNL A   1      42.157  19.761  27.780  1.00  0.00    -0.237 OA
ATOM     86  O   UNL A   1      40.177  20.440  26.456  1.00  0.00    -0.237 OA
ATOM     87  O   UNL A   1      42.124  19.425  25.336  1.00  0.00    -0.744 OA
ENDBRANCH  80  84
ENDBRANCH  53  77
BRANCH  65  88
ATOM     88  C   UNL A   1      46.703  25.489  32.790  1.00  0.00     0.023 A 
ATOM     89  C   UNL A   1      47.985  25.757  32.281  1.00  0.00     0.031 A 
ATOM     90  C   UNL A   1      46.591  24.601  33.876  1.00  0.00     0.131 A 
ATOM     91  C   UNL A   1      49.102  25.112  32.834  1.00  0.00     0.055 A 
ATOM     92  C   UNL A   1      47.710  24.004  34.455  1.00  0.00     0.041 A 
ATOM     93  F   UNL A   1      45.388  24.313  34.399  1.00  0.00    -0.206 F 
ATOM     94  C   UNL A   1      48.974  24.251  33.927  1.00  0.00     0.022 A 
BRANCH  91  95
ATOM     95  S   UNL A   1      50.725  25.369  32.067  1.00  0.00     0.124 S 
ATOM     96  O   UNL A   1      50.519  26.609  31.327  1.00  0.00    -0.237 OA
ATOM     97  O   UNL A   1      51.608  25.458  33.225  1.00  0.00    -0.237 OA
ATOM     98  O   UNL A   1      50.907  24.176  31.242  1.00  0.00    -0.744 OA
ENDBRANCH  91  95
ENDBRANCH  65  88
ENDBRANCH  39  40
ENDBRANCH  31  34
ENDBRANCH  29  30
ENDBRANCH  28  29
ENDBRANCH  27  28
ENDBRANCH   1  27
TORSDOF 21
ENDMDL
