MODEL 1
REMARK VINA RESULT:     -12.5      0.000      0.000
REMARK SMILES CC1(C)S[C@H](c2ccc(-c3cccc([N+](=O)[O-])c3)o2)[NH2+][C@@H]1C(=O)NCCCCNC(=O)c1ccc(-c2c3nc(c(-c4cc(S(=O)(=O)[O-])ccc4F)c4ccc([nH]4)c(-c4cc(S(=O)(=O)[O-])ccc4F)c4nc(c(-c5cc(S(=O)(=O)[O-])ccc5F)c5ccc2[nH]5)C=C4)C=C3)cc1
REMARK SMILES IDX 26 1 25 2 24 3 22 4 23 5 21 7 1 8 2 9 3 10 4 11 5 12 20 13
REMARK SMILES IDX 6 16 7 17 19 18 8 19 9 20 10 21 11 22 18 23 12 24 14 25
REMARK SMILES IDX 13 26 15 27 16 28 17 29 27 30 28 31 29 32 30 33 31 35 32 36
REMARK SMILES IDX 33 37 94 38 34 39 93 40 35 41 36 42 37 43 87 44 38 45 92 46
REMARK SMILES IDX 86 47 88 48 39 49 91 50 85 51 84 52 40 54 72 55 52 56 71 57
REMARK SMILES IDX 53 58 56 59 70 60 89 61 54 62 55 63 69 65 90 66 57 67 41 68
REMARK SMILES IDX 42 69 50 70 43 71 49 72 51 73 48 74 44 75 45 76 46 77 47 78
REMARK SMILES IDX 73 79 74 80 82 81 75 82 81 83 83 84 80 85 76 86 77 87 78 88
REMARK SMILES IDX 79 89 58 90 59 91 67 92 60 93 66 94 68 95 65 96 61 97 62 98
REMARK SMILES IDX 63 99 64 100
REMARK H PARENT 24 6 20 14 20 15 29 34 88 53 56 64
REMARK Flexibility Score: inf
ROOT
ATOM      1  C   UNL A   1      31.455  28.448  27.152  1.00  0.00     0.023 C 
ENDROOT
BRANCH   1   2
ATOM      2  C   UNL A   1      32.135  27.109  27.460  1.00  0.00     0.116 C 
BRANCH   2   3
ATOM      3  N   UNL A   1      31.503  25.969  26.820  1.00  0.00    -0.351 N 
ATOM      4  C   UNL A   1      31.927  25.246  25.730  1.00  0.00     0.279 C 
ATOM      5  O   UNL A   1      31.316  24.202  25.496  1.00  0.00    -0.268 OA
ATOM      6  H   UNL A   1      30.654  25.673  27.222  1.00  0.00     0.163 HD
BRANCH   4   7
ATOM      7  C   UNL A   1      33.004  25.838  24.777  1.00  0.00     0.289 C 
ATOM      8  C   UNL A   1      33.491  26.918  22.524  1.00  0.00     0.030 C 
ATOM      9  C   UNL A   1      32.796  25.736  23.237  1.00  0.00     0.078 C 
ATOM     10  C   UNL A   1      31.363  25.638  22.713  1.00  0.00     0.030 C 
ATOM     11  S   UNL A   1      33.701  24.235  22.742  1.00  0.00    -0.078 SA
ATOM     12  C   UNL A   1      34.609  24.110  24.294  1.00  0.00     0.311 C 
ATOM     13  N   UNL A   1      34.369  25.314  25.094  1.00  0.00    -0.317 N 
ATOM     14  H   UNL A   1      35.069  26.021  24.867  1.00  0.00     0.348 HD
ATOM     15  H   UNL A   1      34.433  25.090  26.087  1.00  0.00     0.348 HD
BRANCH  12  16
ATOM     16  C   UNL A   1      34.344  22.805  24.966  1.00  0.00     0.172 A 
ATOM     17  C   UNL A   1      34.274  22.491  26.311  1.00  0.00     0.054 A 
ATOM     18  O   UNL A   1      34.127  21.679  24.217  1.00  0.00    -0.454 OA
ATOM     19  C   UNL A   1      33.991  21.116  26.390  1.00  0.00     0.051 A 
ATOM     20  C   UNL A   1      33.900  20.660  25.092  1.00  0.00     0.134 A 
BRANCH  20  21
ATOM     21  C   UNL A   1      33.587  19.350  24.551  1.00  0.00     0.024 A 
ATOM     22  C   UNL A   1      32.754  19.175  23.438  1.00  0.00     0.012 A 
ATOM     23  C   UNL A   1      34.217  18.236  25.117  1.00  0.00     0.097 A 
ATOM     24  C   UNL A   1      32.603  17.908  22.859  1.00  0.00     0.008 A 
ATOM     25  C   UNL A   1      34.071  16.980  24.529  1.00  0.00     0.270 A 
ATOM     26  C   UNL A   1      33.282  16.809  23.387  1.00  0.00     0.085 A 
BRANCH  25  27
ATOM     27  N   UNL A   1      34.731  15.835  25.152  1.00  0.00     0.062 N 
ATOM     28  O   UNL A   1      34.084  14.787  25.240  1.00  0.00    -0.258 OA
ATOM     29  O   UNL A   1      35.884  16.008  25.573  1.00  0.00    -0.258 OA
ENDBRANCH  25  27
ENDBRANCH  20  21
ENDBRANCH  12  16
ENDBRANCH   4   7
ENDBRANCH   2   3
ENDBRANCH   1   2
BRANCH   1  30
ATOM     30  C   UNL A   1      31.612  28.991  25.729  1.00  0.00     0.023 C 
BRANCH  30  31
ATOM     31  C   UNL A   1      32.741  29.995  25.501  1.00  0.00     0.116 C 
BRANCH  31  32
ATOM     32  N   UNL A   1      32.501  31.285  26.136  1.00  0.00    -0.352 N 
ATOM     33  C   UNL A   1      33.141  31.943  27.168  1.00  0.00     0.251 C 
ATOM     34  H   UNL A   1      31.739  31.779  25.759  1.00  0.00     0.163 HD
ATOM     35  O   UNL A   1      32.628  32.979  27.590  1.00  0.00    -0.269 OA
BRANCH  33  36
ATOM     36  C   UNL A   1      34.402  31.448  27.792  1.00  0.00     0.039 A 
ATOM     37  C   UNL A   1      35.510  32.303  27.884  1.00  0.00     0.014 A 
ATOM     38  C   UNL A   1      34.542  30.138  28.239  1.00  0.00     0.014 A 
ATOM     39  C   UNL A   1      36.707  31.871  28.486  1.00  0.00     0.010 A 
ATOM     40  C   UNL A   1      35.702  29.727  28.898  1.00  0.00     0.010 A 
ATOM     41  C   UNL A   1      36.799  30.583  29.030  1.00  0.00    -0.014 A 
BRANCH  41  42
ATOM     42  C   UNL A   1      37.973  30.112  29.817  1.00  0.00     0.031 A 
ATOM     43  C   UNL A   1      38.234  30.618  31.215  1.00  0.00     0.074 A 
ATOM     44  C   UNL A   1      38.913  29.376  29.193  1.00  0.00     0.049 A 
ATOM     45  N   UNL A   1      39.257  30.392  32.001  1.00  0.00    -0.248 NA
ATOM     46  C   UNL A   1      37.239  31.540  31.777  1.00  0.00     0.031 C 
ATOM     47  C   UNL A   1      38.845  28.935  27.797  1.00  0.00     0.029 A 
ATOM     48  N   UNL A   1      40.124  28.905  29.630  1.00  0.00    -0.354 N 
ATOM     49  C   UNL A   1      39.043  31.162  33.143  1.00  0.00     0.074 A 
ATOM     50  C   UNL A   1      37.820  31.904  32.912  1.00  0.00     0.031 C 
ATOM     51  C   UNL A   1      39.963  28.256  27.497  1.00  0.00     0.029 A 
ATOM     52  C   UNL A   1      40.831  28.223  28.669  1.00  0.00     0.049 A 
ATOM     53  H   UNL A   1      40.456  29.042  30.547  1.00  0.00     0.167 HD
ATOM     54  C   UNL A   1      39.785  31.230  34.280  1.00  0.00     0.034 A 
ATOM     55  C   UNL A   1      42.037  27.626  28.723  1.00  0.00     0.034 A 
ATOM     56  C   UNL A   1      40.995  30.466  34.494  1.00  0.00     0.049 A 
ATOM     57  C   UNL A   1      42.796  27.624  30.023  1.00  0.00     0.074 A 
ATOM     58  C   UNL A   1      41.755  30.355  35.647  1.00  0.00     0.029 A 
ATOM     59  N   UNL A   1      41.629  29.691  33.531  1.00  0.00    -0.354 N 
ATOM     60  N   UNL A   1      42.514  28.244  31.145  1.00  0.00    -0.248 NA
ATOM     61  C   UNL A   1      44.014  26.806  30.075  1.00  0.00     0.031 C 
ATOM     62  C   UNL A   1      42.876  29.565  35.365  1.00  0.00     0.029 A 
ATOM     63  C   UNL A   1      42.777  29.116  34.058  1.00  0.00     0.049 A 
ATOM     64  H   UNL A   1      41.310  29.566  32.609  1.00  0.00     0.167 HD
ATOM     65  C   UNL A   1      43.497  27.855  32.049  1.00  0.00     0.074 A 
ATOM     66  C   UNL A   1      44.372  26.941  31.342  1.00  0.00     0.031 C 
ATOM     67  C   UNL A   1      43.655  28.214  33.349  1.00  0.00     0.034 A 
BRANCH  54  68
ATOM     68  C   UNL A   1      39.312  32.156  35.382  1.00  0.00     0.023 A 
ATOM     69  C   UNL A   1      39.744  33.492  35.464  1.00  0.00     0.031 A 
ATOM     70  C   UNL A   1      38.401  31.707  36.357  1.00  0.00     0.131 A 
ATOM     71  C   UNL A   1      39.325  34.308  36.528  1.00  0.00     0.055 A 
ATOM     72  C   UNL A   1      37.923  32.547  37.366  1.00  0.00     0.041 A 
ATOM     73  F   UNL A   1      37.955  30.441  36.346  1.00  0.00    -0.206 F 
ATOM     74  C   UNL A   1      38.396  33.852  37.464  1.00  0.00     0.022 A 
BRANCH  71  75
ATOM     75  S   UNL A   1      40.100  35.934  36.733  1.00  0.00     0.124 S 
ATOM     76  O   UNL A   1      39.450  36.424  37.946  1.00  0.00    -0.237 OA
ATOM     77  O   UNL A   1      41.513  35.598  36.858  1.00  0.00    -0.237 OA
ATOM     78  O   UNL A   1      39.735  36.646  35.509  1.00  0.00    -0.744 OA
ENDBRANCH  71  75
ENDBRANCH  54  68
BRANCH  55  79
ATOM     79  C   UNL A   1      42.568  26.918  27.528  1.00  0.00     0.023 A 
ATOM     80  C   UNL A   1      42.381  25.535  27.383  1.00  0.00     0.031 A 
ATOM     81  C   UNL A   1      43.262  27.603  26.519  1.00  0.00     0.131 A 
ATOM     82  C   UNL A   1      42.921  24.869  26.274  1.00  0.00     0.055 A 
ATOM     83  C   UNL A   1      43.760  26.944  25.393  1.00  0.00     0.041 A 
ATOM     84  F   UNL A   1      43.446  28.931  26.602  1.00  0.00    -0.206 F 
ATOM     85  C   UNL A   1      43.600  25.566  25.272  1.00  0.00     0.022 A 
BRANCH  82  86
ATOM     86  S   UNL A   1      42.774  23.064  26.196  1.00  0.00     0.124 S 
ATOM     87  O   UNL A   1      43.882  22.637  27.039  1.00  0.00    -0.237 OA
ATOM     88  O   UNL A   1      41.435  22.848  26.736  1.00  0.00    -0.237 OA
ATOM     89  O   UNL A   1      42.922  22.773  24.770  1.00  0.00    -0.744 OA
ENDBRANCH  82  86
ENDBRANCH  55  79
BRANCH  67  90
ATOM     90  C   UNL A   1      44.790  27.563  34.105  1.00  0.00     0.023 A 
ATOM     91  C   UNL A   1      44.618  26.363  34.815  1.00  0.00     0.031 A 
ATOM     92  C   UNL A   1      46.054  28.179  34.143  1.00  0.00     0.131 A 
ATOM     93  C   UNL A   1      45.671  25.852  35.591  1.00  0.00     0.055 A 
ATOM     94  C   UNL A   1      47.116  27.634  34.865  1.00  0.00     0.041 A 
ATOM     95  F   UNL A   1      46.275  29.328  33.485  1.00  0.00    -0.206 F 
ATOM     96  C   UNL A   1      46.924  26.472  35.608  1.00  0.00     0.022 A 
BRANCH  93  97
ATOM     97  S   UNL A   1      45.349  24.429  36.669  1.00  0.00     0.124 S 
ATOM     98  O   UNL A   1      45.215  23.341  35.707  1.00  0.00    -0.237 OA
ATOM     99  O   UNL A   1      46.545  24.395  37.506  1.00  0.00    -0.237 OA
ATOM    100  O   UNL A   1      44.117  24.797  37.365  1.00  0.00    -0.744 OA
ENDBRANCH  93  97
ENDBRANCH  67  90
ENDBRANCH  41  42
ENDBRANCH  33  36
ENDBRANCH  31  32
ENDBRANCH  30  31
ENDBRANCH   1  30
TORSDOF 17
ENDMDL
MODEL 2
REMARK VINA RESULT:     -12.3      1.542      7.406
REMARK SMILES CC1(C)S[C@H](c2ccc(-c3cccc([N+](=O)[O-])c3)o2)[NH2+][C@@H]1C(=O)NCCCCNC(=O)c1ccc(-c2c3nc(c(-c4cc(S(=O)(=O)[O-])ccc4F)c4ccc([nH]4)c(-c4cc(S(=O)(=O)[O-])ccc4F)c4nc(c(-c5cc(S(=O)(=O)[O-])ccc5F)c5ccc2[nH]5)C=C4)C=C3)cc1
REMARK SMILES IDX 26 1 25 2 24 3 22 4 23 5 21 7 1 8 2 9 3 10 4 11 5 12 20 13
REMARK SMILES IDX 6 16 7 17 19 18 8 19 9 20 10 21 11 22 18 23 12 24 14 25
REMARK SMILES IDX 13 26 15 27 16 28 17 29 27 30 28 31 29 32 30 33 31 35 32 36
REMARK SMILES IDX 33 37 94 38 34 39 93 40 35 41 36 42 37 43 87 44 38 45 92 46
REMARK SMILES IDX 86 47 88 48 39 49 91 50 85 51 84 52 40 54 72 55 52 56 71 57
REMARK SMILES IDX 53 58 56 59 70 60 89 61 54 62 55 63 69 65 90 66 57 67 41 68
REMARK SMILES IDX 42 69 50 70 43 71 49 72 51 73 48 74 44 75 45 76 46 77 47 78
REMARK SMILES IDX 73 79 74 80 82 81 75 82 81 83 83 84 80 85 76 86 77 87 78 88
REMARK SMILES IDX 79 89 58 90 59 91 67 92 60 93 66 94 68 95 65 96 61 97 62 98
REMARK SMILES IDX 63 99 64 100
REMARK H PARENT 24 6 20 14 20 15 29 34 88 53 56 64
REMARK Flexibility Score: inf
ROOT
ATOM      1  C   UNL A   1      31.454  28.414  27.259  1.00  0.00     0.023 C 
ENDROOT
BRANCH   1   2
ATOM      2  C   UNL A   1      32.175  27.063  27.333  1.00  0.00     0.116 C 
BRANCH   2   3
ATOM      3  N   UNL A   1      31.465  25.983  26.670  1.00  0.00    -0.351 N 
ATOM      4  C   UNL A   1      31.831  25.268  25.553  1.00  0.00     0.279 C 
ATOM      5  O   UNL A   1      31.153  24.271  25.298  1.00  0.00    -0.268 OA
ATOM      6  H   UNL A   1      30.605  25.727  27.075  1.00  0.00     0.163 HD
BRANCH   4   7
ATOM      7  C   UNL A   1      32.929  25.821  24.602  1.00  0.00     0.289 C 
ATOM      8  C   UNL A   1      33.464  26.844  22.333  1.00  0.00     0.030 C 
ATOM      9  C   UNL A   1      32.740  25.689  23.062  1.00  0.00     0.078 C 
ATOM     10  C   UNL A   1      31.313  25.603  22.521  1.00  0.00     0.030 C 
ATOM     11  S   UNL A   1      33.626  24.163  22.612  1.00  0.00    -0.078 SA
ATOM     12  C   UNL A   1      34.512  24.057  24.178  1.00  0.00     0.311 C 
ATOM     13  N   UNL A   1      34.281  25.282  24.949  1.00  0.00    -0.317 N 
ATOM     14  H   UNL A   1      34.996  25.973  24.716  1.00  0.00     0.348 HD
ATOM     15  H   UNL A   1      34.328  25.079  25.947  1.00  0.00     0.348 HD
BRANCH  12  16
ATOM     16  C   UNL A   1      34.216  22.772  24.875  1.00  0.00     0.172 A 
ATOM     17  C   UNL A   1      34.029  22.507  26.219  1.00  0.00     0.054 A 
ATOM     18  O   UNL A   1      34.096  21.613  24.155  1.00  0.00    -0.454 OA
ATOM     19  C   UNL A   1      33.772  21.129  26.327  1.00  0.00     0.051 A 
ATOM     20  C   UNL A   1      33.813  20.622  25.046  1.00  0.00     0.134 A 
BRANCH  20  21
ATOM     21  C   UNL A   1      33.581  19.285  24.532  1.00  0.00     0.024 A 
ATOM     22  C   UNL A   1      32.756  19.035  23.427  1.00  0.00     0.012 A 
ATOM     23  C   UNL A   1      34.284  18.224  25.114  1.00  0.00     0.097 A 
ATOM     24  C   UNL A   1      32.684  17.751  22.872  1.00  0.00     0.008 A 
ATOM     25  C   UNL A   1      34.216  16.950  24.551  1.00  0.00     0.270 A 
ATOM     26  C   UNL A   1      33.435  16.707  23.417  1.00  0.00     0.085 A 
BRANCH  25  27
ATOM     27  N   UNL A   1      34.951  15.862  25.191  1.00  0.00     0.062 N 
ATOM     28  O   UNL A   1      34.369  14.780  25.315  1.00  0.00    -0.258 OA
ATOM     29  O   UNL A   1      36.098  16.113  25.590  1.00  0.00    -0.258 OA
ENDBRANCH  25  27
ENDBRANCH  20  21
ENDBRANCH  12  16
ENDBRANCH   4   7
ENDBRANCH   2   3
ENDBRANCH   1   2
BRANCH   1  30
ATOM     30  C   UNL A   1      31.448  29.119  25.900  1.00  0.00     0.023 C 
BRANCH  30  31
ATOM     31  C   UNL A   1      32.560  30.137  25.652  1.00  0.00     0.116 C 
BRANCH  31  32
ATOM     32  N   UNL A   1      32.280  31.448  26.224  1.00  0.00    -0.352 N 
ATOM     33  C   UNL A   1      32.934  32.202  27.178  1.00  0.00     0.251 C 
ATOM     34  H   UNL A   1      31.471  31.876  25.863  1.00  0.00     0.163 HD
ATOM     35  O   UNL A   1      32.384  33.232  27.568  1.00  0.00    -0.269 OA
BRANCH  33  36
ATOM     36  C   UNL A   1      34.253  31.816  27.758  1.00  0.00     0.039 A 
ATOM     37  C   UNL A   1      35.254  32.787  27.906  1.00  0.00     0.014 A 
ATOM     38  C   UNL A   1      34.553  30.503  28.107  1.00  0.00     0.014 A 
ATOM     39  C   UNL A   1      36.501  32.458  28.468  1.00  0.00     0.010 A 
ATOM     40  C   UNL A   1      35.762  30.186  28.727  1.00  0.00     0.010 A 
ATOM     41  C   UNL A   1      36.752  31.154  28.917  1.00  0.00    -0.014 A 
BRANCH  41  42
ATOM     42  C   UNL A   1      37.984  30.770  29.661  1.00  0.00     0.031 A 
ATOM     43  C   UNL A   1      38.964  29.773  29.093  1.00  0.00     0.074 A 
ATOM     44  C   UNL A   1      38.115  31.174  30.939  1.00  0.00     0.049 A 
ATOM     45  N   UNL A   1      40.031  29.251  29.647  1.00  0.00    -0.248 NA
ATOM     46  C   UNL A   1      38.674  29.258  27.749  1.00  0.00     0.031 C 
ATOM     47  C   UNL A   1      37.165  32.031  31.652  1.00  0.00     0.029 A 
ATOM     48  N   UNL A   1      39.073  30.889  31.879  1.00  0.00    -0.354 N 
ATOM     49  C   UNL A   1      40.528  28.328  28.729  1.00  0.00     0.074 A 
ATOM     50  C   UNL A   1      39.606  28.324  27.612  1.00  0.00     0.031 C 
ATOM     51  C   UNL A   1      37.589  32.202  32.914  1.00  0.00     0.029 A 
ATOM     52  C   UNL A   1      38.831  31.461  33.105  1.00  0.00     0.049 A 
ATOM     53  H   UNL A   1      39.859  30.327  31.693  1.00  0.00     0.167 HD
ATOM     54  C   UNL A   1      41.654  27.570  28.804  1.00  0.00     0.034 A 
ATOM     55  C   UNL A   1      39.533  31.409  34.253  1.00  0.00     0.034 A 
ATOM     56  C   UNL A   1      42.569  27.602  29.924  1.00  0.00     0.049 A 
ATOM     57  C   UNL A   1      40.831  30.649  34.284  1.00  0.00     0.074 A 
ATOM     58  C   UNL A   1      43.801  26.980  30.053  1.00  0.00     0.029 A 
ATOM     59  N   UNL A   1      42.349  28.286  31.113  1.00  0.00    -0.354 N 
ATOM     60  N   UNL A   1      41.364  29.886  33.358  1.00  0.00    -0.248 NA
ATOM     61  C   UNL A   1      41.642  30.776  35.501  1.00  0.00     0.031 C 
ATOM     62  C   UNL A   1      44.295  27.237  31.338  1.00  0.00     0.029 A 
ATOM     63  C   UNL A   1      43.411  28.085  31.985  1.00  0.00     0.049 A 
ATOM     64  H   UNL A   1      41.556  28.834  31.309  1.00  0.00     0.167 HD
ATOM     65  C   UNL A   1      42.595  29.480  33.865  1.00  0.00     0.074 A 
ATOM     66  C   UNL A   1      42.725  30.089  35.173  1.00  0.00     0.031 C 
ATOM     67  C   UNL A   1      43.535  28.683  33.294  1.00  0.00     0.034 A 
BRANCH  54  68
ATOM     68  C   UNL A   1      41.965  26.643  27.645  1.00  0.00     0.023 A 
ATOM     69  C   UNL A   1      41.482  25.323  27.602  1.00  0.00     0.031 A 
ATOM     70  C   UNL A   1      42.738  27.088  26.557  1.00  0.00     0.131 A 
ATOM     71  C   UNL A   1      41.831  24.476  26.538  1.00  0.00     0.055 A 
ATOM     72  C   UNL A   1      43.014  26.267  25.460  1.00  0.00     0.041 A 
ATOM     73  F   UNL A   1      43.240  28.333  26.536  1.00  0.00    -0.206 F 
ATOM     74  C   UNL A   1      42.572  24.947  25.453  1.00  0.00     0.022 A 
BRANCH  71  75
ATOM     75  S   UNL A   1      41.400  22.718  26.649  1.00  0.00     0.124 S 
ATOM     76  O   UNL A   1      42.196  22.145  25.566  1.00  0.00    -0.237 OA
ATOM     77  O   UNL A   1      41.821  22.373  28.001  1.00  0.00    -0.237 OA
ATOM     78  O   UNL A   1      39.955  22.704  26.424  1.00  0.00    -0.744 OA
ENDBRANCH  71  75
ENDBRANCH  54  68
BRANCH  55  79
ATOM     79  C   UNL A   1      39.059  32.159  35.447  1.00  0.00     0.023 A 
ATOM     80  C   UNL A   1      38.406  31.489  36.491  1.00  0.00     0.031 A 
ATOM     81  C   UNL A   1      39.252  33.544  35.565  1.00  0.00     0.131 A 
ATOM     82  C   UNL A   1      37.926  32.211  37.593  1.00  0.00     0.055 A 
ATOM     83  C   UNL A   1      38.813  34.253  36.685  1.00  0.00     0.041 A 
ATOM     84  F   UNL A   1      39.893  34.226  34.601  1.00  0.00    -0.206 F 
ATOM     85  C   UNL A   1      38.135  33.587  37.702  1.00  0.00     0.022 A 
BRANCH  82  86
ATOM     86  S   UNL A   1      36.969  31.326  38.853  1.00  0.00     0.124 S 
ATOM     87  O   UNL A   1      36.887  29.988  38.282  1.00  0.00    -0.237 OA
ATOM     88  O   UNL A   1      37.817  31.471  40.032  1.00  0.00    -0.237 OA
ATOM     89  O   UNL A   1      35.708  32.065  38.902  1.00  0.00    -0.744 OA
ENDBRANCH  82  86
ENDBRANCH  55  79
BRANCH  67  90
ATOM     90  C   UNL A   1      44.816  28.477  34.067  1.00  0.00     0.023 A 
ATOM     91  C   UNL A   1      45.049  27.316  34.824  1.00  0.00     0.031 A 
ATOM     92  C   UNL A   1      45.803  29.478  34.072  1.00  0.00     0.131 A 
ATOM     93  C   UNL A   1      46.207  27.214  35.612  1.00  0.00     0.055 A 
ATOM     94  C   UNL A   1      46.982  29.345  34.807  1.00  0.00     0.041 A 
ATOM     95  F   UNL A   1      45.635  30.609  33.369  1.00  0.00    -0.206 F 
ATOM     96  C   UNL A   1      47.182  28.216  35.597  1.00  0.00     0.022 A 
BRANCH  93  97
ATOM     97  S   UNL A   1      46.369  25.809  36.747  1.00  0.00     0.124 S 
ATOM     98  O   UNL A   1      45.940  24.692  35.912  1.00  0.00    -0.237 OA
ATOM     99  O   UNL A   1      47.788  25.843  37.085  1.00  0.00    -0.237 OA
ATOM    100  O   UNL A   1      45.463  26.146  37.844  1.00  0.00    -0.744 OA
ENDBRANCH  93  97
ENDBRANCH  67  90
ENDBRANCH  41  42
ENDBRANCH  33  36
ENDBRANCH  31  32
ENDBRANCH  30  31
ENDBRANCH   1  30
TORSDOF 17
ENDMDL
MODEL 3
REMARK VINA RESULT:     -12.3      2.247      2.805
REMARK SMILES CC1(C)S[C@H](c2ccc(-c3cccc([N+](=O)[O-])c3)o2)[NH2+][C@@H]1C(=O)NCCCCNC(=O)c1ccc(-c2c3nc(c(-c4cc(S(=O)(=O)[O-])ccc4F)c4ccc([nH]4)c(-c4cc(S(=O)(=O)[O-])ccc4F)c4nc(c(-c5cc(S(=O)(=O)[O-])ccc5F)c5ccc2[nH]5)C=C4)C=C3)cc1
REMARK SMILES IDX 26 1 25 2 24 3 22 4 23 5 21 7 1 8 2 9 3 10 4 11 5 12 20 13
REMARK SMILES IDX 6 16 7 17 19 18 8 19 9 20 10 21 11 22 18 23 12 24 14 25
REMARK SMILES IDX 13 26 15 27 16 28 17 29 27 30 28 31 29 32 30 33 31 35 32 36
REMARK SMILES IDX 33 37 94 38 34 39 93 40 35 41 36 42 37 43 87 44 38 45 92 46
REMARK SMILES IDX 86 47 88 48 39 49 91 50 85 51 84 52 40 54 72 55 52 56 71 57
REMARK SMILES IDX 53 58 56 59 70 60 89 61 54 62 55 63 69 65 90 66 57 67 41 68
REMARK SMILES IDX 42 69 50 70 43 71 49 72 51 73 48 74 44 75 45 76 46 77 47 78
REMARK SMILES IDX 73 79 74 80 82 81 75 82 81 83 83 84 80 85 76 86 77 87 78 88
REMARK SMILES IDX 79 89 58 90 59 91 67 92 60 93 66 94 68 95 65 96 61 97 62 98
REMARK SMILES IDX 63 99 64 100
REMARK H PARENT 24 6 20 14 20 15 29 34 88 53 56 64
REMARK Flexibility Score: inf
ROOT
ATOM      1  C   UNL A   1      31.634  28.177  26.512  1.00  0.00     0.023 C 
ENDROOT
BRANCH   1   2
ATOM      2  C   UNL A   1      31.657  26.817  27.218  1.00  0.00     0.116 C 
BRANCH   2   3
ATOM      3  N   UNL A   1      31.100  25.735  26.423  1.00  0.00    -0.351 N 
ATOM      4  C   UNL A   1      31.663  25.067  25.361  1.00  0.00     0.279 C 
ATOM      5  O   UNL A   1      31.071  24.056  24.977  1.00  0.00    -0.268 OA
ATOM      6  H   UNL A   1      30.197  25.439  26.681  1.00  0.00     0.163 HD
BRANCH   4   7
ATOM      7  C   UNL A   1      32.877  25.684  24.610  1.00  0.00     0.289 C 
ATOM      8  C   UNL A   1      33.730  26.767  22.470  1.00  0.00     0.030 C 
ATOM      9  C   UNL A   1      32.950  25.570  23.059  1.00  0.00     0.078 C 
ATOM     10  C   UNL A   1      31.637  25.429  22.288  1.00  0.00     0.030 C 
ATOM     11  S   UNL A   1      33.969  24.092  22.748  1.00  0.00    -0.078 SA
ATOM     12  C   UNL A   1      34.588  23.999  24.438  1.00  0.00     0.311 C 
ATOM     13  N   UNL A   1      34.177  25.200  25.171  1.00  0.00    -0.317 N 
ATOM     14  H   UNL A   1      34.887  25.925  25.066  1.00  0.00     0.348 HD
ATOM     15  H   UNL A   1      34.068  24.982  26.161  1.00  0.00     0.348 HD
BRANCH  12  16
ATOM     16  C   UNL A   1      34.241  22.690  25.064  1.00  0.00     0.172 A 
ATOM     17  C   UNL A   1      34.016  22.366  26.389  1.00  0.00     0.054 A 
ATOM     18  O   UNL A   1      34.106  21.571  24.285  1.00  0.00    -0.454 OA
ATOM     19  C   UNL A   1      33.720  20.992  26.424  1.00  0.00     0.051 A 
ATOM     20  C   UNL A   1      33.776  20.547  25.120  1.00  0.00     0.134 A 
BRANCH  20  21
ATOM     21  C   UNL A   1      33.519  19.243  24.536  1.00  0.00     0.024 A 
ATOM     22  C   UNL A   1      32.778  19.078  23.359  1.00  0.00     0.012 A 
ATOM     23  C   UNL A   1      34.116  18.127  25.131  1.00  0.00     0.097 A 
ATOM     24  C   UNL A   1      32.686  17.820  22.749  1.00  0.00     0.008 A 
ATOM     25  C   UNL A   1      34.030  16.879  24.513  1.00  0.00     0.270 A 
ATOM     26  C   UNL A   1      33.335  16.719  23.311  1.00  0.00     0.085 A 
BRANCH  25  27
ATOM     27  N   UNL A   1      34.653  15.730  25.167  1.00  0.00     0.062 N 
ATOM     28  O   UNL A   1      33.957  14.723  25.329  1.00  0.00    -0.258 OA
ATOM     29  O   UNL A   1      35.828  15.860  25.539  1.00  0.00    -0.258 OA
ENDBRANCH  25  27
ENDBRANCH  20  21
ENDBRANCH  12  16
ENDBRANCH   4   7
ENDBRANCH   2   3
ENDBRANCH   1   2
BRANCH   1  30
ATOM     30  C   UNL A   1      32.105  29.386  27.325  1.00  0.00     0.023 C 
BRANCH  30  31
ATOM     31  C   UNL A   1      33.354  30.106  26.819  1.00  0.00     0.116 C 
BRANCH  31  32
ATOM     32  N   UNL A   1      33.515  31.442  27.380  1.00  0.00    -0.352 N 
ATOM     33  C   UNL A   1      34.464  31.986  28.222  1.00  0.00     0.251 C 
ATOM     34  H   UNL A   1      32.814  32.076  27.106  1.00  0.00     0.163 HD
ATOM     35  O   UNL A   1      34.268  33.126  28.643  1.00  0.00    -0.269 OA
BRANCH  33  36
ATOM     36  C   UNL A   1      35.691  31.253  28.649  1.00  0.00     0.039 A 
ATOM     37  C   UNL A   1      36.951  31.723  28.253  1.00  0.00     0.014 A 
ATOM     38  C   UNL A   1      35.629  30.073  29.385  1.00  0.00     0.014 A 
ATOM     39  C   UNL A   1      38.126  31.064  28.656  1.00  0.00     0.010 A 
ATOM     40  C   UNL A   1      36.794  29.456  29.845  1.00  0.00     0.010 A 
ATOM     41  C   UNL A   1      38.056  29.939  29.489  1.00  0.00    -0.014 A 
BRANCH  41  42
ATOM     42  C   UNL A   1      39.256  29.285  30.082  1.00  0.00     0.031 A 
ATOM     43  C   UNL A   1      39.949  29.867  31.289  1.00  0.00     0.074 A 
ATOM     44  C   UNL A   1      39.837  28.275  29.407  1.00  0.00     0.049 A 
ATOM     45  N   UNL A   1      41.059  29.486  31.872  1.00  0.00    -0.248 NA
ATOM     46  C   UNL A   1      39.340  31.063  31.884  1.00  0.00     0.031 C 
ATOM     47  C   UNL A   1      39.342  27.708  28.150  1.00  0.00     0.029 A 
ATOM     48  N   UNL A   1      40.989  27.572  29.655  1.00  0.00    -0.354 N 
ATOM     49  C   UNL A   1      41.296  30.410  32.888  1.00  0.00     0.074 A 
ATOM     50  C   UNL A   1      40.242  31.399  32.797  1.00  0.00     0.031 C 
ATOM     51  C   UNL A   1      40.183  26.745  27.741  1.00  0.00     0.029 A 
ATOM     52  C   UNL A   1      41.281  26.632  28.695  1.00  0.00     0.049 A 
ATOM     53  H   UNL A   1      41.553  27.726  30.447  1.00  0.00     0.167 HD
ATOM     54  C   UNL A   1      42.288  30.421  33.818  1.00  0.00     0.034 A 
ATOM     55  C   UNL A   1      42.307  25.767  28.596  1.00  0.00     0.034 A 
ATOM     56  C   UNL A   1      43.321  29.412  33.901  1.00  0.00     0.049 A 
ATOM     57  C   UNL A   1      43.339  25.725  29.692  1.00  0.00     0.074 A 
ATOM     58  C   UNL A   1      44.296  29.249  34.872  1.00  0.00     0.029 A 
ATOM     59  N   UNL A   1      43.524  28.400  32.970  1.00  0.00    -0.354 N 
ATOM     60  N   UNL A   1      43.476  26.519  30.727  1.00  0.00    -0.248 NA
ATOM     61  C   UNL A   1      44.329  24.644  29.624  1.00  0.00     0.031 C 
ATOM     62  C   UNL A   1      45.120  28.180  34.499  1.00  0.00     0.029 A 
ATOM     63  C   UNL A   1      44.615  27.624  33.335  1.00  0.00     0.049 A 
ATOM     64  H   UNL A   1      42.972  28.254  32.169  1.00  0.00     0.167 HD
ATOM     65  C   UNL A   1      44.541  26.004  31.460  1.00  0.00     0.074 A 
ATOM     66  C   UNL A   1      45.003  24.829  30.749  1.00  0.00     0.031 C 
ATOM     67  C   UNL A   1      45.082  26.459  32.620  1.00  0.00     0.034 A 
BRANCH  54  68
ATOM     68  C   UNL A   1      42.305  31.554  34.825  1.00  0.00     0.023 A 
ATOM     69  C   UNL A   1      41.383  31.617  35.886  1.00  0.00     0.031 A 
ATOM     70  C   UNL A   1      43.267  32.577  34.739  1.00  0.00     0.131 A 
ATOM     71  C   UNL A   1      41.396  32.707  36.771  1.00  0.00     0.055 A 
ATOM     72  C   UNL A   1      43.327  33.617  35.672  1.00  0.00     0.041 A 
ATOM     73  F   UNL A   1      44.171  32.586  33.748  1.00  0.00    -0.206 F 
ATOM     74  C   UNL A   1      42.379  33.694  36.688  1.00  0.00     0.022 A 
BRANCH  71  75
ATOM     75  S   UNL A   1      40.038  32.875  37.962  1.00  0.00     0.124 S 
ATOM     76  O   UNL A   1      39.073  31.902  37.454  1.00  0.00    -0.237 OA
ATOM     77  O   UNL A   1      40.681  32.536  39.225  1.00  0.00    -0.237 OA
ATOM     78  O   UNL A   1      39.632  34.273  37.825  1.00  0.00    -0.744 OA
ENDBRANCH  71  75
ENDBRANCH  54  68
BRANCH  55  79
ATOM     79  C   UNL A   1      42.370  24.819  27.453  1.00  0.00     0.023 A 
ATOM     80  C   UNL A   1      41.622  23.632  27.474  1.00  0.00     0.031 A 
ATOM     81  C   UNL A   1      43.167  25.080  26.327  1.00  0.00     0.131 A 
ATOM     82  C   UNL A   1      41.720  22.725  26.410  1.00  0.00     0.055 A 
ATOM     83  C   UNL A   1      43.227  24.196  25.248  1.00  0.00     0.041 A 
ATOM     84  F   UNL A   1      43.883  26.214  26.250  1.00  0.00    -0.206 F 
ATOM     85  C   UNL A   1      42.509  23.004  25.292  1.00  0.00     0.022 A 
BRANCH  82  86
ATOM     86  S   UNL A   1      40.844  21.143  26.542  1.00  0.00     0.124 S 
ATOM     87  O   UNL A   1      39.571  21.452  25.905  1.00  0.00    -0.237 OA
ATOM     88  O   UNL A   1      41.730  20.246  25.807  1.00  0.00    -0.237 OA
ATOM     89  O   UNL A   1      40.782  20.910  27.985  1.00  0.00    -0.744 OA
ENDBRANCH  82  86
ENDBRANCH  55  79
BRANCH  67  90
ATOM     90  C   UNL A   1      46.199  25.639  33.221  1.00  0.00     0.023 A 
ATOM     91  C   UNL A   1      47.541  25.826  32.849  1.00  0.00     0.031 A 
ATOM     92  C   UNL A   1      45.906  24.629  34.155  1.00  0.00     0.131 A 
ATOM     93  C   UNL A   1      48.533  24.969  33.353  1.00  0.00     0.055 A 
ATOM     94  C   UNL A   1      46.904  23.820  34.701  1.00  0.00     0.041 A 
ATOM     95  F   UNL A   1      44.641  24.404  34.545  1.00  0.00    -0.206 F 
ATOM     96  C   UNL A   1      48.224  23.977  34.288  1.00  0.00     0.022 A 
BRANCH  93  97
ATOM     97  S   UNL A   1      50.214  25.092  32.684  1.00  0.00     0.124 S 
ATOM     98  O   UNL A   1      50.044  26.065  31.610  1.00  0.00    -0.237 OA
ATOM     99  O   UNL A   1      50.977  25.548  33.841  1.00  0.00    -0.237 OA
ATOM    100  O   UNL A   1      50.511  23.730  32.245  1.00  0.00    -0.744 OA
ENDBRANCH  93  97
ENDBRANCH  67  90
ENDBRANCH  41  42
ENDBRANCH  33  36
ENDBRANCH  31  32
ENDBRANCH  30  31
ENDBRANCH   1  30
TORSDOF 17
ENDMDL
