MODEL 1
REMARK VINA RESULT:     -10.3      0.000      0.000
REMARK SMILES C#CC[N@@H+](CC(=O)NCCCCNC(=O)c1ccc(-c2c3nc(c(-c4cc(S(=O)(=O)[O-])ccc4F)c4ccc([nH]4)c(-c4cc(S(=O)(=O)[O-])ccc4F)c4nc(c(-c5cc(S(=O)(=O)[O-])ccc5F)c5ccc2[nH]5)C=C4)C=C3)cc1)CC(=O)NC(=O)NC
REMARK SMILES IDX 10 1 9 2 8 3 6 4 7 5 5 7 4 8 3 10 2 11 1 12 79 13 80 14
REMARK SMILES IDX 81 15 82 16 83 17 84 19 85 20 86 21 11 23 12 24 13 25 14 26
REMARK SMILES IDX 15 28 16 29 17 30 78 31 18 32 77 33 19 34 20 35 21 36 71 37
REMARK SMILES IDX 22 38 76 39 70 40 72 41 23 42 75 43 69 44 68 45 24 47 56 48
REMARK SMILES IDX 36 49 55 50 37 51 40 52 54 53 73 54 38 55 39 56 53 58 74 59
REMARK SMILES IDX 41 60 25 61 26 62 34 63 27 64 33 65 35 66 32 67 28 68 29 69
REMARK SMILES IDX 30 70 31 71 57 72 58 73 66 74 59 75 65 76 67 77 64 78 60 79
REMARK SMILES IDX 61 80 62 81 63 82 42 83 43 84 51 85 44 86 50 87 52 88 49 89
REMARK SMILES IDX 45 90 46 91 47 92 48 93
REMARK H PARENT 8 6 4 9 82 18 85 22 13 27 72 46 40 57
REMARK Flexibility Score: inf
ROOT
ATOM      1  C   UNL A   1      31.624  28.205  27.076  1.00  0.00     0.023 C 
ENDROOT
BRANCH   1   2
ATOM      2  C   UNL A   1      31.010  27.255  26.021  1.00  0.00     0.116 C 
BRANCH   2   3
ATOM      3  N   UNL A   1      30.639  25.951  26.550  1.00  0.00    -0.351 N 
ATOM      4  C   UNL A   1      31.109  24.684  26.354  1.00  0.00     0.275 C 
ATOM      5  O   UNL A   1      30.661  23.821  27.120  1.00  0.00    -0.269 OA
ATOM      6  H   UNL A   1      29.889  25.991  27.186  1.00  0.00     0.163 HD
BRANCH   4   7
ATOM      7  C   UNL A   1      32.173  24.273  25.297  1.00  0.00     0.364 C 
BRANCH   7   8
ATOM      8  N   UNL A   1      33.577  24.015  25.762  1.00  0.00    -0.309 N 
ATOM      9  H   UNL A   1      33.554  23.932  26.778  1.00  0.00     0.349 HD
BRANCH   8  10
ATOM     10  C   UNL A   1      34.367  25.139  25.311  1.00  0.00     0.354 C 
BRANCH  10  11
ATOM     11  C   UNL A   1      33.908  26.083  24.212  1.00  0.00    -0.047 C 
ATOM     12  C   UNL A   1      33.514  26.893  23.269  1.00  0.00     0.010 C 
ENDBRANCH  10  11
ENDBRANCH   8  10
BRANCH   8  13
ATOM     13  C   UNL A   1      34.182  22.718  25.385  1.00  0.00     0.365 C 
BRANCH  13  14
ATOM     14  C   UNL A   1      35.089  22.018  26.377  1.00  0.00     0.283 C 
ATOM     15  O   UNL A   1      34.628  21.590  27.443  1.00  0.00    -0.268 OA
ATOM     16  N   UNL A   1      36.433  21.813  26.113  1.00  0.00    -0.273 N 
ATOM     17  C   UNL A   1      37.449  22.564  25.601  1.00  0.00     0.321 C 
ATOM     18  H   UNL A   1      36.726  20.904  26.353  1.00  0.00     0.175 HD
ATOM     19  O   UNL A   1      38.519  22.620  26.213  1.00  0.00    -0.248 OA
ATOM     20  N   UNL A   1      37.369  23.247  24.450  1.00  0.00    -0.341 N 
ATOM     21  C   UNL A   1      36.570  23.050  23.271  1.00  0.00     0.144 C 
ATOM     22  H   UNL A   1      37.968  24.027  24.403  1.00  0.00     0.165 HD
ENDBRANCH  13  14
ENDBRANCH   8  13
ENDBRANCH   7   8
ENDBRANCH   4   7
ENDBRANCH   2   3
ENDBRANCH   1   2
BRANCH   1  23
ATOM     23  C   UNL A   1      33.130  28.212  27.179  1.00  0.00     0.023 C 
BRANCH  23  24
ATOM     24  C   UNL A   1      33.771  29.303  26.374  1.00  0.00     0.116 C 
BRANCH  24  25
ATOM     25  N   UNL A   1      33.723  30.614  27.017  1.00  0.00    -0.352 N 
ATOM     26  C   UNL A   1      34.666  31.138  27.877  1.00  0.00     0.251 C 
ATOM     27  H   UNL A   1      32.940  31.179  26.816  1.00  0.00     0.163 HD
ATOM     28  O   UNL A   1      34.517  32.208  28.427  1.00  0.00    -0.269 OA
BRANCH  26  29
ATOM     29  C   UNL A   1      35.840  30.280  28.114  1.00  0.00     0.039 A 
ATOM     30  C   UNL A   1      36.998  30.507  27.371  1.00  0.00     0.014 A 
ATOM     31  C   UNL A   1      35.851  29.494  29.269  1.00  0.00     0.014 A 
ATOM     32  C   UNL A   1      38.203  29.978  27.827  1.00  0.00     0.010 A 
ATOM     33  C   UNL A   1      37.067  29.094  29.788  1.00  0.00     0.010 A 
ATOM     34  C   UNL A   1      38.249  29.303  29.057  1.00  0.00    -0.014 A 
BRANCH  34  35
ATOM     35  C   UNL A   1      39.495  28.685  29.569  1.00  0.00     0.031 A 
ATOM     36  C   UNL A   1      40.165  29.345  30.744  1.00  0.00     0.074 A 
ATOM     37  C   UNL A   1      40.051  27.623  28.954  1.00  0.00     0.049 A 
ATOM     38  N   UNL A   1      41.351  29.141  31.248  1.00  0.00    -0.248 NA
ATOM     39  C   UNL A   1      39.418  30.437  31.391  1.00  0.00     0.031 C 
ATOM     40  C   UNL A   1      39.506  26.931  27.783  1.00  0.00     0.029 A 
ATOM     41  N   UNL A   1      41.208  26.944  29.230  1.00  0.00    -0.354 N 
ATOM     42  C   UNL A   1      41.506  30.114  32.230  1.00  0.00     0.074 A 
ATOM     43  C   UNL A   1      40.336  30.960  32.182  1.00  0.00     0.031 C 
ATOM     44  C   UNL A   1      40.314  25.903  27.466  1.00  0.00     0.029 A 
ATOM     45  C   UNL A   1      41.452  25.890  28.379  1.00  0.00     0.049 A 
ATOM     46  H   UNL A   1      41.810  27.187  29.970  1.00  0.00     0.167 HD
ATOM     47  C   UNL A   1      42.513  30.260  33.124  1.00  0.00     0.034 A 
ATOM     48  C   UNL A   1      42.484  25.024  28.348  1.00  0.00     0.034 A 
ATOM     49  C   UNL A   1      43.631  29.359  33.194  1.00  0.00     0.049 A 
ATOM     50  C   UNL A   1      43.577  25.179  29.379  1.00  0.00     0.074 A 
ATOM     51  C   UNL A   1      44.697  29.366  34.074  1.00  0.00     0.029 A 
ATOM     52  N   UNL A   1      43.810  28.263  32.356  1.00  0.00    -0.354 N 
ATOM     53  N   UNL A   1      43.708  26.094  30.313  1.00  0.00    -0.248 NA
ATOM     54  C   UNL A   1      44.651  24.179  29.363  1.00  0.00     0.031 C 
ATOM     55  C   UNL A   1      45.537  28.294  33.748  1.00  0.00     0.029 A 
ATOM     56  C   UNL A   1      44.964  27.586  32.702  1.00  0.00     0.049 A 
ATOM     57  H   UNL A   1      43.203  28.008  31.624  1.00  0.00     0.167 HD
ATOM     58  C   UNL A   1      44.856  25.752  31.021  1.00  0.00     0.074 A 
ATOM     59  C   UNL A   1      45.376  24.546  30.409  1.00  0.00     0.031 C 
ATOM     60  C   UNL A   1      45.433  26.371  32.082  1.00  0.00     0.034 A 
BRANCH  47  61
ATOM     61  C   UNL A   1      42.427  31.429  34.073  1.00  0.00     0.023 A 
ATOM     62  C   UNL A   1      41.608  31.389  35.215  1.00  0.00     0.031 A 
ATOM     63  C   UNL A   1      43.109  32.626  33.795  1.00  0.00     0.131 A 
ATOM     64  C   UNL A   1      41.407  32.549  35.977  1.00  0.00     0.055 A 
ATOM     65  C   UNL A   1      42.981  33.751  34.615  1.00  0.00     0.041 A 
ATOM     66  F   UNL A   1      43.887  32.734  32.708  1.00  0.00    -0.206 F 
ATOM     67  C   UNL A   1      42.112  33.723  35.701  1.00  0.00     0.022 A 
BRANCH  64  68
ATOM     68  S   UNL A   1      40.093  32.545  37.226  1.00  0.00     0.124 S 
ATOM     69  O   UNL A   1      40.863  32.420  38.460  1.00  0.00    -0.237 OA
ATOM     70  O   UNL A   1      39.442  33.831  37.006  1.00  0.00    -0.237 OA
ATOM     71  O   UNL A   1      39.293  31.372  36.876  1.00  0.00    -0.744 OA
ENDBRANCH  64  68
ENDBRANCH  47  61
BRANCH  48  72
ATOM     72  C   UNL A   1      42.540  23.930  27.336  1.00  0.00     0.023 A 
ATOM     73  C   UNL A   1      41.879  22.711  27.562  1.00  0.00     0.031 A 
ATOM     74  C   UNL A   1      43.296  24.058  26.158  1.00  0.00     0.131 A 
ATOM     75  C   UNL A   1      42.034  21.649  26.656  1.00  0.00     0.055 A 
ATOM     76  C   UNL A   1      43.405  23.017  25.234  1.00  0.00     0.041 A 
ATOM     77  F   UNL A   1      43.940  25.204  25.887  1.00  0.00    -0.206 F 
ATOM     78  C   UNL A   1      42.784  21.797  25.489  1.00  0.00     0.022 A 
BRANCH  75  79
ATOM     79  S   UNL A   1      41.318  20.036  27.080  1.00  0.00     0.124 S 
ATOM     80  O   UNL A   1      40.836  20.271  28.436  1.00  0.00    -0.237 OA
ATOM     81  O   UNL A   1      40.293  19.882  26.051  1.00  0.00    -0.237 OA
ATOM     82  O   UNL A   1      42.452  19.121  26.968  1.00  0.00    -0.744 OA
ENDBRANCH  75  79
ENDBRANCH  48  72
BRANCH  60  83
ATOM     83  C   UNL A   1      46.639  25.705  32.689  1.00  0.00     0.023 A 
ATOM     84  C   UNL A   1      46.518  24.730  33.692  1.00  0.00     0.031 A 
ATOM     85  C   UNL A   1      47.926  26.048  32.238  1.00  0.00     0.131 A 
ATOM     86  C   UNL A   1      47.672  24.160  34.246  1.00  0.00     0.055 A 
ATOM     87  C   UNL A   1      49.067  25.440  32.758  1.00  0.00     0.041 A 
ATOM     88  F   UNL A   1      48.089  26.972  31.278  1.00  0.00    -0.206 F 
ATOM     89  C   UNL A   1      48.945  24.497  33.775  1.00  0.00     0.022 A 
BRANCH  86  90
ATOM     90  S   UNL A   1      47.492  23.014  35.639  1.00  0.00     0.124 S 
ATOM     91  O   UNL A   1      48.695  23.291  36.418  1.00  0.00    -0.237 OA
ATOM     92  O   UNL A   1      46.232  23.446  36.238  1.00  0.00    -0.237 OA
ATOM     93  O   UNL A   1      47.454  21.700  35.001  1.00  0.00    -0.744 OA
ENDBRANCH  86  90
ENDBRANCH  60  83
ENDBRANCH  34  35
ENDBRANCH  26  29
ENDBRANCH  24  25
ENDBRANCH  23  24
ENDBRANCH   1  23
TORSDOF 19
ENDMDL
MODEL 2
REMARK VINA RESULT:     -10.0      5.010      7.634
REMARK SMILES C#CC[N@@H+](CC(=O)NCCCCNC(=O)c1ccc(-c2c3nc(c(-c4cc(S(=O)(=O)[O-])ccc4F)c4ccc([nH]4)c(-c4cc(S(=O)(=O)[O-])ccc4F)c4nc(c(-c5cc(S(=O)(=O)[O-])ccc5F)c5ccc2[nH]5)C=C4)C=C3)cc1)CC(=O)NC(=O)NC
REMARK SMILES IDX 10 1 9 2 8 3 6 4 7 5 5 7 4 8 3 10 2 11 1 12 79 13 80 14
REMARK SMILES IDX 81 15 82 16 83 17 84 19 85 20 86 21 11 23 12 24 13 25 14 26
REMARK SMILES IDX 15 28 16 29 17 30 78 31 18 32 77 33 19 34 20 35 21 36 71 37
REMARK SMILES IDX 22 38 76 39 70 40 72 41 23 42 75 43 69 44 68 45 24 47 56 48
REMARK SMILES IDX 36 49 55 50 37 51 40 52 54 53 73 54 38 55 39 56 53 58 74 59
REMARK SMILES IDX 41 60 25 61 26 62 34 63 27 64 33 65 35 66 32 67 28 68 29 69
REMARK SMILES IDX 30 70 31 71 57 72 58 73 66 74 59 75 65 76 67 77 64 78 60 79
REMARK SMILES IDX 61 80 62 81 63 82 42 83 43 84 51 85 44 86 50 87 52 88 49 89
REMARK SMILES IDX 45 90 46 91 47 92 48 93
REMARK H PARENT 8 6 4 9 82 18 85 22 13 27 72 46 40 57
REMARK Flexibility Score: inf
ROOT
ATOM      1  C   UNL A   1      34.524  22.193  24.043  1.00  0.00     0.023 C 
ENDROOT
BRANCH   1   2
ATOM      2  C   UNL A   1      33.107  22.011  24.633  1.00  0.00     0.116 C 
BRANCH   2   3
ATOM      3  N   UNL A   1      33.051  22.147  26.081  1.00  0.00    -0.351 N 
ATOM      4  C   UNL A   1      32.416  23.012  26.926  1.00  0.00     0.275 C 
ATOM      5  O   UNL A   1      32.454  22.715  28.126  1.00  0.00    -0.269 OA
ATOM      6  H   UNL A   1      33.586  21.469  26.554  1.00  0.00     0.163 HD
BRANCH   4   7
ATOM      7  C   UNL A   1      31.632  24.281  26.489  1.00  0.00     0.364 C 
BRANCH   7   8
ATOM      8  N   UNL A   1      32.225  25.152  25.419  1.00  0.00    -0.309 N 
ATOM      9  H   UNL A   1      32.833  24.567  24.847  1.00  0.00     0.349 HD
BRANCH   8  10
ATOM     10  C   UNL A   1      32.946  26.203  26.104  1.00  0.00     0.354 C 
BRANCH  10  11
ATOM     11  C   UNL A   1      32.254  27.396  26.744  1.00  0.00    -0.047 C 
ATOM     12  C   UNL A   1      31.661  28.419  27.292  1.00  0.00     0.010 C 
ENDBRANCH  10  11
ENDBRANCH   8  10
BRANCH   8  13
ATOM     13  C   UNL A   1      31.299  25.685  24.395  1.00  0.00     0.365 C 
BRANCH  13  14
ATOM     14  C   UNL A   1      31.065  24.880  23.132  1.00  0.00     0.283 C 
ATOM     15  O   UNL A   1      30.484  23.789  23.191  1.00  0.00    -0.268 OA
ATOM     16  N   UNL A   1      31.461  25.349  21.890  1.00  0.00    -0.273 N 
ATOM     17  C   UNL A   1      32.574  25.953  21.387  1.00  0.00     0.321 C 
ATOM     18  H   UNL A   1      30.768  25.212  21.202  1.00  0.00     0.175 HD
ATOM     19  O   UNL A   1      33.091  25.499  20.362  1.00  0.00    -0.248 OA
ATOM     20  N   UNL A   1      33.150  27.034  21.932  1.00  0.00    -0.341 N 
ATOM     21  C   UNL A   1      32.621  28.096  22.745  1.00  0.00     0.144 C 
ATOM     22  H   UNL A   1      34.112  27.117  21.740  1.00  0.00     0.165 HD
ENDBRANCH  13  14
ENDBRANCH   8  13
ENDBRANCH   7   8
ENDBRANCH   4   7
ENDBRANCH   2   3
ENDBRANCH   1   2
BRANCH   1  23
ATOM     23  C   UNL A   1      35.419  23.193  24.735  1.00  0.00     0.023 C 
BRANCH  23  24
ATOM     24  C   UNL A   1      36.153  22.614  25.909  1.00  0.00     0.116 C 
BRANCH  24  25
ATOM     25  N   UNL A   1      37.013  21.484  25.565  1.00  0.00    -0.352 N 
ATOM     26  C   UNL A   1      38.373  21.396  25.786  1.00  0.00     0.251 C 
ATOM     27  H   UNL A   1      36.580  20.711  25.134  1.00  0.00     0.163 HD
ATOM     28  O   UNL A   1      39.029  20.450  25.405  1.00  0.00    -0.269 OA
BRANCH  26  29
ATOM     29  C   UNL A   1      38.972  22.554  26.471  1.00  0.00     0.039 A 
ATOM     30  C   UNL A   1      40.057  22.343  27.321  1.00  0.00     0.014 A 
ATOM     31  C   UNL A   1      38.635  23.829  26.011  1.00  0.00     0.014 A 
ATOM     32  C   UNL A   1      40.855  23.428  27.672  1.00  0.00     0.010 A 
ATOM     33  C   UNL A   1      39.511  24.872  26.249  1.00  0.00     0.010 A 
ATOM     34  C   UNL A   1      40.609  24.690  27.107  1.00  0.00    -0.014 A 
BRANCH  34  35
ATOM     35  C   UNL A   1      41.400  25.886  27.477  1.00  0.00     0.031 A 
ATOM     36  C   UNL A   1      40.734  26.915  28.352  1.00  0.00     0.074 A 
ATOM     37  C   UNL A   1      42.636  26.086  26.982  1.00  0.00     0.049 A 
ATOM     38  N   UNL A   1      41.114  28.128  28.647  1.00  0.00    -0.248 NA
ATOM     39  C   UNL A   1      39.422  26.544  28.909  1.00  0.00     0.031 C 
ATOM     40  C   UNL A   1      43.360  25.173  26.093  1.00  0.00     0.029 A 
ATOM     41  N   UNL A   1      43.502  27.134  27.155  1.00  0.00    -0.354 N 
ATOM     42  C   UNL A   1      40.063  28.676  29.376  1.00  0.00     0.074 A 
ATOM     43  C   UNL A   1      39.000  27.698  29.393  1.00  0.00     0.031 C 
ATOM     44  C   UNL A   1      44.574  25.688  25.829  1.00  0.00     0.029 A 
ATOM     45  C   UNL A   1      44.698  26.983  26.490  1.00  0.00     0.049 A 
ATOM     46  H   UNL A   1      43.289  27.923  27.704  1.00  0.00     0.167 HD
ATOM     47  C   UNL A   1      40.008  29.869  30.013  1.00  0.00     0.034 A 
ATOM     48  C   UNL A   1      45.763  27.808  26.428  1.00  0.00     0.034 A 
ATOM     49  C   UNL A   1      41.110  30.792  30.038  1.00  0.00     0.049 A 
ATOM     50  C   UNL A   1      45.698  29.117  27.179  1.00  0.00     0.074 A 
ATOM     51  C   UNL A   1      41.204  32.013  30.677  1.00  0.00     0.029 A 
ATOM     52  N   UNL A   1      42.330  30.574  29.407  1.00  0.00    -0.354 N 
ATOM     53  N   UNL A   1      44.705  29.619  27.877  1.00  0.00    -0.248 NA
ATOM     54  C   UNL A   1      46.899  29.960  27.148  1.00  0.00     0.031 C 
ATOM     55  C   UNL A   1      42.469  32.549  30.407  1.00  0.00     0.029 A 
ATOM     56  C   UNL A   1      43.184  31.635  29.647  1.00  0.00     0.049 A 
ATOM     57  H   UNL A   1      42.553  29.780  28.869  1.00  0.00     0.167 HD
ATOM     58  C   UNL A   1      45.179  30.818  28.402  1.00  0.00     0.074 A 
ATOM     59  C   UNL A   1      46.547  30.958  27.945  1.00  0.00     0.031 C 
ATOM     60  C   UNL A   1      44.550  31.724  29.193  1.00  0.00     0.034 A 
BRANCH  47  61
ATOM     61  C   UNL A   1      38.720  30.214  30.719  1.00  0.00     0.023 A 
ATOM     62  C   UNL A   1      37.662  30.852  30.046  1.00  0.00     0.031 A 
ATOM     63  C   UNL A   1      38.574  29.974  32.096  1.00  0.00     0.131 A 
ATOM     64  C   UNL A   1      36.555  31.322  30.766  1.00  0.00     0.055 A 
ATOM     65  C   UNL A   1      37.423  30.359  32.789  1.00  0.00     0.041 A 
ATOM     66  F   UNL A   1      39.557  29.391  32.797  1.00  0.00    -0.206 F 
ATOM     67  C   UNL A   1      36.414  31.053  32.129  1.00  0.00     0.022 A 
BRANCH  64  68
ATOM     68  S   UNL A   1      35.387  32.427  29.927  1.00  0.00     0.124 S 
ATOM     69  O   UNL A   1      36.266  33.514  29.505  1.00  0.00    -0.237 OA
ATOM     70  O   UNL A   1      34.859  31.582  28.863  1.00  0.00    -0.237 OA
ATOM     71  O   UNL A   1      34.433  32.777  30.978  1.00  0.00    -0.744 OA
ENDBRANCH  64  68
ENDBRANCH  47  61
BRANCH  48  72
ATOM     72  C   UNL A   1      46.981  27.433  25.653  1.00  0.00     0.023 A 
ATOM     73  C   UNL A   1      47.139  27.846  24.320  1.00  0.00     0.031 A 
ATOM     74  C   UNL A   1      47.979  26.613  26.208  1.00  0.00     0.131 A 
ATOM     75  C   UNL A   1      48.233  27.391  23.567  1.00  0.00     0.055 A 
ATOM     76  C   UNL A   1      49.094  26.205  25.472  1.00  0.00     0.041 A 
ATOM     77  F   UNL A   1      47.885  26.197  27.481  1.00  0.00    -0.206 F 
ATOM     78  C   UNL A   1      49.217  26.582  24.137  1.00  0.00     0.022 A 
BRANCH  75  79
ATOM     79  S   UNL A   1      48.299  27.796  21.800  1.00  0.00     0.124 S 
ATOM     80  O   UNL A   1      49.442  28.699  21.743  1.00  0.00    -0.237 OA
ATOM     81  O   UNL A   1      48.489  26.480  21.197  1.00  0.00    -0.237 OA
ATOM     82  O   UNL A   1      46.999  28.414  21.544  1.00  0.00    -0.744 OA
ENDBRANCH  75  79
ENDBRANCH  48  72
BRANCH  60  83
ATOM     83  C   UNL A   1      45.364  32.895  29.672  1.00  0.00     0.023 A 
ATOM     84  C   UNL A   1      45.388  34.113  28.976  1.00  0.00     0.031 A 
ATOM     85  C   UNL A   1      46.114  32.784  30.857  1.00  0.00     0.131 A 
ATOM     86  C   UNL A   1      46.186  35.165  29.448  1.00  0.00     0.055 A 
ATOM     87  C   UNL A   1      46.866  33.850  31.347  1.00  0.00     0.041 A 
ATOM     88  F   UNL A   1      46.118  31.639  31.558  1.00  0.00    -0.206 F 
ATOM     89  C   UNL A   1      46.913  35.047  30.636  1.00  0.00     0.022 A 
BRANCH  86  90
ATOM     90  S   UNL A   1      46.314  36.672  28.449  1.00  0.00     0.124 S 
ATOM     91  O   UNL A   1      47.070  37.557  29.330  1.00  0.00    -0.237 OA
ATOM     92  O   UNL A   1      47.018  36.202  27.261  1.00  0.00    -0.237 OA
ATOM     93  O   UNL A   1      44.921  37.057  28.229  1.00  0.00    -0.744 OA
ENDBRANCH  86  90
ENDBRANCH  60  83
ENDBRANCH  34  35
ENDBRANCH  26  29
ENDBRANCH  24  25
ENDBRANCH  23  24
ENDBRANCH   1  23
TORSDOF 19
ENDMDL
MODEL 3
REMARK VINA RESULT:     -10.0      4.597      9.696
REMARK SMILES C#CC[N@@H+](CC(=O)NCCCCNC(=O)c1ccc(-c2c3nc(c(-c4cc(S(=O)(=O)[O-])ccc4F)c4ccc([nH]4)c(-c4cc(S(=O)(=O)[O-])ccc4F)c4nc(c(-c5cc(S(=O)(=O)[O-])ccc5F)c5ccc2[nH]5)C=C4)C=C3)cc1)CC(=O)NC(=O)NC
REMARK SMILES IDX 10 1 9 2 8 3 6 4 7 5 5 7 4 8 3 10 2 11 1 12 79 13 80 14
REMARK SMILES IDX 81 15 82 16 83 17 84 19 85 20 86 21 11 23 12 24 13 25 14 26
REMARK SMILES IDX 15 28 16 29 17 30 78 31 18 32 77 33 19 34 20 35 21 36 71 37
REMARK SMILES IDX 22 38 76 39 70 40 72 41 23 42 75 43 69 44 68 45 24 47 56 48
REMARK SMILES IDX 36 49 55 50 37 51 40 52 54 53 73 54 38 55 39 56 53 58 74 59
REMARK SMILES IDX 41 60 25 61 26 62 34 63 27 64 33 65 35 66 32 67 28 68 29 69
REMARK SMILES IDX 30 70 31 71 57 72 58 73 66 74 59 75 65 76 67 77 64 78 60 79
REMARK SMILES IDX 61 80 62 81 63 82 42 83 43 84 51 85 44 86 50 87 52 88 49 89
REMARK SMILES IDX 45 90 46 91 47 92 48 93
REMARK H PARENT 8 6 4 9 82 18 85 22 13 27 72 46 40 57
REMARK Flexibility Score: inf
ROOT
ATOM      1  C   UNL A   1      34.826  21.688  26.453  1.00  0.00     0.023 C 
ENDROOT
BRANCH   1   2
ATOM      2  C   UNL A   1      33.377  21.325  26.056  1.00  0.00     0.116 C 
BRANCH   2   3
ATOM      3  N   UNL A   1      32.367  22.161  26.688  1.00  0.00    -0.351 N 
ATOM      4  C   UNL A   1      32.203  23.511  26.816  1.00  0.00     0.275 C 
ATOM      5  O   UNL A   1      31.113  23.878  27.272  1.00  0.00    -0.269 OA
ATOM      6  H   UNL A   1      31.647  21.642  27.114  1.00  0.00     0.163 HD
BRANCH   4   7
ATOM      7  C   UNL A   1      33.243  24.587  26.394  1.00  0.00     0.364 C 
BRANCH   7   8
ATOM      8  N   UNL A   1      33.487  24.806  24.929  1.00  0.00    -0.309 N 
ATOM      9  H   UNL A   1      34.200  24.139  24.633  1.00  0.00     0.349 HD
BRANCH   8  10
ATOM     10  C   UNL A   1      33.916  26.180  24.789  1.00  0.00     0.354 C 
BRANCH  10  11
ATOM     11  C   UNL A   1      33.711  27.222  25.876  1.00  0.00    -0.047 C 
ATOM     12  C   UNL A   1      33.535  28.117  26.809  1.00  0.00     0.010 C 
ENDBRANCH  10  11
ENDBRANCH   8  10
BRANCH   8  13
ATOM     13  C   UNL A   1      32.381  24.467  24.004  1.00  0.00     0.365 C 
BRANCH  13  14
ATOM     14  C   UNL A   1      32.703  23.739  22.715  1.00  0.00     0.283 C 
ATOM     15  O   UNL A   1      33.191  22.603  22.751  1.00  0.00    -0.268 OA
ATOM     16  N   UNL A   1      32.437  24.303  21.478  1.00  0.00    -0.273 N 
ATOM     17  C   UNL A   1      32.604  25.532  20.912  1.00  0.00     0.321 C 
ATOM     18  H   UNL A   1      32.027  23.658  20.855  1.00  0.00     0.175 HD
ATOM     19  O   UNL A   1      33.151  25.614  19.810  1.00  0.00    -0.248 OA
ATOM     20  N   UNL A   1      32.194  26.677  21.476  1.00  0.00    -0.341 N 
ATOM     21  C   UNL A   1      31.143  26.962  22.416  1.00  0.00     0.144 C 
ATOM     22  H   UNL A   1      32.706  27.469  21.195  1.00  0.00     0.165 HD
ENDBRANCH  13  14
ENDBRANCH   8  13
ENDBRANCH   7   8
ENDBRANCH   4   7
ENDBRANCH   2   3
ENDBRANCH   1   2
BRANCH   1  23
ATOM     23  C   UNL A   1      35.773  22.010  25.322  1.00  0.00     0.023 C 
BRANCH  23  24
ATOM     24  C   UNL A   1      36.961  22.817  25.759  1.00  0.00     0.116 C 
BRANCH  24  25
ATOM     25  N   UNL A   1      38.156  22.017  26.008  1.00  0.00    -0.352 N 
ATOM     26  C   UNL A   1      39.351  22.473  26.528  1.00  0.00     0.251 C 
ATOM     27  H   UNL A   1      38.105  21.059  25.783  1.00  0.00     0.163 HD
ATOM     28  O   UNL A   1      40.323  21.757  26.638  1.00  0.00    -0.269 OA
BRANCH  26  29
ATOM     29  C   UNL A   1      39.370  23.900  26.892  1.00  0.00     0.039 A 
ATOM     30  C   UNL A   1      39.209  24.253  28.232  1.00  0.00     0.014 A 
ATOM     31  C   UNL A   1      39.851  24.807  25.945  1.00  0.00     0.014 A 
ATOM     32  C   UNL A   1      39.592  25.528  28.640  1.00  0.00     0.010 A 
ATOM     33  C   UNL A   1      40.358  26.016  26.383  1.00  0.00     0.010 A 
ATOM     34  C   UNL A   1      40.204  26.401  27.726  1.00  0.00    -0.014 A 
BRANCH  34  35
ATOM     35  C   UNL A   1      40.591  27.782  28.096  1.00  0.00     0.031 A 
ATOM     36  C   UNL A   1      42.043  28.158  27.954  1.00  0.00     0.074 A 
ATOM     37  C   UNL A   1      39.696  28.642  28.619  1.00  0.00     0.049 A 
ATOM     38  N   UNL A   1      42.677  29.209  28.396  1.00  0.00    -0.248 NA
ATOM     39  C   UNL A   1      42.908  27.171  27.285  1.00  0.00     0.031 C 
ATOM     40  C   UNL A   1      38.273  28.368  28.837  1.00  0.00     0.029 A 
ATOM     41  N   UNL A   1      39.858  29.927  29.068  1.00  0.00    -0.354 N 
ATOM     42  C   UNL A   1      44.018  28.979  28.103  1.00  0.00     0.074 A 
ATOM     43  C   UNL A   1      44.111  27.654  27.536  1.00  0.00     0.031 C 
ATOM     44  C   UNL A   1      37.688  29.467  29.346  1.00  0.00     0.029 A 
ATOM     45  C   UNL A   1      38.697  30.504  29.532  1.00  0.00     0.049 A 
ATOM     46  H   UNL A   1      40.724  30.394  29.060  1.00  0.00     0.167 HD
ATOM     47  C   UNL A   1      45.071  29.818  28.251  1.00  0.00     0.034 A 
ATOM     48  C   UNL A   1      38.489  31.731  30.049  1.00  0.00     0.034 A 
ATOM     49  C   UNL A   1      44.937  31.159  28.752  1.00  0.00     0.049 A 
ATOM     50  C   UNL A   1      39.669  32.667  30.168  1.00  0.00     0.074 A 
ATOM     51  C   UNL A   1      45.910  32.125  28.914  1.00  0.00     0.029 A 
ATOM     52  N   UNL A   1      43.733  31.730  29.150  1.00  0.00    -0.354 N 
ATOM     53  N   UNL A   1      40.931  32.445  29.875  1.00  0.00    -0.248 NA
ATOM     54  C   UNL A   1      39.397  34.018  30.671  1.00  0.00     0.031 C 
ATOM     55  C   UNL A   1      45.302  33.271  29.440  1.00  0.00     0.029 A 
ATOM     56  C   UNL A   1      43.940  33.037  29.552  1.00  0.00     0.049 A 
ATOM     57  H   UNL A   1      42.862  31.271  29.147  1.00  0.00     0.167 HD
ATOM     58  C   UNL A   1      41.592  33.644  30.119  1.00  0.00     0.074 A 
ATOM     59  C   UNL A   1      40.590  34.585  30.576  1.00  0.00     0.031 C 
ATOM     60  C   UNL A   1      42.908  33.950  29.977  1.00  0.00     0.034 A 
BRANCH  47  61
ATOM     61  C   UNL A   1      46.430  29.291  27.863  1.00  0.00     0.023 A 
ATOM     62  C   UNL A   1      46.695  28.830  26.560  1.00  0.00     0.031 A 
ATOM     63  C   UNL A   1      47.451  29.174  28.821  1.00  0.00     0.131 A 
ATOM     64  C   UNL A   1      47.905  28.181  26.277  1.00  0.00     0.055 A 
ATOM     65  C   UNL A   1      48.692  28.613  28.506  1.00  0.00     0.041 A 
ATOM     66  F   UNL A   1      47.252  29.573  30.085  1.00  0.00    -0.206 F 
ATOM     67  C   UNL A   1      48.918  28.095  27.234  1.00  0.00     0.022 A 
BRANCH  64  68
ATOM     68  S   UNL A   1      48.067  27.310  24.695  1.00  0.00     0.124 S 
ATOM     69  O   UNL A   1      46.696  27.356  24.195  1.00  0.00    -0.237 OA
ATOM     70  O   UNL A   1      49.037  28.129  23.979  1.00  0.00    -0.237 OA
ATOM     71  O   UNL A   1      48.538  25.981  25.084  1.00  0.00    -0.744 OA
ENDBRANCH  64  68
ENDBRANCH  47  61
BRANCH  48  72
ATOM     72  C   UNL A   1      37.127  32.164  30.477  1.00  0.00     0.023 A 
ATOM     73  C   UNL A   1      36.225  32.713  29.551  1.00  0.00     0.031 A 
ATOM     74  C   UNL A   1      36.724  32.090  31.822  1.00  0.00     0.131 A 
ATOM     75  C   UNL A   1      34.991  33.221  29.987  1.00  0.00     0.055 A 
ATOM     76  C   UNL A   1      35.474  32.550  32.244  1.00  0.00     0.041 A 
ATOM     77  F   UNL A   1      37.541  31.566  32.748  1.00  0.00    -0.206 F 
ATOM     78  C   UNL A   1      34.605  33.134  31.326  1.00  0.00     0.022 A 
BRANCH  75  79
ATOM     79  S   UNL A   1      33.938  34.089  28.791  1.00  0.00     0.124 S 
ATOM     80  O   UNL A   1      32.876  34.603  29.647  1.00  0.00    -0.237 OA
ATOM     81  O   UNL A   1      34.859  35.081  28.243  1.00  0.00    -0.237 OA
ATOM     82  O   UNL A   1      33.538  33.034  27.862  1.00  0.00    -0.744 OA
ENDBRANCH  75  79
ENDBRANCH  48  72
BRANCH  60  83
ATOM     83  C   UNL A   1      43.310  35.375  30.243  1.00  0.00     0.023 A 
ATOM     84  C   UNL A   1      43.609  35.830  31.536  1.00  0.00     0.031 A 
ATOM     85  C   UNL A   1      43.408  36.283  29.174  1.00  0.00     0.131 A 
ATOM     86  C   UNL A   1      43.951  37.175  31.736  1.00  0.00     0.055 A 
ATOM     87  C   UNL A   1      43.797  37.607  29.373  1.00  0.00     0.041 A 
ATOM     88  F   UNL A   1      43.135  35.892  27.918  1.00  0.00    -0.206 F 
ATOM     89  C   UNL A   1      44.062  38.062  30.662  1.00  0.00     0.022 A 
BRANCH  86  90
ATOM     90  S   UNL A   1      44.187  37.767  33.433  1.00  0.00     0.124 S 
ATOM     91  O   UNL A   1      42.816  38.038  33.855  1.00  0.00    -0.237 OA
ATOM     92  O   UNL A   1      44.839  36.629  34.074  1.00  0.00    -0.237 OA
ATOM     93  O   UNL A   1      45.031  38.949  33.269  1.00  0.00    -0.744 OA
ENDBRANCH  86  90
ENDBRANCH  60  83
ENDBRANCH  34  35
ENDBRANCH  26  29
ENDBRANCH  24  25
ENDBRANCH  23  24
ENDBRANCH   1  23
TORSDOF 19
ENDMDL
