MODEL 1
REMARK VINA RESULT:     -10.5      0.000      0.000
REMARK SMILES O=C(COCCNC(=O)[C@@H]1CCCCO1)NCCCCNC(=O)c1ccc(-c2c3nc(c(-c4cc(S(=O)(=O)[O-])ccc4F)c4ccc([nH]4)c(-c4cc(S(=O)(=O)[O-])ccc4F)c4nc(c(-c5cc(S(=O)(=O)[O-])ccc5F)c5ccc2[nH]5)C=C4)C=C3)cc1
REMARK SMILES IDX 17 1 16 2 1 3 2 4 3 6 4 7 5 8 6 9 7 10 8 11 9 13 10 14 11 15
REMARK SMILES IDX 15 16 12 17 14 18 13 19 18 20 19 21 20 22 21 23 22 24 23 26
REMARK SMILES IDX 24 27 25 28 86 29 26 30 85 31 27 32 28 33 29 34 79 35 30 36
REMARK SMILES IDX 84 37 78 38 80 39 31 40 83 41 77 42 76 43 32 45 64 46 44 47
REMARK SMILES IDX 63 48 45 49 48 50 62 51 81 52 46 53 47 54 61 56 82 57 49 58
REMARK SMILES IDX 33 59 34 60 42 61 35 62 41 63 43 64 40 65 36 66 37 67 38 68
REMARK SMILES IDX 39 69 65 70 66 71 74 72 67 73 73 74 75 75 72 76 68 77 69 78
REMARK SMILES IDX 70 79 71 80 50 81 51 82 59 83 52 84 58 85 60 86 57 87 53 88
REMARK SMILES IDX 54 89 55 90 56 91
REMARK H PARENT 16 5 7 12 21 25 80 44 48 55
REMARK Flexibility Score: inf
ROOT
ATOM      1  C   UNL A   1      37.220  22.475  25.680  1.00  0.00     0.116 C 
ENDROOT
BRANCH   1   2
ATOM      2  N   UNL A   1      35.903  22.742  26.216  1.00  0.00    -0.354 N 
ATOM      3  O   UNL A   1      35.362  24.394  24.714  1.00  0.00    -0.272 OA
ATOM      4  C   UNL A   1      35.073  23.706  25.688  1.00  0.00     0.245 C 
ATOM      5  H   UNL A   1      35.588  22.215  26.986  1.00  0.00     0.163 HD
BRANCH   4   6
ATOM      6  C   UNL A   1      33.733  23.832  26.425  1.00  0.00     0.260 C 
BRANCH   6   7
ATOM      7  O   UNL A   1      32.625  24.343  25.697  1.00  0.00    -0.370 OA
BRANCH   7   8
ATOM      8  C   UNL A   1      31.466  23.503  25.651  1.00  0.00     0.182 C 
BRANCH   8   9
ATOM      9  C   UNL A   1      31.747  22.001  25.813  1.00  0.00     0.144 C 
BRANCH   9  10
ATOM     10  N   UNL A   1      31.805  21.272  24.559  1.00  0.00    -0.352 N 
ATOM     11  C   UNL A   1      32.409  20.101  24.211  1.00  0.00     0.249 C 
ATOM     12  H   UNL A   1      31.319  21.706  23.822  1.00  0.00     0.163 HD
ATOM     13  O   UNL A   1      32.206  19.703  23.060  1.00  0.00    -0.272 OA
BRANCH  11  14
ATOM     14  C   UNL A   1      33.216  19.278  25.250  1.00  0.00     0.207 C 
ATOM     15  C   UNL A   1      34.577  18.784  24.753  1.00  0.00     0.042 C 
ATOM     16  O   UNL A   1      32.496  18.190  25.844  1.00  0.00    -0.368 OA
ATOM     17  C   UNL A   1      34.458  17.566  23.842  1.00  0.00     0.006 C 
ATOM     18  C   UNL A   1      32.270  17.092  24.959  1.00  0.00     0.161 C 
ATOM     19  C   UNL A   1      33.585  16.497  24.484  1.00  0.00     0.029 C 
ENDBRANCH  11  14
ENDBRANCH   9  10
ENDBRANCH   8   9
ENDBRANCH   7   8
ENDBRANCH   6   7
ENDBRANCH   4   6
ENDBRANCH   1   2
BRANCH   1  20
ATOM     20  C   UNL A   1      37.204  21.343  24.655  1.00  0.00     0.023 C 
BRANCH  20  21
ATOM     21  C   UNL A   1      38.111  20.158  24.997  1.00  0.00     0.023 C 
BRANCH  21  22
ATOM     22  C   UNL A   1      39.306  20.484  25.885  1.00  0.00     0.116 C 
BRANCH  22  23
ATOM     23  N   UNL A   1      40.264  19.394  25.964  1.00  0.00    -0.352 N 
ATOM     24  C   UNL A   1      41.627  19.444  26.147  1.00  0.00     0.251 C 
ATOM     25  H   UNL A   1      39.884  18.490  25.874  1.00  0.00     0.163 HD
ATOM     26  O   UNL A   1      42.292  18.422  26.026  1.00  0.00    -0.269 OA
BRANCH  24  27
ATOM     27  C   UNL A   1      42.288  20.736  26.453  1.00  0.00     0.039 A 
ATOM     28  C   UNL A   1      42.685  21.557  25.394  1.00  0.00     0.014 A 
ATOM     29  C   UNL A   1      42.511  21.142  27.772  1.00  0.00     0.014 A 
ATOM     30  C   UNL A   1      43.238  22.813  25.658  1.00  0.00     0.010 A 
ATOM     31  C   UNL A   1      42.990  22.424  28.033  1.00  0.00     0.010 A 
ATOM     32  C   UNL A   1      43.357  23.276  26.979  1.00  0.00    -0.014 A 
BRANCH  32  33
ATOM     33  C   UNL A   1      43.855  24.649  27.274  1.00  0.00     0.031 A 
ATOM     34  C   UNL A   1      42.918  25.700  27.803  1.00  0.00     0.074 A 
ATOM     35  C   UNL A   1      45.141  24.963  27.011  1.00  0.00     0.049 A 
ATOM     36  N   UNL A   1      43.148  26.964  28.054  1.00  0.00    -0.248 NA
ATOM     37  C   UNL A   1      41.532  25.281  28.057  1.00  0.00     0.031 C 
ATOM     38  C   UNL A   1      46.141  24.041  26.468  1.00  0.00     0.029 A 
ATOM     39  N   UNL A   1      45.828  26.142  27.160  1.00  0.00    -0.354 N 
ATOM     40  C   UNL A   1      41.936  27.494  28.484  1.00  0.00     0.074 A 
ATOM     41  C   UNL A   1      40.961  26.427  28.399  1.00  0.00     0.031 C 
ATOM     42  C   UNL A   1      47.317  24.680  26.359  1.00  0.00     0.029 A 
ATOM     43  C   UNL A   1      47.147  26.069  26.771  1.00  0.00     0.049 A 
ATOM     44  H   UNL A   1      45.416  26.964  27.511  1.00  0.00     0.167 HD
ATOM     45  C   UNL A   1      41.666  28.748  28.928  1.00  0.00     0.034 A 
ATOM     46  C   UNL A   1      48.107  27.015  26.734  1.00  0.00     0.034 A 
ATOM     47  C   UNL A   1      42.653  29.798  29.016  1.00  0.00     0.049 A 
ATOM     48  C   UNL A   1      47.770  28.414  27.191  1.00  0.00     0.074 A 
ATOM     49  C   UNL A   1      42.498  31.084  29.505  1.00  0.00     0.029 A 
ATOM     50  N   UNL A   1      43.973  29.692  28.596  1.00  0.00    -0.354 N 
ATOM     51  N   UNL A   1      46.630  28.884  27.643  1.00  0.00    -0.248 NA
ATOM     52  C   UNL A   1      48.852  29.406  27.140  1.00  0.00     0.031 C 
ATOM     53  C   UNL A   1      43.695  31.778  29.304  1.00  0.00     0.029 A 
ATOM     54  C   UNL A   1      44.628  30.901  28.776  1.00  0.00     0.049 A 
ATOM     55  H   UNL A   1      44.382  28.877  28.225  1.00  0.00     0.167 HD
ATOM     56  C   UNL A   1      46.872  30.217  27.967  1.00  0.00     0.074 A 
ATOM     57  C   UNL A   1      48.267  30.469  27.670  1.00  0.00     0.031 C 
ATOM     58  C   UNL A   1      46.019  31.147  28.468  1.00  0.00     0.034 A 
BRANCH  45  59
ATOM     59  C   UNL A   1      40.241  29.058  29.321  1.00  0.00     0.023 A 
ATOM     60  C   UNL A   1      39.827  29.075  30.665  1.00  0.00     0.031 A 
ATOM     61  C   UNL A   1      39.274  29.330  28.336  1.00  0.00     0.131 A 
ATOM     62  C   UNL A   1      38.476  29.281  30.982  1.00  0.00     0.055 A 
ATOM     63  C   UNL A   1      37.948  29.621  28.662  1.00  0.00     0.041 A 
ATOM     64  F   UNL A   1      39.600  29.307  27.034  1.00  0.00    -0.206 F 
ATOM     65  C   UNL A   1      37.539  29.583  29.991  1.00  0.00     0.022 A 
BRANCH  62  66
ATOM     66  S   UNL A   1      37.934  28.999  32.689  1.00  0.00     0.124 S 
ATOM     67  O   UNL A   1      36.661  29.718  32.716  1.00  0.00    -0.237 OA
ATOM     68  O   UNL A   1      37.848  27.545  32.757  1.00  0.00    -0.237 OA
ATOM     69  O   UNL A   1      38.997  29.602  33.490  1.00  0.00    -0.744 OA
ENDBRANCH  62  66
ENDBRANCH  45  59
BRANCH  46  70
ATOM     70  C   UNL A   1      49.476  26.690  26.238  1.00  0.00     0.023 A 
ATOM     71  C   UNL A   1      49.921  27.154  24.988  1.00  0.00     0.031 A 
ATOM     72  C   UNL A   1      50.341  25.864  26.977  1.00  0.00     0.131 A 
ATOM     73  C   UNL A   1      51.168  26.745  24.493  1.00  0.00     0.055 A 
ATOM     74  C   UNL A   1      51.608  25.511  26.507  1.00  0.00     0.041 A 
ATOM     75  F   UNL A   1      49.969  25.392  28.178  1.00  0.00    -0.206 F 
ATOM     76  C   UNL A   1      52.022  25.940  25.250  1.00  0.00     0.022 A 
BRANCH  73  77
ATOM     77  S   UNL A   1      51.618  27.196  22.794  1.00  0.00     0.124 S 
ATOM     78  O   UNL A   1      51.902  28.620  22.932  1.00  0.00    -0.237 OA
ATOM     79  O   UNL A   1      52.768  26.332  22.545  1.00  0.00    -0.237 OA
ATOM     80  O   UNL A   1      50.417  26.869  22.026  1.00  0.00    -0.744 OA
ENDBRANCH  73  77
ENDBRANCH  46  70
BRANCH  58  81
ATOM     81  C   UNL A   1      46.589  32.511  28.778  1.00  0.00     0.023 A 
ATOM     82  C   UNL A   1      46.604  33.546  27.827  1.00  0.00     0.031 A 
ATOM     83  C   UNL A   1      47.136  32.775  30.048  1.00  0.00     0.131 A 
ATOM     84  C   UNL A   1      47.207  34.774  28.139  1.00  0.00     0.055 A 
ATOM     85  C   UNL A   1      47.673  34.021  30.375  1.00  0.00     0.041 A 
ATOM     86  F   UNL A   1      47.155  31.824  30.996  1.00  0.00    -0.206 F 
ATOM     87  C   UNL A   1      47.723  35.026  29.413  1.00  0.00     0.022 A 
BRANCH  84  88
ATOM     88  S   UNL A   1      47.401  36.008  26.824  1.00  0.00     0.124 S 
ATOM     89  O   UNL A   1      48.643  36.671  27.210  1.00  0.00    -0.237 OA
ATOM     90  O   UNL A   1      47.468  35.179  25.625  1.00  0.00    -0.237 OA
ATOM     91  O   UNL A   1      46.197  36.829  26.942  1.00  0.00    -0.744 OA
ENDBRANCH  84  88
ENDBRANCH  58  81
ENDBRANCH  32  33
ENDBRANCH  24  27
ENDBRANCH  22  23
ENDBRANCH  21  22
ENDBRANCH  20  21
ENDBRANCH   1  20
TORSDOF 19
ENDMDL
MODEL 2
REMARK VINA RESULT:     -10.4      4.427     10.555
REMARK SMILES O=C(COCCNC(=O)[C@@H]1CCCCO1)NCCCCNC(=O)c1ccc(-c2c3nc(c(-c4cc(S(=O)(=O)[O-])ccc4F)c4ccc([nH]4)c(-c4cc(S(=O)(=O)[O-])ccc4F)c4nc(c(-c5cc(S(=O)(=O)[O-])ccc5F)c5ccc2[nH]5)C=C4)C=C3)cc1
REMARK SMILES IDX 17 1 16 2 1 3 2 4 3 6 4 7 5 8 6 9 7 10 8 11 9 13 10 14 11 15
REMARK SMILES IDX 15 16 12 17 14 18 13 19 18 20 19 21 20 22 21 23 22 24 23 26
REMARK SMILES IDX 24 27 25 28 86 29 26 30 85 31 27 32 28 33 29 34 79 35 30 36
REMARK SMILES IDX 84 37 78 38 80 39 31 40 83 41 77 42 76 43 32 45 64 46 44 47
REMARK SMILES IDX 63 48 45 49 48 50 62 51 81 52 46 53 47 54 61 56 82 57 49 58
REMARK SMILES IDX 33 59 34 60 42 61 35 62 41 63 43 64 40 65 36 66 37 67 38 68
REMARK SMILES IDX 39 69 65 70 66 71 74 72 67 73 73 74 75 75 72 76 68 77 69 78
REMARK SMILES IDX 70 79 71 80 50 81 51 82 59 83 52 84 58 85 60 86 57 87 53 88
REMARK SMILES IDX 54 89 55 90 56 91
REMARK H PARENT 16 5 7 12 21 25 80 44 48 55
REMARK Flexibility Score: inf
ROOT
ATOM      1  C   UNL A   1      42.669  18.473  26.418  1.00  0.00     0.116 C 
ENDROOT
BRANCH   1   2
ATOM      2  N   UNL A   1      43.441  19.181  25.420  1.00  0.00    -0.354 N 
ATOM      3  O   UNL A   1      45.288  17.820  25.536  1.00  0.00    -0.272 OA
ATOM      4  C   UNL A   1      44.715  18.797  25.064  1.00  0.00     0.245 C 
ATOM      5  H   UNL A   1      43.041  19.964  24.978  1.00  0.00     0.163 HD
BRANCH   4   6
ATOM      6  C   UNL A   1      45.354  19.701  24.002  1.00  0.00     0.260 C 
BRANCH   6   7
ATOM      7  O   UNL A   1      44.623  20.844  23.580  1.00  0.00    -0.370 OA
BRANCH   7   8
ATOM      8  C   UNL A   1      45.100  22.104  24.062  1.00  0.00     0.182 C 
BRANCH   8   9
ATOM      9  C   UNL A   1      44.003  23.107  24.452  1.00  0.00     0.144 C 
BRANCH   9  10
ATOM     10  N   UNL A   1      44.491  24.453  24.691  1.00  0.00    -0.352 N 
ATOM     11  C   UNL A   1      45.446  24.942  25.532  1.00  0.00     0.249 C 
ATOM     12  H   UNL A   1      44.049  25.142  24.145  1.00  0.00     0.163 HD
ATOM     13  O   UNL A   1      45.683  26.150  25.445  1.00  0.00    -0.272 OA
BRANCH  11  14
ATOM     14  C   UNL A   1      46.250  23.997  26.465  1.00  0.00     0.207 C 
ATOM     15  C   UNL A   1      45.560  23.675  27.793  1.00  0.00     0.042 C 
ATOM     16  O   UNL A   1      47.602  24.403  26.709  1.00  0.00    -0.368 OA
ATOM     17  C   UNL A   1      45.678  24.814  28.801  1.00  0.00     0.006 C 
ATOM     18  C   UNL A   1      47.720  25.548  27.556  1.00  0.00     0.161 C 
ATOM     19  C   UNL A   1      47.123  25.274  28.926  1.00  0.00     0.029 C 
ENDBRANCH  11  14
ENDBRANCH   9  10
ENDBRANCH   8   9
ENDBRANCH   7   8
ENDBRANCH   6   7
ENDBRANCH   4   6
ENDBRANCH   1   2
BRANCH   1  20
ATOM     20  C   UNL A   1      41.603  19.362  27.056  1.00  0.00     0.023 C 
BRANCH  20  21
ATOM     21  C   UNL A   1      42.128  20.685  27.621  1.00  0.00     0.023 C 
BRANCH  21  22
ATOM     22  C   UNL A   1      41.664  21.939  26.889  1.00  0.00     0.116 C 
BRANCH  22  23
ATOM     23  N   UNL A   1      40.310  21.824  26.377  1.00  0.00    -0.352 N 
ATOM     24  C   UNL A   1      39.296  22.756  26.378  1.00  0.00     0.251 C 
ATOM     25  H   UNL A   1      40.083  20.956  25.972  1.00  0.00     0.163 HD
ATOM     26  O   UNL A   1      38.166  22.421  26.043  1.00  0.00    -0.269 OA
BRANCH  24  27
ATOM     27  C   UNL A   1      39.567  24.146  26.815  1.00  0.00     0.039 A 
ATOM     28  C   UNL A   1      39.308  24.496  28.143  1.00  0.00     0.014 A 
ATOM     29  C   UNL A   1      40.078  25.099  25.929  1.00  0.00     0.014 A 
ATOM     30  C   UNL A   1      39.629  25.779  28.598  1.00  0.00     0.010 A 
ATOM     31  C   UNL A   1      40.469  26.350  26.403  1.00  0.00     0.010 A 
ATOM     32  C   UNL A   1      40.251  26.704  27.744  1.00  0.00    -0.014 A 
BRANCH  32  33
ATOM     33  C   UNL A   1      40.686  28.040  28.238  1.00  0.00     0.031 A 
ATOM     34  C   UNL A   1      42.146  28.405  28.259  1.00  0.00     0.074 A 
ATOM     35  C   UNL A   1      39.768  28.904  28.721  1.00  0.00     0.049 A 
ATOM     36  N   UNL A   1      42.722  29.488  28.714  1.00  0.00    -0.248 NA
ATOM     37  C   UNL A   1      43.082  27.408  27.722  1.00  0.00     0.031 C 
ATOM     38  C   UNL A   1      38.326  28.656  28.784  1.00  0.00     0.029 A 
ATOM     39  N   UNL A   1      39.909  30.162  29.255  1.00  0.00    -0.354 N 
ATOM     40  C   UNL A   1      44.088  29.299  28.531  1.00  0.00     0.074 A 
ATOM     41  C   UNL A   1      44.254  27.971  27.979  1.00  0.00     0.031 C 
ATOM     42  C   UNL A   1      37.715  29.737  29.295  1.00  0.00     0.029 A 
ATOM     43  C   UNL A   1      38.720  30.734  29.648  1.00  0.00     0.049 A 
ATOM     44  H   UNL A   1      40.779  30.612  29.348  1.00  0.00     0.167 HD
ATOM     45  C   UNL A   1      45.106  30.161  28.779  1.00  0.00     0.034 A 
ATOM     46  C   UNL A   1      38.467  31.919  30.239  1.00  0.00     0.034 A 
ATOM     47  C   UNL A   1      44.922  31.487  29.320  1.00  0.00     0.049 A 
ATOM     48  C   UNL A   1      39.622  32.841  30.546  1.00  0.00     0.074 A 
ATOM     49  C   UNL A   1      45.879  32.460  29.554  1.00  0.00     0.029 A 
ATOM     50  N   UNL A   1      43.706  32.024  29.723  1.00  0.00    -0.354 N 
ATOM     51  N   UNL A   1      40.903  32.667  30.318  1.00  0.00    -0.248 NA
ATOM     52  C   UNL A   1      39.294  34.124  31.183  1.00  0.00     0.031 C 
ATOM     53  C   UNL A   1      45.256  33.548  30.175  1.00  0.00     0.029 A 
ATOM     54  C   UNL A   1      43.896  33.296  30.242  1.00  0.00     0.049 A 
ATOM     55  H   UNL A   1      42.836  31.568  29.650  1.00  0.00     0.167 HD
ATOM     56  C   UNL A   1      41.528  33.835  30.748  1.00  0.00     0.074 A 
ATOM     57  C   UNL A   1      40.481  34.709  31.236  1.00  0.00     0.031 C 
ATOM     58  C   UNL A   1      42.846  34.158  30.736  1.00  0.00     0.034 A 
BRANCH  45  59
ATOM     59  C   UNL A   1      46.511  29.682  28.497  1.00  0.00     0.023 A 
ATOM     60  C   UNL A   1      47.297  29.062  29.485  1.00  0.00     0.031 A 
ATOM     61  C   UNL A   1      47.082  29.860  27.224  1.00  0.00     0.131 A 
ATOM     62  C   UNL A   1      48.627  28.712  29.208  1.00  0.00     0.055 A 
ATOM     63  C   UNL A   1      48.377  29.430  26.928  1.00  0.00     0.041 A 
ATOM     64  F   UNL A   1      46.392  30.466  26.244  1.00  0.00    -0.206 F 
ATOM     65  C   UNL A   1      49.163  28.866  27.927  1.00  0.00     0.022 A 
BRANCH  62  66
ATOM     66  S   UNL A   1      49.691  28.195  30.582  1.00  0.00     0.124 S 
ATOM     67  O   UNL A   1      50.864  27.689  29.871  1.00  0.00    -0.237 OA
ATOM     68  O   UNL A   1      49.878  29.437  31.321  1.00  0.00    -0.237 OA
ATOM     69  O   UNL A   1      48.898  27.174  31.264  1.00  0.00    -0.744 OA
ENDBRANCH  62  66
ENDBRANCH  45  59
BRANCH  46  70
ATOM     70  C   UNL A   1      37.072  32.308  30.598  1.00  0.00     0.023 A 
ATOM     71  C   UNL A   1      36.204  32.854  29.638  1.00  0.00     0.031 A 
ATOM     72  C   UNL A   1      36.601  32.192  31.918  1.00  0.00     0.131 A 
ATOM     73  C   UNL A   1      34.936  33.315  30.021  1.00  0.00     0.055 A 
ATOM     74  C   UNL A   1      35.313  32.594  32.282  1.00  0.00     0.041 A 
ATOM     75  F   UNL A   1      37.386  31.677  32.877  1.00  0.00    -0.206 F 
ATOM     76  C   UNL A   1      34.478  33.174  31.333  1.00  0.00     0.022 A 
BRANCH  73  77
ATOM     77  S   UNL A   1      33.927  34.199  28.799  1.00  0.00     0.124 S 
ATOM     78  O   UNL A   1      33.559  33.123  27.886  1.00  0.00    -0.237 OA
ATOM     79  O   UNL A   1      32.852  34.737  29.626  1.00  0.00    -0.237 OA
ATOM     80  O   UNL A   1      34.849  35.194  28.254  1.00  0.00    -0.744 OA
ENDBRANCH  73  77
ENDBRANCH  46  70
BRANCH  58  81
ATOM     81  C   UNL A   1      43.223  35.539  31.218  1.00  0.00     0.023 A 
ATOM     82  C   UNL A   1      43.435  36.607  30.329  1.00  0.00     0.031 A 
ATOM     83  C   UNL A   1      43.381  35.787  32.595  1.00  0.00     0.131 A 
ATOM     84  C   UNL A   1      43.851  37.854  30.820  1.00  0.00     0.055 A 
ATOM     85  C   UNL A   1      43.727  37.048  33.081  1.00  0.00     0.041 A 
ATOM     86  F   UNL A   1      43.196  34.805  33.492  1.00  0.00    -0.206 F 
ATOM     87  C   UNL A   1      43.978  38.088  32.191  1.00  0.00     0.022 A 
BRANCH  84  88
ATOM     88  S   UNL A   1      44.324  39.143  29.634  1.00  0.00     0.124 S 
ATOM     89  O   UNL A   1      45.636  38.683  29.192  1.00  0.00    -0.237 OA
ATOM     90  O   UNL A   1      43.255  39.065  28.644  1.00  0.00    -0.237 OA
ATOM     91  O   UNL A   1      44.333  40.364  30.439  1.00  0.00    -0.744 OA
ENDBRANCH  84  88
ENDBRANCH  58  81
ENDBRANCH  32  33
ENDBRANCH  24  27
ENDBRANCH  22  23
ENDBRANCH  21  22
ENDBRANCH  20  21
ENDBRANCH   1  20
TORSDOF 19
ENDMDL
MODEL 3
REMARK VINA RESULT:     -10.3      6.069     11.768
REMARK SMILES O=C(COCCNC(=O)[C@@H]1CCCCO1)NCCCCNC(=O)c1ccc(-c2c3nc(c(-c4cc(S(=O)(=O)[O-])ccc4F)c4ccc([nH]4)c(-c4cc(S(=O)(=O)[O-])ccc4F)c4nc(c(-c5cc(S(=O)(=O)[O-])ccc5F)c5ccc2[nH]5)C=C4)C=C3)cc1
REMARK SMILES IDX 17 1 16 2 1 3 2 4 3 6 4 7 5 8 6 9 7 10 8 11 9 13 10 14 11 15
REMARK SMILES IDX 15 16 12 17 14 18 13 19 18 20 19 21 20 22 21 23 22 24 23 26
REMARK SMILES IDX 24 27 25 28 86 29 26 30 85 31 27 32 28 33 29 34 79 35 30 36
REMARK SMILES IDX 84 37 78 38 80 39 31 40 83 41 77 42 76 43 32 45 64 46 44 47
REMARK SMILES IDX 63 48 45 49 48 50 62 51 81 52 46 53 47 54 61 56 82 57 49 58
REMARK SMILES IDX 33 59 34 60 42 61 35 62 41 63 43 64 40 65 36 66 37 67 38 68
REMARK SMILES IDX 39 69 65 70 66 71 74 72 67 73 73 74 75 75 72 76 68 77 69 78
REMARK SMILES IDX 70 79 71 80 50 81 51 82 59 83 52 84 58 85 60 86 57 87 53 88
REMARK SMILES IDX 54 89 55 90 56 91
REMARK H PARENT 16 5 7 12 21 25 80 44 48 55
REMARK Flexibility Score: inf
ROOT
ATOM      1  C   UNL A   1      32.881  29.592  25.729  1.00  0.00     0.116 C 
ENDROOT
BRANCH   1   2
ATOM      2  N   UNL A   1      32.320  29.314  24.424  1.00  0.00    -0.354 N 
ATOM      3  O   UNL A   1      31.041  27.525  25.090  1.00  0.00    -0.272 OA
ATOM      4  C   UNL A   1      31.441  28.276  24.206  1.00  0.00     0.245 C 
ATOM      5  H   UNL A   1      32.575  29.887  23.666  1.00  0.00     0.163 HD
BRANCH   4   6
ATOM      6  C   UNL A   1      30.989  28.153  22.745  1.00  0.00     0.260 C 
BRANCH   6   7
ATOM      7  O   UNL A   1      30.682  26.855  22.256  1.00  0.00    -0.370 OA
BRANCH   7   8
ATOM      8  C   UNL A   1      31.800  25.989  22.035  1.00  0.00     0.182 C 
BRANCH   8   9
ATOM      9  C   UNL A   1      31.916  24.817  23.022  1.00  0.00     0.144 C 
BRANCH   9  10
ATOM     10  N   UNL A   1      31.913  23.510  22.389  1.00  0.00    -0.352 N 
ATOM     11  C   UNL A   1      32.055  22.251  22.893  1.00  0.00     0.249 C 
ATOM     12  H   UNL A   1      31.786  23.538  21.414  1.00  0.00     0.163 HD
ATOM     13  O   UNL A   1      31.929  21.324  22.088  1.00  0.00    -0.272 OA
BRANCH  11  14
ATOM     14  C   UNL A   1      32.258  22.017  24.414  1.00  0.00     0.207 C 
ATOM     15  C   UNL A   1      33.644  22.401  24.937  1.00  0.00     0.042 C 
ATOM     16  O   UNL A   1      31.917  20.702  24.870  1.00  0.00    -0.368 OA
ATOM     17  C   UNL A   1      34.702  21.352  24.607  1.00  0.00     0.006 C 
ATOM     18  C   UNL A   1      32.838  19.689  24.460  1.00  0.00     0.161 C 
ATOM     19  C   UNL A   1      34.227  19.963  25.012  1.00  0.00     0.029 C 
ENDBRANCH  11  14
ENDBRANCH   9  10
ENDBRANCH   8   9
ENDBRANCH   7   8
ENDBRANCH   6   7
ENDBRANCH   4   6
ENDBRANCH   1   2
BRANCH   1  20
ATOM     20  C   UNL A   1      31.848  30.188  26.683  1.00  0.00     0.023 C 
BRANCH  20  21
ATOM     21  C   UNL A   1      31.753  31.716  26.650  1.00  0.00     0.023 C 
BRANCH  21  22
ATOM     22  C   UNL A   1      32.927  32.458  27.280  1.00  0.00     0.116 C 
BRANCH  22  23
ATOM     23  N   UNL A   1      32.610  33.835  27.614  1.00  0.00    -0.352 N 
ATOM     24  C   UNL A   1      33.140  34.636  28.599  1.00  0.00     0.251 C 
ATOM     25  H   UNL A   1      31.915  34.256  27.057  1.00  0.00     0.163 HD
ATOM     26  O   UNL A   1      32.630  35.725  28.833  1.00  0.00    -0.269 OA
BRANCH  24  27
ATOM     27  C   UNL A   1      34.300  34.166  29.394  1.00  0.00     0.039 A 
ATOM     28  C   UNL A   1      34.079  33.268  30.441  1.00  0.00     0.014 A 
ATOM     29  C   UNL A   1      35.598  34.599  29.108  1.00  0.00     0.014 A 
ATOM     30  C   UNL A   1      35.165  32.750  31.153  1.00  0.00     0.010 A 
ATOM     31  C   UNL A   1      36.684  34.024  29.767  1.00  0.00     0.010 A 
ATOM     32  C   UNL A   1      36.480  33.090  30.795  1.00  0.00    -0.014 A 
BRANCH  32  33
ATOM     33  C   UNL A   1      37.650  32.475  31.481  1.00  0.00     0.031 A 
ATOM     34  C   UNL A   1      38.394  31.335  30.839  1.00  0.00     0.074 A 
ATOM     35  C   UNL A   1      38.008  32.907  32.709  1.00  0.00     0.049 A 
ATOM     36  N   UNL A   1      39.390  30.628  31.309  1.00  0.00    -0.248 NA
ATOM     37  C   UNL A   1      37.940  30.919  29.505  1.00  0.00     0.031 C 
ATOM     38  C   UNL A   1      37.347  33.983  33.451  1.00  0.00     0.029 A 
ATOM     39  N   UNL A   1      39.009  32.493  33.552  1.00  0.00    -0.354 N 
ATOM     40  C   UNL A   1      39.674  29.676  30.335  1.00  0.00     0.074 A 
ATOM     41  C   UNL A   1      38.704  29.860  29.277  1.00  0.00     0.031 C 
ATOM     42  C   UNL A   1      37.980  34.164  34.621  1.00  0.00     0.029 A 
ATOM     43  C   UNL A   1      39.055  33.185  34.742  1.00  0.00     0.049 A 
ATOM     44  H   UNL A   1      39.636  31.769  33.328  1.00  0.00     0.167 HD
ATOM     45  C   UNL A   1      40.665  28.749  30.315  1.00  0.00     0.034 A 
ATOM     46  C   UNL A   1      39.859  33.040  35.814  1.00  0.00     0.034 A 
ATOM     47  C   UNL A   1      41.632  28.585  31.375  1.00  0.00     0.049 A 
ATOM     48  C   UNL A   1      40.924  31.971  35.786  1.00  0.00     0.074 A 
ATOM     49  C   UNL A   1      42.710  27.718  31.428  1.00  0.00     0.029 A 
ATOM     50  N   UNL A   1      41.635  29.292  32.571  1.00  0.00    -0.354 N 
ATOM     51  N   UNL A   1      41.212  31.114  34.835  1.00  0.00    -0.248 NA
ATOM     52  C   UNL A   1      41.781  31.858  36.975  1.00  0.00     0.031 C 
ATOM     53  C   UNL A   1      43.311  27.839  32.686  1.00  0.00     0.029 A 
ATOM     54  C   UNL A   1      42.668  28.849  33.383  1.00  0.00     0.049 A 
ATOM     55  H   UNL A   1      40.996  30.003  32.807  1.00  0.00     0.167 HD
ATOM     56  C   UNL A   1      42.306  30.387  35.296  1.00  0.00     0.074 A 
ATOM     57  C   UNL A   1      42.634  30.917  36.603  1.00  0.00     0.031 C 
ATOM     58  C   UNL A   1      42.982  29.376  34.692  1.00  0.00     0.034 A 
BRANCH  45  59
ATOM     59  C   UNL A   1      40.731  27.821  29.125  1.00  0.00     0.023 A 
ATOM     60  C   UNL A   1      41.662  28.008  28.088  1.00  0.00     0.031 A 
ATOM     61  C   UNL A   1      39.840  26.738  29.017  1.00  0.00     0.131 A 
ATOM     62  C   UNL A   1      41.632  27.177  26.958  1.00  0.00     0.055 A 
ATOM     63  C   UNL A   1      39.872  25.861  27.931  1.00  0.00     0.041 A 
ATOM     64  F   UNL A   1      38.912  26.519  29.962  1.00  0.00    -0.206 F 
ATOM     65  C   UNL A   1      40.762  26.086  26.886  1.00  0.00     0.022 A 
BRANCH  62  66
ATOM     66  S   UNL A   1      42.640  27.631  25.521  1.00  0.00     0.124 S 
ATOM     67  O   UNL A   1      41.911  28.788  25.004  1.00  0.00    -0.237 OA
ATOM     68  O   UNL A   1      43.939  27.911  26.122  1.00  0.00    -0.237 OA
ATOM     69  O   UNL A   1      42.585  26.441  24.674  1.00  0.00    -0.744 OA
ENDBRANCH  62  66
ENDBRANCH  45  59
BRANCH  46  70
ATOM     70  C   UNL A   1      39.690  33.910  37.015  1.00  0.00     0.023 A 
ATOM     71  C   UNL A   1      39.101  33.414  38.190  1.00  0.00     0.031 A 
ATOM     72  C   UNL A   1      40.061  35.266  36.989  1.00  0.00     0.131 A 
ATOM     73  C   UNL A   1      38.850  34.278  39.267  1.00  0.00     0.055 A 
ATOM     74  C   UNL A   1      39.867  36.107  38.087  1.00  0.00     0.041 A 
ATOM     75  F   UNL A   1      40.628  35.794  35.893  1.00  0.00    -0.206 F 
ATOM     76  C   UNL A   1      39.244  35.617  39.230  1.00  0.00     0.022 A 
BRANCH  73  77
ATOM     77  S   UNL A   1      37.905  33.649  40.682  1.00  0.00     0.124 S 
ATOM     78  O   UNL A   1      37.654  34.872  41.436  1.00  0.00    -0.237 OA
ATOM     79  O   UNL A   1      36.747  33.047  40.029  1.00  0.00    -0.237 OA
ATOM     80  O   UNL A   1      38.824  32.703  41.312  1.00  0.00    -0.744 OA
ENDBRANCH  73  77
ENDBRANCH  46  70
BRANCH  58  81
ATOM     81  C   UNL A   1      44.180  28.815  35.421  1.00  0.00     0.023 A 
ATOM     82  C   UNL A   1      44.071  27.730  36.308  1.00  0.00     0.031 A 
ATOM     83  C   UNL A   1      45.453  29.383  35.229  1.00  0.00     0.131 A 
ATOM     84  C   UNL A   1      45.200  27.288  37.015  1.00  0.00     0.055 A 
ATOM     85  C   UNL A   1      46.585  28.894  35.882  1.00  0.00     0.041 A 
ATOM     86  F   UNL A   1      45.619  30.424  34.397  1.00  0.00    -0.206 F 
ATOM     87  C   UNL A   1      46.460  27.849  36.792  1.00  0.00     0.022 A 
BRANCH  84  88
ATOM     88  S   UNL A   1      44.982  26.034  38.307  1.00  0.00     0.124 S 
ATOM     89  O   UNL A   1      44.908  24.803  37.527  1.00  0.00    -0.237 OA
ATOM     90  O   UNL A   1      46.185  26.205  39.115  1.00  0.00    -0.237 OA
ATOM     91  O   UNL A   1      43.736  26.429  38.963  1.00  0.00    -0.744 OA
ENDBRANCH  84  88
ENDBRANCH  58  81
ENDBRANCH  32  33
ENDBRANCH  24  27
ENDBRANCH  22  23
ENDBRANCH  21  22
ENDBRANCH  20  21
ENDBRANCH   1  20
TORSDOF 19
ENDMDL
