MODEL 1
REMARK VINA RESULT:     -11.2      0.000      0.000
REMARK SMILES Cc1nsc(NC(=O)CC[C@H](C)CC[NH3+])c1C(=O)NCCCCNC(=O)c1ccc(-c2c3nc(c(-c4cc(S(=O)(=O)[O-])ccc4F)c4ccc([nH]4)c(-c4cc(S(=O)(=O)[O-])ccc4F)c4nc(c(-c5cc(S(=O)(=O)[O-])ccc5F)c5ccc2[nH]5)C=C4)C=C3)cc1
REMARK SMILES IDX 17 1 18 2 19 3 16 5 1 6 2 7 3 8 4 9 5 10 6 11 7 12 8 14 9 15
REMARK SMILES IDX 10 16 11 17 12 18 13 19 14 20 15 21 20 25 21 26 22 27 23 28
REMARK SMILES IDX 24 29 25 30 26 32 27 33 28 34 89 35 29 36 88 37 30 38 31 39
REMARK SMILES IDX 32 40 82 41 33 42 87 43 81 44 83 45 34 46 86 47 80 48 79 49
REMARK SMILES IDX 35 51 67 52 47 53 66 54 48 55 51 56 65 57 84 58 49 59 50 60
REMARK SMILES IDX 64 62 85 63 52 64 36 65 37 66 45 67 38 68 44 69 46 70 43 71
REMARK SMILES IDX 39 72 40 73 41 74 42 75 68 76 69 77 77 78 70 79 76 80 78 81
REMARK SMILES IDX 75 82 71 83 72 84 73 85 74 86 53 87 54 88 62 89 55 90 61 91
REMARK SMILES IDX 63 92 60 93 56 94 57 95 58 96 59 97
REMARK H PARENT 19 4 6 13 15 22 15 23 15 24 24 31 83 50 51 61
REMARK Flexibility Score: inf
ROOT
ATOM      1  C   UNL A   1      32.817  25.149  25.599  1.00  0.00     0.256 C 
ATOM      2  O   UNL A   1      31.743  24.614  25.899  1.00  0.00    -0.269 OA
ATOM      3  N   UNL A   1      33.860  24.262  25.457  1.00  0.00    -0.352 N 
ATOM      4  H   UNL A   1      33.598  23.318  25.552  1.00  0.00     0.163 HD
ENDROOT
BRANCH   1   5
ATOM      5  C   UNL A   1      32.881  26.620  25.455  1.00  0.00     0.097 A 
ATOM      6  C   UNL A   1      31.780  27.863  27.584  1.00  0.00     0.069 C 
ATOM      7  C   UNL A   1      32.500  27.771  26.284  1.00  0.00     0.066 A 
ATOM      8  N   UNL A   1      32.817  28.977  25.803  1.00  0.00    -0.195 NA
ATOM      9  S   UNL A   1      33.650  28.813  24.408  1.00  0.00    -0.017 S 
ATOM     10  C   UNL A   1      33.352  27.153  24.240  1.00  0.00     0.129 A 
BRANCH  10  11
ATOM     11  N   UNL A   1      33.670  26.505  23.062  1.00  0.00    -0.316 N 
ATOM     12  C   UNL A   1      32.846  26.091  22.047  1.00  0.00     0.225 C 
ATOM     13  H   UNL A   1      34.627  26.314  22.932  1.00  0.00     0.170 HD
ATOM     14  O   UNL A   1      33.357  25.498  21.089  1.00  0.00    -0.275 OA
BRANCH  12  15
ATOM     15  C   UNL A   1      31.326  26.208  22.102  1.00  0.00     0.101 C 
BRANCH  15  16
ATOM     16  C   UNL A   1      30.749  27.626  22.291  1.00  0.00     0.013 C 
BRANCH  16  17
ATOM     17  C   UNL A   1      29.741  27.798  23.446  1.00  0.00    -0.008 C 
ATOM     18  C   UNL A   1      29.404  26.439  24.078  1.00  0.00     0.008 C 
BRANCH  17  19
ATOM     19  C   UNL A   1      28.433  28.494  23.003  1.00  0.00     0.064 C 
BRANCH  19  20
ATOM     20  C   UNL A   1      28.679  29.884  22.389  1.00  0.00     0.259 C 
BRANCH  20  21
ATOM     21  N   UNL A   1      27.803  30.128  21.249  1.00  0.00    -0.358 N 
ATOM     22  H   UNL A   1      28.005  31.048  20.857  1.00  0.00     0.344 HD
ATOM     23  H   UNL A   1      26.830  30.093  21.553  1.00  0.00     0.344 HD
ATOM     24  H   UNL A   1      27.962  29.414  20.538  1.00  0.00     0.344 HD
ENDBRANCH  20  21
ENDBRANCH  19  20
ENDBRANCH  17  19
ENDBRANCH  16  17
ENDBRANCH  15  16
ENDBRANCH  12  15
ENDBRANCH  10  11
ENDBRANCH   1   5
BRANCH   3  25
ATOM     25  C   UNL A   1      35.259  24.458  25.197  1.00  0.00     0.116 C 
BRANCH  25  26
ATOM     26  C   UNL A   1      36.062  23.221  24.786  1.00  0.00     0.023 C 
BRANCH  26  27
ATOM     27  C   UNL A   1      37.308  22.860  25.600  1.00  0.00     0.023 C 
BRANCH  27  28
ATOM     28  C   UNL A   1      38.105  24.034  26.159  1.00  0.00     0.116 C 
BRANCH  28  29
ATOM     29  N   UNL A   1      39.547  23.819  26.165  1.00  0.00    -0.352 N 
ATOM     30  C   UNL A   1      40.518  24.735  26.528  1.00  0.00     0.251 C 
ATOM     31  H   UNL A   1      39.862  22.930  25.882  1.00  0.00     0.163 HD
ATOM     32  O   UNL A   1      41.681  24.580  26.156  1.00  0.00    -0.269 OA
BRANCH  30  33
ATOM     33  C   UNL A   1      40.139  25.907  27.344  1.00  0.00     0.039 A 
ATOM     34  C   UNL A   1      39.603  25.739  28.624  1.00  0.00     0.014 A 
ATOM     35  C   UNL A   1      40.360  27.188  26.834  1.00  0.00     0.014 A 
ATOM     36  C   UNL A   1      39.393  26.863  29.423  1.00  0.00     0.010 A 
ATOM     37  C   UNL A   1      40.231  28.293  27.655  1.00  0.00     0.010 A 
ATOM     38  C   UNL A   1      39.748  28.142  28.954  1.00  0.00    -0.014 A 
BRANCH  38  39
ATOM     39  C   UNL A   1      39.844  29.261  29.906  1.00  0.00     0.031 A 
ATOM     40  C   UNL A   1      38.566  30.016  30.053  1.00  0.00     0.074 A 
ATOM     41  C   UNL A   1      40.867  29.472  30.766  1.00  0.00     0.049 A 
ATOM     42  N   UNL A   1      38.314  31.232  29.697  1.00  0.00    -0.248 NA
ATOM     43  C   UNL A   1      37.369  29.270  30.483  1.00  0.00     0.031 C 
ATOM     44  C   UNL A   1      42.046  28.619  30.949  1.00  0.00     0.029 A 
ATOM     45  N   UNL A   1      41.024  30.418  31.745  1.00  0.00    -0.354 N 
ATOM     46  C   UNL A   1      37.011  31.487  30.121  1.00  0.00     0.074 A 
ATOM     47  C   UNL A   1      36.420  30.201  30.361  1.00  0.00     0.031 C 
ATOM     48  C   UNL A   1      42.662  28.941  32.107  1.00  0.00     0.029 A 
ATOM     49  C   UNL A   1      42.026  30.118  32.673  1.00  0.00     0.049 A 
ATOM     50  H   UNL A   1      40.479  31.235  31.791  1.00  0.00     0.167 HD
ATOM     51  C   UNL A   1      36.648  32.733  30.536  1.00  0.00     0.034 A 
ATOM     52  C   UNL A   1      42.316  30.765  33.834  1.00  0.00     0.034 A 
ATOM     53  C   UNL A   1      37.626  33.708  30.101  1.00  0.00     0.049 A 
ATOM     54  C   UNL A   1      41.801  32.145  33.699  1.00  0.00     0.074 A 
ATOM     55  C   UNL A   1      38.082  34.189  28.893  1.00  0.00     0.029 A 
ATOM     56  N   UNL A   1      38.559  34.058  31.047  1.00  0.00    -0.354 N 
ATOM     57  N   UNL A   1      42.256  32.997  32.822  1.00  0.00    -0.248 NA
ATOM     58  C   UNL A   1      40.517  32.490  34.290  1.00  0.00     0.031 C 
ATOM     59  C   UNL A   1      39.449  34.534  29.109  1.00  0.00     0.029 A 
ATOM     60  C   UNL A   1      39.763  34.319  30.453  1.00  0.00     0.049 A 
ATOM     61  H   UNL A   1      38.385  34.113  32.014  1.00  0.00     0.167 HD
ATOM     62  C   UNL A   1      41.148  33.726  32.434  1.00  0.00     0.074 A 
ATOM     63  C   UNL A   1      40.161  33.493  33.482  1.00  0.00     0.031 C 
ATOM     64  C   UNL A   1      41.031  34.186  31.154  1.00  0.00     0.034 A 
BRANCH  51  65
ATOM     65  C   UNL A   1      35.737  33.025  31.728  1.00  0.00     0.023 A 
ATOM     66  C   UNL A   1      34.647  33.893  31.496  1.00  0.00     0.031 A 
ATOM     67  C   UNL A   1      36.038  32.788  33.088  1.00  0.00     0.131 A 
ATOM     68  C   UNL A   1      34.024  34.581  32.554  1.00  0.00     0.055 A 
ATOM     69  C   UNL A   1      35.375  33.431  34.141  1.00  0.00     0.041 A 
ATOM     70  F   UNL A   1      37.030  31.989  33.491  1.00  0.00    -0.206 F 
ATOM     71  C   UNL A   1      34.388  34.363  33.876  1.00  0.00     0.022 A 
BRANCH  68  72
ATOM     72  S   UNL A   1      32.853  35.903  32.151  1.00  0.00     0.124 S 
ATOM     73  O   UNL A   1      31.591  35.309  32.576  1.00  0.00    -0.237 OA
ATOM     74  O   UNL A   1      33.357  37.007  32.960  1.00  0.00    -0.237 OA
ATOM     75  O   UNL A   1      33.013  36.066  30.708  1.00  0.00    -0.744 OA
ENDBRANCH  68  72
ENDBRANCH  51  65
BRANCH  52  76
ATOM     76  C   UNL A   1      42.813  30.195  35.123  1.00  0.00     0.023 A 
ATOM     77  C   UNL A   1      42.488  28.892  35.566  1.00  0.00     0.031 A 
ATOM     78  C   UNL A   1      43.844  30.857  35.828  1.00  0.00     0.131 A 
ATOM     79  C   UNL A   1      43.187  28.307  36.652  1.00  0.00     0.055 A 
ATOM     80  C   UNL A   1      44.526  30.277  36.900  1.00  0.00     0.041 A 
ATOM     81  F   UNL A   1      44.286  32.063  35.442  1.00  0.00    -0.206 F 
ATOM     82  C   UNL A   1      44.210  28.992  37.309  1.00  0.00     0.022 A 
BRANCH  79  83
ATOM     83  S   UNL A   1      42.847  26.588  37.166  1.00  0.00     0.124 S 
ATOM     84  O   UNL A   1      43.758  26.416  38.293  1.00  0.00    -0.237 OA
ATOM     85  O   UNL A   1      41.424  26.628  37.480  1.00  0.00    -0.237 OA
ATOM     86  O   UNL A   1      43.188  25.803  35.979  1.00  0.00    -0.744 OA
ENDBRANCH  79  83
ENDBRANCH  52  76
BRANCH  64  87
ATOM     87  C   UNL A   1      42.296  34.441  30.367  1.00  0.00     0.023 A 
ATOM     88  C   UNL A   1      43.062  35.627  30.386  1.00  0.00     0.031 A 
ATOM     89  C   UNL A   1      42.776  33.366  29.595  1.00  0.00     0.131 A 
ATOM     90  C   UNL A   1      44.258  35.700  29.644  1.00  0.00     0.055 A 
ATOM     91  C   UNL A   1      43.970  33.433  28.885  1.00  0.00     0.041 A 
ATOM     92  F   UNL A   1      42.096  32.209  29.543  1.00  0.00    -0.206 F 
ATOM     93  C   UNL A   1      44.714  34.604  28.901  1.00  0.00     0.022 A 
BRANCH  90  94
ATOM     94  S   UNL A   1      45.238  37.235  29.602  1.00  0.00     0.124 S 
ATOM     95  O   UNL A   1      44.462  38.115  28.738  1.00  0.00    -0.237 OA
ATOM     96  O   UNL A   1      45.296  37.611  31.012  1.00  0.00    -0.237 OA
ATOM     97  O   UNL A   1      46.520  36.805  29.038  1.00  0.00    -0.744 OA
ENDBRANCH  90  94
ENDBRANCH  64  87
ENDBRANCH  38  39
ENDBRANCH  30  33
ENDBRANCH  28  29
ENDBRANCH  27  28
ENDBRANCH  26  27
ENDBRANCH  25  26
ENDBRANCH   3  25
TORSDOF 21
ENDMDL
MODEL 2
REMARK VINA RESULT:     -10.9      4.664     10.694
REMARK SMILES Cc1nsc(NC(=O)CC[C@H](C)CC[NH3+])c1C(=O)NCCCCNC(=O)c1ccc(-c2c3nc(c(-c4cc(S(=O)(=O)[O-])ccc4F)c4ccc([nH]4)c(-c4cc(S(=O)(=O)[O-])ccc4F)c4nc(c(-c5cc(S(=O)(=O)[O-])ccc5F)c5ccc2[nH]5)C=C4)C=C3)cc1
REMARK SMILES IDX 17 1 18 2 19 3 16 5 1 6 2 7 3 8 4 9 5 10 6 11 7 12 8 14 9 15
REMARK SMILES IDX 10 16 11 17 12 18 13 19 14 20 15 21 20 25 21 26 22 27 23 28
REMARK SMILES IDX 24 29 25 30 26 32 27 33 28 34 89 35 29 36 88 37 30 38 31 39
REMARK SMILES IDX 32 40 82 41 33 42 87 43 81 44 83 45 34 46 86 47 80 48 79 49
REMARK SMILES IDX 35 51 67 52 47 53 66 54 48 55 51 56 65 57 84 58 49 59 50 60
REMARK SMILES IDX 64 62 85 63 52 64 36 65 37 66 45 67 38 68 44 69 46 70 43 71
REMARK SMILES IDX 39 72 40 73 41 74 42 75 68 76 69 77 77 78 70 79 76 80 78 81
REMARK SMILES IDX 75 82 71 83 72 84 73 85 74 86 53 87 54 88 62 89 55 90 61 91
REMARK SMILES IDX 63 92 60 93 56 94 57 95 58 96 59 97
REMARK H PARENT 19 4 6 13 15 22 15 23 15 24 24 31 83 50 51 61
REMARK Flexibility Score: inf
ROOT
ATOM      1  C   UNL A   1      33.757  25.565  25.419  1.00  0.00     0.256 C 
ATOM      2  O   UNL A   1      34.937  25.196  25.368  1.00  0.00    -0.269 OA
ATOM      3  N   UNL A   1      33.566  26.726  26.132  1.00  0.00    -0.352 N 
ATOM      4  H   UNL A   1      34.400  27.139  26.454  1.00  0.00     0.163 HD
ENDROOT
BRANCH   1   5
ATOM      5  C   UNL A   1      32.712  24.748  24.762  1.00  0.00     0.097 A 
ATOM      6  C   UNL A   1      31.294  26.210  22.989  1.00  0.00     0.069 C 
ATOM      7  C   UNL A   1      31.706  24.978  23.717  1.00  0.00     0.066 A 
ATOM      8  N   UNL A   1      30.989  23.914  23.343  1.00  0.00    -0.195 NA
ATOM      9  S   UNL A   1      31.520  22.586  24.132  1.00  0.00    -0.017 S 
ATOM     10  C   UNL A   1      32.510  23.431  25.216  1.00  0.00     0.129 A 
BRANCH  10  11
ATOM     11  N   UNL A   1      33.069  22.780  26.300  1.00  0.00    -0.316 N 
ATOM     12  C   UNL A   1      34.131  21.914  26.341  1.00  0.00     0.225 C 
ATOM     13  H   UNL A   1      32.643  22.965  27.168  1.00  0.00     0.170 HD
ATOM     14  O   UNL A   1      34.439  21.424  27.434  1.00  0.00    -0.275 OA
BRANCH  12  15
ATOM     15  C   UNL A   1      34.863  21.426  25.094  1.00  0.00     0.101 C 
BRANCH  15  16
ATOM     16  C   UNL A   1      35.156  19.914  25.012  1.00  0.00     0.013 C 
BRANCH  16  17
ATOM     17  C   UNL A   1      34.002  19.027  24.501  1.00  0.00    -0.008 C 
ATOM     18  C   UNL A   1      32.852  18.995  25.517  1.00  0.00     0.008 C 
BRANCH  17  19
ATOM     19  C   UNL A   1      34.450  17.580  24.190  1.00  0.00     0.064 C 
BRANCH  19  20
ATOM     20  C   UNL A   1      33.720  16.980  22.976  1.00  0.00     0.259 C 
BRANCH  20  21
ATOM     21  N   UNL A   1      32.503  17.721  22.662  1.00  0.00    -0.358 N 
ATOM     22  H   UNL A   1      32.744  18.562  22.136  1.00  0.00     0.344 HD
ATOM     23  H   UNL A   1      32.032  17.984  23.527  1.00  0.00     0.344 HD
ATOM     24  H   UNL A   1      31.883  17.136  22.102  1.00  0.00     0.344 HD
ENDBRANCH  20  21
ENDBRANCH  19  20
ENDBRANCH  17  19
ENDBRANCH  16  17
ENDBRANCH  15  16
ENDBRANCH  12  15
ENDBRANCH  10  11
ENDBRANCH   1   5
BRANCH   3  25
ATOM     25  C   UNL A   1      32.377  27.446  26.497  1.00  0.00     0.116 C 
BRANCH  25  26
ATOM     26  C   UNL A   1      32.574  28.753  27.268  1.00  0.00     0.023 C 
BRANCH  26  27
ATOM     27  C   UNL A   1      33.788  29.622  26.926  1.00  0.00     0.023 C 
BRANCH  27  28
ATOM     28  C   UNL A   1      35.076  29.296  27.673  1.00  0.00     0.116 C 
BRANCH  28  29
ATOM     29  N   UNL A   1      35.399  30.243  28.734  1.00  0.00    -0.352 N 
ATOM     30  C   UNL A   1      36.504  30.209  29.566  1.00  0.00     0.251 C 
ATOM     31  H   UNL A   1      34.765  30.984  28.872  1.00  0.00     0.163 HD
ATOM     32  O   UNL A   1      36.491  30.821  30.633  1.00  0.00    -0.269 OA
BRANCH  30  33
ATOM     33  C   UNL A   1      37.684  29.413  29.169  1.00  0.00     0.039 A 
ATOM     34  C   UNL A   1      38.385  29.716  27.999  1.00  0.00     0.014 A 
ATOM     35  C   UNL A   1      38.113  28.375  30.000  1.00  0.00     0.014 A 
ATOM     36  C   UNL A   1      39.577  29.042  27.730  1.00  0.00     0.010 A 
ATOM     37  C   UNL A   1      39.335  27.768  29.777  1.00  0.00     0.010 A 
ATOM     38  C   UNL A   1      40.076  28.094  28.642  1.00  0.00    -0.014 A 
BRANCH  38  39
ATOM     39  C   UNL A   1      41.474  27.645  28.527  1.00  0.00     0.031 A 
ATOM     40  C   UNL A   1      41.614  26.343  27.814  1.00  0.00     0.074 A 
ATOM     41  C   UNL A   1      42.564  28.403  28.790  1.00  0.00     0.049 A 
ATOM     42  N   UNL A   1      42.003  25.209  28.295  1.00  0.00    -0.248 NA
ATOM     43  C   UNL A   1      41.084  26.247  26.441  1.00  0.00     0.031 C 
ATOM     44  C   UNL A   1      42.573  29.812  29.196  1.00  0.00     0.029 A 
ATOM     45  N   UNL A   1      43.897  28.125  28.639  1.00  0.00    -0.354 N 
ATOM     46  C   UNL A   1      42.035  24.331  27.213  1.00  0.00     0.074 A 
ATOM     47  C   UNL A   1      41.242  24.947  26.188  1.00  0.00     0.031 C 
ATOM     48  C   UNL A   1      43.812  30.323  29.031  1.00  0.00     0.029 A 
ATOM     49  C   UNL A   1      44.722  29.253  28.661  1.00  0.00     0.049 A 
ATOM     50  H   UNL A   1      44.243  27.210  28.524  1.00  0.00     0.167 HD
ATOM     51  C   UNL A   1      42.967  23.339  27.153  1.00  0.00     0.034 A 
ATOM     52  C   UNL A   1      46.052  29.327  28.383  1.00  0.00     0.034 A 
ATOM     53  C   UNL A   1      43.560  23.131  28.458  1.00  0.00     0.049 A 
ATOM     54  C   UNL A   1      46.614  27.976  28.604  1.00  0.00     0.074 A 
ATOM     55  C   UNL A   1      43.120  22.711  29.695  1.00  0.00     0.029 A 
ATOM     56  N   UNL A   1      44.766  23.759  28.656  1.00  0.00    -0.354 N 
ATOM     57  N   UNL A   1      46.639  27.392  29.770  1.00  0.00    -0.248 NA
ATOM     58  C   UNL A   1      46.828  27.096  27.464  1.00  0.00     0.031 C 
ATOM     59  C   UNL A   1      43.936  23.396  30.644  1.00  0.00     0.029 A 
ATOM     60  C   UNL A   1      44.888  24.155  29.959  1.00  0.00     0.049 A 
ATOM     61  H   UNL A   1      45.445  23.902  27.958  1.00  0.00     0.167 HD
ATOM     62  C   UNL A   1      46.429  26.053  29.495  1.00  0.00     0.074 A 
ATOM     63  C   UNL A   1      46.727  25.912  28.075  1.00  0.00     0.031 C 
ATOM     64  C   UNL A   1      45.736  25.264  30.368  1.00  0.00     0.034 A 
BRANCH  51  65
ATOM     65  C   UNL A   1      43.710  22.915  25.887  1.00  0.00     0.023 A 
ATOM     66  C   UNL A   1      43.822  21.526  25.651  1.00  0.00     0.031 A 
ATOM     67  C   UNL A   1      44.562  23.727  25.105  1.00  0.00     0.131 A 
ATOM     68  C   UNL A   1      44.823  21.006  24.810  1.00  0.00     0.055 A 
ATOM     69  C   UNL A   1      45.518  23.206  24.225  1.00  0.00     0.041 A 
ATOM     70  F   UNL A   1      44.586  25.060  25.191  1.00  0.00    -0.206 F 
ATOM     71  C   UNL A   1      45.680  21.838  24.102  1.00  0.00     0.022 A 
BRANCH  68  72
ATOM     72  S   UNL A   1      45.100  19.216  24.805  1.00  0.00     0.124 S 
ATOM     73  O   UNL A   1      44.914  18.901  23.393  1.00  0.00    -0.237 OA
ATOM     74  O   UNL A   1      46.462  19.122  25.317  1.00  0.00    -0.237 OA
ATOM     75  O   UNL A   1      44.062  18.712  25.701  1.00  0.00    -0.744 OA
ENDBRANCH  68  72
ENDBRANCH  51  65
BRANCH  52  76
ATOM     76  C   UNL A   1      46.811  30.437  27.732  1.00  0.00     0.023 A 
ATOM     77  C   UNL A   1      46.182  31.502  27.045  1.00  0.00     0.031 A 
ATOM     78  C   UNL A   1      48.189  30.594  28.004  1.00  0.00     0.131 A 
ATOM     79  C   UNL A   1      46.921  32.654  26.677  1.00  0.00     0.055 A 
ATOM     80  C   UNL A   1      48.913  31.731  27.635  1.00  0.00     0.041 A 
ATOM     81  F   UNL A   1      48.865  29.682  28.719  1.00  0.00    -0.206 F 
ATOM     82  C   UNL A   1      48.278  32.774  26.981  1.00  0.00     0.022 A 
BRANCH  79  83
ATOM     83  S   UNL A   1      46.098  34.078  25.884  1.00  0.00     0.124 S 
ATOM     84  O   UNL A   1      45.593  34.824  27.032  1.00  0.00    -0.237 OA
ATOM     85  O   UNL A   1      47.187  34.695  25.136  1.00  0.00    -0.237 OA
ATOM     86  O   UNL A   1      45.064  33.457  25.054  1.00  0.00    -0.744 OA
ENDBRANCH  79  83
ENDBRANCH  52  76
BRANCH  64  87
ATOM     87  C   UNL A   1      45.734  25.645  31.830  1.00  0.00     0.023 A 
ATOM     88  C   UNL A   1      46.767  25.387  32.758  1.00  0.00     0.031 A 
ATOM     89  C   UNL A   1      44.619  26.377  32.280  1.00  0.00     0.131 A 
ATOM     90  C   UNL A   1      46.652  25.857  34.082  1.00  0.00     0.055 A 
ATOM     91  C   UNL A   1      44.522  26.863  33.581  1.00  0.00     0.041 A 
ATOM     92  F   UNL A   1      43.608  26.661  31.443  1.00  0.00    -0.206 F 
ATOM     93  C   UNL A   1      45.537  26.598  34.490  1.00  0.00     0.022 A 
BRANCH  90  94
ATOM     94  S   UNL A   1      47.940  25.492  35.316  1.00  0.00     0.124 S 
ATOM     95  O   UNL A   1      48.936  24.742  34.562  1.00  0.00    -0.237 OA
ATOM     96  O   UNL A   1      48.342  26.826  35.757  1.00  0.00    -0.237 OA
ATOM     97  O   UNL A   1      47.229  24.709  36.329  1.00  0.00    -0.744 OA
ENDBRANCH  90  94
ENDBRANCH  64  87
ENDBRANCH  38  39
ENDBRANCH  30  33
ENDBRANCH  28  29
ENDBRANCH  27  28
ENDBRANCH  26  27
ENDBRANCH  25  26
ENDBRANCH   3  25
TORSDOF 21
ENDMDL
MODEL 3
REMARK VINA RESULT:     -10.8      3.909      8.722
REMARK SMILES Cc1nsc(NC(=O)CC[C@H](C)CC[NH3+])c1C(=O)NCCCCNC(=O)c1ccc(-c2c3nc(c(-c4cc(S(=O)(=O)[O-])ccc4F)c4ccc([nH]4)c(-c4cc(S(=O)(=O)[O-])ccc4F)c4nc(c(-c5cc(S(=O)(=O)[O-])ccc5F)c5ccc2[nH]5)C=C4)C=C3)cc1
REMARK SMILES IDX 17 1 18 2 19 3 16 5 1 6 2 7 3 8 4 9 5 10 6 11 7 12 8 14 9 15
REMARK SMILES IDX 10 16 11 17 12 18 13 19 14 20 15 21 20 25 21 26 22 27 23 28
REMARK SMILES IDX 24 29 25 30 26 32 27 33 28 34 89 35 29 36 88 37 30 38 31 39
REMARK SMILES IDX 32 40 82 41 33 42 87 43 81 44 83 45 34 46 86 47 80 48 79 49
REMARK SMILES IDX 35 51 67 52 47 53 66 54 48 55 51 56 65 57 84 58 49 59 50 60
REMARK SMILES IDX 64 62 85 63 52 64 36 65 37 66 45 67 38 68 44 69 46 70 43 71
REMARK SMILES IDX 39 72 40 73 41 74 42 75 68 76 69 77 77 78 70 79 76 80 78 81
REMARK SMILES IDX 75 82 71 83 72 84 73 85 74 86 53 87 54 88 62 89 55 90 61 91
REMARK SMILES IDX 63 92 60 93 56 94 57 95 58 96 59 97
REMARK H PARENT 19 4 6 13 15 22 15 23 15 24 24 31 83 50 51 61
REMARK Flexibility Score: inf
ROOT
ATOM      1  C   UNL A   1      32.032  26.380  22.900  1.00  0.00     0.256 C 
ATOM      2  O   UNL A   1      32.153  25.556  21.984  1.00  0.00    -0.269 OA
ATOM      3  N   UNL A   1      32.688  27.568  22.671  1.00  0.00    -0.352 N 
ATOM      4  H   UNL A   1      33.112  27.626  21.784  1.00  0.00     0.163 HD
ENDROOT
BRANCH   1   5
ATOM      5  C   UNL A   1      31.255  26.016  24.106  1.00  0.00     0.097 A 
ATOM      6  C   UNL A   1      28.668  26.749  23.863  1.00  0.00     0.069 C 
ATOM      7  C   UNL A   1      29.848  26.116  24.514  1.00  0.00     0.066 A 
ATOM      8  N   UNL A   1      29.536  25.574  25.695  1.00  0.00    -0.195 NA
ATOM      9  S   UNL A   1      30.852  24.850  26.336  1.00  0.00    -0.017 S 
ATOM     10  C   UNL A   1      31.948  25.493  25.214  1.00  0.00     0.129 A 
BRANCH  10  11
ATOM     11  N   UNL A   1      33.308  25.364  25.419  1.00  0.00    -0.316 N 
ATOM     12  C   UNL A   1      34.135  24.308  25.132  1.00  0.00     0.225 C 
ATOM     13  H   UNL A   1      33.748  26.143  25.830  1.00  0.00     0.170 HD
ATOM     14  O   UNL A   1      35.330  24.408  25.435  1.00  0.00    -0.275 OA
BRANCH  12  15
ATOM     15  C   UNL A   1      33.633  22.977  24.583  1.00  0.00     0.101 C 
BRANCH  15  16
ATOM     16  C   UNL A   1      34.706  21.982  24.095  1.00  0.00     0.013 C 
BRANCH  16  17
ATOM     17  C   UNL A   1      35.093  20.864  25.085  1.00  0.00    -0.008 C 
ATOM     18  C   UNL A   1      36.605  20.601  25.042  1.00  0.00     0.008 C 
BRANCH  17  19
ATOM     19  C   UNL A   1      34.337  19.541  24.821  1.00  0.00     0.064 C 
BRANCH  19  20
ATOM     20  C   UNL A   1      32.933  19.524  25.450  1.00  0.00     0.259 C 
BRANCH  20  21
ATOM     21  N   UNL A   1      32.726  18.335  26.268  1.00  0.00    -0.358 N 
ATOM     22  H   UNL A   1      33.025  17.509  25.749  1.00  0.00     0.344 HD
ATOM     23  H   UNL A   1      31.737  18.250  26.502  1.00  0.00     0.344 HD
ATOM     24  H   UNL A   1      33.272  18.413  27.126  1.00  0.00     0.344 HD
ENDBRANCH  20  21
ENDBRANCH  19  20
ENDBRANCH  17  19
ENDBRANCH  16  17
ENDBRANCH  15  16
ENDBRANCH  12  15
ENDBRANCH  10  11
ENDBRANCH   1   5
BRANCH   3  25
ATOM     25  C   UNL A   1      32.869  28.738  23.485  1.00  0.00     0.116 C 
BRANCH  25  26
ATOM     26  C   UNL A   1      33.902  28.640  24.610  1.00  0.00     0.023 C 
BRANCH  26  27
ATOM     27  C   UNL A   1      33.466  29.012  26.031  1.00  0.00     0.023 C 
BRANCH  27  28
ATOM     28  C   UNL A   1      34.574  29.478  26.969  1.00  0.00     0.116 C 
BRANCH  28  29
ATOM     29  N   UNL A   1      34.619  30.923  27.156  1.00  0.00    -0.352 N 
ATOM     30  C   UNL A   1      35.368  31.613  28.093  1.00  0.00     0.251 C 
ATOM     31  H   UNL A   1      34.059  31.464  26.554  1.00  0.00     0.163 HD
ATOM     32  O   UNL A   1      35.062  32.764  28.400  1.00  0.00    -0.269 OA
BRANCH  30  33
ATOM     33  C   UNL A   1      36.521  30.945  28.732  1.00  0.00     0.039 A 
ATOM     34  C   UNL A   1      36.454  29.594  29.085  1.00  0.00     0.014 A 
ATOM     35  C   UNL A   1      37.694  31.672  28.944  1.00  0.00     0.014 A 
ATOM     36  C   UNL A   1      37.605  28.958  29.551  1.00  0.00     0.010 A 
ATOM     37  C   UNL A   1      38.854  31.022  29.325  1.00  0.00     0.010 A 
ATOM     38  C   UNL A   1      38.821  29.663  29.631  1.00  0.00    -0.014 A 
BRANCH  38  39
ATOM     39  C   UNL A   1      40.080  28.917  29.791  1.00  0.00     0.031 A 
ATOM     40  C   UNL A   1      40.430  28.658  31.218  1.00  0.00     0.074 A 
ATOM     41  C   UNL A   1      40.752  28.292  28.797  1.00  0.00     0.049 A 
ATOM     42  N   UNL A   1      41.420  29.137  31.895  1.00  0.00    -0.248 NA
ATOM     43  C   UNL A   1      39.458  27.918  32.044  1.00  0.00     0.031 C 
ATOM     44  C   UNL A   1      40.346  28.199  27.391  1.00  0.00     0.029 A 
ATOM     45  N   UNL A   1      41.873  27.505  28.839  1.00  0.00    -0.354 N 
ATOM     46  C   UNL A   1      41.349  28.531  33.148  1.00  0.00     0.074 A 
ATOM     47  C   UNL A   1      40.018  28.005  33.251  1.00  0.00     0.031 C 
ATOM     48  C   UNL A   1      41.057  27.228  26.777  1.00  0.00     0.029 A 
ATOM     49  C   UNL A   1      42.075  26.736  27.690  1.00  0.00     0.049 A 
ATOM     50  H   UNL A   1      42.482  27.484  29.612  1.00  0.00     0.167 HD
ATOM     51  C   UNL A   1      42.485  28.246  33.845  1.00  0.00     0.034 A 
ATOM     52  C   UNL A   1      42.993  25.752  27.488  1.00  0.00     0.034 A 
ATOM     53  C   UNL A   1      43.604  28.985  33.300  1.00  0.00     0.049 A 
ATOM     54  C   UNL A   1      44.101  25.995  28.438  1.00  0.00     0.074 A 
ATOM     55  C   UNL A   1      43.955  30.312  33.177  1.00  0.00     0.029 A 
ATOM     56  N   UNL A   1      44.396  28.282  32.424  1.00  0.00    -0.354 N 
ATOM     57  N   UNL A   1      44.862  27.053  28.397  1.00  0.00    -0.248 NA
ATOM     58  C   UNL A   1      44.152  25.243  29.683  1.00  0.00     0.031 C 
ATOM     59  C   UNL A   1      44.729  30.394  31.981  1.00  0.00     0.029 A 
ATOM     60  C   UNL A   1      44.885  29.111  31.454  1.00  0.00     0.049 A 
ATOM     61  H   UNL A   1      44.583  27.317  32.488  1.00  0.00     0.167 HD
ATOM     62  C   UNL A   1      45.133  27.342  29.721  1.00  0.00     0.074 A 
ATOM     63  C   UNL A   1      44.825  26.113  30.442  1.00  0.00     0.031 C 
ATOM     64  C   UNL A   1      45.279  28.634  30.136  1.00  0.00     0.034 A 
BRANCH  51  65
ATOM     65  C   UNL A   1      42.717  26.967  34.649  1.00  0.00     0.023 A 
ATOM     66  C   UNL A   1      43.587  26.010  34.081  1.00  0.00     0.031 A 
ATOM     67  C   UNL A   1      41.927  26.499  35.723  1.00  0.00     0.131 A 
ATOM     68  C   UNL A   1      43.538  24.658  34.469  1.00  0.00     0.055 A 
ATOM     69  C   UNL A   1      41.925  25.164  36.144  1.00  0.00     0.041 A 
ATOM     70  F   UNL A   1      41.056  27.268  36.381  1.00  0.00    -0.206 F 
ATOM     71  C   UNL A   1      42.705  24.226  35.492  1.00  0.00     0.022 A 
BRANCH  68  72
ATOM     72  S   UNL A   1      44.454  23.445  33.483  1.00  0.00     0.124 S 
ATOM     73  O   UNL A   1      43.504  23.169  32.411  1.00  0.00    -0.237 OA
ATOM     74  O   UNL A   1      45.648  24.197  33.114  1.00  0.00    -0.237 OA
ATOM     75  O   UNL A   1      44.676  22.348  34.421  1.00  0.00    -0.744 OA
ENDBRANCH  68  72
ENDBRANCH  51  65
BRANCH  52  76
ATOM     76  C   UNL A   1      42.862  24.502  26.680  1.00  0.00     0.023 A 
ATOM     77  C   UNL A   1      43.788  24.133  25.676  1.00  0.00     0.031 A 
ATOM     78  C   UNL A   1      41.936  23.510  27.073  1.00  0.00     0.131 A 
ATOM     79  C   UNL A   1      43.768  22.826  25.127  1.00  0.00     0.055 A 
ATOM     80  C   UNL A   1      41.918  22.225  26.525  1.00  0.00     0.041 A 
ATOM     81  F   UNL A   1      41.066  23.727  28.072  1.00  0.00    -0.206 F 
ATOM     82  C   UNL A   1      42.844  21.873  25.558  1.00  0.00     0.022 A 
BRANCH  79  83
ATOM     83  S   UNL A   1      45.022  22.305  23.907  1.00  0.00     0.124 S 
ATOM     84  O   UNL A   1      45.512  21.056  24.480  1.00  0.00    -0.237 OA
ATOM     85  O   UNL A   1      44.243  22.196  22.679  1.00  0.00    -0.237 OA
ATOM     86  O   UNL A   1      45.989  23.404  23.919  1.00  0.00    -0.744 OA
ENDBRANCH  79  83
ENDBRANCH  52  76
BRANCH  64  87
ATOM     87  C   UNL A   1      45.743  29.661  29.130  1.00  0.00     0.023 A 
ATOM     88  C   UNL A   1      44.940  30.648  28.518  1.00  0.00     0.031 A 
ATOM     89  C   UNL A   1      47.118  29.659  28.829  1.00  0.00     0.131 A 
ATOM     90  C   UNL A   1      45.526  31.582  27.639  1.00  0.00     0.055 A 
ATOM     91  C   UNL A   1      47.698  30.599  27.982  1.00  0.00     0.041 A 
ATOM     92  F   UNL A   1      47.936  28.750  29.385  1.00  0.00    -0.206 F 
ATOM     93  C   UNL A   1      46.901  31.562  27.378  1.00  0.00     0.022 A 
BRANCH  90  94
ATOM     94  S   UNL A   1      44.507  32.831  26.791  1.00  0.00     0.124 S 
ATOM     95  O   UNL A   1      45.486  33.785  26.285  1.00  0.00    -0.237 OA
ATOM     96  O   UNL A   1      43.807  32.037  25.784  1.00  0.00    -0.237 OA
ATOM     97  O   UNL A   1      43.648  33.351  27.858  1.00  0.00    -0.744 OA
ENDBRANCH  90  94
ENDBRANCH  64  87
ENDBRANCH  38  39
ENDBRANCH  30  33
ENDBRANCH  28  29
ENDBRANCH  27  28
ENDBRANCH  26  27
ENDBRANCH  25  26
ENDBRANCH   3  25
TORSDOF 21
ENDMDL
