MODEL 1
REMARK VINA RESULT:     -12.7      0.000      0.000
REMARK SMILES O=C(NCCCCNC(=O)[C@H]1CCC(=O)N(CCc2ccccc2F)[C@@H]1c1cccs1)c1ccc(-c2c3nc(c(-c4cc(S(=O)(=O)[O-])ccc4F)c4ccc([nH]4)c(-c4cc(S(=O)(=O)[O-])ccc4F)c4nc(c(-c5cc(S(=O)(=O)[O-])ccc5F)c5ccc2[nH]5)C=C4)C=C3)cc1
REMARK SMILES IDX 5 1 4 2 3 3 1 4 2 5 32 7 33 8 94 9 34 10 93 11 35 12 36 13
REMARK SMILES IDX 37 14 87 15 38 16 92 17 86 18 88 19 39 20 91 21 85 22 84 23
REMARK SMILES IDX 40 25 72 26 52 27 71 28 53 29 56 30 70 31 89 32 54 33 55 34
REMARK SMILES IDX 69 36 90 37 57 38 41 39 42 40 50 41 43 42 49 43 51 44 48 45
REMARK SMILES IDX 44 46 45 47 46 48 47 49 73 50 74 51 82 52 75 53 81 54 83 55
REMARK SMILES IDX 80 56 76 57 77 58 78 59 79 60 58 61 59 62 67 63 60 64 66 65
REMARK SMILES IDX 68 66 65 67 61 68 62 69 63 70 64 71 6 72 7 73 8 74 9 75
REMARK SMILES IDX 10 77 11 78 12 79 26 80 13 81 16 82 14 83 15 84 27 85 28 86
REMARK SMILES IDX 31 87 29 88 30 89 17 90 18 91 19 92 20 93 24 94 21 95 23 96
REMARK SMILES IDX 25 97 22 98
REMARK H PARENT 3 6 88 24 56 35 8 76
REMARK Flexibility Score: inf
ROOT
ATOM      1  C   UNL A   1      31.873  29.144  24.894  1.00  0.00     0.023 C 
ENDROOT
BRANCH   1   2
ATOM      2  C   UNL A   1      32.817  29.711  25.942  1.00  0.00     0.116 C 
BRANCH   2   3
ATOM      3  N   UNL A   1      32.519  31.101  26.250  1.00  0.00    -0.352 N 
ATOM      4  O   UNL A   1      32.639  33.007  27.445  1.00  0.00    -0.269 OA
ATOM      5  C   UNL A   1      33.129  31.924  27.165  1.00  0.00     0.251 C 
ATOM      6  H   UNL A   1      31.783  31.504  25.735  1.00  0.00     0.163 HD
BRANCH   5   7
ATOM      7  C   UNL A   1      34.378  31.468  27.807  1.00  0.00     0.039 A 
ATOM      8  C   UNL A   1      35.431  32.367  28.007  1.00  0.00     0.014 A 
ATOM      9  C   UNL A   1      34.490  30.138  28.214  1.00  0.00     0.014 A 
ATOM     10  C   UNL A   1      36.634  31.911  28.527  1.00  0.00     0.010 A 
ATOM     11  C   UNL A   1      35.671  29.701  28.815  1.00  0.00     0.010 A 
ATOM     12  C   UNL A   1      36.749  30.586  28.974  1.00  0.00    -0.014 A 
BRANCH  12  13
ATOM     13  C   UNL A   1      37.949  30.184  29.743  1.00  0.00     0.031 A 
ATOM     14  C   UNL A   1      39.010  29.312  29.145  1.00  0.00     0.074 A 
ATOM     15  C   UNL A   1      38.063  30.636  31.006  1.00  0.00     0.049 A 
ATOM     16  N   UNL A   1      40.092  28.837  29.706  1.00  0.00    -0.248 NA
ATOM     17  C   UNL A   1      38.834  28.922  27.740  1.00  0.00     0.031 C 
ATOM     18  C   UNL A   1      37.097  31.514  31.674  1.00  0.00     0.029 A 
ATOM     19  N   UNL A   1      39.042  30.444  31.944  1.00  0.00    -0.354 N 
ATOM     20  C   UNL A   1      40.733  28.092  28.724  1.00  0.00     0.074 A 
ATOM     21  C   UNL A   1      39.893  28.148  27.543  1.00  0.00     0.031 C 
ATOM     22  C   UNL A   1      37.561  31.833  32.889  1.00  0.00     0.029 A 
ATOM     23  C   UNL A   1      38.809  31.116  33.119  1.00  0.00     0.049 A 
ATOM     24  H   UNL A   1      39.834  29.880  31.791  1.00  0.00     0.167 HD
ATOM     25  C   UNL A   1      41.915  27.431  28.807  1.00  0.00     0.034 A 
ATOM     26  C   UNL A   1      39.508  31.140  34.267  1.00  0.00     0.034 A 
ATOM     27  C   UNL A   1      42.719  27.367  30.007  1.00  0.00     0.049 A 
ATOM     28  C   UNL A   1      40.760  30.323  34.367  1.00  0.00     0.074 A 
ATOM     29  C   UNL A   1      43.915  26.701  30.211  1.00  0.00     0.029 A 
ATOM     30  N   UNL A   1      42.408  27.992  31.211  1.00  0.00    -0.354 N 
ATOM     31  N   UNL A   1      41.321  29.564  33.456  1.00  0.00    -0.248 NA
ATOM     32  C   UNL A   1      41.467  30.360  35.650  1.00  0.00     0.031 C 
ATOM     33  C   UNL A   1      44.292  26.867  31.548  1.00  0.00     0.029 A 
ATOM     34  C   UNL A   1      43.378  27.708  32.163  1.00  0.00     0.049 A 
ATOM     35  H   UNL A   1      41.614  28.553  31.366  1.00  0.00     0.167 HD
ATOM     36  C   UNL A   1      42.468  29.051  34.047  1.00  0.00     0.074 A 
ATOM     37  C   UNL A   1      42.514  29.587  35.395  1.00  0.00     0.031 C 
ATOM     38  C   UNL A   1      43.404  28.226  33.513  1.00  0.00     0.034 A 
BRANCH  25  39
ATOM     39  C   UNL A   1      42.381  26.690  27.576  1.00  0.00     0.023 A 
ATOM     40  C   UNL A   1      42.059  25.338  27.365  1.00  0.00     0.031 A 
ATOM     41  C   UNL A   1      43.168  27.338  26.607  1.00  0.00     0.131 A 
ATOM     42  C   UNL A   1      42.570  24.662  26.246  1.00  0.00     0.055 A 
ATOM     43  C   UNL A   1      43.612  26.680  25.459  1.00  0.00     0.041 A 
ATOM     44  F   UNL A   1      43.526  28.622  26.765  1.00  0.00    -0.206 F 
ATOM     45  C   UNL A   1      43.323  25.330  25.278  1.00  0.00     0.022 A 
BRANCH  42  46
ATOM     46  S   UNL A   1      42.336  22.866  26.134  1.00  0.00     0.124 S 
ATOM     47  O   UNL A   1      43.164  22.391  27.239  1.00  0.00    -0.237 OA
ATOM     48  O   UNL A   1      40.895  22.723  26.307  1.00  0.00    -0.237 OA
ATOM     49  O   UNL A   1      42.840  22.538  24.801  1.00  0.00    -0.744 OA
ENDBRANCH  42  46
ENDBRANCH  25  39
BRANCH  26  50
ATOM     50  C   UNL A   1      39.017  31.972  35.395  1.00  0.00     0.023 A 
ATOM     51  C   UNL A   1      38.318  31.387  36.460  1.00  0.00     0.031 A 
ATOM     52  C   UNL A   1      39.315  33.345  35.464  1.00  0.00     0.131 A 
ATOM     53  C   UNL A   1      37.938  32.176  37.555  1.00  0.00     0.055 A 
ATOM     54  C   UNL A   1      38.964  34.117  36.570  1.00  0.00     0.041 A 
ATOM     55  F   UNL A   1      40.004  33.939  34.476  1.00  0.00    -0.206 F 
ATOM     56  C   UNL A   1      38.269  33.532  37.625  1.00  0.00     0.022 A 
BRANCH  53  57
ATOM     57  S   UNL A   1      37.012  31.397  38.905  1.00  0.00     0.124 S 
ATOM     58  O   UNL A   1      37.938  31.543  40.023  1.00  0.00    -0.237 OA
ATOM     59  O   UNL A   1      35.804  32.215  38.960  1.00  0.00    -0.237 OA
ATOM     60  O   UNL A   1      36.810  30.028  38.434  1.00  0.00    -0.744 OA
ENDBRANCH  53  57
ENDBRANCH  26  50
BRANCH  38  61
ATOM     61  C   UNL A   1      44.590  27.889  34.381  1.00  0.00     0.023 A 
ATOM     62  C   UNL A   1      44.609  26.751  35.205  1.00  0.00     0.031 A 
ATOM     63  C   UNL A   1      45.718  28.728  34.379  1.00  0.00     0.131 A 
ATOM     64  C   UNL A   1      45.717  26.508  36.031  1.00  0.00     0.055 A 
ATOM     65  C   UNL A   1      46.841  28.451  35.161  1.00  0.00     0.041 A 
ATOM     66  F   UNL A   1      45.749  29.831  33.613  1.00  0.00    -0.206 F 
ATOM     67  C   UNL A   1      46.840  27.342  36.001  1.00  0.00     0.022 A 
BRANCH  64  68
ATOM     68  S   UNL A   1      45.645  25.128  37.205  1.00  0.00     0.124 S 
ATOM     69  O   UNL A   1      46.232  24.040  36.428  1.00  0.00    -0.237 OA
ATOM     70  O   UNL A   1      46.447  25.620  38.320  1.00  0.00    -0.237 OA
ATOM     71  O   UNL A   1      44.217  24.989  37.484  1.00  0.00    -0.744 OA
ENDBRANCH  64  68
ENDBRANCH  38  61
ENDBRANCH  12  13
ENDBRANCH   5   7
ENDBRANCH   2   3
ENDBRANCH   1   2
BRANCH   1  72
ATOM     72  C   UNL A   1      32.514  28.942  23.521  1.00  0.00     0.023 C 
BRANCH  72  73
ATOM     73  C   UNL A   1      33.687  27.961  23.513  1.00  0.00     0.116 C 
BRANCH  73  74
ATOM     74  N   UNL A   1      33.552  26.970  22.462  1.00  0.00    -0.356 N 
ATOM     75  C   UNL A   1      33.254  25.641  22.546  1.00  0.00     0.225 C 
ATOM     76  H   UNL A   1      33.698  27.306  21.548  1.00  0.00     0.163 HD
ATOM     77  O   UNL A   1      33.263  24.978  21.510  1.00  0.00    -0.275 OA
BRANCH  75  78
ATOM     78  C   UNL A   1      32.806  25.062  23.886  1.00  0.00     0.107 C 
ATOM     79  C   UNL A   1      31.305  25.319  23.938  1.00  0.00     0.026 C 
ATOM     80  C   UNL A   1      33.122  23.543  24.012  1.00  0.00     0.138 C 
ATOM     81  C   UNL A   1      30.795  24.865  25.276  1.00  0.00     0.101 C 
ATOM     82  N   UNL A   1      32.144  22.794  24.897  1.00  0.00    -0.334 N 
ATOM     83  C   UNL A   1      31.031  23.394  25.494  1.00  0.00     0.223 C 
ATOM     84  O   UNL A   1      30.250  22.786  26.231  1.00  0.00    -0.275 OA
BRANCH  80  85
ATOM     85  C   UNL A   1      34.629  23.254  24.316  1.00  0.00     0.028 A 
ATOM     86  C   UNL A   1      35.684  22.859  23.499  1.00  0.00     0.017 A 
ATOM     87  S   UNL A   1      35.301  23.643  25.869  1.00  0.00    -0.147 S 
ATOM     88  C   UNL A   1      36.976  22.942  24.099  1.00  0.00     0.012 A 
ATOM     89  C   UNL A   1      36.905  23.377  25.393  1.00  0.00     0.065 A 
ENDBRANCH  80  85
BRANCH  82  90
ATOM     90  C   UNL A   1      32.178  21.318  25.005  1.00  0.00     0.125 C 
BRANCH  90  91
ATOM     91  C   UNL A   1      32.376  20.475  23.721  1.00  0.00     0.060 C 
BRANCH  91  92
ATOM     92  C   UNL A   1      33.119  19.170  23.842  1.00  0.00    -0.010 A 
ATOM     93  C   UNL A   1      34.232  19.024  24.682  1.00  0.00     0.007 A 
ATOM     94  C   UNL A   1      32.754  18.085  23.032  1.00  0.00     0.126 A 
ATOM     95  C   UNL A   1      35.019  17.869  24.618  1.00  0.00     0.000 A 
ATOM     96  C   UNL A   1      33.535  16.937  22.961  1.00  0.00     0.039 A 
ATOM     97  F   UNL A   1      31.695  18.197  22.217  1.00  0.00    -0.207 F 
ATOM     98  C   UNL A   1      34.686  16.837  23.740  1.00  0.00     0.003 A 
ENDBRANCH  91  92
ENDBRANCH  90  91
ENDBRANCH  82  90
ENDBRANCH  75  78
ENDBRANCH  73  74
ENDBRANCH  72  73
ENDBRANCH   1  72
TORSDOF 18
ENDMDL
MODEL 2
REMARK VINA RESULT:     -12.5      1.497      2.172
REMARK SMILES O=C(NCCCCNC(=O)[C@H]1CCC(=O)N(CCc2ccccc2F)[C@@H]1c1cccs1)c1ccc(-c2c3nc(c(-c4cc(S(=O)(=O)[O-])ccc4F)c4ccc([nH]4)c(-c4cc(S(=O)(=O)[O-])ccc4F)c4nc(c(-c5cc(S(=O)(=O)[O-])ccc5F)c5ccc2[nH]5)C=C4)C=C3)cc1
REMARK SMILES IDX 5 1 4 2 3 3 1 4 2 5 32 7 33 8 94 9 34 10 93 11 35 12 36 13
REMARK SMILES IDX 37 14 87 15 38 16 92 17 86 18 88 19 39 20 91 21 85 22 84 23
REMARK SMILES IDX 40 25 72 26 52 27 71 28 53 29 56 30 70 31 89 32 54 33 55 34
REMARK SMILES IDX 69 36 90 37 57 38 41 39 42 40 50 41 43 42 49 43 51 44 48 45
REMARK SMILES IDX 44 46 45 47 46 48 47 49 73 50 74 51 82 52 75 53 81 54 83 55
REMARK SMILES IDX 80 56 76 57 77 58 78 59 79 60 58 61 59 62 67 63 60 64 66 65
REMARK SMILES IDX 68 66 65 67 61 68 62 69 63 70 64 71 6 72 7 73 8 74 9 75
REMARK SMILES IDX 10 77 11 78 12 79 26 80 13 81 16 82 14 83 15 84 27 85 28 86
REMARK SMILES IDX 31 87 29 88 30 89 17 90 18 91 19 92 20 93 24 94 21 95 23 96
REMARK SMILES IDX 25 97 22 98
REMARK H PARENT 3 6 88 24 56 35 8 76
REMARK Flexibility Score: inf
ROOT
ATOM      1  C   UNL A   1      31.657  29.368  26.886  1.00  0.00     0.023 C 
ENDROOT
BRANCH   1   2
ATOM      2  C   UNL A   1      32.855  30.157  26.385  1.00  0.00     0.116 C 
BRANCH   2   3
ATOM      3  N   UNL A   1      32.717  31.581  26.645  1.00  0.00    -0.352 N 
ATOM      4  O   UNL A   1      33.079  33.507  27.758  1.00  0.00    -0.269 OA
ATOM      5  C   UNL A   1      33.442  32.368  27.507  1.00  0.00     0.251 C 
ATOM      6  H   UNL A   1      32.010  32.042  26.137  1.00  0.00     0.163 HD
BRANCH   5   7
ATOM      7  C   UNL A   1      34.658  31.805  28.128  1.00  0.00     0.039 A 
ATOM      8  C   UNL A   1      35.799  32.599  28.280  1.00  0.00     0.014 A 
ATOM      9  C   UNL A   1      34.649  30.479  28.565  1.00  0.00     0.014 A 
ATOM     10  C   UNL A   1      36.965  32.038  28.779  1.00  0.00     0.010 A 
ATOM     11  C   UNL A   1      35.799  29.941  29.146  1.00  0.00     0.010 A 
ATOM     12  C   UNL A   1      36.962  30.718  29.256  1.00  0.00    -0.014 A 
BRANCH  12  13
ATOM     13  C   UNL A   1      38.137  30.217  30.004  1.00  0.00     0.031 A 
ATOM     14  C   UNL A   1      39.126  29.281  29.379  1.00  0.00     0.074 A 
ATOM     15  C   UNL A   1      38.297  30.636  31.273  1.00  0.00     0.049 A 
ATOM     16  N   UNL A   1      40.176  28.718  29.918  1.00  0.00    -0.248 NA
ATOM     17  C   UNL A   1      38.907  28.930  27.969  1.00  0.00     0.031 C 
ATOM     18  C   UNL A   1      37.405  31.570  31.967  1.00  0.00     0.029 A 
ATOM     19  N   UNL A   1      39.269  30.356  32.196  1.00  0.00    -0.354 N 
ATOM     20  C   UNL A   1      40.751  27.946  28.917  1.00  0.00     0.074 A 
ATOM     21  C   UNL A   1      39.905  28.084  27.747  1.00  0.00     0.031 C 
ATOM     22  C   UNL A   1      37.904  31.833  33.182  1.00  0.00     0.029 A 
ATOM     23  C   UNL A   1      39.098  31.023  33.385  1.00  0.00     0.049 A 
ATOM     24  H   UNL A   1      40.016  29.739  32.024  1.00  0.00     0.167 HD
ATOM     25  C   UNL A   1      41.882  27.200  28.975  1.00  0.00     0.034 A 
ATOM     26  C   UNL A   1      39.809  30.975  34.525  1.00  0.00     0.034 A 
ATOM     27  C   UNL A   1      42.691  27.056  30.164  1.00  0.00     0.049 A 
ATOM     28  C   UNL A   1      40.999  30.068  34.596  1.00  0.00     0.074 A 
ATOM     29  C   UNL A   1      43.838  26.301  30.342  1.00  0.00     0.029 A 
ATOM     30  N   UNL A   1      42.439  27.680  31.382  1.00  0.00    -0.354 N 
ATOM     31  N   UNL A   1      41.494  29.286  33.665  1.00  0.00    -0.248 NA
ATOM     32  C   UNL A   1      41.721  30.030  35.872  1.00  0.00     0.031 C 
ATOM     33  C   UNL A   1      44.240  26.416  31.677  1.00  0.00     0.029 A 
ATOM     34  C   UNL A   1      43.396  27.309  32.317  1.00  0.00     0.049 A 
ATOM     35  H   UNL A   1      41.691  28.294  31.555  1.00  0.00     0.167 HD
ATOM     36  C   UNL A   1      42.607  28.681  34.235  1.00  0.00     0.074 A 
ATOM     37  C   UNL A   1      42.706  29.188  35.590  1.00  0.00     0.031 C 
ATOM     38  C   UNL A   1      43.474  27.799  33.676  1.00  0.00     0.034 A 
BRANCH  25  39
ATOM     39  C   UNL A   1      42.280  26.448  27.726  1.00  0.00     0.023 A 
ATOM     40  C   UNL A   1      41.903  25.110  27.520  1.00  0.00     0.031 A 
ATOM     41  C   UNL A   1      43.057  27.073  26.733  1.00  0.00     0.131 A 
ATOM     42  C   UNL A   1      42.352  24.422  26.382  1.00  0.00     0.055 A 
ATOM     43  C   UNL A   1      43.438  26.406  25.568  1.00  0.00     0.041 A 
ATOM     44  F   UNL A   1      43.466  28.343  26.884  1.00  0.00    -0.206 F 
ATOM     45  C   UNL A   1      43.096  25.068  25.392  1.00  0.00     0.022 A 
BRANCH  42  46
ATOM     46  S   UNL A   1      42.051  22.637  26.271  1.00  0.00     0.124 S 
ATOM     47  O   UNL A   1      40.591  22.582  26.281  1.00  0.00    -0.237 OA
ATOM     48  O   UNL A   1      42.695  22.284  25.011  1.00  0.00    -0.237 OA
ATOM     49  O   UNL A   1      42.695  22.105  27.471  1.00  0.00    -0.744 OA
ENDBRANCH  42  46
ENDBRANCH  25  39
BRANCH  26  50
ATOM     50  C   UNL A   1      39.392  31.821  35.673  1.00  0.00     0.023 A 
ATOM     51  C   UNL A   1      38.509  31.322  36.640  1.00  0.00     0.031 A 
ATOM     52  C   UNL A   1      39.937  33.103  35.862  1.00  0.00     0.131 A 
ATOM     53  C   UNL A   1      38.194  32.105  37.760  1.00  0.00     0.055 A 
ATOM     54  C   UNL A   1      39.647  33.864  36.993  1.00  0.00     0.041 A 
ATOM     55  F   UNL A   1      40.806  33.608  34.971  1.00  0.00    -0.206 F 
ATOM     56  C   UNL A   1      38.768  33.365  37.951  1.00  0.00     0.022 A 
BRANCH  53  57
ATOM     57  S   UNL A   1      37.028  31.445  38.981  1.00  0.00     0.124 S 
ATOM     58  O   UNL A   1      35.917  32.382  38.867  1.00  0.00    -0.237 OA
ATOM     59  O   UNL A   1      36.786  30.097  38.477  1.00  0.00    -0.237 OA
ATOM     60  O   UNL A   1      37.776  31.511  40.235  1.00  0.00    -0.744 OA
ENDBRANCH  53  57
ENDBRANCH  26  50
BRANCH  38  61
ATOM     61  C   UNL A   1      44.641  27.362  34.523  1.00  0.00     0.023 A 
ATOM     62  C   UNL A   1      44.583  26.216  35.335  1.00  0.00     0.031 A 
ATOM     63  C   UNL A   1      45.831  28.111  34.516  1.00  0.00     0.131 A 
ATOM     64  C   UNL A   1      45.680  25.879  36.143  1.00  0.00     0.055 A 
ATOM     65  C   UNL A   1      46.938  27.739  35.279  1.00  0.00     0.041 A 
ATOM     66  F   UNL A   1      45.937  29.218  33.762  1.00  0.00    -0.206 F 
ATOM     67  C   UNL A   1      46.863  26.623  36.107  1.00  0.00     0.022 A 
BRANCH  64  68
ATOM     68  S   UNL A   1      45.516  24.494  37.302  1.00  0.00     0.124 S 
ATOM     69  O   UNL A   1      45.310  23.366  36.398  1.00  0.00    -0.237 OA
ATOM     70  O   UNL A   1      46.793  24.521  38.007  1.00  0.00    -0.237 OA
ATOM     71  O   UNL A   1      44.354  24.859  38.112  1.00  0.00    -0.744 OA
ENDBRANCH  64  68
ENDBRANCH  38  61
ENDBRANCH  12  13
ENDBRANCH   5   7
ENDBRANCH   2   3
ENDBRANCH   1   2
BRANCH   1  72
ATOM     72  C   UNL A   1      32.004  27.975  27.413  1.00  0.00     0.023 C 
BRANCH  72  73
ATOM     73  C   UNL A   1      31.864  26.858  26.379  1.00  0.00     0.116 C 
BRANCH  73  74
ATOM     74  N   UNL A   1      31.030  25.775  26.865  1.00  0.00    -0.356 N 
ATOM     75  C   UNL A   1      31.245  24.428  26.843  1.00  0.00     0.225 C 
ATOM     76  H   UNL A   1      30.178  26.054  27.273  1.00  0.00     0.163 HD
ATOM     77  O   UNL A   1      30.351  23.692  27.258  1.00  0.00    -0.275 OA
BRANCH  75  78
ATOM     78  C   UNL A   1      32.615  23.899  26.426  1.00  0.00     0.107 C 
ATOM     79  C   UNL A   1      32.982  22.881  27.500  1.00  0.00     0.026 C 
ATOM     80  C   UNL A   1      32.595  23.246  25.014  1.00  0.00     0.138 C 
ATOM     81  C   UNL A   1      34.369  22.379  27.218  1.00  0.00     0.101 C 
ATOM     82  N   UNL A   1      33.618  22.139  24.846  1.00  0.00    -0.334 N 
ATOM     83  C   UNL A   1      34.458  21.704  25.876  1.00  0.00     0.223 C 
ATOM     84  O   UNL A   1      35.304  20.818  25.729  1.00  0.00    -0.275 OA
BRANCH  80  85
ATOM     85  C   UNL A   1      32.573  24.295  23.853  1.00  0.00     0.028 A 
ATOM     86  C   UNL A   1      33.591  24.875  23.104  1.00  0.00     0.017 A 
ATOM     87  S   UNL A   1      31.068  24.764  23.125  1.00  0.00    -0.147 S 
ATOM     88  C   UNL A   1      33.156  25.604  21.957  1.00  0.00     0.012 A 
ATOM     89  C   UNL A   1      31.793  25.603  21.844  1.00  0.00     0.065 A 
ENDBRANCH  80  85
BRANCH  82  90
ATOM     90  C   UNL A   1      33.639  21.287  23.635  1.00  0.00     0.125 C 
BRANCH  90  91
ATOM     91  C   UNL A   1      32.586  20.162  23.489  1.00  0.00     0.060 C 
BRANCH  91  92
ATOM     92  C   UNL A   1      32.961  18.780  23.959  1.00  0.00    -0.010 A 
ATOM     93  C   UNL A   1      33.385  17.783  23.070  1.00  0.00     0.007 A 
ATOM     94  C   UNL A   1      32.804  18.440  25.310  1.00  0.00     0.126 A 
ATOM     95  C   UNL A   1      33.527  16.461  23.507  1.00  0.00     0.000 A 
ATOM     96  C   UNL A   1      32.940  17.127  25.748  1.00  0.00     0.039 A 
ATOM     97  F   UNL A   1      32.398  19.373  26.184  1.00  0.00    -0.207 F 
ATOM     98  C   UNL A   1      33.280  16.129  24.838  1.00  0.00     0.003 A 
ENDBRANCH  91  92
ENDBRANCH  90  91
ENDBRANCH  82  90
ENDBRANCH  75  78
ENDBRANCH  73  74
ENDBRANCH  72  73
ENDBRANCH   1  72
TORSDOF 18
ENDMDL
MODEL 3
REMARK VINA RESULT:     -12.5      5.099     10.563
REMARK SMILES O=C(NCCCCNC(=O)[C@H]1CCC(=O)N(CCc2ccccc2F)[C@@H]1c1cccs1)c1ccc(-c2c3nc(c(-c4cc(S(=O)(=O)[O-])ccc4F)c4ccc([nH]4)c(-c4cc(S(=O)(=O)[O-])ccc4F)c4nc(c(-c5cc(S(=O)(=O)[O-])ccc5F)c5ccc2[nH]5)C=C4)C=C3)cc1
REMARK SMILES IDX 5 1 4 2 3 3 1 4 2 5 32 7 33 8 94 9 34 10 93 11 35 12 36 13
REMARK SMILES IDX 37 14 87 15 38 16 92 17 86 18 88 19 39 20 91 21 85 22 84 23
REMARK SMILES IDX 40 25 72 26 52 27 71 28 53 29 56 30 70 31 89 32 54 33 55 34
REMARK SMILES IDX 69 36 90 37 57 38 41 39 42 40 50 41 43 42 49 43 51 44 48 45
REMARK SMILES IDX 44 46 45 47 46 48 47 49 73 50 74 51 82 52 75 53 81 54 83 55
REMARK SMILES IDX 80 56 76 57 77 58 78 59 79 60 58 61 59 62 67 63 60 64 66 65
REMARK SMILES IDX 68 66 65 67 61 68 62 69 63 70 64 71 6 72 7 73 8 74 9 75
REMARK SMILES IDX 10 77 11 78 12 79 26 80 13 81 16 82 14 83 15 84 27 85 28 86
REMARK SMILES IDX 31 87 29 88 30 89 17 90 18 91 19 92 20 93 24 94 21 95 23 96
REMARK SMILES IDX 25 97 22 98
REMARK H PARENT 3 6 88 24 56 35 8 76
REMARK Flexibility Score: inf
ROOT
ATOM      1  C   UNL A   1      35.319  21.717  25.510  1.00  0.00     0.023 C 
ENDROOT
BRANCH   1   2
ATOM      2  C   UNL A   1      36.738  22.225  25.707  1.00  0.00     0.116 C 
BRANCH   2   3
ATOM      3  N   UNL A   1      37.689  21.137  25.867  1.00  0.00    -0.352 N 
ATOM      4  O   UNL A   1      39.736  20.213  26.051  1.00  0.00    -0.269 OA
ATOM      5  C   UNL A   1      39.034  21.209  26.138  1.00  0.00     0.251 C 
ATOM      6  H   UNL A   1      37.321  20.229  25.769  1.00  0.00     0.163 HD
BRANCH   5   7
ATOM      7  C   UNL A   1      39.611  22.513  26.523  1.00  0.00     0.039 A 
ATOM      8  C   UNL A   1      40.686  22.567  27.416  1.00  0.00     0.014 A 
ATOM      9  C   UNL A   1      39.076  23.682  25.981  1.00  0.00     0.014 A 
ATOM     10  C   UNL A   1      41.163  23.797  27.844  1.00  0.00     0.010 A 
ATOM     11  C   UNL A   1      39.613  24.917  26.348  1.00  0.00     0.010 A 
ATOM     12  C   UNL A   1      40.660  24.980  27.281  1.00  0.00    -0.014 A 
BRANCH  12  13
ATOM     13  C   UNL A   1      41.341  26.263  27.566  1.00  0.00     0.031 A 
ATOM     14  C   UNL A   1      40.701  27.324  28.407  1.00  0.00     0.074 A 
ATOM     15  C   UNL A   1      42.570  26.448  27.048  1.00  0.00     0.049 A 
ATOM     16  N   UNL A   1      41.149  28.516  28.706  1.00  0.00    -0.248 NA
ATOM     17  C   UNL A   1      39.387  27.008  28.986  1.00  0.00     0.031 C 
ATOM     18  C   UNL A   1      43.295  25.465  26.236  1.00  0.00     0.029 A 
ATOM     19  N   UNL A   1      43.435  27.505  27.140  1.00  0.00    -0.354 N 
ATOM     20  C   UNL A   1      40.178  29.098  29.511  1.00  0.00     0.074 A 
ATOM     21  C   UNL A   1      39.097  28.137  29.619  1.00  0.00     0.031 C 
ATOM     22  C   UNL A   1      44.515  25.940  25.958  1.00  0.00     0.029 A 
ATOM     23  C   UNL A   1      44.627  27.291  26.494  1.00  0.00     0.049 A 
ATOM     24  H   UNL A   1      43.222  28.337  27.622  1.00  0.00     0.167 HD
ATOM     25  C   UNL A   1      40.198  30.317  30.105  1.00  0.00     0.034 A 
ATOM     26  C   UNL A   1      45.691  28.097  26.328  1.00  0.00     0.034 A 
ATOM     27  C   UNL A   1      41.277  31.267  29.956  1.00  0.00     0.049 A 
ATOM     28  C   UNL A   1      45.648  29.476  26.912  1.00  0.00     0.074 A 
ATOM     29  C   UNL A   1      41.385  32.541  30.488  1.00  0.00     0.029 A 
ATOM     30  N   UNL A   1      42.438  31.049  29.220  1.00  0.00    -0.354 N 
ATOM     31  N   UNL A   1      44.695  30.043  27.612  1.00  0.00    -0.248 NA
ATOM     32  C   UNL A   1      46.820  30.325  26.677  1.00  0.00     0.031 C 
ATOM     33  C   UNL A   1      42.574  33.115  30.022  1.00  0.00     0.029 A 
ATOM     34  C   UNL A   1      43.253  32.171  29.267  1.00  0.00     0.049 A 
ATOM     35  H   UNL A   1      42.649  30.220  28.735  1.00  0.00     0.167 HD
ATOM     36  C   UNL A   1      45.163  31.313  27.927  1.00  0.00     0.074 A 
ATOM     37  C   UNL A   1      46.484  31.425  27.337  1.00  0.00     0.031 C 
ATOM     38  C   UNL A   1      44.558  32.286  28.654  1.00  0.00     0.034 A 
BRANCH  25  39
ATOM     39  C   UNL A   1      38.994  30.703  30.932  1.00  0.00     0.023 A 
ATOM     40  C   UNL A   1      37.828  31.217  30.339  1.00  0.00     0.031 A 
ATOM     41  C   UNL A   1      39.016  30.568  32.332  1.00  0.00     0.131 A 
ATOM     42  C   UNL A   1      36.756  31.633  31.145  1.00  0.00     0.055 A 
ATOM     43  C   UNL A   1      37.919  30.914  33.122  1.00  0.00     0.041 A 
ATOM     44  F   UNL A   1      40.110  30.103  32.957  1.00  0.00    -0.206 F 
ATOM     45  C   UNL A   1      36.784  31.462  32.531  1.00  0.00     0.022 A 
BRANCH  42  46
ATOM     46  S   UNL A   1      35.374  32.512  30.367  1.00  0.00     0.124 S 
ATOM     47  O   UNL A   1      36.023  33.739  29.912  1.00  0.00    -0.237 OA
ATOM     48  O   UNL A   1      34.956  31.584  29.322  1.00  0.00    -0.237 OA
ATOM     49  O   UNL A   1      34.421  32.689  31.461  1.00  0.00    -0.744 OA
ENDBRANCH  42  46
ENDBRANCH  25  39
BRANCH  26  50
ATOM     50  C   UNL A   1      46.868  27.595  25.575  1.00  0.00     0.023 A 
ATOM     51  C   UNL A   1      47.006  27.866  24.207  1.00  0.00     0.031 A 
ATOM     52  C   UNL A   1      47.909  26.914  26.231  1.00  0.00     0.131 A 
ATOM     53  C   UNL A   1      48.165  27.457  23.533  1.00  0.00     0.055 A 
ATOM     54  C   UNL A   1      49.074  26.538  25.563  1.00  0.00     0.041 A 
ATOM     55  F   UNL A   1      47.827  26.655  27.546  1.00  0.00    -0.206 F 
ATOM     56  C   UNL A   1      49.206  26.809  24.204  1.00  0.00     0.022 A 
BRANCH  53  57
ATOM     57  S   UNL A   1      48.304  27.798  21.758  1.00  0.00     0.124 S 
ATOM     58  O   UNL A   1      49.404  28.756  21.726  1.00  0.00    -0.237 OA
ATOM     59  O   UNL A   1      48.589  26.475  21.212  1.00  0.00    -0.237 OA
ATOM     60  O   UNL A   1      46.992  28.340  21.412  1.00  0.00    -0.744 OA
ENDBRANCH  53  57
ENDBRANCH  26  50
BRANCH  38  61
ATOM     61  C   UNL A   1      45.347  33.549  28.892  1.00  0.00     0.023 A 
ATOM     62  C   UNL A   1      45.193  34.686  28.081  1.00  0.00     0.031 A 
ATOM     63  C   UNL A   1      46.270  33.608  29.951  1.00  0.00     0.131 A 
ATOM     64  C   UNL A   1      45.987  35.819  28.313  1.00  0.00     0.055 A 
ATOM     65  C   UNL A   1      47.016  34.758  30.212  1.00  0.00     0.041 A 
ATOM     66  F   UNL A   1      46.459  32.547  30.753  1.00  0.00    -0.206 F 
ATOM     67  C   UNL A   1      46.885  35.868  29.384  1.00  0.00     0.022 A 
BRANCH  64  68
ATOM     68  S   UNL A   1      45.887  37.208  27.151  1.00  0.00     0.124 S 
ATOM     69  O   UNL A   1      46.718  36.737  26.047  1.00  0.00    -0.237 OA
ATOM     70  O   UNL A   1      44.455  37.290  26.882  1.00  0.00    -0.237 OA
ATOM     71  O   UNL A   1      46.440  38.330  27.907  1.00  0.00    -0.744 OA
ENDBRANCH  64  68
ENDBRANCH  38  61
ENDBRANCH  12  13
ENDBRANCH   5   7
ENDBRANCH   2   3
ENDBRANCH   1   2
BRANCH   1  72
ATOM     72  C   UNL A   1      34.519  21.584  26.806  1.00  0.00     0.023 C 
BRANCH  72  73
ATOM     73  C   UNL A   1      33.890  22.890  27.293  1.00  0.00     0.116 C 
BRANCH  73  74
ATOM     74  N   UNL A   1      32.452  22.901  27.096  1.00  0.00    -0.356 N 
ATOM     75  C   UNL A   1      31.702  23.570  26.173  1.00  0.00     0.225 C 
ATOM     76  H   UNL A   1      31.939  22.341  27.723  1.00  0.00     0.163 HD
ATOM     77  O   UNL A   1      30.477  23.477  26.245  1.00  0.00    -0.275 OA
BRANCH  75  78
ATOM     78  C   UNL A   1      32.403  24.297  25.029  1.00  0.00     0.107 C 
ATOM     79  C   UNL A   1      32.421  23.292  23.883  1.00  0.00     0.026 C 
ATOM     80  C   UNL A   1      31.668  25.606  24.618  1.00  0.00     0.138 C 
ATOM     81  C   UNL A   1      33.185  23.896  22.739  1.00  0.00     0.101 C 
ATOM     82  N   UNL A   1      31.842  25.964  23.155  1.00  0.00    -0.334 N 
ATOM     83  C   UNL A   1      32.543  25.165  22.246  1.00  0.00     0.223 C 
ATOM     84  O   UNL A   1      32.701  25.470  21.060  1.00  0.00    -0.275 OA
BRANCH  80  85
ATOM     85  C   UNL A   1      31.920  26.788  25.612  1.00  0.00     0.028 A 
ATOM     86  C   UNL A   1      31.176  27.282  26.679  1.00  0.00     0.017 A 
ATOM     87  S   UNL A   1      33.456  27.599  25.639  1.00  0.00    -0.147 S 
ATOM     88  C   UNL A   1      31.860  28.219  27.509  1.00  0.00     0.012 A 
ATOM     89  C   UNL A   1      33.127  28.465  27.057  1.00  0.00     0.065 A 
ENDBRANCH  80  85
BRANCH  82  90
ATOM     90  C   UNL A   1      31.085  27.076  22.538  1.00  0.00     0.125 C 
BRANCH  90  91
ATOM     91  C   UNL A   1      29.708  27.467  23.130  1.00  0.00     0.060 C 
BRANCH  91  92
ATOM     92  C   UNL A   1      29.394  28.933  23.277  1.00  0.00    -0.010 A 
ATOM     93  C   UNL A   1      30.290  29.827  23.878  1.00  0.00     0.007 A 
ATOM     94  C   UNL A   1      28.138  29.417  22.886  1.00  0.00     0.126 A 
ATOM     95  C   UNL A   1      29.887  31.132  24.184  1.00  0.00     0.000 A 
ATOM     96  C   UNL A   1      27.731  30.711  23.190  1.00  0.00     0.039 A 
ATOM     97  F   UNL A   1      27.259  28.583  22.309  1.00  0.00    -0.207 F 
ATOM     98  C   UNL A   1      28.601  31.566  23.863  1.00  0.00     0.003 A 
ENDBRANCH  91  92
ENDBRANCH  90  91
ENDBRANCH  82  90
ENDBRANCH  75  78
ENDBRANCH  73  74
ENDBRANCH  72  73
ENDBRANCH   1  72
TORSDOF 18
ENDMDL
