MODEL 1
REMARK VINA RESULT:     -12.7      0.000      0.000
REMARK SMILES Cc1ccc([C@H](C)Nc2ccc(C(=O)NCCCCNC(=O)c3ccc(-c4c5nc(c(-c6cc(S(=O)(=O)[O-])ccc6F)c6ccc([nH]6)c(-c6cc(S(=O)(=O)[O-])ccc6F)c6nc(c(-c7cc(S(=O)(=O)[O-])ccc7F)c7ccc4[nH]7)C=C6)C=C5)cc3)cc2Cl)cc1F
REMARK SMILES IDX 17 1 16 2 15 3 13 4 14 5 12 7 9 8 10 9 87 10 11 11 86 12
REMARK SMILES IDX 88 13 8 14 6 16 7 17 5 18 1 19 2 20 3 21 90 22 4 23 89 24
REMARK SMILES IDX 91 25 18 26 19 27 20 28 21 29 22 31 23 32 24 33 85 34 25 35
REMARK SMILES IDX 84 36 26 37 27 38 28 39 78 40 29 41 83 42 77 43 79 44 30 45
REMARK SMILES IDX 82 46 76 47 75 48 31 50 63 51 43 52 62 53 44 54 47 55 61 56
REMARK SMILES IDX 80 57 45 58 46 59 60 61 81 62 48 63 32 64 33 65 41 66 34 67
REMARK SMILES IDX 40 68 42 69 39 70 35 71 36 72 37 73 38 74 64 75 65 76 73 77
REMARK SMILES IDX 66 78 72 79 74 80 71 81 67 82 68 83 69 84 70 85 49 86 50 87
REMARK SMILES IDX 58 88 51 89 57 90 59 91 56 92 52 93 53 94 54 95 55 96
REMARK H PARENT 15 6 8 15 20 30 79 49 47 60
REMARK Flexibility Score: inf
ROOT
ATOM      1  C   UNL A   1      32.836  29.259  25.148  1.00  0.00     0.023 C 
ENDROOT
BRANCH   1   2
ATOM      2  C   UNL A   1      33.083  29.176  23.634  1.00  0.00     0.116 C 
BRANCH   2   3
ATOM      3  N   UNL A   1      31.821  29.261  22.922  1.00  0.00    -0.352 N 
ATOM      4  C   UNL A   1      30.923  28.309  22.511  1.00  0.00     0.251 C 
ATOM      5  O   UNL A   1      29.981  28.676  21.807  1.00  0.00    -0.269 OA
ATOM      6  H   UNL A   1      31.560  30.181  22.688  1.00  0.00     0.163 HD
BRANCH   4   7
ATOM      7  C   UNL A   1      30.993  26.871  22.914  1.00  0.00     0.041 A 
ATOM      8  C   UNL A   1      31.231  24.193  23.905  1.00  0.00     0.053 A 
ATOM      9  C   UNL A   1      30.415  25.154  24.535  1.00  0.00     0.028 A 
ATOM     10  C   UNL A   1      31.951  24.633  22.787  1.00  0.00     0.065 A 
ATOM     11  C   UNL A   1      30.326  26.477  24.075  1.00  0.00     0.016 A 
ATOM     12  C   UNL A   1      31.727  25.901  22.250  1.00  0.00     0.036 A 
ATOM     13  Cl  UNL A   1      33.168  23.742  21.933  1.00  0.00    -0.082 Cl
BRANCH   8  14
ATOM     14  N   UNL A   1      31.252  22.933  24.469  1.00  0.00    -0.377 N 
ATOM     15  H   UNL A   1      30.435  22.395  24.358  1.00  0.00     0.161 HD
BRANCH  14  16
ATOM     16  C   UNL A   1      32.340  22.305  25.208  1.00  0.00     0.106 C 
ATOM     17  C   UNL A   1      32.107  22.656  26.692  1.00  0.00     0.036 C 
BRANCH  16  18
ATOM     18  C   UNL A   1      32.446  20.826  24.832  1.00  0.00    -0.023 A 
ATOM     19  C   UNL A   1      33.389  16.848  23.354  1.00  0.00     0.047 C 
ATOM     20  C   UNL A   1      33.022  18.194  23.893  1.00  0.00    -0.015 A 
ATOM     21  C   UNL A   1      33.202  18.532  25.236  1.00  0.00     0.007 A 
ATOM     22  C   UNL A   1      32.517  19.163  23.036  1.00  0.00     0.126 A 
ATOM     23  C   UNL A   1      32.927  19.832  25.696  1.00  0.00     0.006 A 
ATOM     24  C   UNL A   1      32.201  20.435  23.501  1.00  0.00     0.045 A 
ATOM     25  F   UNL A   1      32.350  18.887  21.735  1.00  0.00    -0.207 F 
ENDBRANCH  16  18
ENDBRANCH  14  16
ENDBRANCH   8  14
ENDBRANCH   4   7
ENDBRANCH   2   3
ENDBRANCH   1   2
BRANCH   1  26
ATOM     26  C   UNL A   1      33.419  28.076  25.925  1.00  0.00     0.023 C 
BRANCH  26  27
ATOM     27  C   UNL A   1      34.560  28.499  26.829  1.00  0.00     0.116 C 
BRANCH  27  28
ATOM     28  N   UNL A   1      34.275  29.782  27.465  1.00  0.00    -0.352 N 
ATOM     29  C   UNL A   1      35.061  30.434  28.375  1.00  0.00     0.251 C 
ATOM     30  H   UNL A   1      33.432  30.223  27.212  1.00  0.00     0.163 HD
ATOM     31  O   UNL A   1      34.647  31.419  28.992  1.00  0.00    -0.269 OA
BRANCH  29  32
ATOM     32  C   UNL A   1      36.441  29.982  28.479  1.00  0.00     0.039 A 
ATOM     33  C   UNL A   1      37.368  30.136  27.446  1.00  0.00     0.014 A 
ATOM     34  C   UNL A   1      36.779  29.432  29.713  1.00  0.00     0.014 A 
ATOM     35  C   UNL A   1      38.659  29.664  27.636  1.00  0.00     0.010 A 
ATOM     36  C   UNL A   1      38.079  29.129  29.953  1.00  0.00     0.010 A 
ATOM     37  C   UNL A   1      38.979  29.130  28.882  1.00  0.00    -0.014 A 
BRANCH  37  38
ATOM     38  C   UNL A   1      40.202  28.430  29.200  1.00  0.00     0.031 A 
ATOM     39  C   UNL A   1      40.346  27.015  28.841  1.00  0.00     0.074 A 
ATOM     40  C   UNL A   1      41.215  29.265  29.537  1.00  0.00     0.049 A 
ATOM     41  N   UNL A   1      41.314  26.282  29.253  1.00  0.00    -0.248 NA
ATOM     42  C   UNL A   1      39.401  26.289  27.989  1.00  0.00     0.031 C 
ATOM     43  C   UNL A   1      42.648  29.077  29.424  1.00  0.00     0.029 A 
ATOM     44  N   UNL A   1      41.122  30.557  30.082  1.00  0.00    -0.354 N 
ATOM     45  C   UNL A   1      41.338  25.165  28.446  1.00  0.00     0.074 A 
ATOM     46  C   UNL A   1      40.039  25.123  27.821  1.00  0.00     0.031 C 
ATOM     47  C   UNL A   1      43.261  30.032  30.152  1.00  0.00     0.029 A 
ATOM     48  C   UNL A   1      42.226  30.708  30.921  1.00  0.00     0.049 A 
ATOM     49  H   UNL A   1      40.418  31.223  29.907  1.00  0.00     0.167 HD
ATOM     50  C   UNL A   1      42.537  24.545  28.254  1.00  0.00     0.034 A 
ATOM     51  C   UNL A   1      42.090  30.665  32.288  1.00  0.00     0.034 A 
ATOM     52  C   UNL A   1      43.574  25.210  29.059  1.00  0.00     0.049 A 
ATOM     53  C   UNL A   1      42.767  29.440  32.895  1.00  0.00     0.074 A 
ATOM     54  C   UNL A   1      44.566  26.131  28.768  1.00  0.00     0.029 A 
ATOM     55  N   UNL A   1      43.424  25.242  30.435  1.00  0.00    -0.354 N 
ATOM     56  N   UNL A   1      43.316  28.489  32.188  1.00  0.00    -0.248 NA
ATOM     57  C   UNL A   1      42.816  29.145  34.326  1.00  0.00     0.031 C 
ATOM     58  C   UNL A   1      44.997  26.726  29.995  1.00  0.00     0.029 A 
ATOM     59  C   UNL A   1      44.282  26.152  31.032  1.00  0.00     0.049 A 
ATOM     60  H   UNL A   1      42.782  24.685  30.932  1.00  0.00     0.167 HD
ATOM     61  C   UNL A   1      43.709  27.457  32.991  1.00  0.00     0.074 A 
ATOM     62  C   UNL A   1      43.377  27.921  34.329  1.00  0.00     0.031 C 
ATOM     63  C   UNL A   1      44.234  26.298  32.487  1.00  0.00     0.034 A 
BRANCH  50  64
ATOM     64  C   UNL A   1      42.845  23.519  27.175  1.00  0.00     0.023 A 
ATOM     65  C   UNL A   1      42.464  22.158  27.211  1.00  0.00     0.031 A 
ATOM     66  C   UNL A   1      43.533  23.915  26.006  1.00  0.00     0.131 A 
ATOM     67  C   UNL A   1      42.711  21.289  26.126  1.00  0.00     0.055 A 
ATOM     68  C   UNL A   1      43.795  23.049  24.937  1.00  0.00     0.041 A 
ATOM     69  F   UNL A   1      43.962  25.173  25.833  1.00  0.00    -0.206 F 
ATOM     70  C   UNL A   1      43.374  21.730  24.987  1.00  0.00     0.022 A 
BRANCH  67  71
ATOM     71  S   UNL A   1      42.138  19.562  26.138  1.00  0.00     0.124 S 
ATOM     72  O   UNL A   1      40.715  19.706  25.833  1.00  0.00    -0.237 OA
ATOM     73  O   UNL A   1      42.940  18.954  25.080  1.00  0.00    -0.237 OA
ATOM     74  O   UNL A   1      42.430  19.101  27.492  1.00  0.00    -0.744 OA
ENDBRANCH  67  71
ENDBRANCH  50  64
BRANCH  51  75
ATOM     75  C   UNL A   1      40.789  31.252  32.757  1.00  0.00     0.023 A 
ATOM     76  C   UNL A   1      40.713  32.585  33.195  1.00  0.00     0.031 A 
ATOM     77  C   UNL A   1      39.789  30.354  33.197  1.00  0.00     0.131 A 
ATOM     78  C   UNL A   1      39.766  32.938  34.176  1.00  0.00     0.055 A 
ATOM     79  C   UNL A   1      38.889  30.698  34.209  1.00  0.00     0.041 A 
ATOM     80  F   UNL A   1      39.784  29.083  32.763  1.00  0.00    -0.206 F 
ATOM     81  C   UNL A   1      38.909  31.984  34.737  1.00  0.00     0.022 A 
BRANCH  78  82
ATOM     82  S   UNL A   1      39.728  34.635  34.827  1.00  0.00     0.124 S 
ATOM     83  O   UNL A   1      40.938  35.196  34.236  1.00  0.00    -0.237 OA
ATOM     84  O   UNL A   1      38.475  35.171  34.304  1.00  0.00    -0.237 OA
ATOM     85  O   UNL A   1      39.755  34.435  36.271  1.00  0.00    -0.744 OA
ENDBRANCH  78  82
ENDBRANCH  51  75
BRANCH  63  86
ATOM     86  C   UNL A   1      44.701  25.139  33.333  1.00  0.00     0.023 A 
ATOM     87  C   UNL A   1      46.085  24.897  33.493  1.00  0.00     0.031 A 
ATOM     88  C   UNL A   1      43.848  24.327  34.092  1.00  0.00     0.131 A 
ATOM     89  C   UNL A   1      46.568  23.853  34.284  1.00  0.00     0.055 A 
ATOM     90  C   UNL A   1      44.324  23.248  34.844  1.00  0.00     0.041 A 
ATOM     91  F   UNL A   1      42.535  24.590  34.182  1.00  0.00    -0.206 F 
ATOM     92  C   UNL A   1      45.690  22.997  34.934  1.00  0.00     0.022 A 
BRANCH  89  93
ATOM     93  S   UNL A   1      48.350  23.643  34.545  1.00  0.00     0.124 S 
ATOM     94  O   UNL A   1      48.536  24.276  35.850  1.00  0.00    -0.237 OA
ATOM     95  O   UNL A   1      48.485  22.190  34.531  1.00  0.00    -0.237 OA
ATOM     96  O   UNL A   1      48.958  24.341  33.419  1.00  0.00    -0.744 OA
ENDBRANCH  89  93
ENDBRANCH  63  86
ENDBRANCH  37  38
ENDBRANCH  29  32
ENDBRANCH  27  28
ENDBRANCH  26  27
ENDBRANCH   1  26
TORSDOF 17
ENDMDL
MODEL 2
REMARK VINA RESULT:     -12.7      1.865      2.358
REMARK SMILES Cc1ccc([C@H](C)Nc2ccc(C(=O)NCCCCNC(=O)c3ccc(-c4c5nc(c(-c6cc(S(=O)(=O)[O-])ccc6F)c6ccc([nH]6)c(-c6cc(S(=O)(=O)[O-])ccc6F)c6nc(c(-c7cc(S(=O)(=O)[O-])ccc7F)c7ccc4[nH]7)C=C6)C=C5)cc3)cc2Cl)cc1F
REMARK SMILES IDX 17 1 16 2 15 3 13 4 14 5 12 7 9 8 10 9 87 10 11 11 86 12
REMARK SMILES IDX 88 13 8 14 6 16 7 17 5 18 1 19 2 20 3 21 90 22 4 23 89 24
REMARK SMILES IDX 91 25 18 26 19 27 20 28 21 29 22 31 23 32 24 33 85 34 25 35
REMARK SMILES IDX 84 36 26 37 27 38 28 39 78 40 29 41 83 42 77 43 79 44 30 45
REMARK SMILES IDX 82 46 76 47 75 48 31 50 63 51 43 52 62 53 44 54 47 55 61 56
REMARK SMILES IDX 80 57 45 58 46 59 60 61 81 62 48 63 32 64 33 65 41 66 34 67
REMARK SMILES IDX 40 68 42 69 39 70 35 71 36 72 37 73 38 74 64 75 65 76 73 77
REMARK SMILES IDX 66 78 72 79 74 80 71 81 67 82 68 83 69 84 70 85 49 86 50 87
REMARK SMILES IDX 58 88 51 89 57 90 59 91 56 92 52 93 53 94 54 95 55 96
REMARK H PARENT 15 6 8 15 20 30 79 49 47 60
REMARK Flexibility Score: inf
ROOT
ATOM      1  C   UNL A   1      33.545  29.053  24.738  1.00  0.00     0.023 C 
ENDROOT
BRANCH   1   2
ATOM      2  C   UNL A   1      33.604  28.971  23.206  1.00  0.00     0.116 C 
BRANCH   2   3
ATOM      3  N   UNL A   1      32.314  29.321  22.642  1.00  0.00    -0.352 N 
ATOM      4  C   UNL A   1      31.150  28.613  22.479  1.00  0.00     0.251 C 
ATOM      5  O   UNL A   1      30.238  29.146  21.846  1.00  0.00    -0.269 OA
ATOM      6  H   UNL A   1      32.264  30.247  22.311  1.00  0.00     0.163 HD
BRANCH   4   7
ATOM      7  C   UNL A   1      30.910  27.263  23.074  1.00  0.00     0.041 A 
ATOM      8  C   UNL A   1      30.561  24.759  24.423  1.00  0.00     0.053 A 
ATOM      9  C   UNL A   1      29.941  25.942  24.870  1.00  0.00     0.028 A 
ATOM     10  C   UNL A   1      31.390  24.883  23.301  1.00  0.00     0.065 A 
ATOM     11  C   UNL A   1      30.140  27.178  24.235  1.00  0.00     0.016 A 
ATOM     12  C   UNL A   1      31.449  26.081  22.589  1.00  0.00     0.036 A 
ATOM     13  Cl  UNL A   1      32.423  23.655  22.647  1.00  0.00    -0.082 Cl
BRANCH   8  14
ATOM     14  N   UNL A   1      30.304  23.613  25.149  1.00  0.00    -0.377 N 
ATOM     15  H   UNL A   1      29.681  22.971  24.740  1.00  0.00     0.161 HD
BRANCH  14  16
ATOM     16  C   UNL A   1      30.848  23.242  26.450  1.00  0.00     0.106 C 
ATOM     17  C   UNL A   1      29.686  22.597  27.231  1.00  0.00     0.036 C 
BRANCH  16  18
ATOM     18  C   UNL A   1      32.129  22.425  26.270  1.00  0.00    -0.023 A 
ATOM     19  C   UNL A   1      35.809  20.456  25.051  1.00  0.00     0.047 C 
ATOM     20  C   UNL A   1      34.547  21.108  25.521  1.00  0.00    -0.015 A 
ATOM     21  C   UNL A   1      34.543  22.090  26.514  1.00  0.00     0.007 A 
ATOM     22  C   UNL A   1      33.336  20.763  24.937  1.00  0.00     0.126 A 
ATOM     23  C   UNL A   1      33.353  22.745  26.876  1.00  0.00     0.006 A 
ATOM     24  C   UNL A   1      32.152  21.378  25.327  1.00  0.00     0.045 A 
ATOM     25  F   UNL A   1      33.299  19.842  23.964  1.00  0.00    -0.207 F 
ENDBRANCH  16  18
ENDBRANCH  14  16
ENDBRANCH   8  14
ENDBRANCH   4   7
ENDBRANCH   2   3
ENDBRANCH   1   2
BRANCH   1  26
ATOM     26  C   UNL A   1      34.089  27.802  25.435  1.00  0.00     0.023 C 
BRANCH  26  27
ATOM     27  C   UNL A   1      34.462  28.075  26.877  1.00  0.00     0.116 C 
BRANCH  27  28
ATOM     28  N   UNL A   1      34.248  29.479  27.217  1.00  0.00    -0.352 N 
ATOM     29  C   UNL A   1      35.118  30.300  27.881  1.00  0.00     0.251 C 
ATOM     30  H   UNL A   1      33.390  29.875  26.939  1.00  0.00     0.163 HD
ATOM     31  O   UNL A   1      34.770  31.413  28.283  1.00  0.00    -0.269 OA
BRANCH  29  32
ATOM     32  C   UNL A   1      36.497  29.842  27.973  1.00  0.00     0.039 A 
ATOM     33  C   UNL A   1      37.378  29.870  26.890  1.00  0.00     0.014 A 
ATOM     34  C   UNL A   1      36.885  29.423  29.243  1.00  0.00     0.014 A 
ATOM     35  C   UNL A   1      38.672  29.403  27.074  1.00  0.00     0.010 A 
ATOM     36  C   UNL A   1      38.191  29.129  29.458  1.00  0.00     0.010 A 
ATOM     37  C   UNL A   1      39.042  29.002  28.354  1.00  0.00    -0.014 A 
BRANCH  37  38
ATOM     38  C   UNL A   1      40.271  28.322  28.693  1.00  0.00     0.031 A 
ATOM     39  C   UNL A   1      40.354  26.863  28.572  1.00  0.00     0.074 A 
ATOM     40  C   UNL A   1      41.327  29.166  28.802  1.00  0.00     0.049 A 
ATOM     41  N   UNL A   1      41.336  26.176  29.028  1.00  0.00    -0.248 NA
ATOM     42  C   UNL A   1      39.327  26.037  27.933  1.00  0.00     0.031 C 
ATOM     43  C   UNL A   1      42.741  28.910  28.613  1.00  0.00     0.029 A 
ATOM     44  N   UNL A   1      41.307  30.534  29.123  1.00  0.00    -0.354 N 
ATOM     45  C   UNL A   1      41.269  24.939  28.425  1.00  0.00     0.074 A 
ATOM     46  C   UNL A   1      39.923  24.837  27.919  1.00  0.00     0.031 C 
ATOM     47  C   UNL A   1      43.432  29.953  29.117  1.00  0.00     0.029 A 
ATOM     48  C   UNL A   1      42.480  30.785  29.836  1.00  0.00     0.049 A 
ATOM     49  H   UNL A   1      40.606  31.185  28.891  1.00  0.00     0.167 HD
ATOM     50  C   UNL A   1      42.434  24.252  28.251  1.00  0.00     0.034 A 
ATOM     51  C   UNL A   1      42.455  30.979  31.196  1.00  0.00     0.034 A 
ATOM     52  C   UNL A   1      43.548  25.007  28.847  1.00  0.00     0.049 A 
ATOM     53  C   UNL A   1      43.153  29.852  31.950  1.00  0.00     0.074 A 
ATOM     54  C   UNL A   1      44.534  25.829  28.326  1.00  0.00     0.029 A 
ATOM     55  N   UNL A   1      43.512  25.277  30.205  1.00  0.00    -0.354 N 
ATOM     56  N   UNL A   1      43.621  28.776  31.377  1.00  0.00    -0.248 NA
ATOM     57  C   UNL A   1      43.312  29.802  33.403  1.00  0.00     0.031 C 
ATOM     58  C   UNL A   1      45.076  26.607  29.396  1.00  0.00     0.029 A 
ATOM     59  C   UNL A   1      44.436  26.243  30.568  1.00  0.00     0.049 A 
ATOM     60  H   UNL A   1      42.902  24.835  30.838  1.00  0.00     0.167 HD
ATOM     61  C   UNL A   1      44.055  27.882  32.312  1.00  0.00     0.074 A 
ATOM     62  C   UNL A   1      43.845  28.577  33.573  1.00  0.00     0.031 C 
ATOM     63  C   UNL A   1      44.512  26.636  31.976  1.00  0.00     0.034 A 
BRANCH  50  64
ATOM     64  C   UNL A   1      42.630  23.048  27.344  1.00  0.00     0.023 A 
ATOM     65  C   UNL A   1      43.592  22.952  26.312  1.00  0.00     0.031 A 
ATOM     66  C   UNL A   1      41.839  21.892  27.531  1.00  0.00     0.131 A 
ATOM     67  C   UNL A   1      43.772  21.763  25.572  1.00  0.00     0.055 A 
ATOM     68  C   UNL A   1      42.004  20.719  26.785  1.00  0.00     0.041 A 
ATOM     69  F   UNL A   1      40.882  21.838  28.468  1.00  0.00    -0.206 F 
ATOM     70  C   UNL A   1      42.981  20.644  25.806  1.00  0.00     0.022 A 
BRANCH  67  71
ATOM     71  S   UNL A   1      45.072  21.613  24.308  1.00  0.00     0.124 S 
ATOM     72  O   UNL A   1      46.283  21.508  25.120  1.00  0.00    -0.237 OA
ATOM     73  O   UNL A   1      44.690  20.393  23.604  1.00  0.00    -0.237 OA
ATOM     74  O   UNL A   1      44.957  22.846  23.535  1.00  0.00    -0.744 OA
ENDBRANCH  67  71
ENDBRANCH  50  64
BRANCH  51  75
ATOM     75  C   UNL A   1      41.210  31.684  31.656  1.00  0.00     0.023 A 
ATOM     76  C   UNL A   1      40.248  31.018  32.433  1.00  0.00     0.031 A 
ATOM     77  C   UNL A   1      40.797  32.822  30.925  1.00  0.00     0.131 A 
ATOM     78  C   UNL A   1      38.894  31.392  32.327  1.00  0.00     0.055 A 
ATOM     79  C   UNL A   1      39.446  33.151  30.783  1.00  0.00     0.041 A 
ATOM     80  F   UNL A   1      41.690  33.527  30.211  1.00  0.00    -0.206 F 
ATOM     81  C   UNL A   1      38.484  32.402  31.449  1.00  0.00     0.022 A 
BRANCH  78  82
ATOM     82  S   UNL A   1      37.627  30.469  33.248  1.00  0.00     0.124 S 
ATOM     83  O   UNL A   1      38.169  29.115  33.205  1.00  0.00    -0.237 OA
ATOM     84  O   UNL A   1      37.636  31.100  34.564  1.00  0.00    -0.237 OA
ATOM     85  O   UNL A   1      36.418  30.698  32.465  1.00  0.00    -0.744 OA
ENDBRANCH  78  82
ENDBRANCH  51  75
BRANCH  63  86
ATOM     86  C   UNL A   1      45.021  25.620  32.970  1.00  0.00     0.023 A 
ATOM     87  C   UNL A   1      46.412  25.405  33.107  1.00  0.00     0.031 A 
ATOM     88  C   UNL A   1      44.206  24.936  33.880  1.00  0.00     0.131 A 
ATOM     89  C   UNL A   1      46.934  24.496  34.028  1.00  0.00     0.055 A 
ATOM     90  C   UNL A   1      44.719  23.985  34.769  1.00  0.00     0.041 A 
ATOM     91  F   UNL A   1      42.896  25.210  33.985  1.00  0.00    -0.206 F 
ATOM     92  C   UNL A   1      46.089  23.751  34.838  1.00  0.00     0.022 A 
BRANCH  89  93
ATOM     93  S   UNL A   1      48.727  24.328  34.242  1.00  0.00     0.124 S 
ATOM     94  O   UNL A   1      48.897  22.877  34.188  1.00  0.00    -0.237 OA
ATOM     95  O   UNL A   1      49.237  25.061  33.088  1.00  0.00    -0.237 OA
ATOM     96  O   UNL A   1      48.987  24.940  35.539  1.00  0.00    -0.744 OA
ENDBRANCH  89  93
ENDBRANCH  63  86
ENDBRANCH  37  38
ENDBRANCH  29  32
ENDBRANCH  27  28
ENDBRANCH  26  27
ENDBRANCH   1  26
TORSDOF 17
ENDMDL
MODEL 3
REMARK VINA RESULT:     -12.2      1.895      2.444
REMARK SMILES Cc1ccc([C@H](C)Nc2ccc(C(=O)NCCCCNC(=O)c3ccc(-c4c5nc(c(-c6cc(S(=O)(=O)[O-])ccc6F)c6ccc([nH]6)c(-c6cc(S(=O)(=O)[O-])ccc6F)c6nc(c(-c7cc(S(=O)(=O)[O-])ccc7F)c7ccc4[nH]7)C=C6)C=C5)cc3)cc2Cl)cc1F
REMARK SMILES IDX 17 1 16 2 15 3 13 4 14 5 12 7 9 8 10 9 87 10 11 11 86 12
REMARK SMILES IDX 88 13 8 14 6 16 7 17 5 18 1 19 2 20 3 21 90 22 4 23 89 24
REMARK SMILES IDX 91 25 18 26 19 27 20 28 21 29 22 31 23 32 24 33 85 34 25 35
REMARK SMILES IDX 84 36 26 37 27 38 28 39 78 40 29 41 83 42 77 43 79 44 30 45
REMARK SMILES IDX 82 46 76 47 75 48 31 50 63 51 43 52 62 53 44 54 47 55 61 56
REMARK SMILES IDX 80 57 45 58 46 59 60 61 81 62 48 63 32 64 33 65 41 66 34 67
REMARK SMILES IDX 40 68 42 69 39 70 35 71 36 72 37 73 38 74 64 75 65 76 73 77
REMARK SMILES IDX 66 78 72 79 74 80 71 81 67 82 68 83 69 84 70 85 49 86 50 87
REMARK SMILES IDX 58 88 51 89 57 90 59 91 56 92 52 93 53 94 54 95 55 96
REMARK H PARENT 15 6 8 15 20 30 79 49 47 60
REMARK Flexibility Score: inf
ROOT
ATOM      1  C   UNL A   1      32.140  29.364  26.788  1.00  0.00     0.023 C 
ENDROOT
BRANCH   1   2
ATOM      2  C   UNL A   1      32.286  29.900  25.356  1.00  0.00     0.116 C 
BRANCH   2   3
ATOM      3  N   UNL A   1      30.979  30.021  24.738  1.00  0.00    -0.352 N 
ATOM      4  C   UNL A   1      30.305  29.239  23.834  1.00  0.00     0.251 C 
ATOM      5  O   UNL A   1      29.239  29.666  23.390  1.00  0.00    -0.269 OA
ATOM      6  H   UNL A   1      30.479  30.820  25.022  1.00  0.00     0.163 HD
BRANCH   4   7
ATOM      7  C   UNL A   1      30.764  27.883  23.405  1.00  0.00     0.041 A 
ATOM      8  C   UNL A   1      31.616  25.210  22.822  1.00  0.00     0.053 A 
ATOM      9  C   UNL A   1      30.315  25.497  23.283  1.00  0.00     0.028 A 
ATOM     10  C   UNL A   1      32.482  26.302  22.701  1.00  0.00     0.065 A 
ATOM     11  C   UNL A   1      29.906  26.800  23.607  1.00  0.00     0.016 A 
ATOM     12  C   UNL A   1      32.014  27.605  22.871  1.00  0.00     0.036 A 
ATOM     13  Cl  UNL A   1      34.178  26.235  22.347  1.00  0.00    -0.082 Cl
BRANCH   8  14
ATOM     14  N   UNL A   1      31.901  23.884  22.563  1.00  0.00    -0.377 N 
ATOM     15  H   UNL A   1      31.980  23.635  21.614  1.00  0.00     0.161 HD
BRANCH  14  16
ATOM     16  C   UNL A   1      32.101  22.810  23.529  1.00  0.00     0.106 C 
ATOM     17  C   UNL A   1      31.793  21.499  22.778  1.00  0.00     0.036 C 
BRANCH  16  18
ATOM     18  C   UNL A   1      33.472  22.949  24.193  1.00  0.00    -0.023 A 
ATOM     19  C   UNL A   1      37.439  23.992  25.633  1.00  0.00     0.047 C 
ATOM     20  C   UNL A   1      36.073  23.589  25.175  1.00  0.00    -0.015 A 
ATOM     21  C   UNL A   1      34.946  23.725  25.988  1.00  0.00     0.007 A 
ATOM     22  C   UNL A   1      35.897  23.097  23.889  1.00  0.00     0.126 A 
ATOM     23  C   UNL A   1      33.664  23.418  25.501  1.00  0.00     0.006 A 
ATOM     24  C   UNL A   1      34.634  22.749  23.422  1.00  0.00     0.045 A 
ATOM     25  F   UNL A   1      36.950  22.973  23.067  1.00  0.00    -0.207 F 
ENDBRANCH  16  18
ENDBRANCH  14  16
ENDBRANCH   8  14
ENDBRANCH   4   7
ENDBRANCH   2   3
ENDBRANCH   1   2
BRANCH   1  26
ATOM     26  C   UNL A   1      33.208  28.333  27.163  1.00  0.00     0.023 C 
BRANCH  26  27
ATOM     27  C   UNL A   1      34.551  28.980  27.429  1.00  0.00     0.116 C 
BRANCH  27  28
ATOM     28  N   UNL A   1      34.388  30.270  28.093  1.00  0.00    -0.352 N 
ATOM     29  C   UNL A   1      35.304  30.897  28.894  1.00  0.00     0.251 C 
ATOM     30  H   UNL A   1      33.533  30.735  27.951  1.00  0.00     0.163 HD
ATOM     31  O   UNL A   1      35.001  31.892  29.557  1.00  0.00    -0.269 OA
BRANCH  29  32
ATOM     32  C   UNL A   1      36.672  30.405  28.821  1.00  0.00     0.039 A 
ATOM     33  C   UNL A   1      37.388  30.335  27.623  1.00  0.00     0.014 A 
ATOM     34  C   UNL A   1      37.230  30.059  30.048  1.00  0.00     0.014 A 
ATOM     35  C   UNL A   1      38.685  29.842  27.654  1.00  0.00     0.010 A 
ATOM     36  C   UNL A   1      38.548  29.741  30.095  1.00  0.00     0.010 A 
ATOM     37  C   UNL A   1      39.228  29.516  28.894  1.00  0.00    -0.014 A 
BRANCH  37  38
ATOM     38  C   UNL A   1      40.479  28.824  29.100  1.00  0.00     0.031 A 
ATOM     39  C   UNL A   1      40.566  27.383  28.838  1.00  0.00     0.074 A 
ATOM     40  C   UNL A   1      41.532  29.667  29.233  1.00  0.00     0.049 A 
ATOM     41  N   UNL A   1      41.577  26.670  29.174  1.00  0.00    -0.248 NA
ATOM     42  C   UNL A   1      39.513  26.608  28.180  1.00  0.00     0.031 C 
ATOM     43  C   UNL A   1      42.937  29.448  28.945  1.00  0.00     0.029 A 
ATOM     44  N   UNL A   1      41.519  30.998  29.681  1.00  0.00    -0.354 N 
ATOM     45  C   UNL A   1      41.488  25.493  28.461  1.00  0.00     0.074 A 
ATOM     46  C   UNL A   1      40.117  25.422  28.020  1.00  0.00     0.031 C 
ATOM     47  C   UNL A   1      43.646  30.448  29.507  1.00  0.00     0.029 A 
ATOM     48  C   UNL A   1      42.727  31.197  30.351  1.00  0.00     0.049 A 
ATOM     49  H   UNL A   1      40.802  31.659  29.550  1.00  0.00     0.167 HD
ATOM     50  C   UNL A   1      42.647  24.841  28.161  1.00  0.00     0.034 A 
ATOM     51  C   UNL A   1      42.774  31.262  31.723  1.00  0.00     0.034 A 
ATOM     52  C   UNL A   1      43.786  25.551  28.766  1.00  0.00     0.049 A 
ATOM     53  C   UNL A   1      43.521  30.078  32.329  1.00  0.00     0.074 A 
ATOM     54  C   UNL A   1      44.735  26.431  28.274  1.00  0.00     0.029 A 
ATOM     55  N   UNL A   1      43.822  25.692  30.143  1.00  0.00    -0.354 N 
ATOM     56  N   UNL A   1      43.966  29.067  31.633  1.00  0.00    -0.248 NA
ATOM     57  C   UNL A   1      43.759  29.894  33.760  1.00  0.00     0.031 C 
ATOM     58  C   UNL A   1      45.329  27.112  29.382  1.00  0.00     0.029 A 
ATOM     59  C   UNL A   1      44.756  26.632  30.547  1.00  0.00     0.049 A 
ATOM     60  H   UNL A   1      43.249  25.185  30.763  1.00  0.00     0.167 HD
ATOM     61  C   UNL A   1      44.457  28.094  32.455  1.00  0.00     0.074 A 
ATOM     62  C   UNL A   1      44.310  28.665  33.785  1.00  0.00     0.031 C 
ATOM     63  C   UNL A   1      44.905  26.891  31.979  1.00  0.00     0.034 A 
BRANCH  50  64
ATOM     64  C   UNL A   1      42.803  23.730  27.136  1.00  0.00     0.023 A 
ATOM     65  C   UNL A   1      42.328  22.407  27.288  1.00  0.00     0.031 A 
ATOM     66  C   UNL A   1      43.433  24.000  25.899  1.00  0.00     0.131 A 
ATOM     67  C   UNL A   1      42.434  21.456  26.250  1.00  0.00     0.055 A 
ATOM     68  C   UNL A   1      43.554  23.052  24.876  1.00  0.00     0.041 A 
ATOM     69  F   UNL A   1      43.937  25.208  25.615  1.00  0.00    -0.206 F 
ATOM     70  C   UNL A   1      43.045  21.775  25.042  1.00  0.00     0.022 A 
BRANCH  67  71
ATOM     71  S   UNL A   1      41.740  19.782  26.414  1.00  0.00     0.124 S 
ATOM     72  O   UNL A   1      42.355  19.080  25.289  1.00  0.00    -0.237 OA
ATOM     73  O   UNL A   1      42.212  19.372  27.734  1.00  0.00    -0.237 OA
ATOM     74  O   UNL A   1      40.299  19.984  26.298  1.00  0.00    -0.744 OA
ENDBRANCH  67  71
ENDBRANCH  50  64
BRANCH  51  75
ATOM     75  C   UNL A   1      41.551  31.904  32.313  1.00  0.00     0.023 A 
ATOM     76  C   UNL A   1      40.607  31.144  33.024  1.00  0.00     0.031 A 
ATOM     77  C   UNL A   1      41.125  33.132  31.756  1.00  0.00     0.131 A 
ATOM     78  C   UNL A   1      39.254  31.535  33.012  1.00  0.00     0.055 A 
ATOM     79  C   UNL A   1      39.774  33.484  31.703  1.00  0.00     0.041 A 
ATOM     80  F   UNL A   1      42.002  33.923  31.115  1.00  0.00    -0.206 F 
ATOM     81  C   UNL A   1      38.826  32.656  32.292  1.00  0.00     0.022 A 
BRANCH  78  82
ATOM     82  S   UNL A   1      38.007  30.503  33.840  1.00  0.00     0.124 S 
ATOM     83  O   UNL A   1      38.234  30.846  35.240  1.00  0.00    -0.237 OA
ATOM     84  O   UNL A   1      36.746  30.978  33.281  1.00  0.00    -0.237 OA
ATOM     85  O   UNL A   1      38.383  29.151  33.445  1.00  0.00    -0.744 OA
ENDBRANCH  78  82
ENDBRANCH  51  75
BRANCH  63  86
ATOM     86  C   UNL A   1      45.476  25.794  32.844  1.00  0.00     0.023 A 
ATOM     87  C   UNL A   1      46.876  25.620  32.928  1.00  0.00     0.031 A 
ATOM     88  C   UNL A   1      44.708  24.982  33.689  1.00  0.00     0.131 A 
ATOM     89  C   UNL A   1      47.454  24.637  33.733  1.00  0.00     0.055 A 
ATOM     90  C   UNL A   1      45.278  23.960  34.457  1.00  0.00     0.041 A 
ATOM     91  F   UNL A   1      43.392  25.191  33.850  1.00  0.00    -0.206 F 
ATOM     92  C   UNL A   1      46.657  23.774  34.472  1.00  0.00     0.022 A 
BRANCH  89  93
ATOM     93  S   UNL A   1      49.256  24.517  33.891  1.00  0.00     0.124 S 
ATOM     94  O   UNL A   1      49.556  25.661  34.750  1.00  0.00    -0.237 OA
ATOM     95  O   UNL A   1      49.415  23.207  34.514  1.00  0.00    -0.237 OA
ATOM     96  O   UNL A   1      49.740  24.622  32.520  1.00  0.00    -0.744 OA
ENDBRANCH  89  93
ENDBRANCH  63  86
ENDBRANCH  37  38
ENDBRANCH  29  32
ENDBRANCH  27  28
ENDBRANCH  26  27
ENDBRANCH   1  26
TORSDOF 17
ENDMDL
