MODEL 1
REMARK VINA RESULT:     -12.4      0.000      0.000
REMARK SMILES O=C(NCCCCNC(=O)[C@H](NC(=O)c1ccc(Br)nc1)c1ccccc1)c1ccc(-c2c3nc(c(-c4cc(S(=O)(=O)[O-])ccc4F)c4ccc([nH]4)c(-c4cc(S(=O)(=O)[O-])ccc4F)c4nc(c(-c5cc(S(=O)(=O)[O-])ccc5F)c5ccc2[nH]5)C=C4)C=C3)cc1
REMARK SMILES IDX 5 1 4 2 3 3 1 4 2 5 28 7 29 8 90 9 30 10 89 11 31 12 32 13
REMARK SMILES IDX 33 14 83 15 34 16 88 17 82 18 84 19 35 20 87 21 81 22 80 23
REMARK SMILES IDX 36 25 68 26 48 27 67 28 49 29 52 30 66 31 85 32 50 33 51 34
REMARK SMILES IDX 65 36 86 37 53 38 37 39 38 40 46 41 39 42 45 43 47 44 44 45
REMARK SMILES IDX 40 46 41 47 42 48 43 49 69 50 70 51 78 52 71 53 77 54 79 55
REMARK SMILES IDX 76 56 72 57 73 58 74 59 75 60 54 61 55 62 63 63 56 64 62 65
REMARK SMILES IDX 64 66 61 67 57 68 58 69 59 70 60 71 6 72 7 73 8 74 9 75
REMARK SMILES IDX 10 77 11 78 22 79 23 80 27 81 24 82 26 83 25 84 12 85 13 86
REMARK SMILES IDX 14 88 15 89 16 90 21 91 17 92 20 93 18 94 19 95
REMARK H PARENT 3 6 84 24 52 35 8 76 12 87
REMARK Flexibility Score: inf
ROOT
ATOM      1  C   UNL A   1      31.654  31.551  27.063  1.00  0.00     0.023 C 
ENDROOT
BRANCH   1   2
ATOM      2  C   UNL A   1      32.880  32.457  27.076  1.00  0.00     0.116 C 
BRANCH   2   3
ATOM      3  N   UNL A   1      32.584  33.802  27.542  1.00  0.00    -0.352 N 
ATOM      4  O   UNL A   1      32.715  35.567  28.942  1.00  0.00    -0.269 OA
ATOM      5  C   UNL A   1      33.172  34.488  28.578  1.00  0.00     0.251 C 
ATOM      6  H   UNL A   1      31.875  34.281  27.056  1.00  0.00     0.163 HD
BRANCH   5   7
ATOM      7  C   UNL A   1      34.345  33.902  29.261  1.00  0.00     0.039 A 
ATOM      8  C   UNL A   1      34.178  32.892  30.213  1.00  0.00     0.014 A 
ATOM      9  C   UNL A   1      35.624  34.367  28.943  1.00  0.00     0.014 A 
ATOM     10  C   UNL A   1      35.278  32.416  30.917  1.00  0.00     0.010 A 
ATOM     11  C   UNL A   1      36.737  33.838  29.602  1.00  0.00     0.010 A 
ATOM     12  C   UNL A   1      36.571  32.865  30.601  1.00  0.00    -0.014 A 
BRANCH  12  13
ATOM     13  C   UNL A   1      37.741  32.217  31.244  1.00  0.00     0.031 A 
ATOM     14  C   UNL A   1      38.480  31.095  30.575  1.00  0.00     0.074 A 
ATOM     15  C   UNL A   1      38.124  32.666  32.457  1.00  0.00     0.049 A 
ATOM     16  N   UNL A   1      39.509  30.416  31.012  1.00  0.00    -0.248 NA
ATOM     17  C   UNL A   1      38.003  30.675  29.248  1.00  0.00     0.031 C 
ATOM     18  C   UNL A   1      37.462  33.745  33.199  1.00  0.00     0.029 A 
ATOM     19  N   UNL A   1      39.152  32.284  33.278  1.00  0.00    -0.354 N 
ATOM     20  C   UNL A   1      39.796  29.477  30.028  1.00  0.00     0.074 A 
ATOM     21  C   UNL A   1      38.819  29.664  28.975  1.00  0.00     0.031 C 
ATOM     22  C   UNL A   1      38.115  33.951  34.352  1.00  0.00     0.029 A 
ATOM     23  C   UNL A   1      39.195  32.981  34.465  1.00  0.00     0.049 A 
ATOM     24  H   UNL A   1      39.798  31.581  33.042  1.00  0.00     0.167 HD
ATOM     25  C   UNL A   1      40.783  28.548  30.013  1.00  0.00     0.034 A 
ATOM     26  C   UNL A   1      39.990  32.830  35.542  1.00  0.00     0.034 A 
ATOM     27  C   UNL A   1      41.753  28.387  31.071  1.00  0.00     0.049 A 
ATOM     28  C   UNL A   1      41.049  31.762  35.508  1.00  0.00     0.074 A 
ATOM     29  C   UNL A   1      42.842  27.533  31.117  1.00  0.00     0.029 A 
ATOM     30  N   UNL A   1      41.741  29.078  32.276  1.00  0.00    -0.354 N 
ATOM     31  N   UNL A   1      41.340  30.922  34.541  1.00  0.00    -0.248 NA
ATOM     32  C   UNL A   1      41.883  31.620  36.706  1.00  0.00     0.031 C 
ATOM     33  C   UNL A   1      43.444  27.656  32.375  1.00  0.00     0.029 A 
ATOM     34  C   UNL A   1      42.773  28.636  33.089  1.00  0.00     0.049 A 
ATOM     35  H   UNL A   1      41.094  29.781  32.516  1.00  0.00     0.167 HD
ATOM     36  C   UNL A   1      42.399  30.156  35.016  1.00  0.00     0.074 A 
ATOM     37  C   UNL A   1      42.714  30.657  36.338  1.00  0.00     0.031 C 
ATOM     38  C   UNL A   1      43.051  29.128  34.416  1.00  0.00     0.034 A 
BRANCH  25  39
ATOM     39  C   UNL A   1      40.846  27.598  28.843  1.00  0.00     0.023 A 
ATOM     40  C   UNL A   1      41.794  27.739  27.817  1.00  0.00     0.031 A 
ATOM     41  C   UNL A   1      39.962  26.504  28.782  1.00  0.00     0.131 A 
ATOM     42  C   UNL A   1      41.815  26.821  26.754  1.00  0.00     0.055 A 
ATOM     43  C   UNL A   1      40.024  25.564  27.752  1.00  0.00     0.041 A 
ATOM     44  F   UNL A   1      39.025  26.331  29.726  1.00  0.00    -0.206 F 
ATOM     45  C   UNL A   1      40.951  25.723  26.726  1.00  0.00     0.022 A 
BRANCH  42  46
ATOM     46  S   UNL A   1      42.938  27.124  25.361  1.00  0.00     0.124 S 
ATOM     47  O   UNL A   1      44.180  27.460  26.051  1.00  0.00    -0.237 OA
ATOM     48  O   UNL A   1      42.924  25.845  24.660  1.00  0.00    -0.237 OA
ATOM     49  O   UNL A   1      42.308  28.233  24.648  1.00  0.00    -0.744 OA
ENDBRANCH  42  46
ENDBRANCH  25  39
BRANCH  26  50
ATOM     50  C   UNL A   1      39.777  33.663  36.759  1.00  0.00     0.023 A 
ATOM     51  C   UNL A   1      40.602  34.762  37.040  1.00  0.00     0.031 A 
ATOM     52  C   UNL A   1      38.770  33.338  37.687  1.00  0.00     0.131 A 
ATOM     53  C   UNL A   1      40.437  35.468  38.242  1.00  0.00     0.055 A 
ATOM     54  C   UNL A   1      38.572  34.080  38.851  1.00  0.00     0.041 A 
ATOM     55  F   UNL A   1      37.953  32.296  37.466  1.00  0.00    -0.206 F 
ATOM     56  C   UNL A   1      39.420  35.142  39.143  1.00  0.00     0.022 A 
BRANCH  53  57
ATOM     57  S   UNL A   1      41.644  36.754  38.663  1.00  0.00     0.124 S 
ATOM     58  O   UNL A   1      42.482  36.070  39.641  1.00  0.00    -0.237 OA
ATOM     59  O   UNL A   1      42.259  37.024  37.368  1.00  0.00    -0.237 OA
ATOM     60  O   UNL A   1      40.817  37.835  39.196  1.00  0.00    -0.744 OA
ENDBRANCH  53  57
ENDBRANCH  26  50
BRANCH  38  61
ATOM     61  C   UNL A   1      44.174  28.498  35.199  1.00  0.00     0.023 A 
ATOM     62  C   UNL A   1      43.931  27.466  36.122  1.00  0.00     0.031 A 
ATOM     63  C   UNL A   1      45.493  28.957  35.048  1.00  0.00     0.131 A 
ATOM     64  C   UNL A   1      44.983  26.966  36.902  1.00  0.00     0.055 A 
ATOM     65  C   UNL A   1      46.547  28.415  35.785  1.00  0.00     0.041 A 
ATOM     66  F   UNL A   1      45.778  29.944  34.183  1.00  0.00    -0.206 F 
ATOM     67  C   UNL A   1      46.292  27.423  36.729  1.00  0.00     0.022 A 
BRANCH  64  68
ATOM     68  S   UNL A   1      44.603  25.770  38.211  1.00  0.00     0.124 S 
ATOM     69  O   UNL A   1      43.584  26.478  38.980  1.00  0.00    -0.237 OA
ATOM     70  O   UNL A   1      44.140  24.612  37.454  1.00  0.00    -0.237 OA
ATOM     71  O   UNL A   1      45.882  25.591  38.895  1.00  0.00    -0.744 OA
ENDBRANCH  64  68
ENDBRANCH  38  61
ENDBRANCH  12  13
ENDBRANCH   5   7
ENDBRANCH   2   3
ENDBRANCH   1   2
BRANCH   1  72
ATOM     72  C   UNL A   1      31.429  30.783  25.759  1.00  0.00     0.023 C 
BRANCH  72  73
ATOM     73  C   UNL A   1      32.279  29.524  25.608  1.00  0.00     0.116 C 
BRANCH  73  74
ATOM     74  N   UNL A   1      33.182  29.615  24.473  1.00  0.00    -0.354 N 
ATOM     75  C   UNL A   1      33.180  28.892  23.307  1.00  0.00     0.247 C 
ATOM     76  H   UNL A   1      33.894  30.290  24.551  1.00  0.00     0.163 HD
ATOM     77  O   UNL A   1      34.130  29.032  22.536  1.00  0.00    -0.272 OA
BRANCH  75  78
ATOM     78  C   UNL A   1      32.024  27.897  23.056  1.00  0.00     0.202 C 
BRANCH  78  79
ATOM     79  C   UNL A   1      30.680  28.574  22.813  1.00  0.00    -0.016 A 
ATOM     80  C   UNL A   1      29.515  27.971  23.320  1.00  0.00     0.006 A 
ATOM     81  C   UNL A   1      30.547  29.739  22.041  1.00  0.00     0.006 A 
ATOM     82  C   UNL A   1      28.254  28.489  23.019  1.00  0.00     0.000 A 
ATOM     83  C   UNL A   1      29.284  30.250  21.734  1.00  0.00     0.000 A 
ATOM     84  C   UNL A   1      28.140  29.621  22.215  1.00  0.00     0.000 A 
ENDBRANCH  78  79
BRANCH  78  85
ATOM     85  N   UNL A   1      32.414  27.005  21.961  1.00  0.00    -0.336 N 
ATOM     86  C   UNL A   1      32.951  25.748  22.002  1.00  0.00     0.253 C 
ATOM     87  H   UNL A   1      32.265  27.366  21.057  1.00  0.00     0.165 HD
ATOM     88  O   UNL A   1      33.341  25.212  20.969  1.00  0.00    -0.269 OA
BRANCH  86  89
ATOM     89  C   UNL A   1      33.128  25.039  23.282  1.00  0.00     0.058 A 
ATOM     90  C   UNL A   1      34.275  25.133  24.070  1.00  0.00     0.018 A 
ATOM     91  C   UNL A   1      32.078  24.264  23.756  1.00  0.00     0.126 A 
ATOM     92  C   UNL A   1      34.358  24.396  25.251  1.00  0.00     0.037 A 
ATOM     93  N   UNL A   1      32.132  23.540  24.901  1.00  0.00    -0.249 NA
ATOM     94  C   UNL A   1      33.273  23.615  25.620  1.00  0.00     0.106 A 
ATOM     95  Br  UNL A   1      33.380  22.603  27.220  1.00  0.00    -0.029 Br
ENDBRANCH  86  89
ENDBRANCH  78  85
ENDBRANCH  75  78
ENDBRANCH  73  74
ENDBRANCH  72  73
ENDBRANCH   1  72
TORSDOF 17
ENDMDL
MODEL 2
REMARK VINA RESULT:     -12.2      5.903     11.546
REMARK SMILES O=C(NCCCCNC(=O)[C@H](NC(=O)c1ccc(Br)nc1)c1ccccc1)c1ccc(-c2c3nc(c(-c4cc(S(=O)(=O)[O-])ccc4F)c4ccc([nH]4)c(-c4cc(S(=O)(=O)[O-])ccc4F)c4nc(c(-c5cc(S(=O)(=O)[O-])ccc5F)c5ccc2[nH]5)C=C4)C=C3)cc1
REMARK SMILES IDX 5 1 4 2 3 3 1 4 2 5 28 7 29 8 90 9 30 10 89 11 31 12 32 13
REMARK SMILES IDX 33 14 83 15 34 16 88 17 82 18 84 19 35 20 87 21 81 22 80 23
REMARK SMILES IDX 36 25 68 26 48 27 67 28 49 29 52 30 66 31 85 32 50 33 51 34
REMARK SMILES IDX 65 36 86 37 53 38 37 39 38 40 46 41 39 42 45 43 47 44 44 45
REMARK SMILES IDX 40 46 41 47 42 48 43 49 69 50 70 51 78 52 71 53 77 54 79 55
REMARK SMILES IDX 76 56 72 57 73 58 74 59 75 60 54 61 55 62 63 63 56 64 62 65
REMARK SMILES IDX 64 66 61 67 57 68 58 69 59 70 60 71 6 72 7 73 8 74 9 75
REMARK SMILES IDX 10 77 11 78 22 79 23 80 27 81 24 82 26 83 25 84 12 85 13 86
REMARK SMILES IDX 14 88 15 89 16 90 21 91 17 92 20 93 18 94 19 95
REMARK H PARENT 3 6 84 24 52 35 8 76 12 87
REMARK Flexibility Score: inf
ROOT
ATOM      1  C   UNL A   1      38.097  20.146  24.645  1.00  0.00     0.023 C 
ENDROOT
BRANCH   1   2
ATOM      2  C   UNL A   1      39.031  20.343  25.833  1.00  0.00     0.116 C 
BRANCH   2   3
ATOM      3  N   UNL A   1      40.061  19.321  25.917  1.00  0.00    -0.352 N 
ATOM      4  O   UNL A   1      42.175  18.537  26.020  1.00  0.00    -0.269 OA
ATOM      5  C   UNL A   1      41.411  19.493  26.115  1.00  0.00     0.251 C 
ATOM      6  H   UNL A   1      39.756  18.390  25.820  1.00  0.00     0.163 HD
BRANCH   5   7
ATOM      7  C   UNL A   1      41.932  20.842  26.421  1.00  0.00     0.039 A 
ATOM      8  C   UNL A   1      42.143  21.768  25.395  1.00  0.00     0.014 A 
ATOM      9  C   UNL A   1      42.209  21.183  27.747  1.00  0.00     0.014 A 
ATOM     10  C   UNL A   1      42.721  22.999  25.683  1.00  0.00     0.010 A 
ATOM     11  C   UNL A   1      42.727  22.447  28.043  1.00  0.00     0.010 A 
ATOM     12  C   UNL A   1      42.996  23.361  27.012  1.00  0.00    -0.014 A 
BRANCH  12  13
ATOM     13  C   UNL A   1      43.451  24.742  27.309  1.00  0.00     0.031 A 
ATOM     14  C   UNL A   1      42.504  25.782  27.836  1.00  0.00     0.074 A 
ATOM     15  C   UNL A   1      44.747  25.041  27.088  1.00  0.00     0.049 A 
ATOM     16  N   UNL A   1      42.743  27.034  28.129  1.00  0.00    -0.248 NA
ATOM     17  C   UNL A   1      41.110  25.368  28.059  1.00  0.00     0.031 C 
ATOM     18  C   UNL A   1      45.746  24.103  26.563  1.00  0.00     0.029 A 
ATOM     19  N   UNL A   1      45.451  26.202  27.274  1.00  0.00    -0.354 N 
ATOM     20  C   UNL A   1      41.531  27.567  28.554  1.00  0.00     0.074 A 
ATOM     21  C   UNL A   1      40.553  26.502  28.465  1.00  0.00     0.031 C 
ATOM     22  C   UNL A   1      46.934  24.720  26.492  1.00  0.00     0.029 A 
ATOM     23  C   UNL A   1      46.772  26.109  26.898  1.00  0.00     0.049 A 
ATOM     24  H   UNL A   1      45.050  27.022  27.641  1.00  0.00     0.167 HD
ATOM     25  C   UNL A   1      41.268  28.828  28.975  1.00  0.00     0.034 A 
ATOM     26  C   UNL A   1      47.737  27.047  26.850  1.00  0.00     0.034 A 
ATOM     27  C   UNL A   1      42.264  29.870  29.065  1.00  0.00     0.049 A 
ATOM     28  C   UNL A   1      47.401  28.446  27.287  1.00  0.00     0.074 A 
ATOM     29  C   UNL A   1      42.120  31.157  29.557  1.00  0.00     0.029 A 
ATOM     30  N   UNL A   1      43.580  29.756  28.637  1.00  0.00    -0.354 N 
ATOM     31  N   UNL A   1      46.260  28.915  27.741  1.00  0.00    -0.248 NA
ATOM     32  C   UNL A   1      48.475  29.442  27.204  1.00  0.00     0.031 C 
ATOM     33  C   UNL A   1      43.326  31.840  29.360  1.00  0.00     0.029 A 
ATOM     34  C   UNL A   1      44.244  30.960  28.809  1.00  0.00     0.049 A 
ATOM     35  H   UNL A   1      43.983  28.936  28.267  1.00  0.00     0.167 HD
ATOM     36  C   UNL A   1      46.486  30.262  28.005  1.00  0.00     0.074 A 
ATOM     37  C   UNL A   1      47.877  30.519  27.691  1.00  0.00     0.031 C 
ATOM     38  C   UNL A   1      45.623  31.203  28.461  1.00  0.00     0.034 A 
BRANCH  25  39
ATOM     39  C   UNL A   1      39.845  29.175  29.331  1.00  0.00     0.023 A 
ATOM     40  C   UNL A   1      39.418  29.307  30.662  1.00  0.00     0.031 A 
ATOM     41  C   UNL A   1      38.908  29.419  28.308  1.00  0.00     0.131 A 
ATOM     42  C   UNL A   1      38.081  29.640  30.937  1.00  0.00     0.055 A 
ATOM     43  C   UNL A   1      37.596  29.805  28.587  1.00  0.00     0.041 A 
ATOM     44  F   UNL A   1      39.257  29.291  27.019  1.00  0.00    -0.206 F 
ATOM     45  C   UNL A   1      37.174  29.911  29.910  1.00  0.00     0.022 A 
BRANCH  42  46
ATOM     46  S   UNL A   1      37.520  29.641  32.663  1.00  0.00     0.124 S 
ATOM     47  O   UNL A   1      37.446  28.211  32.950  1.00  0.00    -0.237 OA
ATOM     48  O   UNL A   1      38.582  30.374  33.340  1.00  0.00    -0.237 OA
ATOM     49  O   UNL A   1      36.230  30.325  32.603  1.00  0.00    -0.744 OA
ENDBRANCH  42  46
ENDBRANCH  25  39
BRANCH  26  50
ATOM     50  C   UNL A   1      49.087  26.713  26.314  1.00  0.00     0.023 A 
ATOM     51  C   UNL A   1      49.514  27.196  25.069  1.00  0.00     0.031 A 
ATOM     52  C   UNL A   1      49.953  25.861  27.025  1.00  0.00     0.131 A 
ATOM     53  C   UNL A   1      50.751  26.785  24.549  1.00  0.00     0.055 A 
ATOM     54  C   UNL A   1      51.207  25.503  26.530  1.00  0.00     0.041 A 
ATOM     55  F   UNL A   1      49.593  25.371  28.222  1.00  0.00    -0.206 F 
ATOM     56  C   UNL A   1      51.606  25.953  25.276  1.00  0.00     0.022 A 
BRANCH  53  57
ATOM     57  S   UNL A   1      51.182  27.270  22.855  1.00  0.00     0.124 S 
ATOM     58  O   UNL A   1      50.037  26.772  22.101  1.00  0.00    -0.237 OA
ATOM     59  O   UNL A   1      51.290  28.720  22.976  1.00  0.00    -0.237 OA
ATOM     60  O   UNL A   1      52.442  26.571  22.612  1.00  0.00    -0.744 OA
ENDBRANCH  53  57
ENDBRANCH  26  50
BRANCH  38  61
ATOM     61  C   UNL A   1      46.182  32.590  28.652  1.00  0.00     0.023 A 
ATOM     62  C   UNL A   1      46.056  33.571  27.652  1.00  0.00     0.031 A 
ATOM     63  C   UNL A   1      46.876  32.923  29.827  1.00  0.00     0.131 A 
ATOM     64  C   UNL A   1      46.668  34.821  27.821  1.00  0.00     0.055 A 
ATOM     65  C   UNL A   1      47.433  34.189  30.015  1.00  0.00     0.041 A 
ATOM     66  F   UNL A   1      47.028  32.021  30.810  1.00  0.00    -0.206 F 
ATOM     67  C   UNL A   1      47.342  35.141  29.002  1.00  0.00     0.022 A 
BRANCH  64  68
ATOM     68  S   UNL A   1      46.647  35.994  26.439  1.00  0.00     0.124 S 
ATOM     69  O   UNL A   1      45.936  35.238  25.412  1.00  0.00    -0.237 OA
ATOM     70  O   UNL A   1      45.928  37.132  27.004  1.00  0.00    -0.237 OA
ATOM     71  O   UNL A   1      48.063  36.230  26.167  1.00  0.00    -0.744 OA
ENDBRANCH  64  68
ENDBRANCH  38  61
ENDBRANCH  12  13
ENDBRANCH   5   7
ENDBRANCH   2   3
ENDBRANCH   1   2
BRANCH   1  72
ATOM     72  C   UNL A   1      36.616  19.996  25.001  1.00  0.00     0.023 C 
BRANCH  72  73
ATOM     73  C   UNL A   1      35.867  21.314  25.172  1.00  0.00     0.116 C 
BRANCH  73  74
ATOM     74  N   UNL A   1      35.332  21.460  26.516  1.00  0.00    -0.354 N 
ATOM     75  C   UNL A   1      34.038  21.697  26.910  1.00  0.00     0.247 C 
ATOM     76  H   UNL A   1      35.988  21.379  27.244  1.00  0.00     0.163 HD
ATOM     77  O   UNL A   1      33.829  21.932  28.100  1.00  0.00    -0.272 OA
BRANCH  75  78
ATOM     78  C   UNL A   1      32.929  21.718  25.833  1.00  0.00     0.202 C 
BRANCH  78  79
ATOM     79  C   UNL A   1      32.712  20.371  25.155  1.00  0.00    -0.016 A 
ATOM     80  C   UNL A   1      32.776  19.201  25.932  1.00  0.00     0.006 A 
ATOM     81  C   UNL A   1      32.523  20.243  23.769  1.00  0.00     0.006 A 
ATOM     82  C   UNL A   1      32.704  17.942  25.334  1.00  0.00     0.000 A 
ATOM     83  C   UNL A   1      32.461  18.982  23.172  1.00  0.00     0.000 A 
ATOM     84  C   UNL A   1      32.561  17.834  23.952  1.00  0.00     0.000 A 
ENDBRANCH  78  79
BRANCH  78  85
ATOM     85  N   UNL A   1      31.707  22.248  26.443  1.00  0.00    -0.336 N 
ATOM     86  C   UNL A   1      31.228  23.529  26.477  1.00  0.00     0.253 C 
ATOM     87  H   UNL A   1      31.144  21.580  26.896  1.00  0.00     0.165 HD
ATOM     88  O   UNL A   1      30.245  23.800  27.161  1.00  0.00    -0.269 OA
BRANCH  86  89
ATOM     89  C   UNL A   1      31.910  24.615  25.749  1.00  0.00     0.058 A 
ATOM     90  C   UNL A   1      33.116  25.184  26.155  1.00  0.00     0.018 A 
ATOM     91  C   UNL A   1      31.341  25.073  24.568  1.00  0.00     0.126 A 
ATOM     92  C   UNL A   1      33.664  26.231  25.415  1.00  0.00     0.037 A 
ATOM     93  N   UNL A   1      31.855  26.086  23.827  1.00  0.00    -0.249 NA
ATOM     94  C   UNL A   1      33.001  26.649  24.270  1.00  0.00     0.106 A 
ATOM     95  Br  UNL A   1      33.734  28.076  23.260  1.00  0.00    -0.029 Br
ENDBRANCH  86  89
ENDBRANCH  78  85
ENDBRANCH  75  78
ENDBRANCH  73  74
ENDBRANCH  72  73
ENDBRANCH   1  72
TORSDOF 17
ENDMDL
MODEL 3
REMARK VINA RESULT:     -12.1      1.982      2.419
REMARK SMILES O=C(NCCCCNC(=O)[C@H](NC(=O)c1ccc(Br)nc1)c1ccccc1)c1ccc(-c2c3nc(c(-c4cc(S(=O)(=O)[O-])ccc4F)c4ccc([nH]4)c(-c4cc(S(=O)(=O)[O-])ccc4F)c4nc(c(-c5cc(S(=O)(=O)[O-])ccc5F)c5ccc2[nH]5)C=C4)C=C3)cc1
REMARK SMILES IDX 5 1 4 2 3 3 1 4 2 5 28 7 29 8 90 9 30 10 89 11 31 12 32 13
REMARK SMILES IDX 33 14 83 15 34 16 88 17 82 18 84 19 35 20 87 21 81 22 80 23
REMARK SMILES IDX 36 25 68 26 48 27 67 28 49 29 52 30 66 31 85 32 50 33 51 34
REMARK SMILES IDX 65 36 86 37 53 38 37 39 38 40 46 41 39 42 45 43 47 44 44 45
REMARK SMILES IDX 40 46 41 47 42 48 43 49 69 50 70 51 78 52 71 53 77 54 79 55
REMARK SMILES IDX 76 56 72 57 73 58 74 59 75 60 54 61 55 62 63 63 56 64 62 65
REMARK SMILES IDX 64 66 61 67 57 68 58 69 59 70 60 71 6 72 7 73 8 74 9 75
REMARK SMILES IDX 10 77 11 78 22 79 23 80 27 81 24 82 26 83 25 84 12 85 13 86
REMARK SMILES IDX 14 88 15 89 16 90 21 91 17 92 20 93 18 94 19 95
REMARK H PARENT 3 6 84 24 52 35 8 76 12 87
REMARK Flexibility Score: inf
ROOT
ATOM      1  C   UNL A   1      31.271  31.460  26.584  1.00  0.00     0.023 C 
ENDROOT
BRANCH   1   2
ATOM      2  C   UNL A   1      32.627  32.090  26.879  1.00  0.00     0.116 C 
BRANCH   2   3
ATOM      3  N   UNL A   1      32.527  33.486  27.271  1.00  0.00    -0.352 N 
ATOM      4  O   UNL A   1      32.991  35.309  28.517  1.00  0.00    -0.269 OA
ATOM      5  C   UNL A   1      33.289  34.164  28.192  1.00  0.00     0.251 C 
ATOM      6  H   UNL A   1      31.828  34.012  26.820  1.00  0.00     0.163 HD
BRANCH   5   7
ATOM      7  C   UNL A   1      34.457  33.492  28.802  1.00  0.00     0.039 A 
ATOM      8  C   UNL A   1      35.742  34.015  28.629  1.00  0.00     0.014 A 
ATOM      9  C   UNL A   1      34.262  32.332  29.554  1.00  0.00     0.014 A 
ATOM     10  C   UNL A   1      36.841  33.324  29.126  1.00  0.00     0.010 A 
ATOM     11  C   UNL A   1      35.362  31.675  30.112  1.00  0.00     0.010 A 
ATOM     12  C   UNL A   1      36.661  32.161  29.894  1.00  0.00    -0.014 A 
BRANCH  12  13
ATOM     13  C   UNL A   1      37.835  31.541  30.557  1.00  0.00     0.031 A 
ATOM     14  C   UNL A   1      38.657  30.489  29.869  1.00  0.00     0.074 A 
ATOM     15  C   UNL A   1      38.145  31.949  31.805  1.00  0.00     0.049 A 
ATOM     16  N   UNL A   1      39.701  29.841  30.318  1.00  0.00    -0.248 NA
ATOM     17  C   UNL A   1      38.256  30.111  28.505  1.00  0.00     0.031 C 
ATOM     18  C   UNL A   1      37.399  32.957  32.566  1.00  0.00     0.029 A 
ATOM     19  N   UNL A   1      39.157  31.579  32.651  1.00  0.00    -0.354 N 
ATOM     20  C   UNL A   1      40.074  28.965  29.306  1.00  0.00     0.074 A 
ATOM     21  C   UNL A   1      39.133  29.155  28.221  1.00  0.00     0.031 C 
ATOM     22  C   UNL A   1      37.993  33.140  33.754  1.00  0.00     0.029 A 
ATOM     23  C   UNL A   1      39.115  32.219  33.869  1.00  0.00     0.049 A 
ATOM     24  H   UNL A   1      39.847  30.920  32.410  1.00  0.00     0.167 HD
ATOM     25  C   UNL A   1      41.107  28.087  29.291  1.00  0.00     0.034 A 
ATOM     26  C   UNL A   1      39.873  32.055  34.971  1.00  0.00     0.034 A 
ATOM     27  C   UNL A   1      42.039  27.923  30.381  1.00  0.00     0.049 A 
ATOM     28  C   UNL A   1      40.985  31.044  34.934  1.00  0.00     0.074 A 
ATOM     29  C   UNL A   1      43.167  27.122  30.435  1.00  0.00     0.029 A 
ATOM     30  N   UNL A   1      41.943  28.554  31.615  1.00  0.00    -0.354 N 
ATOM     31  N   UNL A   1      41.357  30.265  33.943  1.00  0.00    -0.248 NA
ATOM     32  C   UNL A   1      41.776  30.885  36.159  1.00  0.00     0.031 C 
ATOM     33  C   UNL A   1      43.711  27.214  31.722  1.00  0.00     0.029 A 
ATOM     34  C   UNL A   1      42.962  28.124  32.451  1.00  0.00     0.049 A 
ATOM     35  H   UNL A   1      41.252  29.212  31.859  1.00  0.00     0.167 HD
ATOM     36  C   UNL A   1      42.434  29.530  34.427  1.00  0.00     0.074 A 
ATOM     37  C   UNL A   1      42.669  29.982  35.783  1.00  0.00     0.031 C 
ATOM     38  C   UNL A   1      43.161  28.565  33.810  1.00  0.00     0.034 A 
BRANCH  25  39
ATOM     39  C   UNL A   1      41.266  27.199  28.083  1.00  0.00     0.023 A 
ATOM     40  C   UNL A   1      40.891  25.845  28.096  1.00  0.00     0.031 A 
ATOM     41  C   UNL A   1      41.766  27.735  26.881  1.00  0.00     0.131 A 
ATOM     42  C   UNL A   1      41.054  25.064  26.940  1.00  0.00     0.055 A 
ATOM     43  C   UNL A   1      41.873  26.968  25.720  1.00  0.00     0.041 A 
ATOM     44  F   UNL A   1      42.156  29.017  26.816  1.00  0.00    -0.206 F 
ATOM     45  C   UNL A   1      41.520  25.621  25.747  1.00  0.00     0.022 A 
BRANCH  42  46
ATOM     46  S   UNL A   1      40.717  23.284  27.036  1.00  0.00     0.124 S 
ATOM     47  O   UNL A   1      39.266  23.247  26.877  1.00  0.00    -0.237 OA
ATOM     48  O   UNL A   1      41.494  22.755  25.922  1.00  0.00    -0.237 OA
ATOM     49  O   UNL A   1      41.202  22.914  28.364  1.00  0.00    -0.744 OA
ENDBRANCH  42  46
ENDBRANCH  25  39
BRANCH  26  50
ATOM     50  C   UNL A   1      39.568  32.818  36.215  1.00  0.00     0.023 A 
ATOM     51  C   UNL A   1      38.673  32.318  37.171  1.00  0.00     0.031 A 
ATOM     52  C   UNL A   1      40.136  34.086  36.438  1.00  0.00     0.131 A 
ATOM     53  C   UNL A   1      38.333  33.104  38.285  1.00  0.00     0.055 A 
ATOM     54  C   UNL A   1      39.840  34.836  37.577  1.00  0.00     0.041 A 
ATOM     55  F   UNL A   1      40.999  34.610  35.554  1.00  0.00    -0.206 F 
ATOM     56  C   UNL A   1      38.921  34.353  38.500  1.00  0.00     0.022 A 
BRANCH  53  57
ATOM     57  S   UNL A   1      37.027  32.511  39.395  1.00  0.00     0.124 S 
ATOM     58  O   UNL A   1      35.832  32.706  38.581  1.00  0.00    -0.237 OA
ATOM     59  O   UNL A   1      37.430  31.128  39.622  1.00  0.00    -0.237 OA
ATOM     60  O   UNL A   1      37.143  33.392  40.555  1.00  0.00    -0.744 OA
ENDBRANCH  53  57
ENDBRANCH  26  50
BRANCH  38  61
ATOM     61  C   UNL A   1      44.281  27.954  34.611  1.00  0.00     0.023 A 
ATOM     62  C   UNL A   1      44.090  26.774  35.351  1.00  0.00     0.031 A 
ATOM     63  C   UNL A   1      45.541  28.574  34.663  1.00  0.00     0.131 A 
ATOM     64  C   UNL A   1      45.124  26.283  36.160  1.00  0.00     0.055 A 
ATOM     65  C   UNL A   1      46.585  28.048  35.424  1.00  0.00     0.041 A 
ATOM     66  F   UNL A   1      45.774  29.705  33.978  1.00  0.00    -0.206 F 
ATOM     67  C   UNL A   1      46.376  26.904  36.189  1.00  0.00     0.022 A 
BRANCH  64  68
ATOM     68  S   UNL A   1      44.784  24.870  37.244  1.00  0.00     0.124 S 
ATOM     69  O   UNL A   1      46.058  24.157  37.219  1.00  0.00    -0.237 OA
ATOM     70  O   UNL A   1      44.443  25.518  38.506  1.00  0.00    -0.237 OA
ATOM     71  O   UNL A   1      43.677  24.186  36.580  1.00  0.00    -0.744 OA
ENDBRANCH  64  68
ENDBRANCH  38  61
ENDBRANCH  12  13
ENDBRANCH   5   7
ENDBRANCH   2   3
ENDBRANCH   1   2
BRANCH   1  72
ATOM     72  C   UNL A   1      31.260  30.456  25.429  1.00  0.00     0.023 C 
BRANCH  72  73
ATOM     73  C   UNL A   1      32.407  29.450  25.450  1.00  0.00     0.116 C 
BRANCH  73  74
ATOM     74  N   UNL A   1      33.230  29.543  24.256  1.00  0.00    -0.354 N 
ATOM     75  C   UNL A   1      33.166  28.805  23.101  1.00  0.00     0.247 C 
ATOM     76  H   UNL A   1      33.932  30.233  24.279  1.00  0.00     0.163 HD
ATOM     77  O   UNL A   1      34.059  28.953  22.268  1.00  0.00    -0.272 OA
BRANCH  75  78
ATOM     78  C   UNL A   1      32.016  27.784  22.940  1.00  0.00     0.202 C 
BRANCH  78  79
ATOM     79  C   UNL A   1      30.655  28.431  22.712  1.00  0.00    -0.016 A 
ATOM     80  C   UNL A   1      30.588  29.642  22.000  1.00  0.00     0.006 A 
ATOM     81  C   UNL A   1      29.467  27.905  23.247  1.00  0.00     0.006 A 
ATOM     82  C   UNL A   1      29.381  30.330  21.873  1.00  0.00     0.000 A 
ATOM     83  C   UNL A   1      28.262  28.600  23.126  1.00  0.00     0.000 A 
ATOM     84  C   UNL A   1      28.221  29.815  22.448  1.00  0.00     0.000 A 
ENDBRANCH  78  79
BRANCH  78  85
ATOM     85  N   UNL A   1      32.381  26.845  21.877  1.00  0.00    -0.336 N 
ATOM     86  C   UNL A   1      32.910  25.586  21.962  1.00  0.00     0.253 C 
ATOM     87  H   UNL A   1      32.220  27.168  20.961  1.00  0.00     0.165 HD
ATOM     88  O   UNL A   1      33.278  25.004  20.946  1.00  0.00    -0.269 OA
BRANCH  86  89
ATOM     89  C   UNL A   1      33.103  24.929  23.268  1.00  0.00     0.058 A 
ATOM     90  C   UNL A   1      34.068  25.317  24.196  1.00  0.00     0.018 A 
ATOM     91  C   UNL A   1      32.248  23.891  23.615  1.00  0.00     0.126 A 
ATOM     92  C   UNL A   1      34.192  24.609  25.392  1.00  0.00     0.037 A 
ATOM     93  N   UNL A   1      32.345  23.189  24.771  1.00  0.00    -0.249 NA
ATOM     94  C   UNL A   1      33.320  23.558  25.632  1.00  0.00     0.106 A 
ATOM     95  Br  UNL A   1      33.485  22.586  27.250  1.00  0.00    -0.029 Br
ENDBRANCH  86  89
ENDBRANCH  78  85
ENDBRANCH  75  78
ENDBRANCH  73  74
ENDBRANCH  72  73
ENDBRANCH   1  72
TORSDOF 17
ENDMDL
