MODEL 1
REMARK VINA RESULT:     -10.1      0.000      0.000
REMARK SMILES CC(C)Oc1ccc(-c2ccc(/C(=C\c3ccc(S(C)(=O)=O)cc3)C(=O)NCCCCNC(=O)c3ccc(-c4c5nc(c(-c6cc(S(=O)(=O)[O-])ccc6F)c6ccc([nH]6)c(-c6cc(S(=O)(=O)[O-])ccc6F)c6nc(c(-c7cc(S(=O)(=O)[O-])ccc7F)c7ccc4[nH]7)C=C6)C=C5)cc3)cc2)cc1
REMARK SMILES IDX 29 1 28 2 27 3 25 4 26 5 13 7 14 8 12 9 9 10 10 11 99 12
REMARK SMILES IDX 11 13 98 14 8 15 5 16 6 17 101 18 7 19 100 20 4 21 2 22 1 23
REMARK SMILES IDX 3 24 15 25 16 26 24 27 17 28 23 29 18 30 19 31 20 32 21 33
REMARK SMILES IDX 22 34 30 35 31 36 32 37 33 38 34 40 35 41 36 42 97 43 37 44
REMARK SMILES IDX 96 45 38 46 39 47 40 48 90 49 41 50 95 51 89 52 91 53 42 54
REMARK SMILES IDX 94 55 88 56 87 57 43 59 75 60 55 61 74 62 56 63 59 64 73 65
REMARK SMILES IDX 92 66 57 67 58 68 72 70 93 71 60 72 44 73 45 74 53 75 46 76
REMARK SMILES IDX 52 77 54 78 51 79 47 80 48 81 49 82 50 83 76 84 77 85 85 86
REMARK SMILES IDX 78 87 84 88 86 89 83 90 79 91 80 92 81 93 82 94 61 95 62 96
REMARK SMILES IDX 70 97 63 98 69 99 71 100 68 101 64 102 65 103 66 104 67 105
REMARK H PARENT 27 6 32 39 91 58 59 69
REMARK Flexibility Score: inf
ROOT
ATOM      1  C   UNL A   1      36.163  32.356  31.466  1.00  0.00     0.023 C 
ENDROOT
BRANCH   1   2
ATOM      2  C   UNL A   1      34.761  32.698  30.949  1.00  0.00     0.116 C 
BRANCH   2   3
ATOM      3  N   UNL A   1      34.839  33.292  29.629  1.00  0.00    -0.352 N 
ATOM      4  C   UNL A   1      34.945  32.808  28.363  1.00  0.00     0.251 C 
ATOM      5  O   UNL A   1      34.976  33.681  27.492  1.00  0.00    -0.269 OA
ATOM      6  H   UNL A   1      34.809  34.276  29.655  1.00  0.00     0.163 HD
BRANCH   4   7
ATOM      7  C   UNL A   1      34.956  31.323  27.998  1.00  0.00     0.047 C 
ATOM      8  C   UNL A   1      33.793  30.726  27.639  1.00  0.00     0.022 C 
BRANCH   7   9
ATOM      9  C   UNL A   1      36.214  30.517  28.211  1.00  0.00    -0.013 A 
ATOM     10  C   UNL A   1      38.420  28.664  28.356  1.00  0.00    -0.018 A 
ATOM     11  C   UNL A   1      38.388  29.707  27.423  1.00  0.00     0.009 A 
ATOM     12  C   UNL A   1      37.368  28.626  29.278  1.00  0.00     0.009 A 
ATOM     13  C   UNL A   1      37.345  30.645  27.394  1.00  0.00     0.009 A 
ATOM     14  C   UNL A   1      36.278  29.508  29.185  1.00  0.00     0.009 A 
BRANCH  10  15
ATOM     15  C   UNL A   1      39.507  27.657  28.362  1.00  0.00    -0.018 A 
ATOM     16  C   UNL A   1      41.587  25.720  28.353  1.00  0.00     0.119 A 
ATOM     17  C   UNL A   1      40.253  25.326  28.342  1.00  0.00     0.047 A 
ATOM     18  C   UNL A   1      41.891  27.074  28.355  1.00  0.00     0.047 A 
ATOM     19  C   UNL A   1      39.229  26.279  28.348  1.00  0.00     0.012 A 
ATOM     20  C   UNL A   1      40.863  28.029  28.378  1.00  0.00     0.012 A 
BRANCH  16  21
ATOM     21  O   UNL A   1      42.503  24.720  28.220  1.00  0.00    -0.491 OA
BRANCH  21  22
ATOM     22  C   UNL A   1      42.323  23.486  28.929  1.00  0.00     0.167 C 
ATOM     23  C   UNL A   1      41.893  22.328  28.035  1.00  0.00     0.052 C 
ATOM     24  C   UNL A   1      43.477  23.131  29.862  1.00  0.00     0.052 C 
ENDBRANCH  21  22
ENDBRANCH  16  21
ENDBRANCH  10  15
ENDBRANCH   7   9
BRANCH   8  25
ATOM     25  C   UNL A   1      33.556  29.376  27.104  1.00  0.00    -0.025 A 
ATOM     26  C   UNL A   1      32.503  28.624  27.656  1.00  0.00     0.009 A 
ATOM     27  C   UNL A   1      34.286  28.860  26.031  1.00  0.00     0.009 A 
ATOM     28  C   UNL A   1      32.151  27.390  27.108  1.00  0.00     0.021 A 
ATOM     29  C   UNL A   1      33.936  27.625  25.477  1.00  0.00     0.021 A 
ATOM     30  C   UNL A   1      32.870  26.900  26.017  1.00  0.00     0.067 A 
BRANCH  30  31
ATOM     31  S   UNL A   1      32.355  25.375  25.262  1.00  0.00     0.175 S 
ATOM     32  C   UNL A   1      30.937  25.841  24.307  1.00  0.00     0.163 C 
ATOM     33  O   UNL A   1      33.404  24.970  24.348  1.00  0.00    -0.224 OA
ATOM     34  O   UNL A   1      31.907  24.485  26.318  1.00  0.00    -0.224 OA
ENDBRANCH  30  31
ENDBRANCH   8  25
ENDBRANCH   4   7
ENDBRANCH   2   3
ENDBRANCH   1   2
BRANCH   1  35
ATOM     35  C   UNL A   1      36.637  33.235  32.628  1.00  0.00     0.023 C 
BRANCH  35  36
ATOM     36  C   UNL A   1      37.710  32.609  33.511  1.00  0.00     0.116 C 
BRANCH  36  37
ATOM     37  N   UNL A   1      37.523  31.178  33.704  1.00  0.00    -0.352 N 
ATOM     38  C   UNL A   1      38.260  30.141  33.185  1.00  0.00     0.251 C 
ATOM     39  H   UNL A   1      36.771  30.920  34.283  1.00  0.00     0.163 HD
ATOM     40  O   UNL A   1      37.887  28.983  33.340  1.00  0.00    -0.269 OA
BRANCH  38  41
ATOM     41  C   UNL A   1      39.474  30.450  32.405  1.00  0.00     0.039 A 
ATOM     42  C   UNL A   1      39.357  30.645  31.027  1.00  0.00     0.014 A 
ATOM     43  C   UNL A   1      40.703  30.621  33.048  1.00  0.00     0.014 A 
ATOM     44  C   UNL A   1      40.461  31.097  30.306  1.00  0.00     0.010 A 
ATOM     45  C   UNL A   1      41.780  31.142  32.340  1.00  0.00     0.010 A 
ATOM     46  C   UNL A   1      41.665  31.400  30.965  1.00  0.00    -0.014 A 
BRANCH  46  47
ATOM     47  C   UNL A   1      42.796  32.033  30.240  1.00  0.00     0.031 A 
ATOM     48  C   UNL A   1      44.006  31.225  29.867  1.00  0.00     0.074 A 
ATOM     49  C   UNL A   1      42.752  33.356  29.980  1.00  0.00     0.049 A 
ATOM     50  N   UNL A   1      45.115  31.617  29.295  1.00  0.00    -0.248 NA
ATOM     51  C   UNL A   1      43.975  29.795  30.208  1.00  0.00     0.031 C 
ATOM     52  C   UNL A   1      41.646  34.250  30.333  1.00  0.00     0.029 A 
ATOM     53  N   UNL A   1      43.660  34.183  29.368  1.00  0.00    -0.354 N 
ATOM     54  C   UNL A   1      45.916  30.484  29.209  1.00  0.00     0.074 A 
ATOM     55  C   UNL A   1      45.188  29.406  29.845  1.00  0.00     0.031 C 
ATOM     56  C   UNL A   1      41.928  35.491  29.907  1.00  0.00     0.029 A 
ATOM     57  C   UNL A   1      43.255  35.498  29.303  1.00  0.00     0.049 A 
ATOM     58  H   UNL A   1      44.520  33.867  29.009  1.00  0.00     0.167 HD
ATOM     59  C   UNL A   1      47.136  30.352  28.631  1.00  0.00     0.034 A 
ATOM     60  C   UNL A   1      43.891  36.589  28.829  1.00  0.00     0.034 A 
ATOM     61  C   UNL A   1      47.845  31.441  28.003  1.00  0.00     0.049 A 
ATOM     62  C   UNL A   1      45.269  36.426  28.244  1.00  0.00     0.074 A 
ATOM     63  C   UNL A   1      49.057  31.407  27.336  1.00  0.00     0.029 A 
ATOM     64  N   UNL A   1      47.418  32.763  27.979  1.00  0.00    -0.354 N 
ATOM     65  N   UNL A   1      45.986  35.333  28.108  1.00  0.00    -0.248 NA
ATOM     66  C   UNL A   1      45.924  37.641  27.743  1.00  0.00     0.031 C 
ATOM     67  C   UNL A   1      49.402  32.716  26.984  1.00  0.00     0.029 A 
ATOM     68  C   UNL A   1      48.365  33.560  27.352  1.00  0.00     0.049 A 
ATOM     69  H   UNL A   1      46.567  33.088  28.351  1.00  0.00     0.167 HD
ATOM     70  C   UNL A   1      47.168  35.730  27.488  1.00  0.00     0.074 A 
ATOM     71  C   UNL A   1      47.054  37.154  27.252  1.00  0.00     0.031 C 
ATOM     72  C   UNL A   1      48.249  34.984  27.146  1.00  0.00     0.034 A 
BRANCH  59  73
ATOM     73  C   UNL A   1      47.790  28.992  28.683  1.00  0.00     0.023 A 
ATOM     74  C   UNL A   1      47.635  28.059  27.642  1.00  0.00     0.031 A 
ATOM     75  C   UNL A   1      48.567  28.615  29.791  1.00  0.00     0.131 A 
ATOM     76  C   UNL A   1      48.187  26.774  27.765  1.00  0.00     0.055 A 
ATOM     77  C   UNL A   1      49.185  27.366  29.870  1.00  0.00     0.041 A 
ATOM     78  F   UNL A   1      48.733  29.455  30.826  1.00  0.00    -0.206 F 
ATOM     79  C   UNL A   1      48.984  26.430  28.859  1.00  0.00     0.022 A 
BRANCH  76  80
ATOM     80  S   UNL A   1      47.726  25.515  26.544  1.00  0.00     0.124 S 
ATOM     81  O   UNL A   1      47.923  24.282  27.303  1.00  0.00    -0.237 OA
ATOM     82  O   UNL A   1      46.344  25.863  26.238  1.00  0.00    -0.237 OA
ATOM     83  O   UNL A   1      48.680  25.726  25.457  1.00  0.00    -0.744 OA
ENDBRANCH  76  80
ENDBRANCH  59  73
BRANCH  60  84
ATOM     84  C   UNL A   1      43.250  37.934  28.912  1.00  0.00     0.023 A 
ATOM     85  C   UNL A   1      43.431  38.754  30.037  1.00  0.00     0.031 A 
ATOM     86  C   UNL A   1      42.406  38.400  27.887  1.00  0.00     0.131 A 
ATOM     87  C   UNL A   1      42.740  39.973  30.134  1.00  0.00     0.055 A 
ATOM     88  C   UNL A   1      41.769  39.640  27.961  1.00  0.00     0.041 A 
ATOM     89  F   UNL A   1      42.198  37.658  26.789  1.00  0.00    -0.206 F 
ATOM     90  C   UNL A   1      41.924  40.428  29.097  1.00  0.00     0.022 A 
BRANCH  87  91
ATOM     91  S   UNL A   1      42.848  40.910  31.683  1.00  0.00     0.124 S 
ATOM     92  O   UNL A   1      43.023  39.844  32.663  1.00  0.00    -0.237 OA
ATOM     93  O   UNL A   1      44.011  41.759  31.444  1.00  0.00    -0.237 OA
ATOM     94  O   UNL A   1      41.568  41.612  31.745  1.00  0.00    -0.744 OA
ENDBRANCH  87  91
ENDBRANCH  60  84
BRANCH  72  95
ATOM     95  C   UNL A   1      49.387  35.702  26.458  1.00  0.00     0.023 A 
ATOM     96  C   UNL A   1      50.359  36.409  27.188  1.00  0.00     0.031 A 
ATOM     97  C   UNL A   1      49.493  35.689  25.056  1.00  0.00     0.131 A 
ATOM     98  C   UNL A   1      51.362  37.119  26.512  1.00  0.00     0.055 A 
ATOM     99  C   UNL A   1      50.533  36.341  24.392  1.00  0.00     0.041 A 
ATOM    100  F   UNL A   1      48.590  35.036  24.307  1.00  0.00    -0.206 F 
ATOM    101  C   UNL A   1      51.467  37.073  25.120  1.00  0.00     0.022 A 
BRANCH  98 102
ATOM    102  S   UNL A   1      52.471  38.185  27.471  1.00  0.00     0.124 S 
ATOM    103  O   UNL A   1      53.586  38.368  26.549  1.00  0.00    -0.237 OA
ATOM    104  O   UNL A   1      51.643  39.363  27.711  1.00  0.00    -0.237 OA
ATOM    105  O   UNL A   1      52.772  37.388  28.658  1.00  0.00    -0.744 OA
ENDBRANCH  98 102
ENDBRANCH  72  95
ENDBRANCH  46  47
ENDBRANCH  38  41
ENDBRANCH  36  37
ENDBRANCH  35  36
ENDBRANCH   1  35
TORSDOF 20
ENDMDL
MODEL 2
REMARK VINA RESULT:     -10.0      5.345     11.514
REMARK SMILES CC(C)Oc1ccc(-c2ccc(/C(=C\c3ccc(S(C)(=O)=O)cc3)C(=O)NCCCCNC(=O)c3ccc(-c4c5nc(c(-c6cc(S(=O)(=O)[O-])ccc6F)c6ccc([nH]6)c(-c6cc(S(=O)(=O)[O-])ccc6F)c6nc(c(-c7cc(S(=O)(=O)[O-])ccc7F)c7ccc4[nH]7)C=C6)C=C5)cc3)cc2)cc1
REMARK SMILES IDX 29 1 28 2 27 3 25 4 26 5 13 7 14 8 12 9 9 10 10 11 99 12
REMARK SMILES IDX 11 13 98 14 8 15 5 16 6 17 101 18 7 19 100 20 4 21 2 22 1 23
REMARK SMILES IDX 3 24 15 25 16 26 24 27 17 28 23 29 18 30 19 31 20 32 21 33
REMARK SMILES IDX 22 34 30 35 31 36 32 37 33 38 34 40 35 41 36 42 97 43 37 44
REMARK SMILES IDX 96 45 38 46 39 47 40 48 90 49 41 50 95 51 89 52 91 53 42 54
REMARK SMILES IDX 94 55 88 56 87 57 43 59 75 60 55 61 74 62 56 63 59 64 73 65
REMARK SMILES IDX 92 66 57 67 58 68 72 70 93 71 60 72 44 73 45 74 53 75 46 76
REMARK SMILES IDX 52 77 54 78 51 79 47 80 48 81 49 82 50 83 76 84 77 85 85 86
REMARK SMILES IDX 78 87 84 88 86 89 83 90 79 91 80 92 81 93 82 94 61 95 62 96
REMARK SMILES IDX 70 97 63 98 69 99 71 100 68 101 64 102 65 103 66 104 67 105
REMARK H PARENT 27 6 32 39 91 58 59 69
REMARK Flexibility Score: inf
ROOT
ATOM      1  C   UNL A   1      48.141  28.502  26.913  1.00  0.00     0.023 C 
ENDROOT
BRANCH   1   2
ATOM      2  C   UNL A   1      47.980  26.980  26.978  1.00  0.00     0.116 C 
BRANCH   2   3
ATOM      3  N   UNL A   1      48.152  26.397  25.662  1.00  0.00    -0.352 N 
ATOM      4  C   UNL A   1      47.410  25.577  24.870  1.00  0.00     0.251 C 
ATOM      5  O   UNL A   1      47.937  25.316  23.785  1.00  0.00    -0.269 OA
ATOM      6  H   UNL A   1      49.006  26.653  25.245  1.00  0.00     0.163 HD
BRANCH   4   7
ATOM      7  C   UNL A   1      46.015  25.060  25.220  1.00  0.00     0.047 C 
ATOM      8  C   UNL A   1      45.633  23.840  24.769  1.00  0.00     0.022 C 
BRANCH   7   9
ATOM      9  C   UNL A   1      45.034  25.980  25.905  1.00  0.00    -0.013 A 
ATOM     10  C   UNL A   1      42.841  27.454  27.062  1.00  0.00    -0.018 A 
ATOM     11  C   UNL A   1      43.565  26.506  27.795  1.00  0.00     0.009 A 
ATOM     12  C   UNL A   1      43.298  27.716  25.766  1.00  0.00     0.009 A 
ATOM     13  C   UNL A   1      44.671  25.835  27.251  1.00  0.00     0.009 A 
ATOM     14  C   UNL A   1      44.345  26.973  25.192  1.00  0.00     0.009 A 
BRANCH  10  15
ATOM     15  C   UNL A   1      41.654  28.136  27.629  1.00  0.00    -0.018 A 
ATOM     16  C   UNL A   1      39.389  29.462  28.721  1.00  0.00     0.119 A 
ATOM     17  C   UNL A   1      40.396  28.980  29.551  1.00  0.00     0.047 A 
ATOM     18  C   UNL A   1      39.510  29.299  27.348  1.00  0.00     0.047 A 
ATOM     19  C   UNL A   1      41.510  28.327  29.014  1.00  0.00     0.012 A 
ATOM     20  C   UNL A   1      40.620  28.628  26.812  1.00  0.00     0.012 A 
BRANCH  16  21
ATOM     21  O   UNL A   1      38.412  30.189  29.332  1.00  0.00    -0.491 OA
BRANCH  21  22
ATOM     22  C   UNL A   1      37.209  30.512  28.623  1.00  0.00     0.167 C 
ATOM     23  C   UNL A   1      36.000  29.699  29.073  1.00  0.00     0.052 C 
ATOM     24  C   UNL A   1      36.926  32.008  28.525  1.00  0.00     0.052 C 
ENDBRANCH  21  22
ENDBRANCH  16  21
ENDBRANCH  10  15
ENDBRANCH   7   9
BRANCH   8  25
ATOM     25  C   UNL A   1      44.429  23.056  25.082  1.00  0.00    -0.025 A 
ATOM     26  C   UNL A   1      44.598  21.715  25.473  1.00  0.00     0.009 A 
ATOM     27  C   UNL A   1      43.150  23.618  25.075  1.00  0.00     0.009 A 
ATOM     28  C   UNL A   1      43.507  20.959  25.900  1.00  0.00     0.021 A 
ATOM     29  C   UNL A   1      42.053  22.865  25.505  1.00  0.00     0.021 A 
ATOM     30  C   UNL A   1      42.239  21.542  25.917  1.00  0.00     0.067 A 
BRANCH  30  31
ATOM     31  S   UNL A   1      40.868  20.606  26.555  1.00  0.00     0.175 S 
ATOM     32  C   UNL A   1      39.453  21.546  26.052  1.00  0.00     0.163 C 
ATOM     33  O   UNL A   1      40.846  19.339  25.852  1.00  0.00    -0.224 OA
ATOM     34  O   UNL A   1      40.938  20.649  28.005  1.00  0.00    -0.224 OA
ENDBRANCH  30  31
ENDBRANCH   8  25
ENDBRANCH   4   7
ENDBRANCH   2   3
ENDBRANCH   1   2
BRANCH   1  35
ATOM     35  C   UNL A   1      47.020  29.222  26.156  1.00  0.00     0.023 C 
BRANCH  35  36
ATOM     36  C   UNL A   1      46.636  30.586  26.719  1.00  0.00     0.116 C 
BRANCH  36  37
ATOM     37  N   UNL A   1      45.706  31.311  25.863  1.00  0.00    -0.352 N 
ATOM     38  C   UNL A   1      44.588  32.021  26.225  1.00  0.00     0.251 C 
ATOM     39  H   UNL A   1      45.907  31.289  24.900  1.00  0.00     0.163 HD
ATOM     40  O   UNL A   1      43.836  32.465  25.363  1.00  0.00    -0.269 OA
BRANCH  38  41
ATOM     41  C   UNL A   1      44.289  32.199  27.659  1.00  0.00     0.039 A 
ATOM     42  C   UNL A   1      44.337  33.483  28.203  1.00  0.00     0.014 A 
ATOM     43  C   UNL A   1      43.889  31.109  28.437  1.00  0.00     0.014 A 
ATOM     44  C   UNL A   1      43.899  33.688  29.510  1.00  0.00     0.010 A 
ATOM     45  C   UNL A   1      43.384  31.328  29.715  1.00  0.00     0.010 A 
ATOM     46  C   UNL A   1      43.369  32.621  30.258  1.00  0.00    -0.014 A 
BRANCH  46  47
ATOM     47  C   UNL A   1      42.751  32.852  31.588  1.00  0.00     0.031 A 
ATOM     48  C   UNL A   1      43.601  32.867  32.826  1.00  0.00     0.074 A 
ATOM     49  C   UNL A   1      41.412  32.981  31.678  1.00  0.00     0.049 A 
ATOM     50  N   UNL A   1      43.235  32.986  34.076  1.00  0.00    -0.248 NA
ATOM     51  C   UNL A   1      45.049  32.699  32.636  1.00  0.00     0.031 C 
ATOM     52  C   UNL A   1      40.482  32.941  30.546  1.00  0.00     0.029 A 
ATOM     53  N   UNL A   1      40.596  33.163  32.767  1.00  0.00    -0.354 N 
ATOM     54  C   UNL A   1      44.405  32.904  34.823  1.00  0.00     0.074 A 
ATOM     55  C   UNL A   1      45.483  32.662  33.887  1.00  0.00     0.031 C 
ATOM     56  C   UNL A   1      39.231  33.122  30.996  1.00  0.00     0.029 A 
ATOM     57  C   UNL A   1      39.258  33.234  32.450  1.00  0.00     0.049 A 
ATOM     58  H   UNL A   1      40.936  33.236  33.688  1.00  0.00     0.167 HD
ATOM     59  C   UNL A   1      44.566  33.041  36.163  1.00  0.00     0.034 A 
ATOM     60  C   UNL A   1      38.174  33.353  33.243  1.00  0.00     0.034 A 
ATOM     61  C   UNL A   1      43.476  33.281  37.078  1.00  0.00     0.049 A 
ATOM     62  C   UNL A   1      38.375  33.447  34.734  1.00  0.00     0.074 A 
ATOM     63  C   UNL A   1      43.532  33.494  38.445  1.00  0.00     0.029 A 
ATOM     64  N   UNL A   1      42.132  33.320  36.727  1.00  0.00    -0.354 N 
ATOM     65  N   UNL A   1      39.497  33.436  35.419  1.00  0.00    -0.248 NA
ATOM     66  C   UNL A   1      37.167  33.573  35.559  1.00  0.00     0.031 C 
ATOM     67  C   UNL A   1      42.223  33.578  38.930  1.00  0.00     0.029 A 
ATOM     68  C   UNL A   1      41.349  33.505  37.857  1.00  0.00     0.049 A 
ATOM     69  H   UNL A   1      41.786  33.230  35.810  1.00  0.00     0.167 HD
ATOM     70  C   UNL A   1      39.126  33.574  36.754  1.00  0.00     0.074 A 
ATOM     71  C   UNL A   1      37.683  33.694  36.773  1.00  0.00     0.031 C 
ATOM     72  C   UNL A   1      39.908  33.599  37.863  1.00  0.00     0.034 A 
BRANCH  59  73
ATOM     73  C   UNL A   1      45.964  32.903  36.716  1.00  0.00     0.023 A 
ATOM     74  C   UNL A   1      46.829  34.007  36.820  1.00  0.00     0.031 A 
ATOM     75  C   UNL A   1      46.446  31.650  37.132  1.00  0.00     0.131 A 
ATOM     76  C   UNL A   1      48.149  33.824  37.259  1.00  0.00     0.055 A 
ATOM     77  C   UNL A   1      47.733  31.489  37.648  1.00  0.00     0.041 A 
ATOM     78  F   UNL A   1      45.675  30.555  37.035  1.00  0.00    -0.206 F 
ATOM     79  C   UNL A   1      48.599  32.577  37.700  1.00  0.00     0.022 A 
BRANCH  76  80
ATOM     80  S   UNL A   1      49.311  35.208  37.108  1.00  0.00     0.124 S 
ATOM     81  O   UNL A   1      49.539  35.245  35.665  1.00  0.00    -0.237 OA
ATOM     82  O   UNL A   1      48.549  36.321  37.663  1.00  0.00    -0.237 OA
ATOM     83  O   UNL A   1      50.460  34.779  37.902  1.00  0.00    -0.744 OA
ENDBRANCH  76  80
ENDBRANCH  59  73
BRANCH  60  84
ATOM     84  C   UNL A   1      36.802  33.363  32.655  1.00  0.00     0.023 A 
ATOM     85  C   UNL A   1      36.044  34.543  32.607  1.00  0.00     0.031 A 
ATOM     86  C   UNL A   1      36.210  32.180  32.177  1.00  0.00     0.131 A 
ATOM     87  C   UNL A   1      34.721  34.506  32.137  1.00  0.00     0.055 A 
ATOM     88  C   UNL A   1      34.916  32.160  31.656  1.00  0.00     0.041 A 
ATOM     89  F   UNL A   1      36.890  31.022  32.200  1.00  0.00    -0.206 F 
ATOM     90  C   UNL A   1      34.158  33.327  31.647  1.00  0.00     0.022 A 
BRANCH  87  91
ATOM     91  S   UNL A   1      33.712  36.008  32.270  1.00  0.00     0.124 S 
ATOM     92  O   UNL A   1      32.382  35.452  32.494  1.00  0.00    -0.237 OA
ATOM     93  O   UNL A   1      34.324  36.685  33.409  1.00  0.00    -0.237 OA
ATOM     94  O   UNL A   1      33.906  36.663  30.979  1.00  0.00    -0.744 OA
ENDBRANCH  87  91
ENDBRANCH  60  84
BRANCH  72  95
ATOM     95  C   UNL A   1      39.209  33.783  39.190  1.00  0.00     0.023 A 
ATOM     96  C   UNL A   1      38.719  32.687  39.923  1.00  0.00     0.031 A 
ATOM     97  C   UNL A   1      39.021  35.071  39.722  1.00  0.00     0.131 A 
ATOM     98  C   UNL A   1      38.016  32.903  41.117  1.00  0.00     0.055 A 
ATOM     99  C   UNL A   1      38.381  35.275  40.945  1.00  0.00     0.041 A 
ATOM    100  F   UNL A   1      39.462  36.155  39.064  1.00  0.00    -0.206 F 
ATOM    101  C   UNL A   1      37.862  34.188  41.644  1.00  0.00     0.022 A 
BRANCH  98 102
ATOM    102  S   UNL A   1      37.221  31.489  41.926  1.00  0.00     0.124 S 
ATOM    103  O   UNL A   1      35.844  31.607  41.455  1.00  0.00    -0.237 OA
ATOM    104  O   UNL A   1      37.979  30.359  41.399  1.00  0.00    -0.237 OA
ATOM    105  O   UNL A   1      37.414  31.754  43.350  1.00  0.00    -0.744 OA
ENDBRANCH  98 102
ENDBRANCH  72  95
ENDBRANCH  46  47
ENDBRANCH  38  41
ENDBRANCH  36  37
ENDBRANCH  35  36
ENDBRANCH   1  35
TORSDOF 20
ENDMDL
MODEL 3
REMARK VINA RESULT:      -9.7      1.380      7.196
REMARK SMILES CC(C)Oc1ccc(-c2ccc(/C(=C\c3ccc(S(C)(=O)=O)cc3)C(=O)NCCCCNC(=O)c3ccc(-c4c5nc(c(-c6cc(S(=O)(=O)[O-])ccc6F)c6ccc([nH]6)c(-c6cc(S(=O)(=O)[O-])ccc6F)c6nc(c(-c7cc(S(=O)(=O)[O-])ccc7F)c7ccc4[nH]7)C=C6)C=C5)cc3)cc2)cc1
REMARK SMILES IDX 29 1 28 2 27 3 25 4 26 5 13 7 14 8 12 9 9 10 10 11 99 12
REMARK SMILES IDX 11 13 98 14 8 15 5 16 6 17 101 18 7 19 100 20 4 21 2 22 1 23
REMARK SMILES IDX 3 24 15 25 16 26 24 27 17 28 23 29 18 30 19 31 20 32 21 33
REMARK SMILES IDX 22 34 30 35 31 36 32 37 33 38 34 40 35 41 36 42 97 43 37 44
REMARK SMILES IDX 96 45 38 46 39 47 40 48 90 49 41 50 95 51 89 52 91 53 42 54
REMARK SMILES IDX 94 55 88 56 87 57 43 59 75 60 55 61 74 62 56 63 59 64 73 65
REMARK SMILES IDX 92 66 57 67 58 68 72 70 93 71 60 72 44 73 45 74 53 75 46 76
REMARK SMILES IDX 52 77 54 78 51 79 47 80 48 81 49 82 50 83 76 84 77 85 85 86
REMARK SMILES IDX 78 87 84 88 86 89 83 90 79 91 80 92 81 93 82 94 61 95 62 96
REMARK SMILES IDX 70 97 63 98 69 99 71 100 68 101 64 102 65 103 66 104 67 105
REMARK H PARENT 27 6 32 39 91 58 59 69
REMARK Flexibility Score: inf
ROOT
ATOM      1  C   UNL A   1      36.082  32.253  31.660  1.00  0.00     0.023 C 
ENDROOT
BRANCH   1   2
ATOM      2  C   UNL A   1      34.727  32.448  30.972  1.00  0.00     0.116 C 
BRANCH   2   3
ATOM      3  N   UNL A   1      34.892  33.157  29.719  1.00  0.00    -0.352 N 
ATOM      4  C   UNL A   1      35.067  32.788  28.422  1.00  0.00     0.251 C 
ATOM      5  O   UNL A   1      35.162  33.737  27.639  1.00  0.00    -0.269 OA
ATOM      6  H   UNL A   1      34.874  34.135  29.834  1.00  0.00     0.163 HD
BRANCH   4   7
ATOM      7  C   UNL A   1      35.079  31.343  27.924  1.00  0.00     0.047 C 
ATOM      8  C   UNL A   1      33.934  30.805  27.438  1.00  0.00     0.022 C 
BRANCH   7   9
ATOM      9  C   UNL A   1      36.308  30.494  28.143  1.00  0.00    -0.013 A 
ATOM     10  C   UNL A   1      38.442  28.561  28.310  1.00  0.00    -0.018 A 
ATOM     11  C   UNL A   1      38.438  29.580  27.349  1.00  0.00     0.009 A 
ATOM     12  C   UNL A   1      37.402  28.589  29.246  1.00  0.00     0.009 A 
ATOM     13  C   UNL A   1      37.431  30.556  27.308  1.00  0.00     0.009 A 
ATOM     14  C   UNL A   1      36.346  29.510  29.143  1.00  0.00     0.009 A 
BRANCH  10  15
ATOM     15  C   UNL A   1      39.489  27.513  28.329  1.00  0.00    -0.018 A 
ATOM     16  C   UNL A   1      41.502  25.506  28.346  1.00  0.00     0.119 A 
ATOM     17  C   UNL A   1      40.323  25.320  27.632  1.00  0.00     0.047 A 
ATOM     18  C   UNL A   1      41.691  26.692  29.041  1.00  0.00     0.047 A 
ATOM     19  C   UNL A   1      39.332  26.307  27.625  1.00  0.00     0.012 A 
ATOM     20  C   UNL A   1      40.688  27.675  29.047  1.00  0.00     0.012 A 
BRANCH  16  21
ATOM     21  O   UNL A   1      42.452  24.542  28.187  1.00  0.00    -0.491 OA
BRANCH  21  22
ATOM     22  C   UNL A   1      42.461  23.397  29.050  1.00  0.00     0.167 C 
ATOM     23  C   UNL A   1      42.170  22.086  28.327  1.00  0.00     0.052 C 
ATOM     24  C   UNL A   1      43.678  23.321  29.969  1.00  0.00     0.052 C 
ENDBRANCH  21  22
ENDBRANCH  16  21
ENDBRANCH  10  15
ENDBRANCH   7   9
BRANCH   8  25
ATOM     25  C   UNL A   1      33.711  29.515  26.767  1.00  0.00    -0.025 A 
ATOM     26  C   UNL A   1      33.066  28.497  27.492  1.00  0.00     0.009 A 
ATOM     27  C   UNL A   1      34.051  29.303  25.428  1.00  0.00     0.009 A 
ATOM     28  C   UNL A   1      32.717  27.298  26.871  1.00  0.00     0.021 A 
ATOM     29  C   UNL A   1      33.701  28.103  24.801  1.00  0.00     0.021 A 
ATOM     30  C   UNL A   1      33.035  27.110  25.525  1.00  0.00     0.067 A 
BRANCH  30  31
ATOM     31  S   UNL A   1      32.502  25.620  24.714  1.00  0.00     0.175 S 
ATOM     32  C   UNL A   1      31.016  26.109  23.881  1.00  0.00     0.163 C 
ATOM     33  O   UNL A   1      33.497  25.293  23.713  1.00  0.00    -0.224 OA
ATOM     34  O   UNL A   1      32.140  24.660  25.742  1.00  0.00    -0.224 OA
ENDBRANCH  30  31
ENDBRANCH   8  25
ENDBRANCH   4   7
ENDBRANCH   2   3
ENDBRANCH   1   2
BRANCH   1  35
ATOM     35  C   UNL A   1      36.002  32.127  33.185  1.00  0.00     0.023 C 
BRANCH  35  36
ATOM     36  C   UNL A   1      37.245  31.545  33.849  1.00  0.00     0.116 C 
BRANCH  36  37
ATOM     37  N   UNL A   1      37.446  30.137  33.539  1.00  0.00    -0.352 N 
ATOM     38  C   UNL A   1      38.404  29.565  32.738  1.00  0.00     0.251 C 
ATOM     39  H   UNL A   1      36.812  29.513  33.960  1.00  0.00     0.163 HD
ATOM     40  O   UNL A   1      38.353  28.368  32.476  1.00  0.00    -0.269 OA
BRANCH  38  41
ATOM     41  C   UNL A   1      39.460  30.423  32.167  1.00  0.00     0.039 A 
ATOM     42  C   UNL A   1      40.545  30.779  32.969  1.00  0.00     0.014 A 
ATOM     43  C   UNL A   1      39.410  30.806  30.824  1.00  0.00     0.014 A 
ATOM     44  C   UNL A   1      41.626  31.449  32.397  1.00  0.00     0.010 A 
ATOM     45  C   UNL A   1      40.520  31.408  30.241  1.00  0.00     0.010 A 
ATOM     46  C   UNL A   1      41.645  31.721  31.019  1.00  0.00    -0.014 A 
BRANCH  46  47
ATOM     47  C   UNL A   1      42.854  32.287  30.367  1.00  0.00     0.031 A 
ATOM     48  C   UNL A   1      42.928  33.753  30.050  1.00  0.00     0.074 A 
ATOM     49  C   UNL A   1      43.854  31.458  30.003  1.00  0.00     0.049 A 
ATOM     50  N   UNL A   1      43.868  34.415  29.427  1.00  0.00    -0.248 NA
ATOM     51  C   UNL A   1      41.784  34.577  30.466  1.00  0.00     0.031 C 
ATOM     52  C   UNL A   1      43.871  30.009  30.222  1.00  0.00     0.029 A 
ATOM     53  N   UNL A   1      45.043  31.709  29.365  1.00  0.00    -0.354 N 
ATOM     54  C   UNL A   1      43.428  35.733  29.371  1.00  0.00     0.074 A 
ATOM     55  C   UNL A   1      42.110  35.761  29.969  1.00  0.00     0.031 C 
ATOM     56  C   UNL A   1      45.025  29.507  29.754  1.00  0.00     0.029 A 
ATOM     57  C   UNL A   1      45.804  30.581  29.151  1.00  0.00     0.049 A 
ATOM     58  H   UNL A   1      45.326  32.609  29.088  1.00  0.00     0.167 HD
ATOM     59  C   UNL A   1      44.077  36.821  28.886  1.00  0.00     0.034 A 
ATOM     60  C   UNL A   1      46.986  30.428  28.520  1.00  0.00     0.034 A 
ATOM     61  C   UNL A   1      45.392  36.770  28.292  1.00  0.00     0.049 A 
ATOM     62  C   UNL A   1      47.659  31.645  27.940  1.00  0.00     0.074 A 
ATOM     63  C   UNL A   1      46.164  37.818  27.823  1.00  0.00     0.029 A 
ATOM     64  N   UNL A   1      46.121  35.610  28.067  1.00  0.00    -0.354 N 
ATOM     65  N   UNL A   1      47.261  32.897  27.956  1.00  0.00    -0.248 NA
ATOM     66  C   UNL A   1      48.943  31.431  27.260  1.00  0.00     0.031 C 
ATOM     67  C   UNL A   1      47.319  37.286  27.241  1.00  0.00     0.029 A 
ATOM     68  C   UNL A   1      47.312  35.912  27.422  1.00  0.00     0.049 A 
ATOM     69  H   UNL A   1      45.835  34.705  28.326  1.00  0.00     0.167 HD
ATOM     70  C   UNL A   1      48.257  33.620  27.306  1.00  0.00     0.074 A 
ATOM     71  C   UNL A   1      49.284  32.669  26.936  1.00  0.00     0.031 C 
ATOM     72  C   UNL A   1      48.317  34.949  27.037  1.00  0.00     0.034 A 
BRANCH  59  73
ATOM     73  C   UNL A   1      43.359  38.148  28.950  1.00  0.00     0.023 A 
ATOM     74  C   UNL A   1      42.545  38.599  27.895  1.00  0.00     0.031 A 
ATOM     75  C   UNL A   1      43.499  38.981  30.073  1.00  0.00     0.131 A 
ATOM     76  C   UNL A   1      41.963  39.874  27.955  1.00  0.00     0.055 A 
ATOM     77  C   UNL A   1      42.848  40.213  30.164  1.00  0.00     0.041 A 
ATOM     78  F   UNL A   1      44.280  38.616  31.102  1.00  0.00    -0.206 F 
ATOM     79  C   UNL A   1      42.087  40.674  29.094  1.00  0.00     0.022 A 
BRANCH  76  80
ATOM     80  S   UNL A   1      41.164  40.532  26.466  1.00  0.00     0.124 S 
ATOM     81  O   UNL A   1      42.247  41.312  25.870  1.00  0.00    -0.237 OA
ATOM     82  O   UNL A   1      40.783  39.320  25.751  1.00  0.00    -0.237 OA
ATOM     83  O   UNL A   1      40.054  41.323  26.993  1.00  0.00    -0.744 OA
ENDBRANCH  76  80
ENDBRANCH  59  73
BRANCH  60  84
ATOM     84  C   UNL A   1      47.598  29.074  28.376  1.00  0.00     0.023 A 
ATOM     85  C   UNL A   1      47.330  28.275  27.254  1.00  0.00     0.031 A 
ATOM     86  C   UNL A   1      48.422  28.540  29.383  1.00  0.00     0.131 A 
ATOM     87  C   UNL A   1      47.840  26.968  27.188  1.00  0.00     0.055 A 
ATOM     88  C   UNL A   1      48.976  27.263  29.285  1.00  0.00     0.041 A 
ATOM     89  F   UNL A   1      48.712  29.261  30.478  1.00  0.00    -0.206 F 
ATOM     90  C   UNL A   1      48.673  26.463  28.187  1.00  0.00     0.022 A 
BRANCH  87  91
ATOM     91  S   UNL A   1      47.314  25.900  25.819  1.00  0.00     0.124 S 
ATOM     92  O   UNL A   1      45.950  26.364  25.589  1.00  0.00    -0.237 OA
ATOM     93  O   UNL A   1      48.288  26.232  24.784  1.00  0.00    -0.237 OA
ATOM     94  O   UNL A   1      47.431  24.554  26.374  1.00  0.00    -0.744 OA
ENDBRANCH  87  91
ENDBRANCH  60  84
BRANCH  72  95
ATOM     95  C   UNL A   1      49.551  35.449  26.324  1.00  0.00     0.023 A 
ATOM     96  C   UNL A   1      50.748  35.708  27.017  1.00  0.00     0.031 A 
ATOM     97  C   UNL A   1      49.527  35.681  24.938  1.00  0.00     0.131 A 
ATOM     98  C   UNL A   1      51.852  36.236  26.332  1.00  0.00     0.055 A 
ATOM     99  C   UNL A   1      50.651  36.141  24.250  1.00  0.00     0.041 A 
ATOM    100  F   UNL A   1      48.411  35.458  24.226  1.00  0.00    -0.206 F 
ATOM    101  C   UNL A   1      51.818  36.434  24.950  1.00  0.00     0.022 A 
BRANCH  98 102
ATOM    102  S   UNL A   1      53.303  36.751  27.288  1.00  0.00     0.124 S 
ATOM    103  O   UNL A   1      53.757  37.921  26.542  1.00  0.00    -0.237 OA
ATOM    104  O   UNL A   1      52.733  37.018  28.605  1.00  0.00    -0.237 OA
ATOM    105  O   UNL A   1      54.189  35.591  27.221  1.00  0.00    -0.744 OA
ENDBRANCH  98 102
ENDBRANCH  72  95
ENDBRANCH  46  47
ENDBRANCH  38  41
ENDBRANCH  36  37
ENDBRANCH  35  36
ENDBRANCH   1  35
TORSDOF 20
ENDMDL
