MODEL 1
REMARK VINA RESULT:     -10.8      0.000      0.000
REMARK SMILES CC(C)C[C@H](NC(=O)CNC(=O)[C@@H](NC(=O)OCc1ccccc1)C(C)C)C(=O)N[C@@H](C)C(=O)NCCCCNC(=O)c1ccc(-c2c3nc(c(-c4cc(S(=O)(=O)[O-])ccc4F)c4ccc([nH]4)c(-c4cc(S(=O)(=O)[O-])ccc4F)c4nc(c(-c5cc(S(=O)(=O)[O-])ccc5F)c5ccc2[nH]5)C=C4)C=C3)cc1
REMARK SMILES IDX 31 1 32 2 30 3 28 4 29 5 5 7 4 8 2 9 1 10 3 11 6 12 7 13
REMARK SMILES IDX 8 15 9 16 10 17 11 18 12 20 13 21 14 22 15 23 16 25 17 26
REMARK SMILES IDX 18 27 19 28 20 29 24 30 21 31 23 32 22 33 25 34 26 35 27 36
REMARK SMILES IDX 33 37 34 38 35 39 36 41 37 42 38 43 39 44 40 45 41 46 42 48
REMARK SMILES IDX 43 49 44 50 105 51 45 52 104 53 46 54 47 55 48 56 98 57
REMARK SMILES IDX 49 58 103 59 97 60 99 61 50 62 102 63 96 64 95 65 51 67
REMARK SMILES IDX 83 68 63 69 82 70 64 71 67 72 81 73 100 74 65 75 66 76 80 78
REMARK SMILES IDX 101 79 68 80 52 81 53 82 61 83 54 84 60 85 62 86 59 87 55 88
REMARK SMILES IDX 56 89 57 90 58 91 84 92 85 93 93 94 86 95 92 96 94 97 91 98
REMARK SMILES IDX 87 99 88 100 89 101 90 102 69 103 70 104 78 105 71 106
REMARK SMILES IDX 77 107 79 108 76 109 72 110 73 111 74 112 75 113
REMARK H PARENT 30 6 6 14 10 19 14 24 35 40 40 47 99 66 67 77
REMARK Flexibility Score: inf
ROOT
ATOM      1  C   UNL A   1      36.520  22.968  25.637  1.00  0.00     0.168 C 
ATOM      2  C   UNL A   1      37.450  24.097  26.057  1.00  0.00     0.041 C 
ENDROOT
BRANCH   1   3
ATOM      3  N   UNL A   1      35.522  22.484  26.644  1.00  0.00    -0.343 N 
ATOM      4  C   UNL A   1      34.346  21.725  26.597  1.00  0.00     0.243 C 
ATOM      5  O   UNL A   1      33.985  21.236  27.678  1.00  0.00    -0.273 OA
ATOM      6  H   UNL A   1      35.748  22.766  27.560  1.00  0.00     0.164 HD
BRANCH   4   7
ATOM      7  C   UNL A   1      33.370  21.550  25.306  1.00  0.00     0.171 C 
BRANCH   7   8
ATOM      8  C   UNL A   1      32.460  20.258  24.967  1.00  0.00     0.038 C 
BRANCH   8   9
ATOM      9  C   UNL A   1      33.026  18.797  24.532  1.00  0.00    -0.015 C 
ATOM     10  C   UNL A   1      34.557  18.522  24.566  1.00  0.00     0.007 C 
ATOM     11  C   UNL A   1      32.462  17.600  25.292  1.00  0.00     0.007 C 
ENDBRANCH   8   9
ENDBRANCH   7   8
BRANCH   7  12
ATOM     12  N   UNL A   1      34.016  21.953  24.123  1.00  0.00    -0.343 N 
ATOM     13  C   UNL A   1      33.616  23.090  23.490  1.00  0.00     0.240 C 
ATOM     14  H   UNL A   1      34.754  21.415  23.755  1.00  0.00     0.164 HD
ATOM     15  O   UNL A   1      34.367  23.535  22.621  1.00  0.00    -0.273 OA
BRANCH  13  16
ATOM     16  C   UNL A   1      32.225  23.793  23.893  1.00  0.00     0.216 C 
BRANCH  16  17
ATOM     17  N   UNL A   1      31.859  24.838  24.985  1.00  0.00    -0.345 N 
ATOM     18  C   UNL A   1      31.945  26.031  25.638  1.00  0.00     0.243 C 
ATOM     19  H   UNL A   1      31.168  24.365  25.503  1.00  0.00     0.164 HD
ATOM     20  O   UNL A   1      31.010  26.071  26.476  1.00  0.00    -0.273 OA
BRANCH  18  21
ATOM     21  C   UNL A   1      32.921  27.381  25.689  1.00  0.00     0.177 C 
BRANCH  21  22
ATOM     22  N   UNL A   1      33.721  27.753  24.480  1.00  0.00    -0.309 N 
ATOM     23  C   UNL A   1      33.502  28.580  23.404  1.00  0.00     0.408 C 
ATOM     24  H   UNL A   1      34.597  27.307  24.449  1.00  0.00     0.167 HD
ATOM     25  O   UNL A   1      34.256  28.557  22.443  1.00  0.00    -0.225 OA
BRANCH  23  26
ATOM     26  O   UNL A   1      32.378  29.337  23.473  1.00  0.00    -0.445 OA
BRANCH  26  27
ATOM     27  C   UNL A   1      31.383  29.097  22.455  1.00  0.00     0.270 C 
BRANCH  27  28
ATOM     28  C   UNL A   1      29.977  28.735  22.842  1.00  0.00    -0.011 A 
ATOM     29  C   UNL A   1      28.936  29.620  22.501  1.00  0.00     0.007 A 
ATOM     30  C   UNL A   1      29.665  27.508  23.425  1.00  0.00     0.007 A 
ATOM     31  C   UNL A   1      27.614  29.312  22.808  1.00  0.00     0.000 A 
ATOM     32  C   UNL A   1      28.340  27.202  23.734  1.00  0.00     0.000 A 
ATOM     33  C   UNL A   1      27.319  28.107  23.439  1.00  0.00     0.000 A 
ENDBRANCH  27  28
ENDBRANCH  26  27
ENDBRANCH  23  26
ENDBRANCH  21  22
BRANCH  21  34
ATOM     34  C   UNL A   1      32.619  28.539  26.679  1.00  0.00     0.015 C 
ATOM     35  C   UNL A   1      31.635  28.088  27.762  1.00  0.00     0.010 C 
ATOM     36  C   UNL A   1      33.862  29.104  27.406  1.00  0.00     0.010 C 
ENDBRANCH  21  34
ENDBRANCH  18  21
ENDBRANCH  16  17
ENDBRANCH  13  16
ENDBRANCH   7  12
ENDBRANCH   4   7
ENDBRANCH   1   3
BRANCH   1  37
ATOM     37  C   UNL A   1      37.331  21.841  24.943  1.00  0.00     0.242 C 
ATOM     38  O   UNL A   1      37.117  21.509  23.774  1.00  0.00    -0.273 OA
ATOM     39  N   UNL A   1      38.363  21.218  25.567  1.00  0.00    -0.354 N 
ATOM     40  H   UNL A   1      38.373  20.234  25.586  1.00  0.00     0.163 HD
BRANCH  39  41
ATOM     41  C   UNL A   1      39.445  21.926  26.204  1.00  0.00     0.116 C 
BRANCH  41  42
ATOM     42  C   UNL A   1      40.478  21.011  26.837  1.00  0.00     0.023 C 
BRANCH  42  43
ATOM     43  C   UNL A   1      41.789  20.817  26.075  1.00  0.00     0.023 C 
BRANCH  43  44
ATOM     44  C   UNL A   1      42.883  21.859  26.282  1.00  0.00     0.116 C 
BRANCH  44  45
ATOM     45  N   UNL A   1      43.732  22.068  25.121  1.00  0.00    -0.352 N 
ATOM     46  C   UNL A   1      44.383  23.204  24.714  1.00  0.00     0.251 C 
ATOM     47  H   UNL A   1      43.857  21.280  24.544  1.00  0.00     0.163 HD
ATOM     48  O   UNL A   1      45.044  23.194  23.681  1.00  0.00    -0.269 OA
BRANCH  46  49
ATOM     49  C   UNL A   1      44.221  24.444  25.493  1.00  0.00     0.039 A 
ATOM     50  C   UNL A   1      44.947  24.573  26.678  1.00  0.00     0.014 A 
ATOM     51  C   UNL A   1      43.421  25.490  25.024  1.00  0.00     0.014 A 
ATOM     52  C   UNL A   1      44.921  25.783  27.367  1.00  0.00     0.010 A 
ATOM     53  C   UNL A   1      43.457  26.719  25.674  1.00  0.00     0.010 A 
ATOM     54  C   UNL A   1      44.207  26.875  26.850  1.00  0.00    -0.014 A 
BRANCH  54  55
ATOM     55  C   UNL A   1      44.219  28.181  27.551  1.00  0.00     0.031 A 
ATOM     56  C   UNL A   1      42.944  28.725  28.128  1.00  0.00     0.074 A 
ATOM     57  C   UNL A   1      45.366  28.883  27.629  1.00  0.00     0.049 A 
ATOM     58  N   UNL A   1      42.730  29.861  28.739  1.00  0.00    -0.248 NA
ATOM     59  C   UNL A   1      41.743  27.890  27.970  1.00  0.00     0.031 C 
ATOM     60  C   UNL A   1      46.653  28.464  27.068  1.00  0.00     0.029 A 
ATOM     61  N   UNL A   1      45.638  30.095  28.209  1.00  0.00    -0.354 N 
ATOM     62  C   UNL A   1      41.369  29.883  29.027  1.00  0.00     0.074 A 
ATOM     63  C   UNL A   1      40.800  28.680  28.460  1.00  0.00     0.031 C 
ATOM     64  C   UNL A   1      47.581  29.390  27.357  1.00  0.00     0.029 A 
ATOM     65  C   UNL A   1      46.951  30.487  28.083  1.00  0.00     0.049 A 
ATOM     66  H   UNL A   1      44.957  30.635  28.673  1.00  0.00     0.167 HD
ATOM     67  C   UNL A   1      40.668  30.809  29.725  1.00  0.00     0.034 A 
ATOM     68  C   UNL A   1      47.570  31.609  28.499  1.00  0.00     0.034 A 
ATOM     69  C   UNL A   1      41.262  31.997  30.286  1.00  0.00     0.049 A 
ATOM     70  C   UNL A   1      46.766  32.638  29.251  1.00  0.00     0.074 A 
ATOM     71  C   UNL A   1      40.665  32.983  31.052  1.00  0.00     0.029 A 
ATOM     72  N   UNL A   1      42.594  32.367  30.134  1.00  0.00    -0.354 N 
ATOM     73  N   UNL A   1      45.489  32.621  29.563  1.00  0.00    -0.248 NA
ATOM     74  C   UNL A   1      47.485  33.828  29.718  1.00  0.00     0.031 C 
ATOM     75  C   UNL A   1      41.616  33.978  31.303  1.00  0.00     0.029 A 
ATOM     76  C   UNL A   1      42.828  33.579  30.764  1.00  0.00     0.049 A 
ATOM     77  H   UNL A   1      43.273  31.843  29.651  1.00  0.00     0.167 HD
ATOM     78  C   UNL A   1      45.261  33.788  30.287  1.00  0.00     0.074 A 
ATOM     79  C   UNL A   1      46.535  34.473  30.379  1.00  0.00     0.031 C 
ATOM     80  C   UNL A   1      44.105  34.252  30.830  1.00  0.00     0.034 A 
BRANCH  67  81
ATOM     81  C   UNL A   1      39.183  30.576  29.883  1.00  0.00     0.023 A 
ATOM     82  C   UNL A   1      38.234  31.398  29.249  1.00  0.00     0.031 A 
ATOM     83  C   UNL A   1      38.708  29.551  30.720  1.00  0.00     0.131 A 
ATOM     84  C   UNL A   1      36.869  31.240  29.530  1.00  0.00     0.055 A 
ATOM     85  C   UNL A   1      37.342  29.342  30.925  1.00  0.00     0.041 A 
ATOM     86  F   UNL A   1      39.563  28.747  31.372  1.00  0.00    -0.206 F 
ATOM     87  C   UNL A   1      36.414  30.200  30.342  1.00  0.00     0.022 A 
BRANCH  84  88
ATOM     88  S   UNL A   1      35.715  32.514  28.950  1.00  0.00     0.124 S 
ATOM     89  O   UNL A   1      34.556  32.272  29.806  1.00  0.00    -0.237 OA
ATOM     90  O   UNL A   1      36.451  33.746  29.203  1.00  0.00    -0.237 OA
ATOM     91  O   UNL A   1      35.518  32.182  27.540  1.00  0.00    -0.744 OA
ENDBRANCH  84  88
ENDBRANCH  67  81
BRANCH  68  92
ATOM     92  C   UNL A   1      49.017  31.824  28.213  1.00  0.00     0.023 A 
ATOM     93  C   UNL A   1      49.435  32.527  27.073  1.00  0.00     0.031 A 
ATOM     94  C   UNL A   1      50.009  31.300  29.064  1.00  0.00     0.131 A 
ATOM     95  C   UNL A   1      50.804  32.652  26.789  1.00  0.00     0.055 A 
ATOM     96  C   UNL A   1      51.370  31.470  28.804  1.00  0.00     0.041 A 
ATOM     97  F   UNL A   1      49.665  30.624  30.172  1.00  0.00    -0.206 F 
ATOM     98  C   UNL A   1      51.774  32.139  27.653  1.00  0.00     0.022 A 
BRANCH  95  99
ATOM     99  S   UNL A   1      51.301  33.427  25.226  1.00  0.00     0.124 S 
ATOM    100  O   UNL A   1      52.493  34.167  25.626  1.00  0.00    -0.237 OA
ATOM    101  O   UNL A   1      51.524  32.266  24.370  1.00  0.00    -0.237 OA
ATOM    102  O   UNL A   1      50.146  34.247  24.871  1.00  0.00    -0.744 OA
ENDBRANCH  95  99
ENDBRANCH  68  92
BRANCH  80 103
ATOM    103  C   UNL A   1      44.187  35.545  31.603  1.00  0.00     0.023 A 
ATOM    104  C   UNL A   1      43.935  36.787  30.995  1.00  0.00     0.031 A 
ATOM    105  C   UNL A   1      44.530  35.533  32.968  1.00  0.00     0.131 A 
ATOM    106  C   UNL A   1      44.086  37.969  31.735  1.00  0.00     0.055 A 
ATOM    107  C   UNL A   1      44.617  36.708  33.713  1.00  0.00     0.041 A 
ATOM    108  F   UNL A   1      44.784  34.375  33.597  1.00  0.00    -0.206 F 
ATOM    109  C   UNL A   1      44.407  37.936  33.094  1.00  0.00     0.022 A 
BRANCH 106 110
ATOM    110  S   UNL A   1      43.951  39.559  30.871  1.00  0.00     0.124 S 
ATOM    111  O   UNL A   1      42.950  40.254  31.672  1.00  0.00    -0.237 OA
ATOM    112  O   UNL A   1      45.312  40.078  30.959  1.00  0.00    -0.237 OA
ATOM    113  O   UNL A   1      43.517  39.183  29.527  1.00  0.00    -0.744 OA
ENDBRANCH 106 110
ENDBRANCH  80 103
ENDBRANCH  54  55
ENDBRANCH  46  49
ENDBRANCH  44  45
ENDBRANCH  43  44
ENDBRANCH  42  43
ENDBRANCH  41  42
ENDBRANCH  39  41
ENDBRANCH   1  37
TORSDOF 27
ENDMDL
MODEL 2
REMARK VINA RESULT:     -10.3      1.477      7.296
REMARK SMILES CC(C)C[C@H](NC(=O)CNC(=O)[C@@H](NC(=O)OCc1ccccc1)C(C)C)C(=O)N[C@@H](C)C(=O)NCCCCNC(=O)c1ccc(-c2c3nc(c(-c4cc(S(=O)(=O)[O-])ccc4F)c4ccc([nH]4)c(-c4cc(S(=O)(=O)[O-])ccc4F)c4nc(c(-c5cc(S(=O)(=O)[O-])ccc5F)c5ccc2[nH]5)C=C4)C=C3)cc1
REMARK SMILES IDX 31 1 32 2 30 3 28 4 29 5 5 7 4 8 2 9 1 10 3 11 6 12 7 13
REMARK SMILES IDX 8 15 9 16 10 17 11 18 12 20 13 21 14 22 15 23 16 25 17 26
REMARK SMILES IDX 18 27 19 28 20 29 24 30 21 31 23 32 22 33 25 34 26 35 27 36
REMARK SMILES IDX 33 37 34 38 35 39 36 41 37 42 38 43 39 44 40 45 41 46 42 48
REMARK SMILES IDX 43 49 44 50 105 51 45 52 104 53 46 54 47 55 48 56 98 57
REMARK SMILES IDX 49 58 103 59 97 60 99 61 50 62 102 63 96 64 95 65 51 67
REMARK SMILES IDX 83 68 63 69 82 70 64 71 67 72 81 73 100 74 65 75 66 76 80 78
REMARK SMILES IDX 101 79 68 80 52 81 53 82 61 83 54 84 60 85 62 86 59 87 55 88
REMARK SMILES IDX 56 89 57 90 58 91 84 92 85 93 93 94 86 95 92 96 94 97 91 98
REMARK SMILES IDX 87 99 88 100 89 101 90 102 69 103 70 104 78 105 71 106
REMARK SMILES IDX 77 107 79 108 76 109 72 110 73 111 74 112 75 113
REMARK H PARENT 30 6 6 14 10 19 14 24 35 40 40 47 99 66 67 77
REMARK Flexibility Score: inf
ROOT
ATOM      1  C   UNL A   1      36.661  22.978  25.601  1.00  0.00     0.168 C 
ATOM      2  C   UNL A   1      37.597  24.063  26.115  1.00  0.00     0.041 C 
ENDROOT
BRANCH   1   3
ATOM      3  N   UNL A   1      35.554  22.535  26.506  1.00  0.00    -0.343 N 
ATOM      4  C   UNL A   1      34.652  21.464  26.527  1.00  0.00     0.243 C 
ATOM      5  O   UNL A   1      34.114  21.243  27.623  1.00  0.00    -0.273 OA
ATOM      6  H   UNL A   1      35.431  23.142  27.272  1.00  0.00     0.164 HD
BRANCH   4   7
ATOM      7  C   UNL A   1      34.164  20.597  25.238  1.00  0.00     0.171 C 
BRANCH   7   8
ATOM      8  C   UNL A   1      34.622  19.090  24.874  1.00  0.00     0.038 C 
BRANCH   8   9
ATOM      9  C   UNL A   1      33.620  17.874  24.474  1.00  0.00    -0.015 C 
ATOM     10  C   UNL A   1      33.506  17.424  22.989  1.00  0.00     0.007 C 
ATOM     11  C   UNL A   1      33.843  16.550  25.200  1.00  0.00     0.007 C 
ENDBRANCH   8   9
ENDBRANCH   7   8
BRANCH   7  12
ATOM     12  N   UNL A   1      34.211  21.367  24.062  1.00  0.00    -0.343 N 
ATOM     13  C   UNL A   1      33.325  22.384  23.886  1.00  0.00     0.240 C 
ATOM     14  H   UNL A   1      34.883  21.169  23.369  1.00  0.00     0.164 HD
ATOM     15  O   UNL A   1      33.567  23.182  22.979  1.00  0.00    -0.273 OA
BRANCH  13  16
ATOM     16  C   UNL A   1      32.038  22.511  24.845  1.00  0.00     0.216 C 
BRANCH  16  17
ATOM     17  N   UNL A   1      31.196  23.733  25.310  1.00  0.00    -0.345 N 
ATOM     18  C   UNL A   1      30.505  24.897  25.147  1.00  0.00     0.243 C 
ATOM     19  H   UNL A   1      31.116  23.576  26.278  1.00  0.00     0.164 HD
ATOM     20  O   UNL A   1      29.939  25.155  26.239  1.00  0.00    -0.273 OA
BRANCH  18  21
ATOM     21  C   UNL A   1      30.243  26.064  23.987  1.00  0.00     0.177 C 
BRANCH  21  22
ATOM     22  N   UNL A   1      30.756  25.846  22.599  1.00  0.00    -0.309 N 
ATOM     23  C   UNL A   1      31.725  26.445  21.830  1.00  0.00     0.408 C 
ATOM     24  H   UNL A   1      30.297  25.111  22.134  1.00  0.00     0.167 HD
ATOM     25  O   UNL A   1      31.814  26.191  20.638  1.00  0.00    -0.225 OA
BRANCH  23  26
ATOM     26  O   UNL A   1      32.492  27.361  22.474  1.00  0.00    -0.445 OA
BRANCH  26  27
ATOM     27  C   UNL A   1      33.063  26.944  23.732  1.00  0.00     0.270 C 
BRANCH  27  28
ATOM     28  C   UNL A   1      33.019  27.860  24.923  1.00  0.00    -0.011 A 
ATOM     29  C   UNL A   1      32.166  28.979  24.882  1.00  0.00     0.007 A 
ATOM     30  C   UNL A   1      33.713  27.575  26.098  1.00  0.00     0.007 A 
ATOM     31  C   UNL A   1      32.066  29.837  25.973  1.00  0.00     0.000 A 
ATOM     32  C   UNL A   1      33.614  28.436  27.190  1.00  0.00     0.000 A 
ATOM     33  C   UNL A   1      32.804  29.571  27.124  1.00  0.00     0.000 A 
ENDBRANCH  27  28
ENDBRANCH  26  27
ENDBRANCH  23  26
ENDBRANCH  21  22
BRANCH  21  34
ATOM     34  C   UNL A   1      29.055  27.057  24.118  1.00  0.00     0.015 C 
ATOM     35  C   UNL A   1      29.123  28.135  23.033  1.00  0.00     0.010 C 
ATOM     36  C   UNL A   1      27.657  26.402  24.017  1.00  0.00     0.010 C 
ENDBRANCH  21  34
ENDBRANCH  18  21
ENDBRANCH  16  17
ENDBRANCH  13  16
ENDBRANCH   7  12
ENDBRANCH   4   7
ENDBRANCH   1   3
BRANCH   1  37
ATOM     37  C   UNL A   1      37.484  21.820  24.976  1.00  0.00     0.242 C 
ATOM     38  O   UNL A   1      37.349  21.487  23.796  1.00  0.00    -0.273 OA
ATOM     39  N   UNL A   1      38.443  21.166  25.681  1.00  0.00    -0.354 N 
ATOM     40  H   UNL A   1      38.417  20.182  25.704  1.00  0.00     0.163 HD
BRANCH  39  41
ATOM     41  C   UNL A   1      39.496  21.840  26.397  1.00  0.00     0.116 C 
BRANCH  41  42
ATOM     42  C   UNL A   1      40.861  21.200  26.211  1.00  0.00     0.023 C 
BRANCH  42  43
ATOM     43  C   UNL A   1      42.048  22.146  26.033  1.00  0.00     0.023 C 
BRANCH  43  44
ATOM     44  C   UNL A   1      43.151  22.096  27.086  1.00  0.00     0.116 C 
BRANCH  44  45
ATOM     45  N   UNL A   1      44.493  22.015  26.536  1.00  0.00    -0.352 N 
ATOM     46  C   UNL A   1      45.449  22.992  26.428  1.00  0.00     0.251 C 
ATOM     47  H   UNL A   1      44.754  21.130  26.193  1.00  0.00     0.163 HD
ATOM     48  O   UNL A   1      46.530  22.737  25.909  1.00  0.00    -0.269 OA
BRANCH  46  49
ATOM     49  C   UNL A   1      45.133  24.359  26.877  1.00  0.00     0.039 A 
ATOM     50  C   UNL A   1      45.362  24.678  28.217  1.00  0.00     0.014 A 
ATOM     51  C   UNL A   1      44.686  25.329  25.975  1.00  0.00     0.014 A 
ATOM     52  C   UNL A   1      45.203  25.994  28.642  1.00  0.00     0.010 A 
ATOM     53  C   UNL A   1      44.600  26.654  26.387  1.00  0.00     0.010 A 
ATOM     54  C   UNL A   1      44.858  26.997  27.724  1.00  0.00    -0.014 A 
BRANCH  54  55
ATOM     55  C   UNL A   1      44.739  28.409  28.161  1.00  0.00     0.031 A 
ATOM     56  C   UNL A   1      45.939  29.309  28.098  1.00  0.00     0.074 A 
ATOM     57  C   UNL A   1      43.564  28.859  28.644  1.00  0.00     0.049 A 
ATOM     58  N   UNL A   1      46.059  30.556  28.470  1.00  0.00    -0.248 NA
ATOM     59  C   UNL A   1      47.178  28.714  27.575  1.00  0.00     0.031 C 
ATOM     60  C   UNL A   1      42.346  28.057  28.784  1.00  0.00     0.029 A 
ATOM     61  N   UNL A   1      43.200  30.096  29.108  1.00  0.00    -0.354 N 
ATOM     62  C   UNL A   1      47.389  30.892  28.237  1.00  0.00     0.074 A 
ATOM     63  C   UNL A   1      48.047  29.695  27.760  1.00  0.00     0.031 C 
ATOM     64  C   UNL A   1      41.364  28.831  29.271  1.00  0.00     0.029 A 
ATOM     65  C   UNL A   1      41.890  30.169  29.520  1.00  0.00     0.049 A 
ATOM     66  H   UNL A   1      43.819  30.862  29.143  1.00  0.00     0.167 HD
ATOM     67  C   UNL A   1      47.994  32.096  28.382  1.00  0.00     0.034 A 
ATOM     68  C   UNL A   1      41.197  31.198  30.046  1.00  0.00     0.034 A 
ATOM     69  C   UNL A   1      47.311  33.276  28.852  1.00  0.00     0.049 A 
ATOM     70  C   UNL A   1      41.897  32.521  30.223  1.00  0.00     0.074 A 
ATOM     71  C   UNL A   1      47.806  34.560  28.995  1.00  0.00     0.029 A 
ATOM     72  N   UNL A   1      45.985  33.313  29.267  1.00  0.00    -0.354 N 
ATOM     73  N   UNL A   1      43.142  32.840  29.948  1.00  0.00    -0.248 NA
ATOM     74  C   UNL A   1      41.097  33.625  30.766  1.00  0.00     0.031 C 
ATOM     75  C   UNL A   1      46.802  35.355  29.559  1.00  0.00     0.029 A 
ATOM     76  C   UNL A   1      45.654  34.590  29.694  1.00  0.00     0.049 A 
ATOM     77  H   UNL A   1      45.369  32.546  29.257  1.00  0.00     0.167 HD
ATOM     78  C   UNL A   1      43.266  34.190  30.262  1.00  0.00     0.074 A 
ATOM     79  C   UNL A   1      41.964  34.627  30.728  1.00  0.00     0.031 C 
ATOM     80  C   UNL A   1      44.353  34.999  30.171  1.00  0.00     0.034 A 
BRANCH  67  81
ATOM     81  C   UNL A   1      49.467  32.172  28.054  1.00  0.00     0.023 A 
ATOM     82  C   UNL A   1      49.927  32.711  26.838  1.00  0.00     0.031 A 
ATOM     83  C   UNL A   1      50.424  31.653  28.944  1.00  0.00     0.131 A 
ATOM     84  C   UNL A   1      51.288  32.637  26.507  1.00  0.00     0.055 A 
ATOM     85  C   UNL A   1      51.789  31.664  28.647  1.00  0.00     0.041 A 
ATOM     86  F   UNL A   1      50.047  31.104  30.110  1.00  0.00    -0.206 F 
ATOM     87  C   UNL A   1      52.227  32.142  27.415  1.00  0.00     0.022 A 
BRANCH  84  88
ATOM     88  S   UNL A   1      51.789  33.045  24.812  1.00  0.00     0.124 S 
ATOM     89  O   UNL A   1      50.776  34.027  24.434  1.00  0.00    -0.237 OA
ATOM     90  O   UNL A   1      53.141  33.559  24.998  1.00  0.00    -0.237 OA
ATOM     91  O   UNL A   1      51.698  31.766  24.111  1.00  0.00    -0.744 OA
ENDBRANCH  84  88
ENDBRANCH  67  81
BRANCH  68  92
ATOM     92  C   UNL A   1      39.772  31.023  30.450  1.00  0.00     0.023 A 
ATOM     93  C   UNL A   1      38.728  31.544  29.670  1.00  0.00     0.031 A 
ATOM     94  C   UNL A   1      39.435  30.357  31.643  1.00  0.00     0.131 A 
ATOM     95  C   UNL A   1      37.400  31.429  30.112  1.00  0.00     0.055 A 
ATOM     96  C   UNL A   1      38.110  30.201  32.052  1.00  0.00     0.041 A 
ATOM     97  F   UNL A   1      40.394  29.835  32.423  1.00  0.00    -0.206 F 
ATOM     98  C   UNL A   1      37.083  30.750  31.290  1.00  0.00     0.022 A 
BRANCH  95  99
ATOM     99  S   UNL A   1      36.093  32.252  29.160  1.00  0.00     0.124 S 
ATOM    100  O   UNL A   1      35.526  31.139  28.408  1.00  0.00    -0.237 OA
ATOM    101  O   UNL A   1      35.253  32.806  30.217  1.00  0.00    -0.237 OA
ATOM    102  O   UNL A   1      36.821  33.238  28.365  1.00  0.00    -0.744 OA
ENDBRANCH  95  99
ENDBRANCH  68  92
BRANCH  80 103
ATOM    103  C   UNL A   1      44.159  36.447  30.550  1.00  0.00     0.023 A 
ATOM    104  C   UNL A   1      44.236  36.878  31.886  1.00  0.00     0.031 A 
ATOM    105  C   UNL A   1      43.886  37.407  29.559  1.00  0.00     0.131 A 
ATOM    106  C   UNL A   1      43.984  38.221  32.201  1.00  0.00     0.055 A 
ATOM    107  C   UNL A   1      43.700  38.753  29.872  1.00  0.00     0.041 A 
ATOM    108  F   UNL A   1      43.799  37.049  28.268  1.00  0.00    -0.206 F 
ATOM    109  C   UNL A   1      43.735  39.164  31.201  1.00  0.00     0.022 A 
BRANCH 106 110
ATOM    110  S   UNL A   1      43.891  38.702  33.948  1.00  0.00     0.124 S 
ATOM    111  O   UNL A   1      44.026  40.152  33.869  1.00  0.00    -0.237 OA
ATOM    112  O   UNL A   1      42.577  38.204  34.339  1.00  0.00    -0.237 OA
ATOM    113  O   UNL A   1      45.024  38.006  34.555  1.00  0.00    -0.744 OA
ENDBRANCH 106 110
ENDBRANCH  80 103
ENDBRANCH  54  55
ENDBRANCH  46  49
ENDBRANCH  44  45
ENDBRANCH  43  44
ENDBRANCH  42  43
ENDBRANCH  41  42
ENDBRANCH  39  41
ENDBRANCH   1  37
TORSDOF 27
ENDMDL
MODEL 3
REMARK VINA RESULT:      -9.8      4.937     10.904
REMARK SMILES CC(C)C[C@H](NC(=O)CNC(=O)[C@@H](NC(=O)OCc1ccccc1)C(C)C)C(=O)N[C@@H](C)C(=O)NCCCCNC(=O)c1ccc(-c2c3nc(c(-c4cc(S(=O)(=O)[O-])ccc4F)c4ccc([nH]4)c(-c4cc(S(=O)(=O)[O-])ccc4F)c4nc(c(-c5cc(S(=O)(=O)[O-])ccc5F)c5ccc2[nH]5)C=C4)C=C3)cc1
REMARK SMILES IDX 31 1 32 2 30 3 28 4 29 5 5 7 4 8 2 9 1 10 3 11 6 12 7 13
REMARK SMILES IDX 8 15 9 16 10 17 11 18 12 20 13 21 14 22 15 23 16 25 17 26
REMARK SMILES IDX 18 27 19 28 20 29 24 30 21 31 23 32 22 33 25 34 26 35 27 36
REMARK SMILES IDX 33 37 34 38 35 39 36 41 37 42 38 43 39 44 40 45 41 46 42 48
REMARK SMILES IDX 43 49 44 50 105 51 45 52 104 53 46 54 47 55 48 56 98 57
REMARK SMILES IDX 49 58 103 59 97 60 99 61 50 62 102 63 96 64 95 65 51 67
REMARK SMILES IDX 83 68 63 69 82 70 64 71 67 72 81 73 100 74 65 75 66 76 80 78
REMARK SMILES IDX 101 79 68 80 52 81 53 82 61 83 54 84 60 85 62 86 59 87 55 88
REMARK SMILES IDX 56 89 57 90 58 91 84 92 85 93 93 94 86 95 92 96 94 97 91 98
REMARK SMILES IDX 87 99 88 100 89 101 90 102 69 103 70 104 78 105 71 106
REMARK SMILES IDX 77 107 79 108 76 109 72 110 73 111 74 112 75 113
REMARK H PARENT 30 6 6 14 10 19 14 24 35 40 40 47 99 66 67 77
REMARK Flexibility Score: inf
ROOT
ATOM      1  C   UNL A   1      43.875  30.280  28.632  1.00  0.00     0.168 C 
ATOM      2  C   UNL A   1      45.008  29.387  29.117  1.00  0.00     0.041 C 
ENDROOT
BRANCH   1   3
ATOM      3  N   UNL A   1      42.477  29.761  28.773  1.00  0.00    -0.343 N 
ATOM      4  C   UNL A   1      41.882  28.493  28.791  1.00  0.00     0.243 C 
ATOM      5  O   UNL A   1      40.741  28.449  29.277  1.00  0.00    -0.273 OA
ATOM      6  H   UNL A   1      41.818  30.484  28.878  1.00  0.00     0.164 HD
BRANCH   4   7
ATOM      7  C   UNL A   1      42.491  27.138  28.125  1.00  0.00     0.171 C 
BRANCH   7   8
ATOM      8  C   UNL A   1      43.432  26.052  28.865  1.00  0.00     0.038 C 
BRANCH   8   9
ATOM      9  C   UNL A   1      44.103  26.236  30.334  1.00  0.00    -0.015 C 
ATOM     10  C   UNL A   1      43.351  27.044  31.430  1.00  0.00     0.007 C 
ATOM     11  C   UNL A   1      44.476  24.953  31.072  1.00  0.00     0.007 C 
ENDBRANCH   8   9
ENDBRANCH   7   8
BRANCH   7  12
ATOM     12  N   UNL A   1      43.036  27.399  26.855  1.00  0.00    -0.343 N 
ATOM     13  C   UNL A   1      42.225  27.415  25.762  1.00  0.00     0.240 C 
ATOM     14  H   UNL A   1      44.002  27.569  26.757  1.00  0.00     0.164 HD
ATOM     15  O   UNL A   1      42.692  27.897  24.730  1.00  0.00    -0.273 OA
BRANCH  13  16
ATOM     16  C   UNL A   1      40.727  26.832  25.859  1.00  0.00     0.216 C 
BRANCH  16  17
ATOM     17  N   UNL A   1      40.093  25.720  26.742  1.00  0.00    -0.345 N 
ATOM     18  C   UNL A   1      39.440  24.547  26.981  1.00  0.00     0.243 C 
ATOM     19  H   UNL A   1      40.257  26.057  27.653  1.00  0.00     0.164 HD
ATOM     20  O   UNL A   1      39.490  24.333  28.218  1.00  0.00    -0.273 OA
BRANCH  18  21
ATOM     21  C   UNL A   1      38.579  23.385  26.154  1.00  0.00     0.177 C 
BRANCH  21  22
ATOM     22  N   UNL A   1      38.918  21.941  26.354  1.00  0.00    -0.309 N 
ATOM     23  C   UNL A   1      40.040  21.180  26.128  1.00  0.00     0.408 C 
ATOM     24  H   UNL A   1      38.172  21.423  26.731  1.00  0.00     0.167 HD
ATOM     25  O   UNL A   1      39.987  19.961  26.205  1.00  0.00    -0.225 OA
BRANCH  23  26
ATOM     26  O   UNL A   1      41.145  21.873  25.754  1.00  0.00    -0.445 OA
BRANCH  26  27
ATOM     27  C   UNL A   1      42.148  22.071  26.773  1.00  0.00     0.270 C 
BRANCH  27  28
ATOM     28  C   UNL A   1      43.368  22.900  26.482  1.00  0.00    -0.011 A 
ATOM     29  C   UNL A   1      43.341  23.774  25.378  1.00  0.00     0.007 A 
ATOM     30  C   UNL A   1      44.474  22.908  27.331  1.00  0.00     0.007 A 
ATOM     31  C   UNL A   1      44.434  24.586  25.089  1.00  0.00     0.000 A 
ATOM     32  C   UNL A   1      45.568  23.722  27.039  1.00  0.00     0.000 A 
ATOM     33  C   UNL A   1      45.554  24.548  25.914  1.00  0.00     0.000 A 
ENDBRANCH  27  28
ENDBRANCH  26  27
ENDBRANCH  23  26
ENDBRANCH  21  22
BRANCH  21  34
ATOM     34  C   UNL A   1      37.138  23.675  25.651  1.00  0.00     0.015 C 
ATOM     35  C   UNL A   1      36.942  23.153  24.226  1.00  0.00     0.010 C 
ATOM     36  C   UNL A   1      36.018  23.053  26.519  1.00  0.00     0.010 C 
ENDBRANCH  21  34
ENDBRANCH  18  21
ENDBRANCH  16  17
ENDBRANCH  13  16
ENDBRANCH   7  12
ENDBRANCH   4   7
ENDBRANCH   1   3
BRANCH   1  37
ATOM     37  C   UNL A   1      44.212  30.849  27.228  1.00  0.00     0.242 C 
ATOM     38  O   UNL A   1      43.771  30.339  26.195  1.00  0.00    -0.273 OA
ATOM     39  N   UNL A   1      44.950  31.978  27.076  1.00  0.00    -0.354 N 
ATOM     40  H   UNL A   1      45.722  31.954  26.465  1.00  0.00     0.163 HD
BRANCH  39  41
ATOM     41  C   UNL A   1      44.660  33.211  27.763  1.00  0.00     0.116 C 
BRANCH  41  42
ATOM     42  C   UNL A   1      43.777  34.156  26.966  1.00  0.00     0.023 C 
BRANCH  42  43
ATOM     43  C   UNL A   1      44.427  34.877  25.785  1.00  0.00     0.023 C 
BRANCH  43  44
ATOM     44  C   UNL A   1      45.949  34.853  25.698  1.00  0.00     0.116 C 
BRANCH  44  45
ATOM     45  N   UNL A   1      46.550  36.152  25.450  1.00  0.00    -0.352 N 
ATOM     46  C   UNL A   1      46.691  37.220  26.299  1.00  0.00     0.251 C 
ATOM     47  H   UNL A   1      46.908  36.284  24.543  1.00  0.00     0.163 HD
ATOM     48  O   UNL A   1      47.212  38.255  25.898  1.00  0.00    -0.269 OA
BRANCH  46  49
ATOM     49  C   UNL A   1      46.148  37.129  27.665  1.00  0.00     0.039 A 
ATOM     50  C   UNL A   1      44.993  37.855  27.961  1.00  0.00     0.014 A 
ATOM     51  C   UNL A   1      46.728  36.286  28.616  1.00  0.00     0.014 A 
ATOM     52  C   UNL A   1      44.378  37.686  29.199  1.00  0.00     0.010 A 
ATOM     53  C   UNL A   1      46.071  36.063  29.822  1.00  0.00     0.010 A 
ATOM     54  C   UNL A   1      44.891  36.763  30.122  1.00  0.00    -0.014 A 
BRANCH  54  55
ATOM     55  C   UNL A   1      44.210  36.540  31.420  1.00  0.00     0.031 A 
ATOM     56  C   UNL A   1      43.012  35.637  31.484  1.00  0.00     0.074 A 
ATOM     57  C   UNL A   1      44.651  37.180  32.521  1.00  0.00     0.049 A 
ATOM     58  N   UNL A   1      42.250  35.343  32.505  1.00  0.00    -0.248 NA
ATOM     59  C   UNL A   1      42.599  35.004  30.222  1.00  0.00     0.031 C 
ATOM     60  C   UNL A   1      45.783  38.109  32.561  1.00  0.00     0.029 A 
ATOM     61  N   UNL A   1      44.204  37.148  33.816  1.00  0.00    -0.354 N 
ATOM     62  C   UNL A   1      41.262  34.501  32.007  1.00  0.00     0.074 A 
ATOM     63  C   UNL A   1      41.482  34.392  30.581  1.00  0.00     0.031 C 
ATOM     64  C   UNL A   1      45.957  38.535  33.822  1.00  0.00     0.029 A 
ATOM     65  C   UNL A   1      44.927  37.948  34.671  1.00  0.00     0.049 A 
ATOM     66  H   UNL A   1      43.437  36.604  34.108  1.00  0.00     0.167 HD
ATOM     67  C   UNL A   1      40.280  33.858  32.684  1.00  0.00     0.034 A 
ATOM     68  C   UNL A   1      44.768  38.184  35.988  1.00  0.00     0.034 A 
ATOM     69  C   UNL A   1      40.087  33.978  34.109  1.00  0.00     0.049 A 
ATOM     70  C   UNL A   1      43.654  37.478  36.716  1.00  0.00     0.074 A 
ATOM     71  C   UNL A   1      39.159  33.340  34.911  1.00  0.00     0.029 A 
ATOM     72  N   UNL A   1      40.834  34.802  34.943  1.00  0.00    -0.354 N 
ATOM     73  N   UNL A   1      42.757  36.642  36.243  1.00  0.00    -0.248 NA
ATOM     74  C   UNL A   1      43.537  37.735  38.156  1.00  0.00     0.031 C 
ATOM     75  C   UNL A   1      39.300  33.828  36.215  1.00  0.00     0.029 A 
ATOM     76  C   UNL A   1      40.367  34.711  36.245  1.00  0.00     0.049 A 
ATOM     77  H   UNL A   1      41.586  35.366  34.653  1.00  0.00     0.167 HD
ATOM     78  C   UNL A   1      41.986  36.254  37.334  1.00  0.00     0.074 A 
ATOM     79  C   UNL A   1      42.536  36.934  38.491  1.00  0.00     0.031 C 
ATOM     80  C   UNL A   1      40.922  35.411  37.381  1.00  0.00     0.034 A 
BRANCH  67  81
ATOM     81  C   UNL A   1      39.333  32.999  31.878  1.00  0.00     0.023 A 
ATOM     82  C   UNL A   1      38.177  33.534  31.280  1.00  0.00     0.031 A 
ATOM     83  C   UNL A   1      39.560  31.618  31.745  1.00  0.00     0.131 A 
ATOM     84  C   UNL A   1      37.250  32.684  30.660  1.00  0.00     0.055 A 
ATOM     85  C   UNL A   1      38.678  30.790  31.047  1.00  0.00     0.041 A 
ATOM     86  F   UNL A   1      40.634  31.043  32.311  1.00  0.00    -0.206 F 
ATOM     87  C   UNL A   1      37.505  31.319  30.515  1.00  0.00     0.022 A 
BRANCH  84  88
ATOM     88  S   UNL A   1      35.633  33.362  30.193  1.00  0.00     0.124 S 
ATOM     89  O   UNL A   1      35.247  34.068  31.412  1.00  0.00    -0.237 OA
ATOM     90  O   UNL A   1      35.962  34.200  29.045  1.00  0.00    -0.237 OA
ATOM     91  O   UNL A   1      34.838  32.174  29.891  1.00  0.00    -0.744 OA
ENDBRANCH  84  88
ENDBRANCH  67  81
BRANCH  68  92
ATOM     92  C   UNL A   1      45.674  39.130  36.701  1.00  0.00     0.023 A 
ATOM     93  C   UNL A   1      45.359  40.493  36.811  1.00  0.00     0.031 A 
ATOM     94  C   UNL A   1      46.889  38.687  37.258  1.00  0.00     0.131 A 
ATOM     95  C   UNL A   1      46.265  41.374  37.423  1.00  0.00     0.055 A 
ATOM     96  C   UNL A   1      47.762  39.558  37.911  1.00  0.00     0.041 A 
ATOM     97  F   UNL A   1      47.236  37.392  37.186  1.00  0.00    -0.206 F 
ATOM     98  C   UNL A   1      47.458  40.913  37.985  1.00  0.00     0.022 A 
BRANCH  95  99
ATOM     99  S   UNL A   1      45.897  43.150  37.405  1.00  0.00     0.124 S 
ATOM    100  O   UNL A   1      47.223  43.730  37.585  1.00  0.00    -0.237 OA
ATOM    101  O   UNL A   1      45.296  43.321  36.086  1.00  0.00    -0.237 OA
ATOM    102  O   UNL A   1      44.982  43.320  38.531  1.00  0.00    -0.744 OA
ENDBRANCH  95  99
ENDBRANCH  68  92
BRANCH  80 103
ATOM    103  C   UNL A   1      40.315  35.154  38.739  1.00  0.00     0.023 A 
ATOM    104  C   UNL A   1      40.637  34.008  39.487  1.00  0.00     0.031 A 
ATOM    105  C   UNL A   1      39.395  36.066  39.286  1.00  0.00     0.131 A 
ATOM    106  C   UNL A   1      39.999  33.775  40.714  1.00  0.00     0.055 A 
ATOM    107  C   UNL A   1      38.813  35.861  40.536  1.00  0.00     0.041 A 
ATOM    108  F   UNL A   1      39.050  37.175  38.613  1.00  0.00    -0.206 F 
ATOM    109  C   UNL A   1      39.104  34.703  41.252  1.00  0.00     0.022 A 
BRANCH 106 110
ATOM    110  S   UNL A   1      40.284  32.194  41.556  1.00  0.00     0.124 S 
ATOM    111  O   UNL A   1      39.073  31.452  41.224  1.00  0.00    -0.237 OA
ATOM    112  O   UNL A   1      41.514  31.722  40.928  1.00  0.00    -0.237 OA
ATOM    113  O   UNL A   1      40.413  32.573  42.963  1.00  0.00    -0.744 OA
ENDBRANCH 106 110
ENDBRANCH  80 103
ENDBRANCH  54  55
ENDBRANCH  46  49
ENDBRANCH  44  45
ENDBRANCH  43  44
ENDBRANCH  42  43
ENDBRANCH  41  42
ENDBRANCH  39  41
ENDBRANCH   1  37
TORSDOF 27
ENDMDL
