MODEL 1
REMARK VINA RESULT:     -11.0      0.000      0.000
REMARK SMILES CCc1nc(COC)cc(N2CCCC[C@H]2C(=O)NCCCCNC(=O)c2ccc(-c3c4nc(c(-c5cc(S(=O)(=O)[O-])ccc5F)c5ccc([nH]5)c(-c5cc(S(=O)(=O)[O-])ccc5F)c5nc(c(-c6cc(S(=O)(=O)[O-])ccc6F)c6ccc3[nH]6)C=C5)C=C4)cc2)n1
REMARK SMILES IDX 21 1 20 2 19 3 17 4 18 5 16 7 11 8 12 9 13 10 15 11 14 12
REMARK SMILES IDX 10 13 3 14 4 15 90 16 5 17 9 18 2 19 1 20 6 21 7 22 8 23
REMARK SMILES IDX 22 24 23 25 24 26 25 27 26 29 27 30 28 31 89 32 29 33 88 34
REMARK SMILES IDX 30 35 31 36 32 37 82 38 33 39 87 40 81 41 83 42 34 43 86 44
REMARK SMILES IDX 80 45 79 46 35 48 67 49 47 50 66 51 48 52 51 53 65 54 84 55
REMARK SMILES IDX 49 56 50 57 64 59 85 60 52 61 36 62 37 63 45 64 38 65 44 66
REMARK SMILES IDX 46 67 43 68 39 69 40 70 41 71 42 72 68 73 69 74 77 75 70 76
REMARK SMILES IDX 76 77 78 78 75 79 71 80 72 81 73 82 74 83 53 84 54 85 62 86
REMARK SMILES IDX 55 87 61 88 63 89 60 90 56 91 57 92 58 93 59 94
REMARK H PARENT 19 6 24 28 83 47 51 58
REMARK Flexibility Score: inf
ROOT
ATOM      1  C   UNL A   1      34.982  30.113  27.815  1.00  0.00     0.023 C 
ENDROOT
BRANCH   1   2
ATOM      2  C   UNL A   1      34.503  28.943  26.965  1.00  0.00     0.116 C 
BRANCH   2   3
ATOM      3  N   UNL A   1      33.186  28.480  27.347  1.00  0.00    -0.354 N 
ATOM      4  C   UNL A   1      32.421  27.435  26.933  1.00  0.00     0.242 C 
ATOM      5  O   UNL A   1      31.410  27.227  27.618  1.00  0.00    -0.273 OA
ATOM      6  H   UNL A   1      32.760  29.031  28.043  1.00  0.00     0.163 HD
BRANCH   4   7
ATOM      7  C   UNL A   1      32.652  26.612  25.637  1.00  0.00     0.173 C 
ATOM      8  N   UNL A   1      32.200  25.214  25.643  1.00  0.00    -0.344 N 
ATOM      9  C   UNL A   1      30.762  24.945  25.572  1.00  0.00     0.119 C 
ATOM     10  C   UNL A   1      30.125  25.669  24.395  1.00  0.00     0.022 C 
ATOM     11  C   UNL A   1      32.009  27.323  24.426  1.00  0.00     0.035 C 
ATOM     12  C   UNL A   1      30.490  27.150  24.402  1.00  0.00     0.004 C 
BRANCH   8  13
ATOM     13  C   UNL A   1      33.092  24.155  25.654  1.00  0.00     0.133 A 
ATOM     14  C   UNL A   1      35.216  23.349  25.244  1.00  0.00     0.130 A 
ATOM     15  N   UNL A   1      34.868  22.067  25.433  1.00  0.00    -0.235 NA
ATOM     16  N   UNL A   1      34.364  24.388  25.300  1.00  0.00    -0.216 NA
ATOM     17  C   UNL A   1      33.578  21.831  25.738  1.00  0.00     0.072 A 
ATOM     18  C   UNL A   1      32.674  22.861  25.922  1.00  0.00     0.073 A 
BRANCH  14  19
ATOM     19  C   UNL A   1      36.651  23.614  24.873  1.00  0.00     0.074 C 
ATOM     20  C   UNL A   1      37.531  23.976  26.061  1.00  0.00     0.012 C 
ENDBRANCH  14  19
BRANCH  17  21
ATOM     21  C   UNL A   1      33.116  20.390  25.825  1.00  0.00     0.216 C 
BRANCH  21  22
ATOM     22  O   UNL A   1      32.011  20.088  24.964  1.00  0.00    -0.378 OA
ATOM     23  C   UNL A   1      32.381  19.965  23.596  1.00  0.00     0.195 C 
ENDBRANCH  21  22
ENDBRANCH  17  21
ENDBRANCH   8  13
ENDBRANCH   4   7
ENDBRANCH   2   3
ENDBRANCH   1   2
BRANCH   1  24
ATOM     24  C   UNL A   1      34.484  31.479  27.354  1.00  0.00     0.023 C 
BRANCH  24  25
ATOM     25  C   UNL A   1      33.058  31.820  27.774  1.00  0.00     0.116 C 
BRANCH  25  26
ATOM     26  N   UNL A   1      32.784  33.252  27.781  1.00  0.00    -0.352 N 
ATOM     27  C   UNL A   1      33.399  34.237  28.519  1.00  0.00     0.251 C 
ATOM     28  H   UNL A   1      32.065  33.554  27.179  1.00  0.00     0.163 HD
ATOM     29  O   UNL A   1      32.980  35.390  28.484  1.00  0.00    -0.269 OA
BRANCH  27  30
ATOM     30  C   UNL A   1      34.537  33.869  29.381  1.00  0.00     0.039 A 
ATOM     31  C   UNL A   1      34.295  33.157  30.558  1.00  0.00     0.014 A 
ATOM     32  C   UNL A   1      35.844  34.154  28.976  1.00  0.00     0.014 A 
ATOM     33  C   UNL A   1      35.373  32.658  31.289  1.00  0.00     0.010 A 
ATOM     34  C   UNL A   1      36.910  33.586  29.660  1.00  0.00     0.010 A 
ATOM     35  C   UNL A   1      36.687  32.831  30.824  1.00  0.00    -0.014 A 
BRANCH  35  36
ATOM     36  C   UNL A   1      37.848  32.249  31.542  1.00  0.00     0.031 A 
ATOM     37  C   UNL A   1      38.637  31.143  30.898  1.00  0.00     0.074 A 
ATOM     38  C   UNL A   1      38.138  32.653  32.794  1.00  0.00     0.049 A 
ATOM     39  N   UNL A   1      39.608  30.420  31.392  1.00  0.00    -0.248 NA
ATOM     40  C   UNL A   1      38.252  30.777  29.526  1.00  0.00     0.031 C 
ATOM     41  C   UNL A   1      37.412  33.684  33.542  1.00  0.00     0.029 A 
ATOM     42  N   UNL A   1      39.113  32.240  33.666  1.00  0.00    -0.354 N 
ATOM     43  C   UNL A   1      39.932  29.497  30.402  1.00  0.00     0.074 A 
ATOM     44  C   UNL A   1      39.007  29.712  29.310  1.00  0.00     0.031 C 
ATOM     45  C   UNL A   1      37.983  33.837  34.747  1.00  0.00     0.029 A 
ATOM     46  C   UNL A   1      39.086  32.890  34.877  1.00  0.00     0.049 A 
ATOM     47  H   UNL A   1      39.772  31.542  33.444  1.00  0.00     0.167 HD
ATOM     48  C   UNL A   1      40.927  28.576  30.394  1.00  0.00     0.034 A 
ATOM     49  C   UNL A   1      39.861  32.736  35.969  1.00  0.00     0.034 A 
ATOM     50  C   UNL A   1      41.855  28.393  31.483  1.00  0.00     0.049 A 
ATOM     51  C   UNL A   1      40.969  31.714  35.934  1.00  0.00     0.074 A 
ATOM     52  C   UNL A   1      42.929  27.524  31.567  1.00  0.00     0.029 A 
ATOM     53  N   UNL A   1      41.820  29.098  32.680  1.00  0.00    -0.354 N 
ATOM     54  N   UNL A   1      41.289  30.875  34.976  1.00  0.00    -0.248 NA
ATOM     55  C   UNL A   1      41.828  31.629  37.122  1.00  0.00     0.031 C 
ATOM     56  C   UNL A   1      43.511  27.666  32.832  1.00  0.00     0.029 A 
ATOM     57  C   UNL A   1      42.844  28.672  33.513  1.00  0.00     0.049 A 
ATOM     58  H   UNL A   1      41.165  29.797  32.904  1.00  0.00     0.167 HD
ATOM     59  C   UNL A   1      42.410  30.188  35.433  1.00  0.00     0.074 A 
ATOM     60  C   UNL A   1      42.713  30.718  36.747  1.00  0.00     0.031 C 
ATOM     61  C   UNL A   1      43.128  29.213  34.821  1.00  0.00     0.034 A 
BRANCH  48  62
ATOM     62  C   UNL A   1      41.035  27.691  29.175  1.00  0.00     0.023 A 
ATOM     63  C   UNL A   1      42.018  27.909  28.192  1.00  0.00     0.031 A 
ATOM     64  C   UNL A   1      40.113  26.651  28.961  1.00  0.00     0.131 A 
ATOM     65  C   UNL A   1      41.997  27.166  27.003  1.00  0.00     0.055 A 
ATOM     66  C   UNL A   1      40.154  25.855  27.814  1.00  0.00     0.041 A 
ATOM     67  F   UNL A   1      39.139  26.407  29.851  1.00  0.00    -0.206 F 
ATOM     68  C   UNL A   1      41.089  26.122  26.818  1.00  0.00     0.022 A 
BRANCH  65  69
ATOM     69  S   UNL A   1      43.067  27.695  25.637  1.00  0.00     0.124 S 
ATOM     70  O   UNL A   1      43.978  28.613  26.318  1.00  0.00    -0.237 OA
ATOM     71  O   UNL A   1      43.649  26.436  25.186  1.00  0.00    -0.237 OA
ATOM     72  O   UNL A   1      42.141  28.327  24.700  1.00  0.00    -0.744 OA
ENDBRANCH  65  69
ENDBRANCH  48  62
BRANCH  49  73
ATOM     73  C   UNL A   1      39.630  33.566  37.185  1.00  0.00     0.023 A 
ATOM     74  C   UNL A   1      38.899  33.062  38.272  1.00  0.00     0.031 A 
ATOM     75  C   UNL A   1      40.103  34.887  37.264  1.00  0.00     0.131 A 
ATOM     76  C   UNL A   1      38.618  33.888  39.371  1.00  0.00     0.055 A 
ATOM     77  C   UNL A   1      39.863  35.691  38.380  1.00  0.00     0.041 A 
ATOM     78  F   UNL A   1      40.818  35.414  36.257  1.00  0.00    -0.206 F 
ATOM     79  C   UNL A   1      39.105  35.195  39.438  1.00  0.00     0.022 A 
BRANCH  76  80
ATOM     80  S   UNL A   1      37.541  33.251  40.684  1.00  0.00     0.124 S 
ATOM     81  O   UNL A   1      36.347  32.881  39.934  1.00  0.00    -0.237 OA
ATOM     82  O   UNL A   1      38.333  32.147  41.215  1.00  0.00    -0.237 OA
ATOM     83  O   UNL A   1      37.387  34.394  41.581  1.00  0.00    -0.744 OA
ENDBRANCH  76  80
ENDBRANCH  49  73
BRANCH  61  84
ATOM     84  C   UNL A   1      44.348  28.704  35.549  1.00  0.00     0.023 A 
ATOM     85  C   UNL A   1      44.266  27.679  36.506  1.00  0.00     0.031 A 
ATOM     86  C   UNL A   1      45.609  29.267  35.284  1.00  0.00     0.131 A 
ATOM     87  C   UNL A   1      45.417  27.285  37.205  1.00  0.00     0.055 A 
ATOM     88  C   UNL A   1      46.760  28.833  35.942  1.00  0.00     0.041 A 
ATOM     89  F   UNL A   1      45.742  30.250  34.379  1.00  0.00    -0.206 F 
ATOM     90  C   UNL A   1      46.665  27.845  36.918  1.00  0.00     0.022 A 
BRANCH  87  91
ATOM     91  S   UNL A   1      45.248  26.089  38.559  1.00  0.00     0.124 S 
ATOM     92  O   UNL A   1      44.348  26.788  39.471  1.00  0.00    -0.237 OA
ATOM     93  O   UNL A   1      44.689  24.926  37.879  1.00  0.00    -0.237 OA
ATOM     94  O   UNL A   1      46.617  25.924  39.044  1.00  0.00    -0.744 OA
ENDBRANCH  87  91
ENDBRANCH  61  84
ENDBRANCH  35  36
ENDBRANCH  27  30
ENDBRANCH  25  26
ENDBRANCH  24  25
ENDBRANCH   1  24
TORSDOF 18
ENDMDL
MODEL 2
REMARK VINA RESULT:     -11.0      2.432      8.084
REMARK SMILES CCc1nc(COC)cc(N2CCCC[C@H]2C(=O)NCCCCNC(=O)c2ccc(-c3c4nc(c(-c5cc(S(=O)(=O)[O-])ccc5F)c5ccc([nH]5)c(-c5cc(S(=O)(=O)[O-])ccc5F)c5nc(c(-c6cc(S(=O)(=O)[O-])ccc6F)c6ccc3[nH]6)C=C5)C=C4)cc2)n1
REMARK SMILES IDX 21 1 20 2 19 3 17 4 18 5 16 7 11 8 12 9 13 10 15 11 14 12
REMARK SMILES IDX 10 13 3 14 4 15 90 16 5 17 9 18 2 19 1 20 6 21 7 22 8 23
REMARK SMILES IDX 22 24 23 25 24 26 25 27 26 29 27 30 28 31 89 32 29 33 88 34
REMARK SMILES IDX 30 35 31 36 32 37 82 38 33 39 87 40 81 41 83 42 34 43 86 44
REMARK SMILES IDX 80 45 79 46 35 48 67 49 47 50 66 51 48 52 51 53 65 54 84 55
REMARK SMILES IDX 49 56 50 57 64 59 85 60 52 61 36 62 37 63 45 64 38 65 44 66
REMARK SMILES IDX 46 67 43 68 39 69 40 70 41 71 42 72 68 73 69 74 77 75 70 76
REMARK SMILES IDX 76 77 78 78 75 79 71 80 72 81 73 82 74 83 53 84 54 85 62 86
REMARK SMILES IDX 55 87 61 88 63 89 60 90 56 91 57 92 58 93 59 94
REMARK H PARENT 19 6 24 28 83 47 51 58
REMARK Flexibility Score: inf
ROOT
ATOM      1  C   UNL A   1      31.553  28.261  27.417  1.00  0.00     0.023 C 
ENDROOT
BRANCH   1   2
ATOM      2  C   UNL A   1      32.264  27.023  26.888  1.00  0.00     0.116 C 
BRANCH   2   3
ATOM      3  N   UNL A   1      31.414  26.214  26.039  1.00  0.00    -0.354 N 
ATOM      4  C   UNL A   1      31.677  25.201  25.170  1.00  0.00     0.242 C 
ATOM      5  O   UNL A   1      30.675  24.605  24.749  1.00  0.00    -0.273 OA
ATOM      6  H   UNL A   1      30.459  26.442  26.104  1.00  0.00     0.163 HD
BRANCH   4   7
ATOM      7  C   UNL A   1      33.077  24.852  24.596  1.00  0.00     0.173 C 
ATOM      8  N   UNL A   1      33.177  23.640  23.771  1.00  0.00    -0.344 N 
ATOM      9  C   UNL A   1      32.615  23.668  22.418  1.00  0.00     0.119 C 
ATOM     10  C   UNL A   1      33.146  24.855  21.628  1.00  0.00     0.022 C 
ATOM     11  C   UNL A   1      33.635  26.039  23.782  1.00  0.00     0.035 C 
ATOM     12  C   UNL A   1      32.974  26.154  22.408  1.00  0.00     0.004 C 
BRANCH   8  13
ATOM     13  C   UNL A   1      33.835  22.505  24.213  1.00  0.00     0.133 A 
ATOM     14  C   UNL A   1      35.818  21.421  24.684  1.00  0.00     0.130 A 
ATOM     15  N   UNL A   1      35.231  20.228  24.867  1.00  0.00    -0.235 NA
ATOM     16  N   UNL A   1      35.171  22.542  24.320  1.00  0.00    -0.216 NA
ATOM     17  C   UNL A   1      33.895  20.182  24.708  1.00  0.00     0.072 A 
ATOM     18  C   UNL A   1      33.155  21.320  24.445  1.00  0.00     0.073 A 
BRANCH  14  19
ATOM     19  C   UNL A   1      37.315  21.470  24.831  1.00  0.00     0.074 C 
ATOM     20  C   UNL A   1      37.968  20.096  24.890  1.00  0.00     0.012 C 
ENDBRANCH  14  19
BRANCH  17  21
ATOM     21  C   UNL A   1      33.213  18.830  24.771  1.00  0.00     0.216 C 
BRANCH  21  22
ATOM     22  O   UNL A   1      34.066  17.738  24.405  1.00  0.00    -0.378 OA
ATOM     23  C   UNL A   1      33.390  16.708  23.697  1.00  0.00     0.195 C 
ENDBRANCH  21  22
ENDBRANCH  17  21
ENDBRANCH   8  13
ENDBRANCH   4   7
ENDBRANCH   2   3
ENDBRANCH   1   2
BRANCH   1  24
ATOM     24  C   UNL A   1      31.675  29.494  26.527  1.00  0.00     0.023 C 
BRANCH  24  25
ATOM     25  C   UNL A   1      33.032  30.189  26.572  1.00  0.00     0.116 C 
BRANCH  25  26
ATOM     26  N   UNL A   1      32.951  31.590  26.966  1.00  0.00    -0.352 N 
ATOM     27  C   UNL A   1      33.855  32.327  27.695  1.00  0.00     0.251 C 
ATOM     28  H   UNL A   1      32.145  32.073  26.671  1.00  0.00     0.163 HD
ATOM     29  O   UNL A   1      33.590  33.477  28.030  1.00  0.00    -0.269 OA
BRANCH  27  30
ATOM     30  C   UNL A   1      35.122  31.691  28.101  1.00  0.00     0.039 A 
ATOM     31  C   UNL A   1      36.279  32.470  28.174  1.00  0.00     0.014 A 
ATOM     32  C   UNL A   1      35.139  30.350  28.493  1.00  0.00     0.014 A 
ATOM     33  C   UNL A   1      37.440  31.920  28.719  1.00  0.00     0.010 A 
ATOM     34  C   UNL A   1      36.271  29.832  29.109  1.00  0.00     0.010 A 
ATOM     35  C   UNL A   1      37.433  30.612  29.231  1.00  0.00    -0.014 A 
BRANCH  35  36
ATOM     36  C   UNL A   1      38.632  30.027  29.882  1.00  0.00     0.031 A 
ATOM     37  C   UNL A   1      39.038  30.505  31.249  1.00  0.00     0.074 A 
ATOM     38  C   UNL A   1      39.392  29.136  29.217  1.00  0.00     0.049 A 
ATOM     39  N   UNL A   1      40.106  30.214  31.946  1.00  0.00    -0.248 NA
ATOM     40  C   UNL A   1      38.139  31.471  31.898  1.00  0.00     0.031 C 
ATOM     41  C   UNL A   1      39.126  28.634  27.866  1.00  0.00     0.029 A 
ATOM     42  N   UNL A   1      40.553  28.500  29.581  1.00  0.00    -0.354 N 
ATOM     43  C   UNL A   1      40.020  30.982  33.103  1.00  0.00     0.074 A 
ATOM     44  C   UNL A   1      38.831  31.796  32.978  1.00  0.00     0.031 C 
ATOM     45  C   UNL A   1      40.081  27.753  27.528  1.00  0.00     0.029 A 
ATOM     46  C   UNL A   1      41.049  27.656  28.616  1.00  0.00     0.049 A 
ATOM     47  H   UNL A   1      40.989  28.636  30.453  1.00  0.00     0.167 HD
ATOM     48  C   UNL A   1      40.841  30.984  34.182  1.00  0.00     0.034 A 
ATOM     49  C   UNL A   1      42.161  26.895  28.609  1.00  0.00     0.034 A 
ATOM     50  C   UNL A   1      42.009  30.146  34.298  1.00  0.00     0.049 A 
ATOM     51  C   UNL A   1      43.055  26.904  29.823  1.00  0.00     0.074 A 
ATOM     52  C   UNL A   1      42.888  30.030  35.362  1.00  0.00     0.029 A 
ATOM     53  N   UNL A   1      42.460  29.274  33.315  1.00  0.00    -0.354 N 
ATOM     54  N   UNL A   1      42.940  27.605  30.928  1.00  0.00    -0.248 NA
ATOM     55  C   UNL A   1      44.218  26.009  29.795  1.00  0.00     0.031 C 
ATOM     56  C   UNL A   1      43.897  29.128  35.001  1.00  0.00     0.029 A 
ATOM     57  C   UNL A   1      43.611  28.629  33.740  1.00  0.00     0.049 A 
ATOM     58  H   UNL A   1      42.025  29.134  32.443  1.00  0.00     0.167 HD
ATOM     59  C   UNL A   1      43.997  27.206  31.741  1.00  0.00     0.074 A 
ATOM     60  C   UNL A   1      44.731  26.200  31.001  1.00  0.00     0.031 C 
ATOM     61  C   UNL A   1      44.329  27.629  32.987  1.00  0.00     0.034 A 
BRANCH  48  62
ATOM     62  C   UNL A   1      40.504  31.940  35.301  1.00  0.00     0.023 A 
ATOM     63  C   UNL A   1      39.609  31.587  36.327  1.00  0.00     0.031 A 
ATOM     64  C   UNL A   1      41.038  33.241  35.316  1.00  0.00     0.131 A 
ATOM     65  C   UNL A   1      39.202  32.547  37.265  1.00  0.00     0.055 A 
ATOM     66  C   UNL A   1      40.698  34.166  36.307  1.00  0.00     0.041 A 
ATOM     67  F   UNL A   1      41.881  33.646  34.353  1.00  0.00    -0.206 F 
ATOM     68  C   UNL A   1      39.761  33.826  37.279  1.00  0.00     0.022 A 
BRANCH  65  69
ATOM     69  S   UNL A   1      37.813  32.148  38.361  1.00  0.00     0.124 S 
ATOM     70  O   UNL A   1      36.954  33.317  38.183  1.00  0.00    -0.237 OA
ATOM     71  O   UNL A   1      37.316  30.898  37.798  1.00  0.00    -0.237 OA
ATOM     72  O   UNL A   1      38.437  32.037  39.678  1.00  0.00    -0.744 OA
ENDBRANCH  65  69
ENDBRANCH  48  62
BRANCH  49  73
ATOM     73  C   UNL A   1      42.497  26.056  27.424  1.00  0.00     0.023 A 
ATOM     74  C   UNL A   1      42.095  24.713  27.355  1.00  0.00     0.031 A 
ATOM     75  C   UNL A   1      43.258  26.572  26.360  1.00  0.00     0.131 A 
ATOM     76  C   UNL A   1      42.495  23.916  26.272  1.00  0.00     0.055 A 
ATOM     77  C   UNL A   1      43.613  25.789  25.260  1.00  0.00     0.041 A 
ATOM     78  F   UNL A   1      43.658  27.853  26.371  1.00  0.00    -0.206 F 
ATOM     79  C   UNL A   1      43.242  24.448  25.218  1.00  0.00     0.022 A 
BRANCH  76  80
ATOM     80  S   UNL A   1      42.087  22.149  26.296  1.00  0.00     0.124 S 
ATOM     81  O   UNL A   1      42.808  21.662  25.125  1.00  0.00    -0.237 OA
ATOM     82  O   UNL A   1      42.615  21.736  27.592  1.00  0.00    -0.237 OA
ATOM     83  O   UNL A   1      40.631  22.135  26.185  1.00  0.00    -0.744 OA
ENDBRANCH  76  80
ENDBRANCH  49  73
BRANCH  61  84
ATOM     84  C   UNL A   1      45.505  26.952  33.647  1.00  0.00     0.023 A 
ATOM     85  C   UNL A   1      45.353  25.790  34.422  1.00  0.00     0.031 A 
ATOM     86  C   UNL A   1      46.796  27.490  33.501  1.00  0.00     0.131 A 
ATOM     87  C   UNL A   1      46.467  25.234  35.070  1.00  0.00     0.055 A 
ATOM     88  C   UNL A   1      47.909  26.901  34.102  1.00  0.00     0.041 A 
ATOM     89  F   UNL A   1      46.995  28.599  32.771  1.00  0.00    -0.206 F 
ATOM     90  C   UNL A   1      47.746  25.774  34.902  1.00  0.00     0.022 A 
BRANCH  87  91
ATOM     91  S   UNL A   1      46.210  23.845  36.207  1.00  0.00     0.124 S 
ATOM     92  O   UNL A   1      44.759  23.692  36.177  1.00  0.00    -0.237 OA
ATOM     93  O   UNL A   1      46.976  22.777  35.572  1.00  0.00    -0.237 OA
ATOM     94  O   UNL A   1      46.757  24.331  37.472  1.00  0.00    -0.744 OA
ENDBRANCH  87  91
ENDBRANCH  61  84
ENDBRANCH  35  36
ENDBRANCH  27  30
ENDBRANCH  25  26
ENDBRANCH  24  25
ENDBRANCH   1  24
TORSDOF 18
ENDMDL
MODEL 3
REMARK VINA RESULT:     -10.9      6.038      9.678
REMARK SMILES CCc1nc(COC)cc(N2CCCC[C@H]2C(=O)NCCCCNC(=O)c2ccc(-c3c4nc(c(-c5cc(S(=O)(=O)[O-])ccc5F)c5ccc([nH]5)c(-c5cc(S(=O)(=O)[O-])ccc5F)c5nc(c(-c6cc(S(=O)(=O)[O-])ccc6F)c6ccc3[nH]6)C=C5)C=C4)cc2)n1
REMARK SMILES IDX 21 1 20 2 19 3 17 4 18 5 16 7 11 8 12 9 13 10 15 11 14 12
REMARK SMILES IDX 10 13 3 14 4 15 90 16 5 17 9 18 2 19 1 20 6 21 7 22 8 23
REMARK SMILES IDX 22 24 23 25 24 26 25 27 26 29 27 30 28 31 89 32 29 33 88 34
REMARK SMILES IDX 30 35 31 36 32 37 82 38 33 39 87 40 81 41 83 42 34 43 86 44
REMARK SMILES IDX 80 45 79 46 35 48 67 49 47 50 66 51 48 52 51 53 65 54 84 55
REMARK SMILES IDX 49 56 50 57 64 59 85 60 52 61 36 62 37 63 45 64 38 65 44 66
REMARK SMILES IDX 46 67 43 68 39 69 40 70 41 71 42 72 68 73 69 74 77 75 70 76
REMARK SMILES IDX 76 77 78 78 75 79 71 80 72 81 73 82 74 83 53 84 54 85 62 86
REMARK SMILES IDX 55 87 61 88 63 89 60 90 56 91 57 92 58 93 59 94
REMARK H PARENT 19 6 24 28 83 47 51 58
REMARK Flexibility Score: inf
ROOT
ATOM      1  C   UNL A   1      39.442  22.974  26.578  1.00  0.00     0.023 C 
ENDROOT
BRANCH   1   2
ATOM      2  C   UNL A   1      38.191  23.714  26.125  1.00  0.00     0.116 C 
BRANCH   2   3
ATOM      3  N   UNL A   1      37.770  23.333  24.793  1.00  0.00    -0.354 N 
ATOM      4  C   UNL A   1      36.561  23.350  24.170  1.00  0.00     0.242 C 
ATOM      5  O   UNL A   1      36.603  23.125  22.951  1.00  0.00    -0.273 OA
ATOM      6  H   UNL A   1      38.502  22.995  24.229  1.00  0.00     0.163 HD
BRANCH   4   7
ATOM      7  C   UNL A   1      35.187  23.491  24.878  1.00  0.00     0.173 C 
ATOM      8  N   UNL A   1      34.040  23.872  24.042  1.00  0.00    -0.344 N 
ATOM      9  C   UNL A   1      33.480  22.874  23.128  1.00  0.00     0.119 C 
ATOM     10  C   UNL A   1      33.156  21.580  23.859  1.00  0.00     0.022 C 
ATOM     11  C   UNL A   1      34.831  22.186  25.623  1.00  0.00     0.035 C 
ATOM     12  C   UNL A   1      34.355  21.092  24.667  1.00  0.00     0.004 C 
BRANCH   8  13
ATOM     13  C   UNL A   1      33.444  25.118  24.140  1.00  0.00     0.133 A 
ATOM     14  C   UNL A   1      32.016  26.706  23.265  1.00  0.00     0.130 A 
ATOM     15  N   UNL A   1      32.386  27.656  24.138  1.00  0.00    -0.235 NA
ATOM     16  N   UNL A   1      32.546  25.471  23.210  1.00  0.00    -0.216 NA
ATOM     17  C   UNL A   1      33.326  27.314  25.039  1.00  0.00     0.072 A 
ATOM     18  C   UNL A   1      33.831  26.028  25.111  1.00  0.00     0.073 A 
BRANCH  14  19
ATOM     19  C   UNL A   1      30.987  27.094  22.237  1.00  0.00     0.074 C 
ATOM     20  C   UNL A   1      30.063  28.214  22.692  1.00  0.00     0.012 C 
ENDBRANCH  14  19
BRANCH  17  21
ATOM     21  C   UNL A   1      33.868  28.395  25.952  1.00  0.00     0.216 C 
BRANCH  21  22
ATOM     22  O   UNL A   1      33.118  29.615  25.908  1.00  0.00    -0.378 OA
ATOM     23  C   UNL A   1      32.433  29.899  27.121  1.00  0.00     0.195 C 
ENDBRANCH  21  22
ENDBRANCH  17  21
ENDBRANCH   8  13
ENDBRANCH   4   7
ENDBRANCH   2   3
ENDBRANCH   1   2
BRANCH   1  24
ATOM     24  C   UNL A   1      39.541  21.533  26.088  1.00  0.00     0.023 C 
BRANCH  24  25
ATOM     25  C   UNL A   1      40.439  20.627  26.925  1.00  0.00     0.116 C 
BRANCH  25  26
ATOM     26  N   UNL A   1      41.453  19.934  26.141  1.00  0.00    -0.352 N 
ATOM     27  C   UNL A   1      42.664  20.412  25.695  1.00  0.00     0.251 C 
ATOM     28  H   UNL A   1      41.246  19.003  25.898  1.00  0.00     0.163 HD
ATOM     29  O   UNL A   1      43.365  19.730  24.955  1.00  0.00    -0.269 OA
BRANCH  27  30
ATOM     30  C   UNL A   1      43.076  21.773  26.089  1.00  0.00     0.039 A 
ATOM     31  C   UNL A   1      43.026  22.797  25.142  1.00  0.00     0.014 A 
ATOM     32  C   UNL A   1      43.425  22.042  27.415  1.00  0.00     0.014 A 
ATOM     33  C   UNL A   1      43.249  24.114  25.547  1.00  0.00     0.010 A 
ATOM     34  C   UNL A   1      43.564  23.360  27.830  1.00  0.00     0.010 A 
ATOM     35  C   UNL A   1      43.477  24.410  26.901  1.00  0.00    -0.014 A 
BRANCH  35  36
ATOM     36  C   UNL A   1      43.644  25.808  27.372  1.00  0.00     0.031 A 
ATOM     37  C   UNL A   1      45.011  26.435  27.358  1.00  0.00     0.074 A 
ATOM     38  C   UNL A   1      42.592  26.477  27.883  1.00  0.00     0.049 A 
ATOM     39  N   UNL A   1      45.398  27.592  27.827  1.00  0.00    -0.248 NA
ATOM     40  C   UNL A   1      46.094  25.630  26.772  1.00  0.00     0.031 C 
ATOM     41  C   UNL A   1      41.228  25.954  27.996  1.00  0.00     0.029 A 
ATOM     42  N   UNL A   1      42.507  27.738  28.417  1.00  0.00    -0.354 N 
ATOM     43  C   UNL A   1      46.772  27.644  27.617  1.00  0.00     0.074 A 
ATOM     44  C   UNL A   1      47.155  26.373  27.040  1.00  0.00     0.031 C 
ATOM     45  C   UNL A   1      40.440  26.896  28.539  1.00  0.00     0.029 A 
ATOM     46  C   UNL A   1      41.245  28.071  28.852  1.00  0.00     0.049 A 
ATOM     47  H   UNL A   1      43.277  28.348  28.481  1.00  0.00     0.167 HD
ATOM     48  C   UNL A   1      47.630  28.667  27.856  1.00  0.00     0.034 A 
ATOM     49  C   UNL A   1      40.793  29.196  29.442  1.00  0.00     0.034 A 
ATOM     50  C   UNL A   1      47.224  29.935  28.409  1.00  0.00     0.049 A 
ATOM     51  C   UNL A   1      41.761  30.326  29.689  1.00  0.00     0.074 A 
ATOM     52  C   UNL A   1      47.995  31.059  28.652  1.00  0.00     0.029 A 
ATOM     53  N   UNL A   1      45.929  30.250  28.803  1.00  0.00    -0.354 N 
ATOM     54  N   UNL A   1      43.051  30.376  29.447  1.00  0.00    -0.248 NA
ATOM     55  C   UNL A   1      41.209  31.554  30.272  1.00  0.00     0.031 C 
ATOM     56  C   UNL A   1      47.179  32.033  29.240  1.00  0.00     0.029 A 
ATOM     57  C   UNL A   1      45.884  31.544  29.301  1.00  0.00     0.049 A 
ATOM     58  H   UNL A   1      45.157  29.644  28.739  1.00  0.00     0.167 HD
ATOM     59  C   UNL A   1      43.456  31.655  29.817  1.00  0.00     0.074 A 
ATOM     60  C   UNL A   1      42.272  32.344  30.288  1.00  0.00     0.031 C 
ATOM     61  C   UNL A   1      44.692  32.213  29.767  1.00  0.00     0.034 A 
BRANCH  48  62
ATOM     62  C   UNL A   1      49.087  28.432  27.536  1.00  0.00     0.023 A 
ATOM     63  C   UNL A   1      49.619  28.730  26.268  1.00  0.00     0.031 A 
ATOM     64  C   UNL A   1      49.944  27.853  28.488  1.00  0.00     0.131 A 
ATOM     65  C   UNL A   1      50.936  28.361  25.957  1.00  0.00     0.055 A 
ATOM     66  C   UNL A   1      51.282  27.572  28.199  1.00  0.00     0.041 A 
ATOM     67  F   UNL A   1      49.491  27.527  29.709  1.00  0.00    -0.206 F 
ATOM     68  C   UNL A   1      51.780  27.809  26.922  1.00  0.00     0.022 A 
BRANCH  65  69
ATOM     69  S   UNL A   1      51.474  28.465  24.227  1.00  0.00     0.124 S 
ATOM     70  O   UNL A   1      52.615  27.552  24.221  1.00  0.00    -0.237 OA
ATOM     71  O   UNL A   1      50.292  28.014  23.502  1.00  0.00    -0.237 OA
ATOM     72  O   UNL A   1      51.813  29.876  24.057  1.00  0.00    -0.744 OA
ENDBRANCH  65  69
ENDBRANCH  48  62
BRANCH  49  73
ATOM     73  C   UNL A   1      39.362  29.321  29.837  1.00  0.00     0.023 A 
ATOM     74  C   UNL A   1      38.479  30.126  29.099  1.00  0.00     0.031 A 
ATOM     75  C   UNL A   1      38.864  28.670  30.978  1.00  0.00     0.131 A 
ATOM     76  C   UNL A   1      37.157  30.299  29.536  1.00  0.00     0.055 A 
ATOM     77  C   UNL A   1      37.534  28.806  31.383  1.00  0.00     0.041 A 
ATOM     78  F   UNL A   1      39.662  27.879  31.712  1.00  0.00    -0.206 F 
ATOM     79  C   UNL A   1      36.676  29.636  30.667  1.00  0.00     0.022 A 
BRANCH  76  80
ATOM     80  S   UNL A   1      36.094  31.468  28.646  1.00  0.00     0.124 S 
ATOM     81  O   UNL A   1      36.930  32.661  28.608  1.00  0.00    -0.237 OA
ATOM     82  O   UNL A   1      35.895  30.784  27.372  1.00  0.00    -0.237 OA
ATOM     83  O   UNL A   1      34.907  31.561  29.493  1.00  0.00    -0.744 OA
ENDBRANCH  76  80
ENDBRANCH  49  73
BRANCH  61  84
ATOM     84  C   UNL A   1      44.806  33.660  30.177  1.00  0.00     0.023 A 
ATOM     85  C   UNL A   1      44.634  34.708  29.257  1.00  0.00     0.031 A 
ATOM     86  C   UNL A   1      45.101  33.989  31.512  1.00  0.00     0.131 A 
ATOM     87  C   UNL A   1      44.814  36.036  29.672  1.00  0.00     0.055 A 
ATOM     88  C   UNL A   1      45.224  35.314  31.931  1.00  0.00     0.041 A 
ATOM     89  F   UNL A   1      45.274  33.026  32.431  1.00  0.00    -0.206 F 
ATOM     90  C   UNL A   1      45.093  36.346  31.006  1.00  0.00     0.022 A 
BRANCH  87  91
ATOM     91  S   UNL A   1      44.765  37.353  28.425  1.00  0.00     0.124 S 
ATOM     92  O   UNL A   1      45.022  38.543  29.230  1.00  0.00    -0.237 OA
ATOM     93  O   UNL A   1      45.832  36.958  27.513  1.00  0.00    -0.237 OA
ATOM     94  O   UNL A   1      43.414  37.255  27.876  1.00  0.00    -0.744 OA
ENDBRANCH  87  91
ENDBRANCH  61  84
ENDBRANCH  35  36
ENDBRANCH  27  30
ENDBRANCH  25  26
ENDBRANCH  24  25
ENDBRANCH   1  24
TORSDOF 18
ENDMDL
