MODEL 1
REMARK VINA RESULT:     -12.2      0.000      0.000
REMARK SMILES CC[C@@]1(C(=O)NCCCCNC(=O)c2ccc(-c3c4nc(c(-c5cc(S(=O)(=O)[O-])ccc5F)c5ccc([nH]5)c(-c5cc(S(=O)(=O)[O-])ccc5F)c5nc(c(-c6cc(S(=O)(=O)[O-])ccc6F)c6ccc3[nH]6)C=C5)C=C4)cc2)CCC[N@@H+](Cc2ccc(C3CC3)cc2)C1
REMARK SMILES IDX 8 1 7 2 6 3 4 4 5 5 3 7 77 8 91 9 78 10 80 11 79 12 2 14
REMARK SMILES IDX 1 15 81 16 82 17 83 18 90 19 84 20 89 21 85 22 86 23 87 24
REMARK SMILES IDX 88 25 9 26 10 27 11 28 12 29 13 31 14 32 15 33 76 34 16 35
REMARK SMILES IDX 75 36 17 37 18 38 19 39 69 40 20 41 74 42 68 43 70 44 21 45
REMARK SMILES IDX 73 46 67 47 66 48 22 50 54 51 34 52 53 53 35 54 38 55 52 56
REMARK SMILES IDX 71 57 36 58 37 59 51 61 72 62 39 63 23 64 24 65 32 66 25 67
REMARK SMILES IDX 31 68 33 69 30 70 26 71 27 72 28 73 29 74 55 75 56 76 64 77
REMARK SMILES IDX 57 78 63 79 65 80 62 81 58 82 59 83 60 84 61 85 40 86 41 87
REMARK SMILES IDX 49 88 42 89 48 90 50 91 47 92 43 93 44 94 45 95 46 96
REMARK H PARENT 6 6 80 13 11 30 70 49 38 60
REMARK Flexibility Score: inf
ROOT
ATOM      1  C   UNL A   1      31.709  28.163  27.368  1.00  0.00     0.023 C 
ENDROOT
BRANCH   1   2
ATOM      2  C   UNL A   1      31.845  26.847  26.617  1.00  0.00     0.116 C 
BRANCH   2   3
ATOM      3  N   UNL A   1      31.294  26.890  25.281  1.00  0.00    -0.355 N 
ATOM      4  C   UNL A   1      31.775  26.511  24.069  1.00  0.00     0.231 C 
ATOM      5  O   UNL A   1      30.909  26.414  23.185  1.00  0.00    -0.274 OA
ATOM      6  H   UNL A   1      30.387  27.269  25.242  1.00  0.00     0.163 HD
BRANCH   4   7
ATOM      7  C   UNL A   1      33.275  26.391  23.676  1.00  0.00     0.098 C 
ATOM      8  C   UNL A   1      33.336  25.937  22.187  1.00  0.00     0.028 C 
ATOM      9  C   UNL A   1      34.157  25.391  24.441  1.00  0.00     0.279 C 
ATOM     10  C   UNL A   1      32.924  24.465  22.038  1.00  0.00     0.063 C 
ATOM     11  N   UNL A   1      33.693  24.002  24.336  1.00  0.00    -0.330 N 
ATOM     12  C   UNL A   1      33.736  23.537  22.948  1.00  0.00     0.262 C 
ATOM     13  H   UNL A   1      32.715  24.001  24.623  1.00  0.00     0.348 HD
BRANCH   7  14
ATOM     14  C   UNL A   1      33.820  27.856  23.802  1.00  0.00     0.019 C 
ATOM     15  C   UNL A   1      34.188  28.578  22.510  1.00  0.00     0.005 C 
ENDBRANCH   7  14
BRANCH  11  16
ATOM     16  C   UNL A   1      34.330  23.076  25.292  1.00  0.00     0.299 C 
BRANCH  16  17
ATOM     17  C   UNL A   1      34.081  21.598  25.093  1.00  0.00     0.006 A 
ATOM     18  C   UNL A   1      32.782  21.089  25.049  1.00  0.00     0.010 A 
ATOM     19  C   UNL A   1      35.147  20.699  24.971  1.00  0.00     0.010 A 
ATOM     20  C   UNL A   1      32.563  19.722  24.832  1.00  0.00     0.004 A 
ATOM     21  C   UNL A   1      34.920  19.344  24.723  1.00  0.00     0.004 A 
ATOM     22  C   UNL A   1      33.623  18.819  24.634  1.00  0.00    -0.045 A 
BRANCH  22  23
ATOM     23  C   UNL A   1      33.337  17.361  24.331  1.00  0.00     0.019 C 
ATOM     24  C   UNL A   1      34.111  16.635  23.254  1.00  0.00     0.009 C 
ATOM     25  C   UNL A   1      34.318  16.272  24.696  1.00  0.00     0.009 C 
ENDBRANCH  22  23
ENDBRANCH  16  17
ENDBRANCH  11  16
ENDBRANCH   4   7
ENDBRANCH   2   3
ENDBRANCH   1   2
BRANCH   1  26
ATOM     26  C   UNL A   1      31.787  29.406  26.487  1.00  0.00     0.023 C 
BRANCH  26  27
ATOM     27  C   UNL A   1      33.118  30.151  26.522  1.00  0.00     0.116 C 
BRANCH  27  28
ATOM     28  N   UNL A   1      33.014  31.520  27.009  1.00  0.00    -0.352 N 
ATOM     29  C   UNL A   1      33.899  32.210  27.806  1.00  0.00     0.251 C 
ATOM     30  H   UNL A   1      32.210  32.016  26.731  1.00  0.00     0.163 HD
ATOM     31  O   UNL A   1      33.625  33.338  28.204  1.00  0.00    -0.269 OA
BRANCH  29  32
ATOM     32  C   UNL A   1      35.156  31.550  28.213  1.00  0.00     0.039 A 
ATOM     33  C   UNL A   1      36.344  32.280  28.189  1.00  0.00     0.014 A 
ATOM     34  C   UNL A   1      35.140  30.235  28.689  1.00  0.00     0.014 A 
ATOM     35  C   UNL A   1      37.507  31.719  28.718  1.00  0.00     0.010 A 
ATOM     36  C   UNL A   1      36.280  29.708  29.286  1.00  0.00     0.010 A 
ATOM     37  C   UNL A   1      37.475  30.445  29.309  1.00  0.00    -0.014 A 
BRANCH  37  38
ATOM     38  C   UNL A   1      38.680  29.857  29.949  1.00  0.00     0.031 A 
ATOM     39  C   UNL A   1      39.110  30.335  31.308  1.00  0.00     0.074 A 
ATOM     40  C   UNL A   1      39.423  28.955  29.279  1.00  0.00     0.049 A 
ATOM     41  N   UNL A   1      40.175  30.021  32.000  1.00  0.00    -0.248 NA
ATOM     42  C   UNL A   1      38.243  31.330  31.956  1.00  0.00     0.031 C 
ATOM     43  C   UNL A   1      39.136  28.453  27.932  1.00  0.00     0.029 A 
ATOM     44  N   UNL A   1      40.579  28.307  29.633  1.00  0.00    -0.354 N 
ATOM     45  C   UNL A   1      40.116  30.793  33.155  1.00  0.00     0.074 A 
ATOM     46  C   UNL A   1      38.947  31.638  33.033  1.00  0.00     0.031 C 
ATOM     47  C   UNL A   1      40.076  27.559  27.587  1.00  0.00     0.029 A 
ATOM     48  C   UNL A   1      41.053  27.451  28.666  1.00  0.00     0.049 A 
ATOM     49  H   UNL A   1      41.028  28.443  30.499  1.00  0.00     0.167 HD
ATOM     50  C   UNL A   1      40.945  30.781  34.228  1.00  0.00     0.034 A 
ATOM     51  C   UNL A   1      42.153  26.673  28.650  1.00  0.00     0.034 A 
ATOM     52  C   UNL A   1      42.097  29.919  34.339  1.00  0.00     0.049 A 
ATOM     53  C   UNL A   1      43.059  26.670  29.853  1.00  0.00     0.074 A 
ATOM     54  C   UNL A   1      42.977  29.782  35.398  1.00  0.00     0.029 A 
ATOM     55  N   UNL A   1      42.531  29.045  33.348  1.00  0.00    -0.354 N 
ATOM     56  N   UNL A   1      42.965  27.370  30.960  1.00  0.00    -0.248 NA
ATOM     57  C   UNL A   1      44.212  25.761  29.810  1.00  0.00     0.031 C 
ATOM     58  C   UNL A   1      43.973  28.870  35.029  1.00  0.00     0.029 A 
ATOM     59  C   UNL A   1      43.677  28.384  33.765  1.00  0.00     0.049 A 
ATOM     60  H   UNL A   1      42.091  28.915  32.478  1.00  0.00     0.167 HD
ATOM     61  C   UNL A   1      44.030  26.961  31.759  1.00  0.00     0.074 A 
ATOM     62  C   UNL A   1      44.743  25.946  31.010  1.00  0.00     0.031 C 
ATOM     63  C   UNL A   1      44.381  27.380  33.002  1.00  0.00     0.034 A 
BRANCH  50  64
ATOM     64  C   UNL A   1      40.635  31.746  35.348  1.00  0.00     0.023 A 
ATOM     65  C   UNL A   1      39.563  31.530  36.232  1.00  0.00     0.031 A 
ATOM     66  C   UNL A   1      41.383  32.927  35.502  1.00  0.00     0.131 A 
ATOM     67  C   UNL A   1      39.208  32.518  37.162  1.00  0.00     0.055 A 
ATOM     68  C   UNL A   1      41.081  33.866  36.491  1.00  0.00     0.041 A 
ATOM     69  F   UNL A   1      42.407  33.200  34.678  1.00  0.00    -0.206 F 
ATOM     70  C   UNL A   1      39.976  33.674  37.315  1.00  0.00     0.022 A 
BRANCH  67  71
ATOM     71  S   UNL A   1      37.635  32.345  38.048  1.00  0.00     0.124 S 
ATOM     72  O   UNL A   1      37.459  30.895  38.054  1.00  0.00    -0.237 OA
ATOM     73  O   UNL A   1      37.929  32.959  39.337  1.00  0.00    -0.237 OA
ATOM     74  O   UNL A   1      36.687  33.077  37.209  1.00  0.00    -0.744 OA
ENDBRANCH  67  71
ENDBRANCH  50  64
BRANCH  51  75
ATOM     75  C   UNL A   1      42.461  25.827  27.462  1.00  0.00     0.023 A 
ATOM     76  C   UNL A   1      42.027  24.493  27.396  1.00  0.00     0.031 A 
ATOM     77  C   UNL A   1      43.219  26.330  26.390  1.00  0.00     0.131 A 
ATOM     78  C   UNL A   1      42.392  23.693  26.302  1.00  0.00     0.055 A 
ATOM     79  C   UNL A   1      43.539  25.543  25.282  1.00  0.00     0.041 A 
ATOM     80  F   UNL A   1      43.648  27.601  26.401  1.00  0.00    -0.206 F 
ATOM     81  C   UNL A   1      43.135  24.212  25.239  1.00  0.00     0.022 A 
BRANCH  78  82
ATOM     82  S   UNL A   1      41.933  21.938  26.320  1.00  0.00     0.124 S 
ATOM     83  O   UNL A   1      40.505  22.001  26.032  1.00  0.00    -0.237 OA
ATOM     84  O   UNL A   1      42.779  21.393  25.263  1.00  0.00    -0.237 OA
ATOM     85  O   UNL A   1      42.280  21.510  27.674  1.00  0.00    -0.744 OA
ENDBRANCH  78  82
ENDBRANCH  51  75
BRANCH  63  86
ATOM     86  C   UNL A   1      45.564  26.697  33.642  1.00  0.00     0.023 A 
ATOM     87  C   UNL A   1      45.427  25.500  34.366  1.00  0.00     0.031 A 
ATOM     88  C   UNL A   1      46.846  27.265  33.536  1.00  0.00     0.131 A 
ATOM     89  C   UNL A   1      46.545  24.939  35.003  1.00  0.00     0.055 A 
ATOM     90  C   UNL A   1      47.963  26.672  34.124  1.00  0.00     0.041 A 
ATOM     91  F   UNL A   1      47.032  28.409  32.857  1.00  0.00    -0.206 F 
ATOM     92  C   UNL A   1      47.814  25.508  34.874  1.00  0.00     0.022 A 
BRANCH  89  93
ATOM     93  S   UNL A   1      46.302  23.500  36.080  1.00  0.00     0.124 S 
ATOM     94  O   UNL A   1      44.867  23.264  35.953  1.00  0.00    -0.237 OA
ATOM     95  O   UNL A   1      47.169  22.500  35.466  1.00  0.00    -0.237 OA
ATOM     96  O   UNL A   1      46.738  23.975  37.392  1.00  0.00    -0.744 OA
ENDBRANCH  89  93
ENDBRANCH  63  86
ENDBRANCH  37  38
ENDBRANCH  29  32
ENDBRANCH  27  28
ENDBRANCH  26  27
ENDBRANCH   1  26
TORSDOF 18
ENDMDL
MODEL 2
REMARK VINA RESULT:     -11.8      4.799      9.613
REMARK SMILES CC[C@@]1(C(=O)NCCCCNC(=O)c2ccc(-c3c4nc(c(-c5cc(S(=O)(=O)[O-])ccc5F)c5ccc([nH]5)c(-c5cc(S(=O)(=O)[O-])ccc5F)c5nc(c(-c6cc(S(=O)(=O)[O-])ccc6F)c6ccc3[nH]6)C=C5)C=C4)cc2)CCC[N@@H+](Cc2ccc(C3CC3)cc2)C1
REMARK SMILES IDX 8 1 7 2 6 3 4 4 5 5 3 7 77 8 91 9 78 10 80 11 79 12 2 14
REMARK SMILES IDX 1 15 81 16 82 17 83 18 90 19 84 20 89 21 85 22 86 23 87 24
REMARK SMILES IDX 88 25 9 26 10 27 11 28 12 29 13 31 14 32 15 33 76 34 16 35
REMARK SMILES IDX 75 36 17 37 18 38 19 39 69 40 20 41 74 42 68 43 70 44 21 45
REMARK SMILES IDX 73 46 67 47 66 48 22 50 54 51 34 52 53 53 35 54 38 55 52 56
REMARK SMILES IDX 71 57 36 58 37 59 51 61 72 62 39 63 23 64 24 65 32 66 25 67
REMARK SMILES IDX 31 68 33 69 30 70 26 71 27 72 28 73 29 74 55 75 56 76 64 77
REMARK SMILES IDX 57 78 63 79 65 80 62 81 58 82 59 83 60 84 61 85 40 86 41 87
REMARK SMILES IDX 49 88 42 89 48 90 50 91 47 92 43 93 44 94 45 95 46 96
REMARK H PARENT 6 6 80 13 11 30 70 49 38 60
REMARK Flexibility Score: inf
ROOT
ATOM      1  C   UNL A   1      36.047  23.376  23.895  1.00  0.00     0.023 C 
ENDROOT
BRANCH   1   2
ATOM      2  C   UNL A   1      34.672  24.017  24.012  1.00  0.00     0.116 C 
BRANCH   2   3
ATOM      3  N   UNL A   1      34.692  25.300  24.679  1.00  0.00    -0.355 N 
ATOM      4  C   UNL A   1      33.821  26.341  24.711  1.00  0.00     0.231 C 
ATOM      5  O   UNL A   1      34.026  27.148  25.630  1.00  0.00    -0.274 OA
ATOM      6  H   UNL A   1      35.501  25.448  25.220  1.00  0.00     0.163 HD
BRANCH   4   7
ATOM      7  C   UNL A   1      32.766  26.685  23.621  1.00  0.00     0.098 C 
ATOM      8  C   UNL A   1      31.711  27.631  24.270  1.00  0.00     0.028 C 
ATOM      9  C   UNL A   1      31.953  25.540  22.998  1.00  0.00     0.279 C 
ATOM     10  C   UNL A   1      30.811  26.868  25.252  1.00  0.00     0.063 C 
ATOM     11  N   UNL A   1      31.158  24.786  23.975  1.00  0.00    -0.330 N 
ATOM     12  C   UNL A   1      30.154  25.641  24.609  1.00  0.00     0.262 C 
ATOM     13  H   UNL A   1      31.805  24.490  24.706  1.00  0.00     0.348 HD
BRANCH   7  14
ATOM     14  C   UNL A   1      33.582  27.472  22.537  1.00  0.00     0.019 C 
ATOM     15  C   UNL A   1      33.854  28.949  22.803  1.00  0.00     0.005 C 
ENDBRANCH   7  14
BRANCH  11  16
ATOM     16  C   UNL A   1      30.617  23.513  23.463  1.00  0.00     0.299 C 
BRANCH  16  17
ATOM     17  C   UNL A   1      31.430  22.264  23.718  1.00  0.00     0.006 A 
ATOM     18  C   UNL A   1      31.811  21.908  25.014  1.00  0.00     0.010 A 
ATOM     19  C   UNL A   1      31.843  21.445  22.660  1.00  0.00     0.010 A 
ATOM     20  C   UNL A   1      32.537  20.731  25.241  1.00  0.00     0.004 A 
ATOM     21  C   UNL A   1      32.538  20.258  22.899  1.00  0.00     0.004 A 
ATOM     22  C   UNL A   1      32.894  19.861  24.196  1.00  0.00    -0.045 A 
BRANCH  22  23
ATOM     23  C   UNL A   1      33.618  18.563  24.497  1.00  0.00     0.019 C 
ATOM     24  C   UNL A   1      32.840  17.295  24.767  1.00  0.00     0.009 C 
ATOM     25  C   UNL A   1      33.641  17.425  23.505  1.00  0.00     0.009 C 
ENDBRANCH  22  23
ENDBRANCH  16  17
ENDBRANCH  11  16
ENDBRANCH   4   7
ENDBRANCH   2   3
ENDBRANCH   1   2
BRANCH   1  26
ATOM     26  C   UNL A   1      36.113  21.929  24.373  1.00  0.00     0.023 C 
BRANCH  26  27
ATOM     27  C   UNL A   1      36.746  21.720  25.745  1.00  0.00     0.116 C 
BRANCH  27  28
ATOM     28  N   UNL A   1      37.811  20.727  25.759  1.00  0.00    -0.352 N 
ATOM     29  C   UNL A   1      39.132  20.900  26.106  1.00  0.00     0.251 C 
ATOM     30  H   UNL A   1      37.554  19.816  25.487  1.00  0.00     0.163 HD
ATOM     31  O   UNL A   1      39.931  19.976  25.982  1.00  0.00    -0.269 OA
BRANCH  29  32
ATOM     32  C   UNL A   1      39.577  22.225  26.580  1.00  0.00     0.039 A 
ATOM     33  C   UNL A   1      40.516  22.297  27.610  1.00  0.00     0.014 A 
ATOM     34  C   UNL A   1      39.122  23.389  25.953  1.00  0.00     0.014 A 
ATOM     35  C   UNL A   1      41.061  23.534  27.959  1.00  0.00     0.010 A 
ATOM     36  C   UNL A   1      39.721  24.608  26.249  1.00  0.00     0.010 A 
ATOM     37  C   UNL A   1      40.699  24.693  27.253  1.00  0.00    -0.014 A 
BRANCH  37  38
ATOM     38  C   UNL A   1      41.322  26.008  27.552  1.00  0.00     0.031 A 
ATOM     39  C   UNL A   1      42.738  26.277  27.124  1.00  0.00     0.074 A 
ATOM     40  C   UNL A   1      40.643  26.924  28.271  1.00  0.00     0.049 A 
ATOM     41  N   UNL A   1      43.494  27.317  27.364  1.00  0.00    -0.248 NA
ATOM     42  C   UNL A   1      43.402  25.214  26.355  1.00  0.00     0.031 C 
ATOM     43  C   UNL A   1      39.283  26.756  28.788  1.00  0.00     0.029 A 
ATOM     44  N   UNL A   1      41.008  28.174  28.702  1.00  0.00    -0.354 N 
ATOM     45  C   UNL A   1      44.729  27.026  26.793  1.00  0.00     0.074 A 
ATOM     46  C   UNL A   1      44.635  25.684  26.258  1.00  0.00     0.031 C 
ATOM     47  C   UNL A   1      38.921  27.871  29.443  1.00  0.00     0.029 A 
ATOM     48  C   UNL A   1      40.033  28.816  29.429  1.00  0.00     0.049 A 
ATOM     49  H   UNL A   1      41.887  28.573  28.509  1.00  0.00     0.167 HD
ATOM     50  C   UNL A   1      45.829  27.813  26.701  1.00  0.00     0.034 A 
ATOM     51  C   UNL A   1      40.038  30.026  30.020  1.00  0.00     0.034 A 
ATOM     52  C   UNL A   1      45.898  29.155  27.226  1.00  0.00     0.049 A 
ATOM     53  C   UNL A   1      41.268  30.888  29.903  1.00  0.00     0.074 A 
ATOM     54  C   UNL A   1      46.939  30.063  27.146  1.00  0.00     0.029 A 
ATOM     55  N   UNL A   1      44.879  29.783  27.935  1.00  0.00    -0.354 N 
ATOM     56  N   UNL A   1      42.413  30.619  29.318  1.00  0.00    -0.248 NA
ATOM     57  C   UNL A   1      41.202  32.222  30.514  1.00  0.00     0.031 C 
ATOM     58  C   UNL A   1      46.574  31.216  27.852  1.00  0.00     0.029 A 
ATOM     59  C   UNL A   1      45.277  31.056  28.314  1.00  0.00     0.049 A 
ATOM     60  H   UNL A   1      44.004  29.382  28.138  1.00  0.00     0.167 HD
ATOM     61  C   UNL A   1      43.191  31.765  29.464  1.00  0.00     0.074 A 
ATOM     62  C   UNL A   1      42.381  32.728  30.181  1.00  0.00     0.031 C 
ATOM     63  C   UNL A   1      44.458  32.001  29.037  1.00  0.00     0.034 A 
BRANCH  50  64
ATOM     64  C   UNL A   1      47.043  27.222  26.024  1.00  0.00     0.023 A 
ATOM     65  C   UNL A   1      47.988  26.462  26.737  1.00  0.00     0.031 A 
ATOM     66  C   UNL A   1      47.292  27.468  24.662  1.00  0.00     0.131 A 
ATOM     67  C   UNL A   1      49.179  26.059  26.115  1.00  0.00     0.055 A 
ATOM     68  C   UNL A   1      48.438  26.984  24.024  1.00  0.00     0.041 A 
ATOM     69  F   UNL A   1      46.438  28.202  23.931  1.00  0.00    -0.206 F 
ATOM     70  C   UNL A   1      49.398  26.292  24.755  1.00  0.00     0.022 A 
BRANCH  67  71
ATOM     71  S   UNL A   1      50.503  25.375  27.148  1.00  0.00     0.124 S 
ATOM     72  O   UNL A   1      50.920  26.551  27.908  1.00  0.00    -0.237 OA
ATOM     73  O   UNL A   1      49.811  24.337  27.903  1.00  0.00    -0.237 OA
ATOM     74  O   UNL A   1      51.482  24.892  26.174  1.00  0.00    -0.744 OA
ENDBRANCH  67  71
ENDBRANCH  50  64
BRANCH  51  75
ATOM     75  C   UNL A   1      38.842  30.504  30.771  1.00  0.00     0.023 A 
ATOM     76  C   UNL A   1      37.866  31.294  30.143  1.00  0.00     0.031 A 
ATOM     77  C   UNL A   1      38.674  30.204  32.134  1.00  0.00     0.131 A 
ATOM     78  C   UNL A   1      36.786  31.794  30.888  1.00  0.00     0.055 A 
ATOM     79  C   UNL A   1      37.575  30.666  32.860  1.00  0.00     0.041 A 
ATOM     80  F   UNL A   1      39.575  29.445  32.777  1.00  0.00    -0.206 F 
ATOM     81  C   UNL A   1      36.628  31.476  32.239  1.00  0.00     0.022 A 
BRANCH  78  82
ATOM     82  S   UNL A   1      35.623  32.925  30.078  1.00  0.00     0.124 S 
ATOM     83  O   UNL A   1      35.110  33.687  31.210  1.00  0.00    -0.237 OA
ATOM     84  O   UNL A   1      36.494  33.649  29.158  1.00  0.00    -0.237 OA
ATOM     85  O   UNL A   1      34.662  32.025  29.442  1.00  0.00    -0.744 OA
ENDBRANCH  78  82
ENDBRANCH  51  75
BRANCH  63  86
ATOM     86  C   UNL A   1      45.018  33.379  29.295  1.00  0.00     0.023 A 
ATOM     87  C   UNL A   1      44.977  34.390  28.319  1.00  0.00     0.031 A 
ATOM     88  C   UNL A   1      45.615  33.674  30.533  1.00  0.00     0.131 A 
ATOM     89  C   UNL A   1      45.573  35.634  28.580  1.00  0.00     0.055 A 
ATOM     90  C   UNL A   1      46.155  34.931  30.806  1.00  0.00     0.041 A 
ATOM     91  F   UNL A   1      45.681  32.744  31.499  1.00  0.00    -0.206 F 
ATOM     92  C   UNL A   1      46.148  35.916  29.822  1.00  0.00     0.022 A 
BRANCH  89  93
ATOM     93  S   UNL A   1      45.667  36.852  27.240  1.00  0.00     0.124 S 
ATOM     94  O   UNL A   1      46.771  37.700  27.676  1.00  0.00    -0.237 OA
ATOM     95  O   UNL A   1      45.927  36.015  26.074  1.00  0.00    -0.237 OA
ATOM     96  O   UNL A   1      44.351  37.489  27.262  1.00  0.00    -0.744 OA
ENDBRANCH  89  93
ENDBRANCH  63  86
ENDBRANCH  37  38
ENDBRANCH  29  32
ENDBRANCH  27  28
ENDBRANCH  26  27
ENDBRANCH   1  26
TORSDOF 18
ENDMDL
MODEL 3
REMARK VINA RESULT:     -11.8      2.036      4.063
REMARK SMILES CC[C@@]1(C(=O)NCCCCNC(=O)c2ccc(-c3c4nc(c(-c5cc(S(=O)(=O)[O-])ccc5F)c5ccc([nH]5)c(-c5cc(S(=O)(=O)[O-])ccc5F)c5nc(c(-c6cc(S(=O)(=O)[O-])ccc6F)c6ccc3[nH]6)C=C5)C=C4)cc2)CCC[N@@H+](Cc2ccc(C3CC3)cc2)C1
REMARK SMILES IDX 8 1 7 2 6 3 4 4 5 5 3 7 77 8 91 9 78 10 80 11 79 12 2 14
REMARK SMILES IDX 1 15 81 16 82 17 83 18 90 19 84 20 89 21 85 22 86 23 87 24
REMARK SMILES IDX 88 25 9 26 10 27 11 28 12 29 13 31 14 32 15 33 76 34 16 35
REMARK SMILES IDX 75 36 17 37 18 38 19 39 69 40 20 41 74 42 68 43 70 44 21 45
REMARK SMILES IDX 73 46 67 47 66 48 22 50 54 51 34 52 53 53 35 54 38 55 52 56
REMARK SMILES IDX 71 57 36 58 37 59 51 61 72 62 39 63 23 64 24 65 32 66 25 67
REMARK SMILES IDX 31 68 33 69 30 70 26 71 27 72 28 73 29 74 55 75 56 76 64 77
REMARK SMILES IDX 57 78 63 79 65 80 62 81 58 82 59 83 60 84 61 85 40 86 41 87
REMARK SMILES IDX 49 88 42 89 48 90 50 91 47 92 43 93 44 94 45 95 46 96
REMARK H PARENT 6 6 80 13 11 30 70 49 38 60
REMARK Flexibility Score: inf
ROOT
ATOM      1  C   UNL A   1      33.012  27.406  26.586  1.00  0.00     0.023 C 
ENDROOT
BRANCH   1   2
ATOM      2  C   UNL A   1      33.198  26.508  25.372  1.00  0.00     0.116 C 
BRANCH   2   3
ATOM      3  N   UNL A   1      34.440  25.768  25.391  1.00  0.00    -0.355 N 
ATOM      4  C   UNL A   1      34.730  24.444  25.304  1.00  0.00     0.231 C 
ATOM      5  O   UNL A   1      35.920  24.199  25.049  1.00  0.00    -0.274 OA
ATOM      6  H   UNL A   1      35.236  26.339  25.486  1.00  0.00     0.163 HD
BRANCH   4   7
ATOM      7  C   UNL A   1      33.778  23.272  25.676  1.00  0.00     0.098 C 
ATOM      8  C   UNL A   1      34.301  21.994  24.954  1.00  0.00     0.028 C 
ATOM      9  C   UNL A   1      32.295  23.378  25.287  1.00  0.00     0.279 C 
ATOM     10  C   UNL A   1      34.032  22.060  23.444  1.00  0.00     0.063 C 
ATOM     11  N   UNL A   1      32.077  23.511  23.842  1.00  0.00    -0.330 N 
ATOM     12  C   UNL A   1      32.556  22.328  23.126  1.00  0.00     0.262 C 
ATOM     13  H   UNL A   1      32.646  24.300  23.535  1.00  0.00     0.348 HD
BRANCH   7  14
ATOM     14  C   UNL A   1      33.960  23.112  27.225  1.00  0.00     0.019 C 
ATOM     15  C   UNL A   1      33.140  22.027  27.917  1.00  0.00     0.005 C 
ENDBRANCH   7  14
BRANCH  11  16
ATOM     16  C   UNL A   1      30.707  23.916  23.470  1.00  0.00     0.299 C 
BRANCH  16  17
ATOM     17  C   UNL A   1      30.453  25.394  23.272  1.00  0.00     0.006 A 
ATOM     18  C   UNL A   1      31.276  26.158  22.443  1.00  0.00     0.010 A 
ATOM     19  C   UNL A   1      29.402  26.038  23.935  1.00  0.00     0.010 A 
ATOM     20  C   UNL A   1      31.012  27.519  22.242  1.00  0.00     0.004 A 
ATOM     21  C   UNL A   1      29.127  27.387  23.704  1.00  0.00     0.004 A 
ATOM     22  C   UNL A   1      29.915  28.163  22.841  1.00  0.00    -0.045 A 
BRANCH  22  23
ATOM     23  C   UNL A   1      29.626  29.621  22.539  1.00  0.00     0.019 C 
ATOM     24  C   UNL A   1      28.362  30.017  21.811  1.00  0.00     0.009 C 
ATOM     25  C   UNL A   1      28.534  30.374  23.259  1.00  0.00     0.009 C 
ENDBRANCH  22  23
ENDBRANCH  16  17
ENDBRANCH  11  16
ENDBRANCH   4   7
ENDBRANCH   2   3
ENDBRANCH   1   2
BRANCH   1  26
ATOM     26  C   UNL A   1      32.344  28.745  26.286  1.00  0.00     0.023 C 
BRANCH  26  27
ATOM     27  C   UNL A   1      33.294  29.885  25.929  1.00  0.00     0.116 C 
BRANCH  27  28
ATOM     28  N   UNL A   1      32.986  31.141  26.599  1.00  0.00    -0.352 N 
ATOM     29  C   UNL A   1      33.717  31.791  27.567  1.00  0.00     0.251 C 
ATOM     30  H   UNL A   1      32.150  31.582  26.323  1.00  0.00     0.163 HD
ATOM     31  O   UNL A   1      33.277  32.806  28.099  1.00  0.00    -0.269 OA
BRANCH  29  32
ATOM     32  C   UNL A   1      35.011  31.218  27.989  1.00  0.00     0.039 A 
ATOM     33  C   UNL A   1      36.128  32.050  28.066  1.00  0.00     0.014 A 
ATOM     34  C   UNL A   1      35.096  29.878  28.378  1.00  0.00     0.014 A 
ATOM     35  C   UNL A   1      37.315  31.558  28.611  1.00  0.00     0.010 A 
ATOM     36  C   UNL A   1      36.254  29.413  28.992  1.00  0.00     0.010 A 
ATOM     37  C   UNL A   1      37.375  30.249  29.117  1.00  0.00    -0.014 A 
BRANCH  37  38
ATOM     38  C   UNL A   1      38.602  29.727  29.773  1.00  0.00     0.031 A 
ATOM     39  C   UNL A   1      39.010  30.257  31.120  1.00  0.00     0.074 A 
ATOM     40  C   UNL A   1      39.382  28.840  29.126  1.00  0.00     0.049 A 
ATOM     41  N   UNL A   1      40.085  30.004  31.820  1.00  0.00    -0.248 NA
ATOM     42  C   UNL A   1      38.101  31.231  31.742  1.00  0.00     0.031 C 
ATOM     43  C   UNL A   1      39.119  28.293  27.793  1.00  0.00     0.029 A 
ATOM     44  N   UNL A   1      40.563  28.249  29.498  1.00  0.00    -0.354 N 
ATOM     45  C   UNL A   1      39.992  30.802  32.956  1.00  0.00     0.074 A 
ATOM     46  C   UNL A   1      38.790  31.595  32.812  1.00  0.00     0.031 C 
ATOM     47  C   UNL A   1      40.096  27.429  27.471  1.00  0.00     0.029 A 
ATOM     48  C   UNL A   1      41.074  27.389  28.554  1.00  0.00     0.049 A 
ATOM     49  H   UNL A   1      41.004  28.425  30.361  1.00  0.00     0.167 HD
ATOM     50  C   UNL A   1      40.819  30.850  34.030  1.00  0.00     0.034 A 
ATOM     51  C   UNL A   1      42.204  26.657  28.558  1.00  0.00     0.034 A 
ATOM     52  C   UNL A   1      42.004  30.040  34.163  1.00  0.00     0.049 A 
ATOM     53  C   UNL A   1      43.108  26.721  29.762  1.00  0.00     0.074 A 
ATOM     54  C   UNL A   1      42.887  29.966  35.226  1.00  0.00     0.029 A 
ATOM     55  N   UNL A   1      42.476  29.160  33.196  1.00  0.00    -0.354 N 
ATOM     56  N   UNL A   1      42.983  27.444  30.851  1.00  0.00    -0.248 NA
ATOM     57  C   UNL A   1      44.297  25.859  29.743  1.00  0.00     0.031 C 
ATOM     58  C   UNL A   1      43.920  29.086  34.881  1.00  0.00     0.029 A 
ATOM     59  C   UNL A   1      43.647  28.556  33.630  1.00  0.00     0.049 A 
ATOM     60  H   UNL A   1      42.043  28.990  32.329  1.00  0.00     0.167 HD
ATOM     61  C   UNL A   1      44.062  27.099  31.661  1.00  0.00     0.074 A 
ATOM     62  C   UNL A   1      44.818  26.096  30.939  1.00  0.00     0.031 C 
ATOM     63  C   UNL A   1      44.393  27.563  32.893  1.00  0.00     0.034 A 
BRANCH  50  64
ATOM     64  C   UNL A   1      40.467  31.830  35.125  1.00  0.00     0.023 A 
ATOM     65  C   UNL A   1      39.547  31.505  36.137  1.00  0.00     0.031 A 
ATOM     66  C   UNL A   1      41.014  33.126  35.127  1.00  0.00     0.131 A 
ATOM     67  C   UNL A   1      39.127  32.487  37.047  1.00  0.00     0.055 A 
ATOM     68  C   UNL A   1      40.660  34.072  36.093  1.00  0.00     0.041 A 
ATOM     69  F   UNL A   1      41.884  33.503  34.177  1.00  0.00    -0.206 F 
ATOM     70  C   UNL A   1      39.698  33.761  37.048  1.00  0.00     0.022 A 
BRANCH  67  71
ATOM     71  S   UNL A   1      37.709  32.122  38.117  1.00  0.00     0.124 S 
ATOM     72  O   UNL A   1      37.442  30.725  37.786  1.00  0.00    -0.237 OA
ATOM     73  O   UNL A   1      38.245  32.373  39.450  1.00  0.00    -0.237 OA
ATOM     74  O   UNL A   1      36.688  33.068  37.666  1.00  0.00    -0.744 OA
ENDBRANCH  67  71
ENDBRANCH  50  64
BRANCH  51  75
ATOM     75  C   UNL A   1      42.549  25.794  27.392  1.00  0.00     0.023 A 
ATOM     76  C   UNL A   1      42.119  24.459  27.332  1.00  0.00     0.031 A 
ATOM     77  C   UNL A   1      43.339  26.282  26.337  1.00  0.00     0.131 A 
ATOM     78  C   UNL A   1      42.517  23.644  26.261  1.00  0.00     0.055 A 
ATOM     79  C   UNL A   1      43.694  25.480  25.251  1.00  0.00     0.041 A 
ATOM     80  F   UNL A   1      43.768  27.554  26.343  1.00  0.00    -0.206 F 
ATOM     81  C   UNL A   1      43.292  24.148  25.215  1.00  0.00     0.022 A 
BRANCH  78  82
ATOM     82  S   UNL A   1      42.059  21.889  26.290  1.00  0.00     0.124 S 
ATOM     83  O   UNL A   1      42.959  21.330  25.288  1.00  0.00    -0.237 OA
ATOM     84  O   UNL A   1      42.336  21.526  27.676  1.00  0.00    -0.237 OA
ATOM     85  O   UNL A   1      40.644  21.900  25.923  1.00  0.00    -0.744 OA
ENDBRANCH  78  82
ENDBRANCH  51  75
BRANCH  63  86
ATOM     86  C   UNL A   1      45.602  26.945  33.552  1.00  0.00     0.023 A 
ATOM     87  C   UNL A   1      46.885  27.503  33.418  1.00  0.00     0.031 A 
ATOM     88  C   UNL A   1      45.465  25.771  34.312  1.00  0.00     0.131 A 
ATOM     89  C   UNL A   1      47.991  26.854  33.991  1.00  0.00     0.055 A 
ATOM     90  C   UNL A   1      46.559  25.162  34.926  1.00  0.00     0.041 A 
ATOM     91  F   UNL A   1      44.261  25.196  34.470  1.00  0.00    -0.206 F 
ATOM     92  C   UNL A   1      47.834  25.696  34.756  1.00  0.00     0.022 A 
BRANCH  89  93
ATOM     93  S   UNL A   1      49.651  27.496  33.646  1.00  0.00     0.124 S 
ATOM     94  O   UNL A   1      50.147  27.793  34.986  1.00  0.00    -0.237 OA
ATOM     95  O   UNL A   1      50.286  26.372  32.965  1.00  0.00    -0.237 OA
ATOM     96  O   UNL A   1      49.400  28.666  32.806  1.00  0.00    -0.744 OA
ENDBRANCH  89  93
ENDBRANCH  63  86
ENDBRANCH  37  38
ENDBRANCH  29  32
ENDBRANCH  27  28
ENDBRANCH  26  27
ENDBRANCH   1  26
TORSDOF 18
ENDMDL
