MODEL 1
REMARK VINA RESULT:     -12.1      0.000      0.000
REMARK SMILES Cc1ccc(Cl)c(Nc2ccccc2C(=O)NCCCCNC(=O)c2ccc(-c3c4nc(c(-c5cc(S(=O)(=O)[O-])ccc5F)c5ccc([nH]5)c(-c5cc(S(=O)(=O)[O-])ccc5F)c5nc(c(-c6cc(S(=O)(=O)[O-])ccc6F)c6ccc3[nH]6)C=C5)C=C4)cc2)c1Cl
REMARK SMILES IDX 20 1 19 2 18 3 17 4 15 5 16 6 14 8 9 9 10 10 11 11 13 12
REMARK SMILES IDX 12 13 8 14 7 16 1 17 2 18 3 19 88 20 4 21 89 22 5 23 6 24
REMARK SMILES IDX 21 25 22 26 23 27 24 29 25 30 26 31 87 32 27 33 86 34 28 35
REMARK SMILES IDX 29 36 30 37 80 38 31 39 85 40 79 41 81 42 32 43 84 44 78 45
REMARK SMILES IDX 77 46 33 48 65 49 45 50 64 51 46 52 49 53 63 54 82 55 47 56
REMARK SMILES IDX 48 57 62 59 83 60 50 61 34 62 35 63 43 64 36 65 42 66 44 67
REMARK SMILES IDX 41 68 37 69 38 70 39 71 40 72 66 73 67 74 75 75 68 76 74 77
REMARK SMILES IDX 76 78 73 79 69 80 70 81 71 82 72 83 51 84 52 85 60 86 53 87
REMARK SMILES IDX 59 88 61 89 58 90 54 91 55 92 56 93 57 94
REMARK H PARENT 17 7 8 15 22 28 81 47 49 58
REMARK Flexibility Score: inf
ROOT
ATOM      1  C   UNL A   1      31.795  29.056  26.797  1.00  0.00     0.023 C 
ENDROOT
BRANCH   1   2
ATOM      2  C   UNL A   1      32.438  27.731  27.215  1.00  0.00     0.023 C 
BRANCH   2   3
ATOM      3  C   UNL A   1      32.104  26.507  26.372  1.00  0.00     0.116 C 
BRANCH   3   4
ATOM      4  N   UNL A   1      30.919  25.783  26.764  1.00  0.00    -0.352 N 
ATOM      5  C   UNL A   1      30.547  24.486  26.489  1.00  0.00     0.253 C 
ATOM      6  O   UNL A   1      29.528  24.061  27.040  1.00  0.00    -0.269 OA
ATOM      7  H   UNL A   1      30.280  26.293  27.311  1.00  0.00     0.163 HD
BRANCH   5   8
ATOM      8  C   UNL A   1      31.220  23.624  25.467  1.00  0.00     0.063 A 
ATOM      9  C   UNL A   1      31.135  23.709  24.061  1.00  0.00     0.051 A 
ATOM     10  C   UNL A   1      31.800  22.720  23.297  1.00  0.00     0.027 A 
ATOM     11  C   UNL A   1      32.584  21.726  23.882  1.00  0.00     0.002 A 
ATOM     12  C   UNL A   1      32.045  22.628  26.041  1.00  0.00     0.016 A 
ATOM     13  C   UNL A   1      32.729  21.695  25.259  1.00  0.00     0.001 A 
BRANCH   9  14
ATOM     14  N   UNL A   1      30.550  24.741  23.299  1.00  0.00    -0.352 N 
ATOM     15  H   UNL A   1      29.767  24.439  22.785  1.00  0.00     0.167 HD
BRANCH  14  16
ATOM     16  C   UNL A   1      30.839  26.115  23.108  1.00  0.00     0.077 A 
ATOM     17  C   UNL A   1      33.706  28.577  22.419  1.00  0.00     0.046 C 
ATOM     18  C   UNL A   1      32.353  28.017  22.768  1.00  0.00    -0.030 A 
ATOM     19  C   UNL A   1      31.336  28.899  23.163  1.00  0.00     0.006 A 
ATOM     20  C   UNL A   1      32.087  26.630  22.707  1.00  0.00     0.069 A 
ATOM     21  C   UNL A   1      30.067  28.420  23.469  1.00  0.00     0.023 A 
ATOM     22  Cl  UNL A   1      33.278  25.598  21.966  1.00  0.00    -0.082 Cl
ATOM     23  C   UNL A   1      29.824  27.048  23.436  1.00  0.00     0.066 A 
ATOM     24  Cl  UNL A   1      28.236  26.501  23.883  1.00  0.00    -0.082 Cl
ENDBRANCH  14  16
ENDBRANCH   9  14
ENDBRANCH   5   8
ENDBRANCH   3   4
ENDBRANCH   2   3
ENDBRANCH   1   2
BRANCH   1  25
ATOM     25  C   UNL A   1      32.700  30.152  26.232  1.00  0.00     0.116 C 
BRANCH  25  26
ATOM     26  N   UNL A   1      32.484  31.481  26.783  1.00  0.00    -0.352 N 
ATOM     27  C   UNL A   1      33.332  32.259  27.547  1.00  0.00     0.251 C 
ATOM     28  H   UNL A   1      31.609  31.883  26.582  1.00  0.00     0.163 HD
ATOM     29  O   UNL A   1      32.983  33.372  27.904  1.00  0.00    -0.269 OA
BRANCH  27  30
ATOM     30  C   UNL A   1      34.647  31.721  27.975  1.00  0.00     0.039 A 
ATOM     31  C   UNL A   1      35.746  32.587  28.001  1.00  0.00     0.014 A 
ATOM     32  C   UNL A   1      34.794  30.394  28.386  1.00  0.00     0.014 A 
ATOM     33  C   UNL A   1      36.961  32.152  28.541  1.00  0.00     0.010 A 
ATOM     34  C   UNL A   1      35.988  29.982  28.980  1.00  0.00     0.010 A 
ATOM     35  C   UNL A   1      37.076  30.864  29.088  1.00  0.00    -0.014 A 
BRANCH  35  36
ATOM     36  C   UNL A   1      38.302  30.446  29.824  1.00  0.00     0.031 A 
ATOM     37  C   UNL A   1      39.233  29.419  29.240  1.00  0.00     0.074 A 
ATOM     38  C   UNL A   1      38.526  30.934  31.064  1.00  0.00     0.049 A 
ATOM     39  N   UNL A   1      40.301  28.876  29.768  1.00  0.00    -0.248 NA
ATOM     40  C   UNL A   1      38.903  28.915  27.899  1.00  0.00     0.031 C 
ATOM     41  C   UNL A   1      37.664  31.887  31.766  1.00  0.00     0.029 A 
ATOM     42  N   UNL A   1      39.535  30.682  31.964  1.00  0.00    -0.354 N 
ATOM     43  C   UNL A   1      40.759  27.951  28.834  1.00  0.00     0.074 A 
ATOM     44  C   UNL A   1      39.827  27.980  27.727  1.00  0.00     0.031 C 
ATOM     45  C   UNL A   1      38.183  32.149  32.976  1.00  0.00     0.029 A 
ATOM     46  C   UNL A   1      39.394  31.353  33.159  1.00  0.00     0.049 A 
ATOM     47  H   UNL A   1      40.287  30.079  31.772  1.00  0.00     0.167 HD
ATOM     48  C   UNL A   1      41.861  27.163  28.893  1.00  0.00     0.034 A 
ATOM     49  C   UNL A   1      40.144  31.325  34.278  1.00  0.00     0.034 A 
ATOM     50  C   UNL A   1      42.795  27.165  29.994  1.00  0.00     0.049 A 
ATOM     51  C   UNL A   1      41.383  30.462  34.302  1.00  0.00     0.074 A 
ATOM     52  C   UNL A   1      43.982  26.461  30.115  1.00  0.00     0.029 A 
ATOM     53  N   UNL A   1      42.650  27.899  31.163  1.00  0.00    -0.354 N 
ATOM     54  N   UNL A   1      41.843  29.654  33.375  1.00  0.00    -0.248 NA
ATOM     55  C   UNL A   1      42.215  30.526  35.511  1.00  0.00     0.031 C 
ATOM     56  C   UNL A   1      44.520  26.721  31.380  1.00  0.00     0.029 A 
ATOM     57  C   UNL A   1      43.710  27.645  32.020  1.00  0.00     0.049 A 
ATOM     58  H   UNL A   1      41.901  28.509  31.356  1.00  0.00     0.167 HD
ATOM     59  C   UNL A   1      43.038  29.145  33.877  1.00  0.00     0.074 A 
ATOM     60  C   UNL A   1      43.234  29.749  35.177  1.00  0.00     0.031 C 
ATOM     61  C   UNL A   1      43.899  28.261  33.311  1.00  0.00     0.034 A 
BRANCH  48  62
ATOM     62  C   UNL A   1      42.106  26.211  27.747  1.00  0.00     0.023 A 
ATOM     63  C   UNL A   1      41.627  24.891  27.764  1.00  0.00     0.031 A 
ATOM     64  C   UNL A   1      42.823  26.638  26.615  1.00  0.00     0.131 A 
ATOM     65  C   UNL A   1      41.918  24.027  26.696  1.00  0.00     0.055 A 
ATOM     66  C   UNL A   1      43.046  25.796  25.524  1.00  0.00     0.041 A 
ATOM     67  F   UNL A   1      43.321  27.884  26.551  1.00  0.00    -0.206 F 
ATOM     68  C   UNL A   1      42.602  24.479  25.565  1.00  0.00     0.022 A 
BRANCH  65  69
ATOM     69  S   UNL A   1      41.483  22.275  26.854  1.00  0.00     0.124 S 
ATOM     70  O   UNL A   1      41.899  21.751  25.554  1.00  0.00    -0.237 OA
ATOM     71  O   UNL A   1      42.282  21.850  27.998  1.00  0.00    -0.237 OA
ATOM     72  O   UNL A   1      40.038  22.298  27.075  1.00  0.00    -0.744 OA
ENDBRANCH  65  69
ENDBRANCH  48  62
BRANCH  49  73
ATOM     73  C   UNL A   1      39.755  32.120  35.480  1.00  0.00     0.023 A 
ATOM     74  C   UNL A   1      38.927  31.575  36.476  1.00  0.00     0.031 A 
ATOM     75  C   UNL A   1      40.149  33.463  35.618  1.00  0.00     0.131 A 
ATOM     76  C   UNL A   1      38.467  32.385  37.526  1.00  0.00     0.055 A 
ATOM     77  C   UNL A   1      39.738  34.247  36.697  1.00  0.00     0.041 A 
ATOM     78  F   UNL A   1      40.947  34.034  34.700  1.00  0.00    -0.206 F 
ATOM     79  C   UNL A   1      38.876  33.714  37.650  1.00  0.00     0.022 A 
BRANCH  76  80
ATOM     80  S   UNL A   1      37.228  31.707  38.666  1.00  0.00     0.124 S 
ATOM     81  O   UNL A   1      37.028  30.367  38.126  1.00  0.00    -0.237 OA
ATOM     82  O   UNL A   1      37.924  31.785  39.946  1.00  0.00    -0.237 OA
ATOM     83  O   UNL A   1      36.095  32.618  38.517  1.00  0.00    -0.744 OA
ENDBRANCH  76  80
ENDBRANCH  49  73
BRANCH  61  84
ATOM     84  C   UNL A   1      45.164  27.951  34.073  1.00  0.00     0.023 A 
ATOM     85  C   UNL A   1      45.236  26.896  35.000  1.00  0.00     0.031 A 
ATOM     86  C   UNL A   1      46.313  28.739  33.876  1.00  0.00     0.131 A 
ATOM     87  C   UNL A   1      46.411  26.697  35.740  1.00  0.00     0.055 A 
ATOM     88  C   UNL A   1      47.498  28.496  34.572  1.00  0.00     0.041 A 
ATOM     89  F   UNL A   1      46.300  29.759  33.005  1.00  0.00    -0.206 F 
ATOM     90  C   UNL A   1      47.548  27.480  35.520  1.00  0.00     0.022 A 
BRANCH  87  91
ATOM     91  S   UNL A   1      46.406  25.459  37.067  1.00  0.00     0.124 S 
ATOM     92  O   UNL A   1      47.777  24.964  37.026  1.00  0.00    -0.237 OA
ATOM     93  O   UNL A   1      46.052  26.258  38.236  1.00  0.00    -0.237 OA
ATOM     94  O   UNL A   1      45.387  24.502  36.640  1.00  0.00    -0.744 OA
ENDBRANCH  87  91
ENDBRANCH  61  84
ENDBRANCH  35  36
ENDBRANCH  27  30
ENDBRANCH  25  26
ENDBRANCH   1  25
TORSDOF 16
ENDMDL
MODEL 2
REMARK VINA RESULT:     -12.1      0.812      7.589
REMARK SMILES Cc1ccc(Cl)c(Nc2ccccc2C(=O)NCCCCNC(=O)c2ccc(-c3c4nc(c(-c5cc(S(=O)(=O)[O-])ccc5F)c5ccc([nH]5)c(-c5cc(S(=O)(=O)[O-])ccc5F)c5nc(c(-c6cc(S(=O)(=O)[O-])ccc6F)c6ccc3[nH]6)C=C5)C=C4)cc2)c1Cl
REMARK SMILES IDX 20 1 19 2 18 3 17 4 15 5 16 6 14 8 9 9 10 10 11 11 13 12
REMARK SMILES IDX 12 13 8 14 7 16 1 17 2 18 3 19 88 20 4 21 89 22 5 23 6 24
REMARK SMILES IDX 21 25 22 26 23 27 24 29 25 30 26 31 87 32 27 33 86 34 28 35
REMARK SMILES IDX 29 36 30 37 80 38 31 39 85 40 79 41 81 42 32 43 84 44 78 45
REMARK SMILES IDX 77 46 33 48 65 49 45 50 64 51 46 52 49 53 63 54 82 55 47 56
REMARK SMILES IDX 48 57 62 59 83 60 50 61 34 62 35 63 43 64 36 65 42 66 44 67
REMARK SMILES IDX 41 68 37 69 38 70 39 71 40 72 66 73 67 74 75 75 68 76 74 77
REMARK SMILES IDX 76 78 73 79 69 80 70 81 71 82 72 83 51 84 52 85 60 86 53 87
REMARK SMILES IDX 59 88 61 89 58 90 54 91 55 92 56 93 57 94
REMARK H PARENT 17 7 8 15 22 28 81 47 49 58
REMARK Flexibility Score: inf
ROOT
ATOM      1  C   UNL A   1      31.633  28.998  26.432  1.00  0.00     0.023 C 
ENDROOT
BRANCH   1   2
ATOM      2  C   UNL A   1      32.215  27.780  27.154  1.00  0.00     0.023 C 
BRANCH   2   3
ATOM      3  C   UNL A   1      32.128  26.442  26.431  1.00  0.00     0.116 C 
BRANCH   3   4
ATOM      4  N   UNL A   1      31.048  25.579  26.842  1.00  0.00    -0.352 N 
ATOM      5  C   UNL A   1      30.787  24.270  26.500  1.00  0.00     0.253 C 
ATOM      6  O   UNL A   1      29.854  23.710  27.082  1.00  0.00    -0.269 OA
ATOM      7  H   UNL A   1      30.400  25.986  27.461  1.00  0.00     0.163 HD
BRANCH   5   8
ATOM      8  C   UNL A   1      31.471  23.547  25.384  1.00  0.00     0.063 A 
ATOM      9  C   UNL A   1      31.289  23.715  23.994  1.00  0.00     0.051 A 
ATOM     10  C   UNL A   1      31.993  22.847  23.125  1.00  0.00     0.027 A 
ATOM     11  C   UNL A   1      32.904  21.900  23.592  1.00  0.00     0.002 A 
ATOM     12  C   UNL A   1      32.422  22.602  25.836  1.00  0.00     0.016 A 
ATOM     13  C   UNL A   1      33.139  21.794  24.953  1.00  0.00     0.001 A 
BRANCH   9  14
ATOM     14  N   UNL A   1      30.561  24.731  23.342  1.00  0.00    -0.352 N 
ATOM     15  H   UNL A   1      29.815  24.381  22.804  1.00  0.00     0.167 HD
BRANCH  14  16
ATOM     16  C   UNL A   1      30.665  26.143  23.289  1.00  0.00     0.077 A 
ATOM     17  C   UNL A   1      28.577  29.364  23.126  1.00  0.00     0.046 C 
ATOM     18  C   UNL A   1      29.740  28.409  23.097  1.00  0.00    -0.030 A 
ATOM     19  C   UNL A   1      31.012  28.901  22.767  1.00  0.00     0.006 A 
ATOM     20  C   UNL A   1      29.580  27.037  23.394  1.00  0.00     0.069 A 
ATOM     21  C   UNL A   1      32.114  28.053  22.753  1.00  0.00     0.023 A 
ATOM     22  Cl  UNL A   1      28.056  26.511  24.053  1.00  0.00    -0.082 Cl
ATOM     23  C   UNL A   1      31.941  26.696  23.017  1.00  0.00     0.066 A 
ATOM     24  Cl  UNL A   1      33.343  25.673  22.930  1.00  0.00    -0.082 Cl
ENDBRANCH  14  16
ENDBRANCH   9  14
ENDBRANCH   5   8
ENDBRANCH   3   4
ENDBRANCH   2   3
ENDBRANCH   1   2
BRANCH   1  25
ATOM     25  C   UNL A   1      32.601  30.071  25.928  1.00  0.00     0.116 C 
BRANCH  25  26
ATOM     26  N   UNL A   1      32.404  31.397  26.492  1.00  0.00    -0.352 N 
ATOM     27  C   UNL A   1      33.244  32.134  27.306  1.00  0.00     0.251 C 
ATOM     28  H   UNL A   1      31.552  31.832  26.261  1.00  0.00     0.163 HD
ATOM     29  O   UNL A   1      32.916  33.253  27.666  1.00  0.00    -0.269 OA
BRANCH  27  30
ATOM     30  C   UNL A   1      34.520  31.546  27.781  1.00  0.00     0.039 A 
ATOM     31  C   UNL A   1      35.585  32.406  28.070  1.00  0.00     0.014 A 
ATOM     32  C   UNL A   1      34.661  30.171  27.980  1.00  0.00     0.014 A 
ATOM     33  C   UNL A   1      36.747  31.900  28.661  1.00  0.00     0.010 A 
ATOM     34  C   UNL A   1      35.796  29.677  28.625  1.00  0.00     0.010 A 
ATOM     35  C   UNL A   1      36.840  30.540  28.997  1.00  0.00    -0.014 A 
BRANCH  35  36
ATOM     36  C   UNL A   1      37.992  30.017  29.784  1.00  0.00     0.031 A 
ATOM     37  C   UNL A   1      38.197  30.440  31.213  1.00  0.00     0.074 A 
ATOM     38  C   UNL A   1      38.903  29.226  29.177  1.00  0.00     0.049 A 
ATOM     39  N   UNL A   1      39.181  30.153  32.028  1.00  0.00    -0.248 NA
ATOM     40  C   UNL A   1      37.178  31.327  31.793  1.00  0.00     0.031 C 
ATOM     41  C   UNL A   1      38.849  28.796  27.777  1.00  0.00     0.029 A 
ATOM     42  N   UNL A   1      40.062  28.657  29.649  1.00  0.00    -0.354 N 
ATOM     43  C   UNL A   1      38.912  30.839  33.208  1.00  0.00     0.074 A 
ATOM     44  C   UNL A   1      37.693  31.588  32.986  1.00  0.00     0.031 C 
ATOM     45  C   UNL A   1      39.915  28.025  27.508  1.00  0.00     0.029 A 
ATOM     46  C   UNL A   1      40.753  27.936  28.700  1.00  0.00     0.049 A 
ATOM     47  H   UNL A   1      40.369  28.756  30.578  1.00  0.00     0.167 HD
ATOM     48  C   UNL A   1      39.611  30.833  34.370  1.00  0.00     0.034 A 
ATOM     49  C   UNL A   1      41.932  27.286  28.775  1.00  0.00     0.034 A 
ATOM     50  C   UNL A   1      40.811  30.059  34.584  1.00  0.00     0.049 A 
ATOM     51  C   UNL A   1      42.671  27.269  30.092  1.00  0.00     0.074 A 
ATOM     52  C   UNL A   1      41.550  29.923  35.748  1.00  0.00     0.029 A 
ATOM     53  N   UNL A   1      41.451  29.296  33.618  1.00  0.00    -0.354 N 
ATOM     54  N   UNL A   1      42.357  27.860  31.221  1.00  0.00    -0.248 NA
ATOM     55  C   UNL A   1      43.909  26.480  30.150  1.00  0.00     0.031 C 
ATOM     56  C   UNL A   1      42.668  29.131  35.468  1.00  0.00     0.029 A 
ATOM     57  C   UNL A   1      42.589  28.709  34.151  1.00  0.00     0.049 A 
ATOM     58  H   UNL A   1      41.143  29.188  32.688  1.00  0.00     0.167 HD
ATOM     59  C   UNL A   1      43.339  27.480  32.132  1.00  0.00     0.074 A 
ATOM     60  C   UNL A   1      44.244  26.598  31.426  1.00  0.00     0.031 C 
ATOM     61  C   UNL A   1      43.478  27.825  33.438  1.00  0.00     0.034 A 
BRANCH  48  62
ATOM     62  C   UNL A   1      39.112  31.707  35.495  1.00  0.00     0.023 A 
ATOM     63  C   UNL A   1      38.448  31.172  36.612  1.00  0.00     0.031 A 
ATOM     64  C   UNL A   1      39.315  33.098  35.452  1.00  0.00     0.131 A 
ATOM     65  C   UNL A   1      37.961  32.027  37.612  1.00  0.00     0.055 A 
ATOM     66  C   UNL A   1      38.892  33.936  36.486  1.00  0.00     0.041 A 
ATOM     67  F   UNL A   1      39.927  33.668  34.401  1.00  0.00    -0.206 F 
ATOM     68  C   UNL A   1      38.202  33.402  37.569  1.00  0.00     0.022 A 
BRANCH  65  69
ATOM     69  S   UNL A   1      36.914  31.329  38.917  1.00  0.00     0.124 S 
ATOM     70  O   UNL A   1      37.777  31.465  40.088  1.00  0.00    -0.237 OA
ATOM     71  O   UNL A   1      35.742  32.197  38.883  1.00  0.00    -0.237 OA
ATOM     72  O   UNL A   1      36.686  29.954  38.476  1.00  0.00    -0.744 OA
ENDBRANCH  65  69
ENDBRANCH  48  62
BRANCH  49  73
ATOM     73  C   UNL A   1      42.507  26.604  27.578  1.00  0.00     0.023 A 
ATOM     74  C   UNL A   1      42.186  25.269  27.279  1.00  0.00     0.031 A 
ATOM     75  C   UNL A   1      43.439  27.255  26.752  1.00  0.00     0.131 A 
ATOM     76  C   UNL A   1      42.842  24.609  26.227  1.00  0.00     0.055 A 
ATOM     77  C   UNL A   1      44.044  26.614  25.669  1.00  0.00     0.041 A 
ATOM     78  F   UNL A   1      43.777  28.534  26.986  1.00  0.00    -0.206 F 
ATOM     79  C   UNL A   1      43.760  25.276  25.413  1.00  0.00     0.022 A 
BRANCH  76  80
ATOM     80  S   UNL A   1      42.564  22.829  26.011  1.00  0.00     0.124 S 
ATOM     81  O   UNL A   1      43.401  22.267  27.065  1.00  0.00    -0.237 OA
ATOM     82  O   UNL A   1      41.122  22.725  26.212  1.00  0.00    -0.237 OA
ATOM     83  O   UNL A   1      43.022  22.577  24.646  1.00  0.00    -0.744 OA
ENDBRANCH  76  80
ENDBRANCH  49  73
BRANCH  61  84
ATOM     84  C   UNL A   1      44.616  27.188  34.198  1.00  0.00     0.023 A 
ATOM     85  C   UNL A   1      44.503  25.914  34.780  1.00  0.00     0.031 A 
ATOM     86  C   UNL A   1      45.831  27.881  34.353  1.00  0.00     0.131 A 
ATOM     87  C   UNL A   1      45.563  25.398  35.542  1.00  0.00     0.055 A 
ATOM     88  C   UNL A   1      46.902  27.336  35.061  1.00  0.00     0.041 A 
ATOM     89  F   UNL A   1      45.993  29.103  33.820  1.00  0.00    -0.206 F 
ATOM     90  C   UNL A   1      46.767  26.095  35.673  1.00  0.00     0.022 A 
BRANCH  87  91
ATOM     91  S   UNL A   1      45.311  23.843  36.444  1.00  0.00     0.124 S 
ATOM     92  O   UNL A   1      44.078  23.342  35.848  1.00  0.00    -0.237 OA
ATOM     93  O   UNL A   1      46.524  23.097  36.121  1.00  0.00    -0.237 OA
ATOM     94  O   UNL A   1      45.200  24.270  37.837  1.00  0.00    -0.744 OA
ENDBRANCH  87  91
ENDBRANCH  61  84
ENDBRANCH  35  36
ENDBRANCH  27  30
ENDBRANCH  25  26
ENDBRANCH   1  25
TORSDOF 16
ENDMDL
MODEL 3
REMARK VINA RESULT:     -12.1      1.476      7.630
REMARK SMILES Cc1ccc(Cl)c(Nc2ccccc2C(=O)NCCCCNC(=O)c2ccc(-c3c4nc(c(-c5cc(S(=O)(=O)[O-])ccc5F)c5ccc([nH]5)c(-c5cc(S(=O)(=O)[O-])ccc5F)c5nc(c(-c6cc(S(=O)(=O)[O-])ccc6F)c6ccc3[nH]6)C=C5)C=C4)cc2)c1Cl
REMARK SMILES IDX 20 1 19 2 18 3 17 4 15 5 16 6 14 8 9 9 10 10 11 11 13 12
REMARK SMILES IDX 12 13 8 14 7 16 1 17 2 18 3 19 88 20 4 21 89 22 5 23 6 24
REMARK SMILES IDX 21 25 22 26 23 27 24 29 25 30 26 31 87 32 27 33 86 34 28 35
REMARK SMILES IDX 29 36 30 37 80 38 31 39 85 40 79 41 81 42 32 43 84 44 78 45
REMARK SMILES IDX 77 46 33 48 65 49 45 50 64 51 46 52 49 53 63 54 82 55 47 56
REMARK SMILES IDX 48 57 62 59 83 60 50 61 34 62 35 63 43 64 36 65 42 66 44 67
REMARK SMILES IDX 41 68 37 69 38 70 39 71 40 72 66 73 67 74 75 75 68 76 74 77
REMARK SMILES IDX 76 78 73 79 69 80 70 81 71 82 72 83 51 84 52 85 60 86 53 87
REMARK SMILES IDX 59 88 61 89 58 90 54 91 55 92 56 93 57 94
REMARK H PARENT 17 7 8 15 22 28 81 47 49 58
REMARK Flexibility Score: inf
ROOT
ATOM      1  C   UNL A   1      31.794  29.067  26.693  1.00  0.00     0.023 C 
ENDROOT
BRANCH   1   2
ATOM      2  C   UNL A   1      32.398  27.748  27.183  1.00  0.00     0.023 C 
BRANCH   2   3
ATOM      3  C   UNL A   1      32.092  26.503  26.362  1.00  0.00     0.116 C 
BRANCH   3   4
ATOM      4  N   UNL A   1      30.957  25.728  26.801  1.00  0.00    -0.352 N 
ATOM      5  C   UNL A   1      30.639  24.412  26.551  1.00  0.00     0.253 C 
ATOM      6  O   UNL A   1      29.661  23.945  27.142  1.00  0.00    -0.269 OA
ATOM      7  H   UNL A   1      30.313  26.214  27.366  1.00  0.00     0.163 HD
BRANCH   5   8
ATOM      8  C   UNL A   1      31.317  23.571  25.515  1.00  0.00     0.063 A 
ATOM      9  C   UNL A   1      31.208  23.661  24.111  1.00  0.00     0.051 A 
ATOM     10  C   UNL A   1      31.885  22.692  23.332  1.00  0.00     0.027 A 
ATOM     11  C   UNL A   1      32.703  21.715  23.900  1.00  0.00     0.002 A 
ATOM     12  C   UNL A   1      32.175  22.593  26.071  1.00  0.00     0.016 A 
ATOM     13  C   UNL A   1      32.869  21.682  25.275  1.00  0.00     0.001 A 
BRANCH   9  14
ATOM     14  N   UNL A   1      30.586  24.681  23.363  1.00  0.00    -0.352 N 
ATOM     15  H   UNL A   1      29.774  24.374  22.900  1.00  0.00     0.167 HD
BRANCH  14  16
ATOM     16  C   UNL A   1      30.869  26.050  23.131  1.00  0.00     0.077 A 
ATOM     17  C   UNL A   1      33.722  28.497  22.336  1.00  0.00     0.046 C 
ATOM     18  C   UNL A   1      32.375  27.944  22.719  1.00  0.00    -0.030 A 
ATOM     19  C   UNL A   1      31.361  28.835  23.103  1.00  0.00     0.006 A 
ATOM     20  C   UNL A   1      32.111  26.556  22.699  1.00  0.00     0.069 A 
ATOM     21  C   UNL A   1      30.098  28.362  23.439  1.00  0.00     0.023 A 
ATOM     22  Cl  UNL A   1      33.294  25.505  21.971  1.00  0.00    -0.082 Cl
ATOM     23  C   UNL A   1      29.857  26.990  23.446  1.00  0.00     0.066 A 
ATOM     24  Cl  UNL A   1      28.277  26.453  23.930  1.00  0.00    -0.082 Cl
ENDBRANCH  14  16
ENDBRANCH   9  14
ENDBRANCH   5   8
ENDBRANCH   3   4
ENDBRANCH   2   3
ENDBRANCH   1   2
BRANCH   1  25
ATOM     25  C   UNL A   1      32.738  30.124  26.116  1.00  0.00     0.116 C 
BRANCH  25  26
ATOM     26  N   UNL A   1      32.599  31.456  26.684  1.00  0.00    -0.352 N 
ATOM     27  C   UNL A   1      33.479  32.163  27.481  1.00  0.00     0.251 C 
ATOM     28  H   UNL A   1      31.758  31.921  26.469  1.00  0.00     0.163 HD
ATOM     29  O   UNL A   1      33.197  33.292  27.848  1.00  0.00    -0.269 OA
BRANCH  27  30
ATOM     30  C   UNL A   1      34.743  31.530  27.932  1.00  0.00     0.039 A 
ATOM     31  C   UNL A   1      35.890  32.324  28.028  1.00  0.00     0.014 A 
ATOM     32  C   UNL A   1      34.795  30.182  28.295  1.00  0.00     0.014 A 
ATOM     33  C   UNL A   1      37.056  31.796  28.591  1.00  0.00     0.010 A 
ATOM     34  C   UNL A   1      35.940  29.675  28.912  1.00  0.00     0.010 A 
ATOM     35  C   UNL A   1      37.074  30.484  29.091  1.00  0.00    -0.014 A 
BRANCH  35  36
ATOM     36  C   UNL A   1      38.245  29.964  29.851  1.00  0.00     0.031 A 
ATOM     37  C   UNL A   1      38.538  30.462  31.240  1.00  0.00     0.074 A 
ATOM     38  C   UNL A   1      39.095  29.105  29.249  1.00  0.00     0.049 A 
ATOM     39  N   UNL A   1      39.551  30.185  32.022  1.00  0.00    -0.248 NA
ATOM     40  C   UNL A   1      37.582  31.419  31.815  1.00  0.00     0.031 C 
ATOM     41  C   UNL A   1      38.955  28.596  27.882  1.00  0.00     0.029 A 
ATOM     42  N   UNL A   1      40.256  28.520  29.697  1.00  0.00    -0.354 N 
ATOM     43  C   UNL A   1      39.367  30.949  33.170  1.00  0.00     0.074 A 
ATOM     44  C   UNL A   1      38.166  31.730  32.963  1.00  0.00     0.031 C 
ATOM     45  C   UNL A   1      39.978  27.771  27.608  1.00  0.00     0.029 A 
ATOM     46  C   UNL A   1      40.872  27.719  28.761  1.00  0.00     0.049 A 
ATOM     47  H   UNL A   1      40.613  28.662  30.602  1.00  0.00     0.167 HD
ATOM     48  C   UNL A   1      40.124  30.983  34.295  1.00  0.00     0.034 A 
ATOM     49  C   UNL A   1      42.030  27.030  28.817  1.00  0.00     0.034 A 
ATOM     50  C   UNL A   1      41.305  30.178  34.496  1.00  0.00     0.049 A 
ATOM     51  C   UNL A   1      42.834  27.061  30.095  1.00  0.00     0.074 A 
ATOM     52  C   UNL A   1      42.097  30.083  35.628  1.00  0.00     0.029 A 
ATOM     53  N   UNL A   1      41.868  29.336  33.548  1.00  0.00    -0.354 N 
ATOM     54  N   UNL A   1      42.599  27.729  31.200  1.00  0.00    -0.248 NA
ATOM     55  C   UNL A   1      44.044  26.230  30.139  1.00  0.00     0.031 C 
ATOM     56  C   UNL A   1      43.171  29.232  35.342  1.00  0.00     0.029 A 
ATOM     57  C   UNL A   1      43.010  28.738  34.059  1.00  0.00     0.049 A 
ATOM     58  H   UNL A   1      41.509  29.186  32.643  1.00  0.00     0.167 HD
ATOM     59  C   UNL A   1      43.612  27.365  32.084  1.00  0.00     0.074 A 
ATOM     60  C   UNL A   1      44.448  26.410  31.388  1.00  0.00     0.031 C 
ATOM     61  C   UNL A   1      43.830  27.780  33.358  1.00  0.00     0.034 A 
BRANCH  48  62
ATOM     62  C   UNL A   1      39.714  31.941  35.388  1.00  0.00     0.023 A 
ATOM     63  C   UNL A   1      40.233  33.244  35.465  1.00  0.00     0.031 A 
ATOM     64  C   UNL A   1      38.782  31.543  36.362  1.00  0.00     0.131 A 
ATOM     65  C   UNL A   1      39.859  34.084  36.525  1.00  0.00     0.055 A 
ATOM     66  C   UNL A   1      38.358  32.409  37.373  1.00  0.00     0.041 A 
ATOM     67  F   UNL A   1      38.266  30.303  36.351  1.00  0.00    -0.206 F 
ATOM     68  C   UNL A   1      38.905  33.684  37.464  1.00  0.00     0.022 A 
BRANCH  65  69
ATOM     69  S   UNL A   1      40.717  35.669  36.721  1.00  0.00     0.124 S 
ATOM     70  O   UNL A   1      41.013  35.668  38.152  1.00  0.00    -0.237 OA
ATOM     71  O   UNL A   1      41.863  35.522  35.832  1.00  0.00    -0.237 OA
ATOM     72  O   UNL A   1      39.722  36.653  36.299  1.00  0.00    -0.744 OA
ENDBRANCH  65  69
ENDBRANCH  48  62
BRANCH  49  73
ATOM     73  C   UNL A   1      42.518  26.257  27.636  1.00  0.00     0.023 A 
ATOM     74  C   UNL A   1      42.100  24.935  27.410  1.00  0.00     0.031 A 
ATOM     75  C   UNL A   1      43.463  26.807  26.753  1.00  0.00     0.131 A 
ATOM     76  C   UNL A   1      42.676  24.186  26.371  1.00  0.00     0.055 A 
ATOM     77  C   UNL A   1      43.988  26.078  25.684  1.00  0.00     0.041 A 
ATOM     78  F   UNL A   1      43.892  28.069  26.917  1.00  0.00    -0.206 F 
ATOM     79  C   UNL A   1      43.608  24.752  25.499  1.00  0.00     0.022 A 
BRANCH  76  80
ATOM     80  S   UNL A   1      42.273  22.421  26.247  1.00  0.00     0.124 S 
ATOM     81  O   UNL A   1      40.816  22.452  26.183  1.00  0.00    -0.237 OA
ATOM     82  O   UNL A   1      42.963  22.041  25.019  1.00  0.00    -0.237 OA
ATOM     83  O   UNL A   1      42.833  21.859  27.475  1.00  0.00    -0.744 OA
ENDBRANCH  76  80
ENDBRANCH  49  73
BRANCH  61  84
ATOM     84  C   UNL A   1      44.982  27.146  34.098  1.00  0.00     0.023 A 
ATOM     85  C   UNL A   1      44.818  25.993  34.885  1.00  0.00     0.031 A 
ATOM     86  C   UNL A   1      46.264  27.720  34.025  1.00  0.00     0.131 A 
ATOM     87  C   UNL A   1      45.904  25.486  35.615  1.00  0.00     0.055 A 
ATOM     88  C   UNL A   1      47.354  27.175  34.706  1.00  0.00     0.041 A 
ATOM     89  F   UNL A   1      46.478  28.823  33.290  1.00  0.00    -0.206 F 
ATOM     90  C   UNL A   1      47.174  26.061  35.518  1.00  0.00     0.022 A 
BRANCH  87  91
ATOM     91  S   UNL A   1      45.613  24.120  36.774  1.00  0.00     0.124 S 
ATOM     92  O   UNL A   1      45.096  23.079  35.892  1.00  0.00    -0.237 OA
ATOM     93  O   UNL A   1      46.946  23.887  37.320  1.00  0.00    -0.237 OA
ATOM     94  O   UNL A   1      44.644  24.671  37.718  1.00  0.00    -0.744 OA
ENDBRANCH  87  91
ENDBRANCH  61  84
ENDBRANCH  35  36
ENDBRANCH  27  30
ENDBRANCH  25  26
ENDBRANCH   1  25
TORSDOF 16
ENDMDL
