MODEL 1
REMARK VINA RESULT:     -13.9      0.000      0.000
REMARK SMILES Cc1ccc(-c2cc(Cl)cc3c2O[C@H](C(F)(F)F)C(C(=O)NCCCCNC(=O)c2ccc(-c4c5nc(c(-c6cc(S(=O)(=O)[O-])ccc6F)c6ccc([nH]6)c(-c6cc(S(=O)(=O)[O-])ccc6F)c6nc(c(-c7cc(S(=O)(=O)[O-])ccc7F)c7ccc4[nH]7)C=C6)C=C5)cc2)=C3)cc1F
REMARK SMILES IDX 25 1 24 2 23 3 22 4 20 5 21 6 19 8 6 9 7 10 12 11 8 12 11 13
REMARK SMILES IDX 13 14 9 15 10 16 93 17 14 18 5 19 1 20 2 21 3 22 95 23 4 24
REMARK SMILES IDX 94 25 96 26 15 27 16 28 17 29 18 30 26 31 27 32 28 33 29 35
REMARK SMILES IDX 30 36 31 37 92 38 32 39 91 40 33 41 34 42 35 43 85 44 36 45
REMARK SMILES IDX 90 46 84 47 86 48 37 49 89 50 83 51 82 52 38 54 70 55 50 56
REMARK SMILES IDX 69 57 51 58 54 59 68 60 87 61 52 62 53 63 67 65 88 66 55 67
REMARK SMILES IDX 39 68 40 69 48 70 41 71 47 72 49 73 46 74 42 75 43 76 44 77
REMARK SMILES IDX 45 78 71 79 72 80 80 81 73 82 79 83 81 84 78 85 74 86 75 87
REMARK SMILES IDX 76 88 77 89 56 90 57 91 65 92 58 93 64 94 66 95 63 96 59 97
REMARK SMILES IDX 60 98 61 99 62 100
REMARK H PARENT 22 7 27 34 86 53 54 64
REMARK Flexibility Score: inf
ROOT
ATOM      1  C   UNL A   1      33.848  30.182  26.076  1.00  0.00     0.023 C 
ENDROOT
BRANCH   1   2
ATOM      2  C   UNL A   1      33.068  29.249  25.179  1.00  0.00     0.023 C 
BRANCH   2   3
ATOM      3  C   UNL A   1      33.893  28.004  25.009  1.00  0.00     0.116 C 
BRANCH   3   4
ATOM      4  N   UNL A   1      33.991  27.634  23.604  1.00  0.00    -0.352 N 
ATOM      5  C   UNL A   1      33.702  26.552  22.850  1.00  0.00     0.251 C 
ATOM      6  O   UNL A   1      33.818  26.664  21.627  1.00  0.00    -0.270 OA
ATOM      7  H   UNL A   1      34.366  28.365  23.062  1.00  0.00     0.163 HD
BRANCH   5   8
ATOM      8  C   UNL A   1      33.261  25.254  23.427  1.00  0.00     0.067 C 
ATOM      9  C   UNL A   1      31.935  21.548  24.840  1.00  0.00     0.026 A 
ATOM     10  C   UNL A   1      30.966  21.515  25.847  1.00  0.00     0.033 A 
ATOM     11  C   UNL A   1      32.283  22.804  24.320  1.00  0.00     0.135 A 
ATOM     12  C   UNL A   1      30.388  22.704  26.310  1.00  0.00     0.042 A 
ATOM     13  C   UNL A   1      31.732  24.001  24.793  1.00  0.00     0.019 A 
ATOM     14  O   UNL A   1      33.155  22.795  23.269  1.00  0.00    -0.475 OA
ATOM     15  Cl  UNL A   1      29.187  22.636  27.542  1.00  0.00    -0.084 Cl
ATOM     16  C   UNL A   1      30.767  23.946  25.793  1.00  0.00     0.032 A 
ATOM     17  C   UNL A   1      32.171  25.267  24.214  1.00  0.00     0.025 C 
ATOM     18  C   UNL A   1      33.970  23.971  23.136  1.00  0.00     0.314 C 
BRANCH   9  19
ATOM     19  C   UNL A   1      32.590  20.329  24.329  1.00  0.00    -0.012 A 
ATOM     20  C   UNL A   1      34.248  16.542  23.039  1.00  0.00     0.047 C 
ATOM     21  C   UNL A   1      33.695  17.859  23.490  1.00  0.00    -0.015 A 
ATOM     22  C   UNL A   1      34.250  18.557  24.568  1.00  0.00     0.007 A 
ATOM     23  C   UNL A   1      32.590  18.407  22.840  1.00  0.00     0.126 A 
ATOM     24  C   UNL A   1      33.702  19.779  24.982  1.00  0.00     0.009 A 
ATOM     25  C   UNL A   1      32.047  19.624  23.242  1.00  0.00     0.048 A 
ATOM     26  F   UNL A   1      32.024  17.748  21.819  1.00  0.00    -0.207 F 
ENDBRANCH   9  19
BRANCH  18  27
ATOM     27  C   UNL A   1      35.267  23.801  23.960  1.00  0.00     0.429 C 
ATOM     28  F   UNL A   1      35.389  24.803  24.866  1.00  0.00    -0.167 F 
ATOM     29  F   UNL A   1      35.312  22.642  24.658  1.00  0.00    -0.167 F 
ATOM     30  F   UNL A   1      36.379  23.822  23.189  1.00  0.00    -0.167 F 
ENDBRANCH  18  27
ENDBRANCH   5   8
ENDBRANCH   3   4
ENDBRANCH   2   3
ENDBRANCH   1   2
BRANCH   1  31
ATOM     31  C   UNL A   1      33.260  30.445  27.453  1.00  0.00     0.116 C 
BRANCH  31  32
ATOM     32  N   UNL A   1      34.032  31.320  28.326  1.00  0.00    -0.352 N 
ATOM     33  C   UNL A   1      35.358  31.396  28.668  1.00  0.00     0.251 C 
ATOM     34  H   UNL A   1      33.481  32.006  28.767  1.00  0.00     0.163 HD
ATOM     35  O   UNL A   1      35.741  32.450  29.185  1.00  0.00    -0.269 OA
BRANCH  33  36
ATOM     36  C   UNL A   1      36.279  30.234  28.641  1.00  0.00     0.039 A 
ATOM     37  C   UNL A   1      36.625  29.454  29.739  1.00  0.00     0.014 A 
ATOM     38  C   UNL A   1      36.983  30.064  27.442  1.00  0.00     0.014 A 
ATOM     39  C   UNL A   1      37.844  28.780  29.751  1.00  0.00     0.010 A 
ATOM     40  C   UNL A   1      38.170  29.355  27.437  1.00  0.00     0.010 A 
ATOM     41  C   UNL A   1      38.664  28.835  28.633  1.00  0.00    -0.014 A 
BRANCH  41  42
ATOM     42  C   UNL A   1      40.030  28.331  28.628  1.00  0.00     0.031 A 
ATOM     43  C   UNL A   1      40.280  26.872  28.548  1.00  0.00     0.074 A 
ATOM     44  C   UNL A   1      41.061  29.215  28.658  1.00  0.00     0.049 A 
ATOM     45  N   UNL A   1      41.396  26.317  28.880  1.00  0.00    -0.248 NA
ATOM     46  C   UNL A   1      39.262  25.900  28.146  1.00  0.00     0.031 C 
ATOM     47  C   UNL A   1      42.423  28.968  28.221  1.00  0.00     0.029 A 
ATOM     48  N   UNL A   1      41.121  30.512  29.191  1.00  0.00    -0.354 N 
ATOM     49  C   UNL A   1      41.353  25.009  28.448  1.00  0.00     0.074 A 
ATOM     50  C   UNL A   1      39.966  24.763  28.139  1.00  0.00     0.031 C 
ATOM     51  C   UNL A   1      43.220  29.950  28.669  1.00  0.00     0.029 A 
ATOM     52  C   UNL A   1      42.447  30.752  29.603  1.00  0.00     0.049 A 
ATOM     53  H   UNL A   1      40.369  31.144  29.265  1.00  0.00     0.167 HD
ATOM     54  C   UNL A   1      42.531  24.356  28.228  1.00  0.00     0.034 A 
ATOM     55  C   UNL A   1      42.898  31.132  30.845  1.00  0.00     0.034 A 
ATOM     56  C   UNL A   1      43.657  25.174  28.679  1.00  0.00     0.049 A 
ATOM     57  C   UNL A   1      43.915  30.164  31.411  1.00  0.00     0.074 A 
ATOM     58  C   UNL A   1      44.485  26.050  27.998  1.00  0.00     0.029 A 
ATOM     59  N   UNL A   1      43.850  25.415  30.035  1.00  0.00    -0.354 N 
ATOM     60  N   UNL A   1      44.129  28.985  30.914  1.00  0.00    -0.248 NA
ATOM     61  C   UNL A   1      44.656  30.395  32.647  1.00  0.00     0.031 C 
ATOM     62  C   UNL A   1      45.141  26.862  28.953  1.00  0.00     0.029 A 
ATOM     63  C   UNL A   1      44.745  26.459  30.218  1.00  0.00     0.049 A 
ATOM     64  H   UNL A   1      43.413  24.916  30.763  1.00  0.00     0.167 HD
ATOM     65  C   UNL A   1      44.900  28.256  31.773  1.00  0.00     0.074 A 
ATOM     66  C   UNL A   1      45.262  29.207  32.808  1.00  0.00     0.031 C 
ATOM     67  C   UNL A   1      45.113  26.925  31.557  1.00  0.00     0.034 A 
BRANCH  54  68
ATOM     68  C   UNL A   1      42.705  23.143  27.325  1.00  0.00     0.023 A 
ATOM     69  C   UNL A   1      43.636  23.045  26.266  1.00  0.00     0.031 A 
ATOM     70  C   UNL A   1      41.972  21.960  27.582  1.00  0.00     0.131 A 
ATOM     71  C   UNL A   1      43.856  21.832  25.579  1.00  0.00     0.055 A 
ATOM     72  C   UNL A   1      42.178  20.760  26.888  1.00  0.00     0.041 A 
ATOM     73  F   UNL A   1      41.048  21.898  28.553  1.00  0.00    -0.206 F 
ATOM     74  C   UNL A   1      43.134  20.686  25.889  1.00  0.00     0.022 A 
BRANCH  71  75
ATOM     75  S   UNL A   1      45.135  21.694  24.292  1.00  0.00     0.124 S 
ATOM     76  O   UNL A   1      46.358  21.562  25.084  1.00  0.00    -0.237 OA
ATOM     77  O   UNL A   1      44.729  20.491  23.572  1.00  0.00    -0.237 OA
ATOM     78  O   UNL A   1      45.020  22.941  23.542  1.00  0.00    -0.744 OA
ENDBRANCH  71  75
ENDBRANCH  54  68
BRANCH  55  79
ATOM     79  C   UNL A   1      41.899  31.756  31.762  1.00  0.00     0.023 A 
ATOM     80  C   UNL A   1      41.237  30.851  32.599  1.00  0.00     0.031 A 
ATOM     81  C   UNL A   1      41.213  32.878  31.284  1.00  0.00     0.131 A 
ATOM     82  C   UNL A   1      39.854  30.777  32.506  1.00  0.00     0.055 A 
ATOM     83  C   UNL A   1      39.834  32.830  31.199  1.00  0.00     0.041 A 
ATOM     84  F   UNL A   1      41.869  33.871  30.662  1.00  0.00    -0.206 F 
ATOM     85  C   UNL A   1      39.184  31.691  31.681  1.00  0.00     0.022 A 
BRANCH  82  86
ATOM     86  S   UNL A   1      39.074  29.338  33.321  1.00  0.00     0.124 S 
ATOM     87  O   UNL A   1      37.662  29.648  33.129  1.00  0.00    -0.237 OA
ATOM     88  O   UNL A   1      39.549  28.175  32.575  1.00  0.00    -0.237 OA
ATOM     89  O   UNL A   1      39.573  29.412  34.682  1.00  0.00    -0.744 OA
ENDBRANCH  82  86
ENDBRANCH  55  79
BRANCH  67  90
ATOM     90  C   UNL A   1      45.776  25.963  32.514  1.00  0.00     0.023 A 
ATOM     91  C   UNL A   1      44.948  25.116  33.287  1.00  0.00     0.031 A 
ATOM     92  C   UNL A   1      47.152  25.886  32.785  1.00  0.00     0.131 A 
ATOM     93  C   UNL A   1      45.477  24.247  34.247  1.00  0.00     0.055 A 
ATOM     94  C   UNL A   1      47.690  24.952  33.678  1.00  0.00     0.041 A 
ATOM     95  F   UNL A   1      48.033  26.741  32.250  1.00  0.00    -0.206 F 
ATOM     96  C   UNL A   1      46.853  24.131  34.419  1.00  0.00     0.022 A 
BRANCH  93  97
ATOM     97  S   UNL A   1      44.387  23.357  35.390  1.00  0.00     0.124 S 
ATOM     98  O   UNL A   1      44.181  24.354  36.437  1.00  0.00    -0.237 OA
ATOM     99  O   UNL A   1      43.221  23.081  34.553  1.00  0.00    -0.237 OA
ATOM    100  O   UNL A   1      45.165  22.185  35.771  1.00  0.00    -0.744 OA
ENDBRANCH  93  97
ENDBRANCH  67  90
ENDBRANCH  41  42
ENDBRANCH  33  36
ENDBRANCH  31  32
ENDBRANCH   1  31
TORSDOF 16
ENDMDL
MODEL 2
REMARK VINA RESULT:     -13.8      4.019      9.601
REMARK SMILES Cc1ccc(-c2cc(Cl)cc3c2O[C@H](C(F)(F)F)C(C(=O)NCCCCNC(=O)c2ccc(-c4c5nc(c(-c6cc(S(=O)(=O)[O-])ccc6F)c6ccc([nH]6)c(-c6cc(S(=O)(=O)[O-])ccc6F)c6nc(c(-c7cc(S(=O)(=O)[O-])ccc7F)c7ccc4[nH]7)C=C6)C=C5)cc2)=C3)cc1F
REMARK SMILES IDX 25 1 24 2 23 3 22 4 20 5 21 6 19 8 6 9 7 10 12 11 8 12 11 13
REMARK SMILES IDX 13 14 9 15 10 16 93 17 14 18 5 19 1 20 2 21 3 22 95 23 4 24
REMARK SMILES IDX 94 25 96 26 15 27 16 28 17 29 18 30 26 31 27 32 28 33 29 35
REMARK SMILES IDX 30 36 31 37 92 38 32 39 91 40 33 41 34 42 35 43 85 44 36 45
REMARK SMILES IDX 90 46 84 47 86 48 37 49 89 50 83 51 82 52 38 54 70 55 50 56
REMARK SMILES IDX 69 57 51 58 54 59 68 60 87 61 52 62 53 63 67 65 88 66 55 67
REMARK SMILES IDX 39 68 40 69 48 70 41 71 47 72 49 73 46 74 42 75 43 76 44 77
REMARK SMILES IDX 45 78 71 79 72 80 80 81 73 82 79 83 81 84 78 85 74 86 75 87
REMARK SMILES IDX 76 88 77 89 56 90 57 91 65 92 58 93 64 94 66 95 63 96 59 97
REMARK SMILES IDX 60 98 61 99 62 100
REMARK H PARENT 22 7 27 34 86 53 54 64
REMARK Flexibility Score: inf
ROOT
ATOM      1  C   UNL A   1      37.392  23.174  24.866  1.00  0.00     0.023 C 
ENDROOT
BRANCH   1   2
ATOM      2  C   UNL A   1      36.671  22.859  23.576  1.00  0.00     0.023 C 
BRANCH   2   3
ATOM      3  C   UNL A   1      35.379  23.627  23.590  1.00  0.00     0.116 C 
BRANCH   3   4
ATOM      4  N   UNL A   1      34.520  23.177  24.675  1.00  0.00    -0.352 N 
ATOM      5  C   UNL A   1      33.530  23.703  25.429  1.00  0.00     0.251 C 
ATOM      6  O   UNL A   1      32.939  22.944  26.201  1.00  0.00    -0.270 OA
ATOM      7  H   UNL A   1      34.710  22.244  24.926  1.00  0.00     0.163 HD
BRANCH   5   8
ATOM      8  C   UNL A   1      33.136  25.136  25.367  1.00  0.00     0.067 C 
ATOM      9  C   UNL A   1      32.126  29.176  24.981  1.00  0.00     0.026 A 
ATOM     10  C   UNL A   1      32.677  30.099  25.873  1.00  0.00     0.033 A 
ATOM     11  C   UNL A   1      32.564  27.845  25.076  1.00  0.00     0.135 A 
ATOM     12  C   UNL A   1      33.621  29.686  26.824  1.00  0.00     0.042 A 
ATOM     13  C   UNL A   1      33.485  27.417  26.038  1.00  0.00     0.019 A 
ATOM     14  O   UNL A   1      32.085  26.989  24.126  1.00  0.00    -0.475 OA
ATOM     15  Cl  UNL A   1      34.295  30.846  27.903  1.00  0.00    -0.084 Cl
ATOM     16  C   UNL A   1      34.024  28.352  26.915  1.00  0.00     0.032 A 
ATOM     17  C   UNL A   1      33.866  26.008  26.084  1.00  0.00     0.025 C 
ATOM     18  C   UNL A   1      31.995  25.613  24.528  1.00  0.00     0.314 C 
BRANCH   9  19
ATOM     19  C   UNL A   1      31.115  29.551  23.974  1.00  0.00    -0.012 A 
ATOM     20  C   UNL A   1      27.908  30.378  21.185  1.00  0.00     0.047 C 
ATOM     21  C   UNL A   1      29.031  30.092  22.133  1.00  0.00    -0.015 A 
ATOM     22  C   UNL A   1      30.073  29.222  21.793  1.00  0.00     0.007 A 
ATOM     23  C   UNL A   1      29.044  30.684  23.395  1.00  0.00     0.126 A 
ATOM     24  C   UNL A   1      31.104  28.955  22.705  1.00  0.00     0.009 A 
ATOM     25  C   UNL A   1      30.069  30.430  24.302  1.00  0.00     0.048 A 
ATOM     26  F   UNL A   1      28.046  31.503  23.756  1.00  0.00    -0.207 F 
ENDBRANCH   9  19
BRANCH  18  27
ATOM     27  C   UNL A   1      30.619  25.350  25.180  1.00  0.00     0.429 C 
ATOM     28  F   UNL A   1      29.648  26.049  24.541  1.00  0.00    -0.167 F 
ATOM     29  F   UNL A   1      30.246  24.049  25.143  1.00  0.00    -0.167 F 
ATOM     30  F   UNL A   1      30.582  25.717  26.482  1.00  0.00    -0.167 F 
ENDBRANCH  18  27
ENDBRANCH   5   8
ENDBRANCH   3   4
ENDBRANCH   2   3
ENDBRANCH   1   2
BRANCH   1  31
ATOM     31  C   UNL A   1      38.065  22.005  25.568  1.00  0.00     0.116 C 
BRANCH  31  32
ATOM     32  N   UNL A   1      39.504  22.117  25.769  1.00  0.00    -0.352 N 
ATOM     33  C   UNL A   1      40.303  22.979  26.477  1.00  0.00     0.251 C 
ATOM     34  H   UNL A   1      40.014  21.423  25.293  1.00  0.00     0.163 HD
ATOM     35  O   UNL A   1      41.461  22.611  26.698  1.00  0.00    -0.269 OA
BRANCH  33  36
ATOM     36  C   UNL A   1      39.921  24.376  26.796  1.00  0.00     0.039 A 
ATOM     37  C   UNL A   1      40.463  25.514  26.210  1.00  0.00     0.014 A 
ATOM     38  C   UNL A   1      39.091  24.521  27.916  1.00  0.00     0.014 A 
ATOM     39  C   UNL A   1      40.464  26.718  26.910  1.00  0.00     0.010 A 
ATOM     40  C   UNL A   1      39.051  25.729  28.588  1.00  0.00     0.010 A 
ATOM     41  C   UNL A   1      39.854  26.783  28.155  1.00  0.00    -0.014 A 
BRANCH  41  42
ATOM     42  C   UNL A   1      39.977  27.934  29.037  1.00  0.00     0.031 A 
ATOM     43  C   UNL A   1      39.146  29.139  28.801  1.00  0.00     0.074 A 
ATOM     44  C   UNL A   1      40.829  27.871  30.092  1.00  0.00     0.049 A 
ATOM     45  N   UNL A   1      39.416  30.303  29.287  1.00  0.00    -0.248 NA
ATOM     46  C   UNL A   1      37.967  29.148  27.934  1.00  0.00     0.031 C 
ATOM     47  C   UNL A   1      40.774  28.680  31.297  1.00  0.00     0.029 A 
ATOM     48  N   UNL A   1      42.003  27.119  30.259  1.00  0.00    -0.354 N 
ATOM     49  C   UNL A   1      38.318  31.108  29.073  1.00  0.00     0.074 A 
ATOM     50  C   UNL A   1      37.517  30.397  28.107  1.00  0.00     0.031 C 
ATOM     51  C   UNL A   1      41.927  28.554  31.972  1.00  0.00     0.029 A 
ATOM     52  C   UNL A   1      42.859  27.836  31.119  1.00  0.00     0.049 A 
ATOM     53  H   UNL A   1      42.195  26.245  29.849  1.00  0.00     0.167 HD
ATOM     54  C   UNL A   1      38.134  32.190  29.883  1.00  0.00     0.034 A 
ATOM     55  C   UNL A   1      44.156  28.236  30.891  1.00  0.00     0.034 A 
ATOM     56  C   UNL A   1      39.296  32.374  30.755  1.00  0.00     0.049 A 
ATOM     57  C   UNL A   1      44.332  29.732  31.037  1.00  0.00     0.074 A 
ATOM     58  C   UNL A   1      39.545  31.957  32.051  1.00  0.00     0.029 A 
ATOM     59  N   UNL A   1      40.517  32.770  30.221  1.00  0.00    -0.354 N 
ATOM     60  N   UNL A   1      43.338  30.564  31.097  1.00  0.00    -0.248 NA
ATOM     61  C   UNL A   1      45.626  30.406  30.985  1.00  0.00     0.031 C 
ATOM     62  C   UNL A   1      40.937  32.052  32.280  1.00  0.00     0.029 A 
ATOM     63  C   UNL A   1      41.536  32.563  31.140  1.00  0.00     0.049 A 
ATOM     64  H   UNL A   1      40.642  33.145  29.319  1.00  0.00     0.167 HD
ATOM     65  C   UNL A   1      43.800  31.842  30.969  1.00  0.00     0.074 A 
ATOM     66  C   UNL A   1      45.243  31.694  30.974  1.00  0.00     0.031 C 
ATOM     67  C   UNL A   1      42.930  32.883  30.821  1.00  0.00     0.034 A 
BRANCH  54  68
ATOM     68  C   UNL A   1      36.803  32.885  30.129  1.00  0.00     0.023 A 
ATOM     69  C   UNL A   1      36.158  32.985  31.383  1.00  0.00     0.031 A 
ATOM     70  C   UNL A   1      36.166  33.584  29.076  1.00  0.00     0.131 A 
ATOM     71  C   UNL A   1      35.009  33.785  31.567  1.00  0.00     0.055 A 
ATOM     72  C   UNL A   1      35.016  34.364  29.256  1.00  0.00     0.041 A 
ATOM     73  F   UNL A   1      36.655  33.579  27.828  1.00  0.00    -0.206 F 
ATOM     74  C   UNL A   1      34.438  34.481  30.508  1.00  0.00     0.022 A 
BRANCH  71  75
ATOM     75  S   UNL A   1      34.255  33.991  33.210  1.00  0.00     0.124 S 
ATOM     76  O   UNL A   1      33.810  35.384  33.173  1.00  0.00    -0.237 OA
ATOM     77  O   UNL A   1      33.186  32.997  33.192  1.00  0.00    -0.237 OA
ATOM     78  O   UNL A   1      35.348  33.719  34.138  1.00  0.00    -0.744 OA
ENDBRANCH  71  75
ENDBRANCH  54  68
BRANCH  55  79
ATOM     79  C   UNL A   1      44.902  27.516  29.817  1.00  0.00     0.023 A 
ATOM     80  C   UNL A   1      44.830  28.120  28.557  1.00  0.00     0.031 A 
ATOM     81  C   UNL A   1      44.958  26.121  29.908  1.00  0.00     0.131 A 
ATOM     82  C   UNL A   1      44.292  27.379  27.514  1.00  0.00     0.055 A 
ATOM     83  C   UNL A   1      44.441  25.365  28.873  1.00  0.00     0.041 A 
ATOM     84  F   UNL A   1      45.243  25.519  31.074  1.00  0.00    -0.206 F 
ATOM     85  C   UNL A   1      43.969  26.034  27.741  1.00  0.00     0.022 A 
BRANCH  82  86
ATOM     86  S   UNL A   1      43.865  28.317  26.004  1.00  0.00     0.124 S 
ATOM     87  O   UNL A   1      43.408  27.239  25.134  1.00  0.00    -0.237 OA
ATOM     88  O   UNL A   1      42.820  29.250  26.418  1.00  0.00    -0.237 OA
ATOM     89  O   UNL A   1      45.117  28.955  25.640  1.00  0.00    -0.744 OA
ENDBRANCH  82  86
ENDBRANCH  55  79
BRANCH  67  90
ATOM     90  C   UNL A   1      43.296  34.308  30.482  1.00  0.00     0.023 A 
ATOM     91  C   UNL A   1      43.151  34.731  29.139  1.00  0.00     0.031 A 
ATOM     92  C   UNL A   1      43.862  35.247  31.359  1.00  0.00     0.131 A 
ATOM     93  C   UNL A   1      43.534  36.011  28.725  1.00  0.00     0.055 A 
ATOM     94  C   UNL A   1      44.159  36.558  30.967  1.00  0.00     0.041 A 
ATOM     95  F   UNL A   1      44.209  34.932  32.614  1.00  0.00    -0.206 F 
ATOM     96  C   UNL A   1      44.002  36.944  29.645  1.00  0.00     0.022 A 
BRANCH  93  97
ATOM     97  S   UNL A   1      43.568  36.442  26.965  1.00  0.00     0.124 S 
ATOM     98  O   UNL A   1      43.271  37.871  27.005  1.00  0.00    -0.237 OA
ATOM     99  O   UNL A   1      44.939  36.100  26.590  1.00  0.00    -0.237 OA
ATOM    100  O   UNL A   1      42.538  35.594  26.379  1.00  0.00    -0.744 OA
ENDBRANCH  93  97
ENDBRANCH  67  90
ENDBRANCH  41  42
ENDBRANCH  33  36
ENDBRANCH  31  32
ENDBRANCH   1  31
TORSDOF 16
ENDMDL
MODEL 3
REMARK VINA RESULT:     -13.8      1.733      2.332
REMARK SMILES Cc1ccc(-c2cc(Cl)cc3c2O[C@H](C(F)(F)F)C(C(=O)NCCCCNC(=O)c2ccc(-c4c5nc(c(-c6cc(S(=O)(=O)[O-])ccc6F)c6ccc([nH]6)c(-c6cc(S(=O)(=O)[O-])ccc6F)c6nc(c(-c7cc(S(=O)(=O)[O-])ccc7F)c7ccc4[nH]7)C=C6)C=C5)cc2)=C3)cc1F
REMARK SMILES IDX 25 1 24 2 23 3 22 4 20 5 21 6 19 8 6 9 7 10 12 11 8 12 11 13
REMARK SMILES IDX 13 14 9 15 10 16 93 17 14 18 5 19 1 20 2 21 3 22 95 23 4 24
REMARK SMILES IDX 94 25 96 26 15 27 16 28 17 29 18 30 26 31 27 32 28 33 29 35
REMARK SMILES IDX 30 36 31 37 92 38 32 39 91 40 33 41 34 42 35 43 85 44 36 45
REMARK SMILES IDX 90 46 84 47 86 48 37 49 89 50 83 51 82 52 38 54 70 55 50 56
REMARK SMILES IDX 69 57 51 58 54 59 68 60 87 61 52 62 53 63 67 65 88 66 55 67
REMARK SMILES IDX 39 68 40 69 48 70 41 71 47 72 49 73 46 74 42 75 43 76 44 77
REMARK SMILES IDX 45 78 71 79 72 80 80 81 73 82 79 83 81 84 78 85 74 86 75 87
REMARK SMILES IDX 76 88 77 89 56 90 57 91 65 92 58 93 64 94 66 95 63 96 59 97
REMARK SMILES IDX 60 98 61 99 62 100
REMARK H PARENT 22 7 27 34 86 53 54 64
REMARK Flexibility Score: inf
ROOT
ATOM      1  C   UNL A   1      32.797  32.153  26.887  1.00  0.00     0.023 C 
ENDROOT
BRANCH   1   2
ATOM      2  C   UNL A   1      31.435  31.631  26.492  1.00  0.00     0.023 C 
BRANCH   2   3
ATOM      3  C   UNL A   1      31.578  30.155  26.248  1.00  0.00     0.116 C 
BRANCH   3   4
ATOM      4  N   UNL A   1      31.406  29.844  24.837  1.00  0.00    -0.352 N 
ATOM      5  C   UNL A   1      31.343  28.729  24.076  1.00  0.00     0.251 C 
ATOM      6  O   UNL A   1      31.058  28.870  22.884  1.00  0.00    -0.270 OA
ATOM      7  H   UNL A   1      31.311  30.659  24.294  1.00  0.00     0.163 HD
BRANCH   5   8
ATOM      8  C   UNL A   1      31.601  27.366  24.610  1.00  0.00     0.067 C 
ATOM      9  C   UNL A   1      32.354  23.456  25.892  1.00  0.00     0.026 A 
ATOM     10  C   UNL A   1      31.351  22.765  26.577  1.00  0.00     0.033 A 
ATOM     11  C   UNL A   1      32.033  24.727  25.389  1.00  0.00     0.135 A 
ATOM     12  C   UNL A   1      30.087  23.342  26.751  1.00  0.00     0.042 A 
ATOM     13  C   UNL A   1      30.782  25.325  25.580  1.00  0.00     0.019 A 
ATOM     14  O   UNL A   1      32.999  25.334  24.637  1.00  0.00    -0.475 OA
ATOM     15  Cl  UNL A   1      28.865  22.464  27.588  1.00  0.00    -0.084 Cl
ATOM     16  C   UNL A   1      29.797  24.618  26.262  1.00  0.00     0.032 A 
ATOM     17  C   UNL A   1      30.541  26.662  25.047  1.00  0.00     0.025 C 
ATOM     18  C   UNL A   1      32.972  26.770  24.645  1.00  0.00     0.314 C 
BRANCH   9  19
ATOM     19  C   UNL A   1      33.708  22.905  25.696  1.00  0.00    -0.012 A 
ATOM     20  C   UNL A   1      37.736  21.564  24.840  1.00  0.00     0.047 C 
ATOM     21  C   UNL A   1      36.336  22.007  25.136  1.00  0.00    -0.015 A 
ATOM     22  C   UNL A   1      35.229  21.376  24.557  1.00  0.00     0.007 A 
ATOM     23  C   UNL A   1      36.115  23.084  25.993  1.00  0.00     0.126 A 
ATOM     24  C   UNL A   1      33.930  21.822  24.835  1.00  0.00     0.009 A 
ATOM     25  C   UNL A   1      34.826  23.525  26.280  1.00  0.00     0.048 A 
ATOM     26  F   UNL A   1      37.157  23.722  26.544  1.00  0.00    -0.207 F 
ENDBRANCH   9  19
BRANCH  18  27
ATOM     27  C   UNL A   1      33.826  27.300  25.818  1.00  0.00     0.429 C 
ATOM     28  F   UNL A   1      34.332  28.524  25.524  1.00  0.00    -0.167 F 
ATOM     29  F   UNL A   1      33.131  27.437  26.972  1.00  0.00    -0.167 F 
ATOM     30  F   UNL A   1      34.876  26.494  26.102  1.00  0.00    -0.167 F 
ENDBRANCH  18  27
ENDBRANCH   5   8
ENDBRANCH   3   4
ENDBRANCH   2   3
ENDBRANCH   1   2
BRANCH   1  31
ATOM     31  C   UNL A   1      33.697  31.189  27.646  1.00  0.00     0.116 C 
BRANCH  31  32
ATOM     32  N   UNL A   1      34.362  31.725  28.827  1.00  0.00    -0.352 N 
ATOM     33  C   UNL A   1      35.629  31.612  29.339  1.00  0.00     0.251 C 
ATOM     34  H   UNL A   1      33.773  32.290  29.377  1.00  0.00     0.163 HD
ATOM     35  O   UNL A   1      35.963  32.446  30.187  1.00  0.00    -0.269 OA
BRANCH  33  36
ATOM     36  C   UNL A   1      36.514  30.449  29.089  1.00  0.00     0.039 A 
ATOM     37  C   UNL A   1      36.757  29.413  29.984  1.00  0.00     0.014 A 
ATOM     38  C   UNL A   1      37.298  30.541  27.932  1.00  0.00     0.014 A 
ATOM     39  C   UNL A   1      37.950  28.700  29.909  1.00  0.00     0.010 A 
ATOM     40  C   UNL A   1      38.461  29.800  27.830  1.00  0.00     0.010 A 
ATOM     41  C   UNL A   1      38.851  28.985  28.892  1.00  0.00    -0.014 A 
BRANCH  41  42
ATOM     42  C   UNL A   1      40.198  28.434  28.851  1.00  0.00     0.031 A 
ATOM     43  C   UNL A   1      40.396  26.970  28.727  1.00  0.00     0.074 A 
ATOM     44  C   UNL A   1      41.260  29.280  28.889  1.00  0.00     0.049 A 
ATOM     45  N   UNL A   1      41.496  26.367  29.025  1.00  0.00    -0.248 NA
ATOM     46  C   UNL A   1      39.338  26.046  28.315  1.00  0.00     0.031 C 
ATOM     47  C   UNL A   1      42.606  28.998  28.424  1.00  0.00     0.029 A 
ATOM     48  N   UNL A   1      41.374  30.559  29.458  1.00  0.00    -0.354 N 
ATOM     49  C   UNL A   1      41.401  25.074  28.558  1.00  0.00     0.074 A 
ATOM     50  C   UNL A   1      40.002  24.885  28.265  1.00  0.00     0.031 C 
ATOM     51  C   UNL A   1      43.444  29.939  28.886  1.00  0.00     0.029 A 
ATOM     52  C   UNL A   1      42.714  30.740  29.854  1.00  0.00     0.049 A 
ATOM     53  H   UNL A   1      40.646  31.213  29.561  1.00  0.00     0.167 HD
ATOM     54  C   UNL A   1      42.551  24.387  28.301  1.00  0.00     0.034 A 
ATOM     55  C   UNL A   1      43.197  31.069  31.099  1.00  0.00     0.034 A 
ATOM     56  C   UNL A   1      43.712  25.152  28.757  1.00  0.00     0.049 A 
ATOM     57  C   UNL A   1      44.187  30.051  31.621  1.00  0.00     0.074 A 
ATOM     58  C   UNL A   1      44.561  26.017  28.087  1.00  0.00     0.029 A 
ATOM     59  N   UNL A   1      43.934  25.348  30.116  1.00  0.00    -0.354 N 
ATOM     60  N   UNL A   1      44.352  28.879  31.089  1.00  0.00    -0.248 NA
ATOM     61  C   UNL A   1      44.954  30.220  32.852  1.00  0.00     0.031 C 
ATOM     62  C   UNL A   1      45.259  26.779  29.054  1.00  0.00     0.029 A 
ATOM     63  C   UNL A   1      44.868  26.354  30.313  1.00  0.00     0.049 A 
ATOM     64  H   UNL A   1      43.491  24.844  30.836  1.00  0.00     0.167 HD
ATOM     65  C   UNL A   1      45.109  28.101  31.915  1.00  0.00     0.074 A 
ATOM     66  C   UNL A   1      45.521  29.008  32.970  1.00  0.00     0.031 C 
ATOM     67  C   UNL A   1      45.272  26.770  31.659  1.00  0.00     0.034 A 
BRANCH  54  68
ATOM     68  C   UNL A   1      42.669  23.194  27.362  1.00  0.00     0.023 A 
ATOM     69  C   UNL A   1      43.608  23.077  26.313  1.00  0.00     0.031 A 
ATOM     70  C   UNL A   1      41.866  22.048  27.572  1.00  0.00     0.131 A 
ATOM     71  C   UNL A   1      43.769  21.875  25.590  1.00  0.00     0.055 A 
ATOM     72  C   UNL A   1      42.014  20.861  26.843  1.00  0.00     0.041 A 
ATOM     73  F   UNL A   1      40.927  22.009  28.529  1.00  0.00    -0.206 F 
ATOM     74  C   UNL A   1      42.979  20.763  25.854  1.00  0.00     0.022 A 
BRANCH  71  75
ATOM     75  S   UNL A   1      45.056  21.703  24.316  1.00  0.00     0.124 S 
ATOM     76  O   UNL A   1      44.968  22.982  23.611  1.00  0.00    -0.237 OA
ATOM     77  O   UNL A   1      46.265  21.517  25.113  1.00  0.00    -0.237 OA
ATOM     78  O   UNL A   1      44.634  20.542  23.539  1.00  0.00    -0.744 OA
ENDBRANCH  71  75
ENDBRANCH  54  68
BRANCH  55  79
ATOM     79  C   UNL A   1      42.234  31.701  32.049  1.00  0.00     0.023 A 
ATOM     80  C   UNL A   1      41.572  30.799  32.889  1.00  0.00     0.031 A 
ATOM     81  C   UNL A   1      41.562  32.845  31.603  1.00  0.00     0.131 A 
ATOM     82  C   UNL A   1      40.186  30.756  32.829  1.00  0.00     0.055 A 
ATOM     83  C   UNL A   1      40.180  32.828  31.551  1.00  0.00     0.041 A 
ATOM     84  F   UNL A   1      42.224  33.833  30.980  1.00  0.00    -0.206 F 
ATOM     85  C   UNL A   1      39.517  31.697  32.034  1.00  0.00     0.022 A 
BRANCH  82  86
ATOM     86  S   UNL A   1      39.394  29.323  33.642  1.00  0.00     0.124 S 
ATOM     87  O   UNL A   1      39.819  28.241  32.760  1.00  0.00    -0.237 OA
ATOM     88  O   UNL A   1      39.972  29.279  34.983  1.00  0.00    -0.237 OA
ATOM     89  O   UNL A   1      37.983  29.660  33.617  1.00  0.00    -0.744 OA
ENDBRANCH  82  86
ENDBRANCH  55  79
BRANCH  67  90
ATOM     90  C   UNL A   1      45.916  25.758  32.578  1.00  0.00     0.023 A 
ATOM     91  C   UNL A   1      45.072  24.864  33.279  1.00  0.00     0.031 A 
ATOM     92  C   UNL A   1      47.284  25.673  32.882  1.00  0.00     0.131 A 
ATOM     93  C   UNL A   1      45.581  23.945  34.202  1.00  0.00     0.055 A 
ATOM     94  C   UNL A   1      47.803  24.692  33.735  1.00  0.00     0.041 A 
ATOM     95  F   UNL A   1      48.174  26.562  32.422  1.00  0.00    -0.206 F 
ATOM     96  C   UNL A   1      46.952  23.827  34.405  1.00  0.00     0.022 A 
BRANCH  93  97
ATOM     97  S   UNL A   1      44.466  22.986  35.262  1.00  0.00     0.124 S 
ATOM     98  O   UNL A   1      44.486  21.680  34.608  1.00  0.00    -0.237 OA
ATOM     99  O   UNL A   1      45.142  23.047  36.556  1.00  0.00    -0.237 OA
ATOM    100  O   UNL A   1      43.205  23.714  35.189  1.00  0.00    -0.744 OA
ENDBRANCH  93  97
ENDBRANCH  67  90
ENDBRANCH  41  42
ENDBRANCH  33  36
ENDBRANCH  31  32
ENDBRANCH   1  31
TORSDOF 16
ENDMDL
