MODEL 1
REMARK VINA RESULT:     -12.0      0.000      0.000
REMARK SMILES C[C@@H](C(=O)NCCCCNC(=O)c1ccc(-c2c3nc(c(-c4cc(S(=O)(=O)[O-])ccc4F)c4ccc([nH]4)c(-c4cc(S(=O)(=O)[O-])ccc4F)c4nc(c(-c5cc(S(=O)(=O)[O-])ccc5F)c5ccc2[nH]5)C=C4)C=C3)cc1)[C@H](C)[N@@H+]1C[C@H]2C[NH2+]C[C@@H]2[C@@H]1C
REMARK SMILES IDX 8 1 7 2 6 3 5 4 3 5 4 6 2 8 1 9 76 10 77 11 78 12 79 13
REMARK SMILES IDX 85 14 80 16 84 17 86 18 81 19 83 20 82 21 9 24 10 25 11 26
REMARK SMILES IDX 12 28 13 29 14 30 75 31 15 32 74 33 16 34 17 35 18 36 68 37
REMARK SMILES IDX 19 38 73 39 67 40 69 41 20 42 72 43 66 44 65 45 21 47 53 48
REMARK SMILES IDX 33 49 52 50 34 51 37 52 51 53 70 54 35 55 36 56 50 58 71 59
REMARK SMILES IDX 38 60 22 61 23 62 31 63 24 64 30 65 32 66 29 67 25 68 26 69
REMARK SMILES IDX 27 70 28 71 54 72 55 73 63 74 56 75 62 76 64 77 61 78 57 79
REMARK SMILES IDX 58 80 59 81 60 82 39 83 40 84 48 85 41 86 47 87 49 88 46 89
REMARK SMILES IDX 42 90 43 91 44 92 45 93
REMARK H PARENT 5 7 78 15 82 22 82 23 10 27 69 46 37 57
REMARK Flexibility Score: inf
ROOT
ATOM      1  C   UNL A   1      35.853  21.666  24.391  1.00  0.00     0.023 C 
ENDROOT
BRANCH   1   2
ATOM      2  C   UNL A   1      35.152  20.559  25.193  1.00  0.00     0.023 C 
BRANCH   2   3
ATOM      3  C   UNL A   1      33.643  20.453  24.932  1.00  0.00     0.116 C 
BRANCH   3   4
ATOM      4  N   UNL A   1      32.914  20.839  26.124  1.00  0.00    -0.356 N 
ATOM      5  C   UNL A   1      32.994  22.093  26.675  1.00  0.00     0.228 C 
ATOM      6  O   UNL A   1      33.415  22.196  27.824  1.00  0.00    -0.275 OA
ATOM      7  H   UNL A   1      32.335  20.171  26.557  1.00  0.00     0.163 HD
BRANCH   5   8
ATOM      8  C   UNL A   1      32.588  23.275  25.801  1.00  0.00     0.133 C 
ATOM      9  C   UNL A   1      33.719  24.312  25.906  1.00  0.00     0.024 C 
BRANCH   8  10
ATOM     10  C   UNL A   1      31.180  23.916  26.114  1.00  0.00     0.193 C 
ATOM     11  C   UNL A   1      30.214  22.927  26.796  1.00  0.00     0.076 C 
BRANCH  10  12
ATOM     12  N   UNL A   1      30.400  24.644  25.091  1.00  0.00    -0.329 N 
ATOM     13  C   UNL A   1      30.657  24.303  23.673  1.00  0.00     0.272 C 
ATOM     14  C   UNL A   1      30.197  26.125  25.177  1.00  0.00     0.190 C 
ATOM     15  H   UNL A   1      29.525  24.231  25.414  1.00  0.00     0.348 HD
ATOM     16  C   UNL A   1      31.388  25.540  23.238  1.00  0.00     0.114 C 
ATOM     17  C   UNL A   1      30.423  26.583  23.735  1.00  0.00     0.116 C 
ATOM     18  C   UNL A   1      30.975  26.923  26.212  1.00  0.00     0.076 C 
ATOM     19  C   UNL A   1      31.614  25.967  21.820  1.00  0.00     0.270 C 
ATOM     20  C   UNL A   1      31.092  27.842  23.250  1.00  0.00     0.271 C 
ATOM     21  N   UNL A   1      31.684  27.448  21.942  1.00  0.00    -0.345 N 
ATOM     22  H   UNL A   1      31.158  27.881  21.183  1.00  0.00     0.346 HD
ATOM     23  H   UNL A   1      32.653  27.758  21.890  1.00  0.00     0.346 HD
ENDBRANCH  10  12
ENDBRANCH   8  10
ENDBRANCH   5   8
ENDBRANCH   3   4
ENDBRANCH   2   3
ENDBRANCH   1   2
BRANCH   1  24
ATOM     24  C   UNL A   1      37.165  22.162  24.992  1.00  0.00     0.116 C 
BRANCH  24  25
ATOM     25  N   UNL A   1      38.049  21.066  25.356  1.00  0.00    -0.352 N 
ATOM     26  C   UNL A   1      39.249  21.099  26.024  1.00  0.00     0.251 C 
ATOM     27  H   UNL A   1      37.743  20.169  25.085  1.00  0.00     0.163 HD
ATOM     28  O   UNL A   1      39.943  20.093  26.083  1.00  0.00    -0.269 OA
BRANCH  26  29
ATOM     29  C   UNL A   1      39.703  22.365  26.639  1.00  0.00     0.039 A 
ATOM     30  C   UNL A   1      40.694  22.318  27.622  1.00  0.00     0.014 A 
ATOM     31  C   UNL A   1      39.178  23.592  26.222  1.00  0.00     0.014 A 
ATOM     32  C   UNL A   1      41.220  23.508  28.126  1.00  0.00     0.010 A 
ATOM     33  C   UNL A   1      39.746  24.777  26.682  1.00  0.00     0.010 A 
ATOM     34  C   UNL A   1      40.788  24.746  27.623  1.00  0.00    -0.014 A 
BRANCH  34  35
ATOM     35  C   UNL A   1      41.461  26.012  28.015  1.00  0.00     0.031 A 
ATOM     36  C   UNL A   1      40.693  27.097  28.719  1.00  0.00     0.074 A 
ATOM     37  C   UNL A   1      42.748  26.207  27.660  1.00  0.00     0.049 A 
ATOM     38  N   UNL A   1      41.085  28.299  29.052  1.00  0.00    -0.248 NA
ATOM     39  C   UNL A   1      39.299  26.799  29.077  1.00  0.00     0.031 C 
ATOM     40  C   UNL A   1      43.581  25.237  26.944  1.00  0.00     0.029 A 
ATOM     41  N   UNL A   1      43.578  27.287  27.832  1.00  0.00    -0.354 N 
ATOM     42  C   UNL A   1      39.986  28.907  29.647  1.00  0.00     0.074 A 
ATOM     43  C   UNL A   1      38.899  27.952  29.595  1.00  0.00     0.031 C 
ATOM     44  C   UNL A   1      44.802  25.762  26.748  1.00  0.00     0.029 A 
ATOM     45  C   UNL A   1      44.825  27.124  27.270  1.00  0.00     0.049 A 
ATOM     46  H   UNL A   1      43.308  28.103  28.314  1.00  0.00     0.167 HD
ATOM     47  C   UNL A   1      39.900  30.144  30.193  1.00  0.00     0.034 A 
ATOM     48  C   UNL A   1      45.859  27.983  27.158  1.00  0.00     0.034 A 
ATOM     49  C   UNL A   1      40.999  31.077  30.248  1.00  0.00     0.049 A 
ATOM     50  C   UNL A   1      45.714  29.369  27.737  1.00  0.00     0.074 A 
ATOM     51  C   UNL A   1      41.039  32.320  30.856  1.00  0.00     0.029 A 
ATOM     52  N   UNL A   1      42.241  30.884  29.658  1.00  0.00    -0.354 N 
ATOM     53  N   UNL A   1      44.691  29.896  28.370  1.00  0.00    -0.248 NA
ATOM     54  C   UNL A   1      46.861  30.275  27.589  1.00  0.00     0.031 C 
ATOM     55  C   UNL A   1      42.272  32.912  30.562  1.00  0.00     0.029 A 
ATOM     56  C   UNL A   1      43.034  32.006  29.842  1.00  0.00     0.049 A 
ATOM     57  H   UNL A   1      42.518  30.069  29.179  1.00  0.00     0.167 HD
ATOM     58  C   UNL A   1      45.084  31.187  28.714  1.00  0.00     0.074 A 
ATOM     59  C   UNL A   1      46.444  31.346  28.246  1.00  0.00     0.031 C 
ATOM     60  C   UNL A   1      44.384  32.156  29.355  1.00  0.00     0.034 A 
BRANCH  47  61
ATOM     61  C   UNL A   1      38.569  30.582  30.751  1.00  0.00     0.023 A 
ATOM     62  C   UNL A   1      37.611  31.242  29.962  1.00  0.00     0.031 A 
ATOM     63  C   UNL A   1      38.237  30.294  32.088  1.00  0.00     0.131 A 
ATOM     64  C   UNL A   1      36.385  31.626  30.527  1.00  0.00     0.055 A 
ATOM     65  C   UNL A   1      36.990  30.620  32.624  1.00  0.00     0.041 A 
ATOM     66  F   UNL A   1      39.120  29.684  32.893  1.00  0.00    -0.206 F 
ATOM     67  C   UNL A   1      36.058  31.296  31.844  1.00  0.00     0.022 A 
BRANCH  64  68
ATOM     68  S   UNL A   1      35.255  32.647  29.541  1.00  0.00     0.124 S 
ATOM     69  O   UNL A   1      34.239  33.002  30.530  1.00  0.00    -0.237 OA
ATOM     70  O   UNL A   1      36.119  33.734  29.095  1.00  0.00    -0.237 OA
ATOM     71  O   UNL A   1      34.802  31.740  28.490  1.00  0.00    -0.744 OA
ENDBRANCH  64  68
ENDBRANCH  47  61
BRANCH  48  72
ATOM     72  C   UNL A   1      47.104  27.593  26.430  1.00  0.00     0.023 A 
ATOM     73  C   UNL A   1      47.270  27.892  25.069  1.00  0.00     0.031 A 
ATOM     74  C   UNL A   1      48.110  26.841  27.064  1.00  0.00     0.131 A 
ATOM     75  C   UNL A   1      48.375  27.383  24.369  1.00  0.00     0.055 A 
ATOM     76  C   UNL A   1      49.243  26.397  26.380  1.00  0.00     0.041 A 
ATOM     77  F   UNL A   1      48.004  26.521  28.364  1.00  0.00    -0.206 F 
ATOM     78  C   UNL A   1      49.370  26.650  25.019  1.00  0.00     0.022 A 
BRANCH  75  79
ATOM     79  S   UNL A   1      48.423  27.577  22.566  1.00  0.00     0.124 S 
ATOM     80  O   UNL A   1      47.183  28.303  22.314  1.00  0.00    -0.237 OA
ATOM     81  O   UNL A   1      49.658  28.331  22.376  1.00  0.00    -0.237 OA
ATOM     82  O   UNL A   1      48.451  26.201  22.076  1.00  0.00    -0.744 OA
ENDBRANCH  75  79
ENDBRANCH  48  72
BRANCH  60  83
ATOM     83  C   UNL A   1      45.094  33.463  29.608  1.00  0.00     0.023 A 
ATOM     84  C   UNL A   1      45.045  34.517  28.679  1.00  0.00     0.031 A 
ATOM     85  C   UNL A   1      45.833  33.656  30.788  1.00  0.00     0.131 A 
ATOM     86  C   UNL A   1      45.765  35.696  28.921  1.00  0.00     0.055 A 
ATOM     87  C   UNL A   1      46.496  34.855  31.053  1.00  0.00     0.041 A 
ATOM     88  F   UNL A   1      45.918  32.682  31.708  1.00  0.00    -0.206 F 
ATOM     89  C   UNL A   1      46.474  35.880  30.111  1.00  0.00     0.022 A 
BRANCH  86  90
ATOM     90  S   UNL A   1      45.833  36.958  27.620  1.00  0.00     0.124 S 
ATOM     91  O   UNL A   1      46.145  36.160  26.439  1.00  0.00    -0.237 OA
ATOM     92  O   UNL A   1      44.490  37.529  27.666  1.00  0.00    -0.237 OA
ATOM     93  O   UNL A   1      46.900  37.853  28.064  1.00  0.00    -0.744 OA
ENDBRANCH  86  90
ENDBRANCH  60  83
ENDBRANCH  34  35
ENDBRANCH  26  29
ENDBRANCH  24  25
ENDBRANCH   1  24
TORSDOF 16
ENDMDL
MODEL 2
REMARK VINA RESULT:     -11.7      5.838     10.667
REMARK SMILES C[C@@H](C(=O)NCCCCNC(=O)c1ccc(-c2c3nc(c(-c4cc(S(=O)(=O)[O-])ccc4F)c4ccc([nH]4)c(-c4cc(S(=O)(=O)[O-])ccc4F)c4nc(c(-c5cc(S(=O)(=O)[O-])ccc5F)c5ccc2[nH]5)C=C4)C=C3)cc1)[C@H](C)[N@@H+]1C[C@H]2C[NH2+]C[C@@H]2[C@@H]1C
REMARK SMILES IDX 8 1 7 2 6 3 5 4 3 5 4 6 2 8 1 9 76 10 77 11 78 12 79 13
REMARK SMILES IDX 85 14 80 16 84 17 86 18 81 19 83 20 82 21 9 24 10 25 11 26
REMARK SMILES IDX 12 28 13 29 14 30 75 31 15 32 74 33 16 34 17 35 18 36 68 37
REMARK SMILES IDX 19 38 73 39 67 40 69 41 20 42 72 43 66 44 65 45 21 47 53 48
REMARK SMILES IDX 33 49 52 50 34 51 37 52 51 53 70 54 35 55 36 56 50 58 71 59
REMARK SMILES IDX 38 60 22 61 23 62 31 63 24 64 30 65 32 66 29 67 25 68 26 69
REMARK SMILES IDX 27 70 28 71 54 72 55 73 63 74 56 75 62 76 64 77 61 78 57 79
REMARK SMILES IDX 58 80 59 81 60 82 39 83 40 84 48 85 41 86 47 87 49 88 46 89
REMARK SMILES IDX 42 90 43 91 44 92 45 93
REMARK H PARENT 5 7 78 15 82 22 82 23 10 27 69 46 37 57
REMARK Flexibility Score: inf
ROOT
ATOM      1  C   UNL A   1      31.906  31.674  26.850  1.00  0.00     0.023 C 
ENDROOT
BRANCH   1   2
ATOM      2  C   UNL A   1      32.111  30.151  26.874  1.00  0.00     0.023 C 
BRANCH   2   3
ATOM      3  C   UNL A   1      33.350  29.673  26.104  1.00  0.00     0.116 C 
BRANCH   3   4
ATOM      4  N   UNL A   1      33.054  29.628  24.685  1.00  0.00    -0.356 N 
ATOM      5  C   UNL A   1      33.399  28.569  23.883  1.00  0.00     0.228 C 
ATOM      6  O   UNL A   1      34.159  28.779  22.941  1.00  0.00    -0.275 OA
ATOM      7  H   UNL A   1      32.584  30.392  24.279  1.00  0.00     0.163 HD
BRANCH   5   8
ATOM      8  C   UNL A   1      32.841  27.197  24.247  1.00  0.00     0.133 C 
ATOM      9  C   UNL A   1      34.047  26.303  24.582  1.00  0.00     0.024 C 
BRANCH   8  10
ATOM     10  C   UNL A   1      31.900  26.527  23.172  1.00  0.00     0.193 C 
ATOM     11  C   UNL A   1      31.056  27.555  22.395  1.00  0.00     0.076 C 
BRANCH  10  12
ATOM     12  N   UNL A   1      31.006  25.396  23.503  1.00  0.00    -0.329 N 
ATOM     13  C   UNL A   1      30.414  25.374  24.860  1.00  0.00     0.272 C 
ATOM     14  C   UNL A   1      31.364  23.990  23.136  1.00  0.00     0.190 C 
ATOM     15  H   UNL A   1      30.319  25.691  22.808  1.00  0.00     0.348 HD
ATOM     16  C   UNL A   1      31.198  24.246  25.466  1.00  0.00     0.114 C 
ATOM     17  C   UNL A   1      30.995  23.206  24.397  1.00  0.00     0.116 C 
ATOM     18  C   UNL A   1      32.758  23.692  22.604  1.00  0.00     0.076 C 
ATOM     19  C   UNL A   1      30.831  23.497  26.710  1.00  0.00     0.270 C 
ATOM     20  C   UNL A   1      31.711  22.029  25.007  1.00  0.00     0.271 C 
ATOM     21  N   UNL A   1      31.427  22.158  26.462  1.00  0.00    -0.345 N 
ATOM     22  H   UNL A   1      30.772  21.430  26.750  1.00  0.00     0.346 HD
ATOM     23  H   UNL A   1      32.289  22.054  26.997  1.00  0.00     0.346 HD
ENDBRANCH  10  12
ENDBRANCH   8  10
ENDBRANCH   5   8
ENDBRANCH   3   4
ENDBRANCH   2   3
ENDBRANCH   1   2
BRANCH   1  24
ATOM     24  C   UNL A   1      33.051  32.485  27.448  1.00  0.00     0.116 C 
BRANCH  24  25
ATOM     25  N   UNL A   1      32.674  33.869  27.690  1.00  0.00    -0.352 N 
ATOM     26  C   UNL A   1      33.174  34.760  28.610  1.00  0.00     0.251 C 
ATOM     27  H   UNL A   1      31.957  34.218  27.112  1.00  0.00     0.163 HD
ATOM     28  O   UNL A   1      32.608  35.829  28.792  1.00  0.00    -0.269 OA
BRANCH  26  29
ATOM     29  C   UNL A   1      34.375  34.399  29.392  1.00  0.00     0.039 A 
ATOM     30  C   UNL A   1      34.208  33.778  30.631  1.00  0.00     0.014 A 
ATOM     31  C   UNL A   1      35.657  34.641  28.888  1.00  0.00     0.014 A 
ATOM     32  C   UNL A   1      35.329  33.320  31.328  1.00  0.00     0.010 A 
ATOM     33  C   UNL A   1      36.767  34.132  29.557  1.00  0.00     0.010 A 
ATOM     34  C   UNL A   1      36.612  33.448  30.772  1.00  0.00    -0.014 A 
BRANCH  34  35
ATOM     35  C   UNL A   1      37.792  32.809  31.412  1.00  0.00     0.031 A 
ATOM     36  C   UNL A   1      38.462  31.627  30.767  1.00  0.00     0.074 A 
ATOM     37  C   UNL A   1      38.205  33.254  32.617  1.00  0.00     0.049 A 
ATOM     38  N   UNL A   1      39.438  30.885  31.221  1.00  0.00    -0.248 NA
ATOM     39  C   UNL A   1      37.955  31.213  29.450  1.00  0.00     0.031 C 
ATOM     40  C   UNL A   1      37.609  34.372  33.352  1.00  0.00     0.029 A 
ATOM     41  N   UNL A   1      39.207  32.814  33.446  1.00  0.00    -0.354 N 
ATOM     42  C   UNL A   1      39.656  29.909  30.255  1.00  0.00     0.074 A 
ATOM     43  C   UNL A   1      38.683  30.132  29.206  1.00  0.00     0.031 C 
ATOM     44  C   UNL A   1      38.261  34.535  34.515  1.00  0.00     0.029 A 
ATOM     45  C   UNL A   1      39.282  33.500  34.638  1.00  0.00     0.049 A 
ATOM     46  H   UNL A   1      39.816  32.076  33.211  1.00  0.00     0.167 HD
ATOM     47  C   UNL A   1      40.589  28.926  30.246  1.00  0.00     0.034 A 
ATOM     48  C   UNL A   1      40.062  33.302  35.721  1.00  0.00     0.034 A 
ATOM     49  C   UNL A   1      41.559  28.728  31.295  1.00  0.00     0.049 A 
ATOM     50  C   UNL A   1      41.059  32.169  35.695  1.00  0.00     0.074 A 
ATOM     51  C   UNL A   1      42.600  27.818  31.339  1.00  0.00     0.029 A 
ATOM     52  N   UNL A   1      41.598  29.433  32.490  1.00  0.00    -0.354 N 
ATOM     53  N   UNL A   1      41.306  31.307  34.735  1.00  0.00    -0.248 NA
ATOM     54  C   UNL A   1      41.885  31.984  36.896  1.00  0.00     0.031 C 
ATOM     55  C   UNL A   1      43.214  27.913  32.592  1.00  0.00     0.029 A 
ATOM     56  C   UNL A   1      42.610  28.941  33.299  1.00  0.00     0.049 A 
ATOM     57  H   UNL A   1      40.994  30.174  32.729  1.00  0.00     0.167 HD
ATOM     58  C   UNL A   1      42.331  30.494  35.211  1.00  0.00     0.074 A 
ATOM     59  C   UNL A   1      42.675  30.986  36.528  1.00  0.00     0.031 C 
ATOM     60  C   UNL A   1      42.931  29.432  34.617  1.00  0.00     0.034 A 
BRANCH  47  61
ATOM     61  C   UNL A   1      40.595  27.966  29.083  1.00  0.00     0.023 A 
ATOM     62  C   UNL A   1      41.518  28.076  28.030  1.00  0.00     0.031 A 
ATOM     63  C   UNL A   1      39.684  26.893  29.052  1.00  0.00     0.131 A 
ATOM     64  C   UNL A   1      41.485  27.155  26.972  1.00  0.00     0.055 A 
ATOM     65  C   UNL A   1      39.701  25.941  28.031  1.00  0.00     0.041 A 
ATOM     66  F   UNL A   1      38.767  26.749  30.021  1.00  0.00    -0.206 F 
ATOM     67  C   UNL A   1      40.601  26.073  26.979  1.00  0.00     0.022 A 
BRANCH  64  68
ATOM     68  S   UNL A   1      42.556  27.440  25.536  1.00  0.00     0.124 S 
ATOM     69  O   UNL A   1      42.287  26.254  24.726  1.00  0.00    -0.237 OA
ATOM     70  O   UNL A   1      42.049  28.702  25.009  1.00  0.00    -0.237 OA
ATOM     71  O   UNL A   1      43.897  27.500  26.114  1.00  0.00    -0.744 OA
ENDBRANCH  64  68
ENDBRANCH  47  61
BRANCH  48  72
ATOM     72  C   UNL A   1      39.908  34.147  36.942  1.00  0.00     0.023 A 
ATOM     73  C   UNL A   1      40.844  35.145  37.255  1.00  0.00     0.031 A 
ATOM     74  C   UNL A   1      38.868  33.912  37.861  1.00  0.00     0.131 A 
ATOM     75  C   UNL A   1      40.765  35.821  38.483  1.00  0.00     0.055 A 
ATOM     76  C   UNL A   1      38.754  34.635  39.049  1.00  0.00     0.041 A 
ATOM     77  F   UNL A   1      37.946  32.967  37.618  1.00  0.00    -0.206 F 
ATOM     78  C   UNL A   1      39.718  35.583  39.375  1.00  0.00     0.022 A 
BRANCH  75  79
ATOM     79  S   UNL A   1      42.131  36.917  38.957  1.00  0.00     0.124 S 
ATOM     80  O   UNL A   1      42.660  37.310  37.656  1.00  0.00    -0.237 OA
ATOM     81  O   UNL A   1      41.436  37.956  39.709  1.00  0.00    -0.237 OA
ATOM     82  O   UNL A   1      43.001  36.052  39.749  1.00  0.00    -0.744 OA
ENDBRANCH  75  79
ENDBRANCH  48  72
BRANCH  60  83
ATOM     83  C   UNL A   1      44.041  28.754  35.383  1.00  0.00     0.023 A 
ATOM     84  C   UNL A   1      43.788  27.653  36.220  1.00  0.00     0.031 A 
ATOM     85  C   UNL A   1      45.364  29.217  35.280  1.00  0.00     0.131 A 
ATOM     86  C   UNL A   1      44.835  27.085  36.961  1.00  0.00     0.055 A 
ATOM     87  C   UNL A   1      46.412  28.607  35.970  1.00  0.00     0.041 A 
ATOM     88  F   UNL A   1      45.661  30.268  34.499  1.00  0.00    -0.206 F 
ATOM     89  C   UNL A   1      46.149  27.542  36.827  1.00  0.00     0.022 A 
BRANCH  86  90
ATOM     90  S   UNL A   1      44.444  25.791  38.170  1.00  0.00     0.124 S 
ATOM     91  O   UNL A   1      43.444  25.002  37.458  1.00  0.00    -0.237 OA
ATOM     92  O   UNL A   1      45.738  25.146  38.371  1.00  0.00    -0.237 OA
ATOM     93  O   UNL A   1      43.940  26.537  39.321  1.00  0.00    -0.744 OA
ENDBRANCH  86  90
ENDBRANCH  60  83
ENDBRANCH  34  35
ENDBRANCH  26  29
ENDBRANCH  24  25
ENDBRANCH   1  24
TORSDOF 16
ENDMDL
MODEL 3
REMARK VINA RESULT:     -11.6      5.171     10.340
REMARK SMILES C[C@@H](C(=O)NCCCCNC(=O)c1ccc(-c2c3nc(c(-c4cc(S(=O)(=O)[O-])ccc4F)c4ccc([nH]4)c(-c4cc(S(=O)(=O)[O-])ccc4F)c4nc(c(-c5cc(S(=O)(=O)[O-])ccc5F)c5ccc2[nH]5)C=C4)C=C3)cc1)[C@H](C)[N@@H+]1C[C@H]2C[NH2+]C[C@@H]2[C@@H]1C
REMARK SMILES IDX 8 1 7 2 6 3 5 4 3 5 4 6 2 8 1 9 76 10 77 11 78 12 79 13
REMARK SMILES IDX 85 14 80 16 84 17 86 18 81 19 83 20 82 21 9 24 10 25 11 26
REMARK SMILES IDX 12 28 13 29 14 30 75 31 15 32 74 33 16 34 17 35 18 36 68 37
REMARK SMILES IDX 19 38 73 39 67 40 69 41 20 42 72 43 66 44 65 45 21 47 53 48
REMARK SMILES IDX 33 49 52 50 34 51 37 52 51 53 70 54 35 55 36 56 50 58 71 59
REMARK SMILES IDX 38 60 22 61 23 62 31 63 24 64 30 65 32 66 29 67 25 68 26 69
REMARK SMILES IDX 27 70 28 71 54 72 55 73 63 74 56 75 62 76 64 77 61 78 57 79
REMARK SMILES IDX 58 80 59 81 60 82 39 83 40 84 48 85 41 86 47 87 49 88 46 89
REMARK SMILES IDX 42 90 43 91 44 92 45 93
REMARK H PARENT 5 7 78 15 82 22 82 23 10 27 69 46 37 57
REMARK Flexibility Score: inf
ROOT
ATOM      1  C   UNL A   1      31.445  30.480  25.611  1.00  0.00     0.023 C 
ENDROOT
BRANCH   1   2
ATOM      2  C   UNL A   1      31.995  29.382  24.688  1.00  0.00     0.023 C 
BRANCH   2   3
ATOM      3  C   UNL A   1      31.731  27.954  25.185  1.00  0.00     0.116 C 
BRANCH   3   4
ATOM      4  N   UNL A   1      30.877  27.261  24.242  1.00  0.00    -0.356 N 
ATOM      5  C   UNL A   1      31.322  26.798  23.030  1.00  0.00     0.228 C 
ATOM      6  O   UNL A   1      30.798  27.240  22.011  1.00  0.00    -0.275 OA
ATOM      7  H   UNL A   1      29.933  27.115  24.482  1.00  0.00     0.163 HD
BRANCH   5   8
ATOM      8  C   UNL A   1      32.470  25.792  23.037  1.00  0.00     0.133 C 
ATOM      9  C   UNL A   1      33.058  25.781  21.616  1.00  0.00     0.024 C 
BRANCH   8  10
ATOM     10  C   UNL A   1      32.109  24.336  23.529  1.00  0.00     0.193 C 
ATOM     11  C   UNL A   1      30.600  24.035  23.444  1.00  0.00     0.076 C 
BRANCH  10  12
ATOM     12  N   UNL A   1      32.583  23.803  24.824  1.00  0.00    -0.329 N 
ATOM     13  C   UNL A   1      33.631  24.572  25.532  1.00  0.00     0.272 C 
ATOM     14  C   UNL A   1      32.884  22.347  25.001  1.00  0.00     0.190 C 
ATOM     15  H   UNL A   1      31.669  23.945  25.256  1.00  0.00     0.348 HD
ATOM     16  C   UNL A   1      34.806  23.659  25.325  1.00  0.00     0.114 C 
ATOM     17  C   UNL A   1      34.194  22.365  25.791  1.00  0.00     0.116 C 
ATOM     18  C   UNL A   1      32.906  21.439  23.781  1.00  0.00     0.076 C 
ATOM     19  C   UNL A   1      36.088  23.700  26.097  1.00  0.00     0.270 C 
ATOM     20  C   UNL A   1      35.372  21.435  25.665  1.00  0.00     0.271 C 
ATOM     21  N   UNL A   1      36.535  22.282  26.044  1.00  0.00    -0.345 N 
ATOM     22  H   UNL A   1      36.884  21.997  26.959  1.00  0.00     0.346 HD
ATOM     23  H   UNL A   1      37.283  22.176  25.360  1.00  0.00     0.346 HD
ENDBRANCH  10  12
ENDBRANCH   8  10
ENDBRANCH   5   8
ENDBRANCH   3   4
ENDBRANCH   2   3
ENDBRANCH   1   2
BRANCH   1  24
ATOM     24  C   UNL A   1      32.360  30.865  26.770  1.00  0.00     0.116 C 
BRANCH  24  25
ATOM     25  N   UNL A   1      32.379  32.300  26.999  1.00  0.00    -0.352 N 
ATOM     26  C   UNL A   1      33.304  33.063  27.671  1.00  0.00     0.251 C 
ATOM     27  H   UNL A   1      31.620  32.799  26.617  1.00  0.00     0.163 HD
ATOM     28  O   UNL A   1      33.061  34.237  27.920  1.00  0.00    -0.269 OA
BRANCH  26  29
ATOM     29  C   UNL A   1      34.571  32.444  28.116  1.00  0.00     0.039 A 
ATOM     30  C   UNL A   1      35.747  33.193  28.039  1.00  0.00     0.014 A 
ATOM     31  C   UNL A   1      34.590  31.147  28.636  1.00  0.00     0.014 A 
ATOM     32  C   UNL A   1      36.930  32.671  28.566  1.00  0.00     0.010 A 
ATOM     33  C   UNL A   1      35.757  30.653  29.213  1.00  0.00     0.010 A 
ATOM     34  C   UNL A   1      36.933  31.419  29.203  1.00  0.00    -0.014 A 
BRANCH  34  35
ATOM     35  C   UNL A   1      38.136  30.928  29.925  1.00  0.00     0.031 A 
ATOM     36  C   UNL A   1      39.021  29.881  29.307  1.00  0.00     0.074 A 
ATOM     37  C   UNL A   1      38.379  31.376  31.175  1.00  0.00     0.049 A 
ATOM     38  N   UNL A   1      40.053  29.266  29.823  1.00  0.00    -0.248 NA
ATOM     39  C   UNL A   1      38.690  29.455  27.939  1.00  0.00     0.031 C 
ATOM     40  C   UNL A   1      37.567  32.367  31.887  1.00  0.00     0.029 A 
ATOM     41  N   UNL A   1      39.361  31.048  32.076  1.00  0.00    -0.354 N 
ATOM     42  C   UNL A   1      40.489  28.372  28.852  1.00  0.00     0.074 A 
ATOM     43  C   UNL A   1      39.585  28.499  27.728  1.00  0.00     0.031 C 
ATOM     44  C   UNL A   1      38.090  32.571  33.107  1.00  0.00     0.029 A 
ATOM     45  C   UNL A   1      39.237  31.687  33.289  1.00  0.00     0.049 A 
ATOM     46  H   UNL A   1      40.088  30.414  31.873  1.00  0.00     0.167 HD
ATOM     47  C   UNL A   1      41.552  27.533  28.896  1.00  0.00     0.034 A 
ATOM     48  C   UNL A   1      39.944  31.556  34.430  1.00  0.00     0.034 A 
ATOM     49  C   UNL A   1      42.450  27.431  30.021  1.00  0.00     0.049 A 
ATOM     50  C   UNL A   1      41.093  30.578  34.459  1.00  0.00     0.074 A 
ATOM     51  C   UNL A   1      43.605  26.675  30.129  1.00  0.00     0.029 A 
ATOM     52  N   UNL A   1      42.287  28.083  31.235  1.00  0.00    -0.354 N 
ATOM     53  N   UNL A   1      41.541  29.801  33.500  1.00  0.00    -0.248 NA
ATOM     54  C   UNL A   1      41.835  30.461  35.722  1.00  0.00     0.031 C 
ATOM     55  C   UNL A   1      44.092  26.804  31.434  1.00  0.00     0.029 A 
ATOM     56  C   UNL A   1      43.289  27.705  32.115  1.00  0.00     0.049 A 
ATOM     57  H   UNL A   1      41.565  28.720  31.441  1.00  0.00     0.167 HD
ATOM     58  C   UNL A   1      42.630  29.122  34.040  1.00  0.00     0.074 A 
ATOM     59  C   UNL A   1      42.788  29.602  35.396  1.00  0.00     0.031 C 
ATOM     60  C   UNL A   1      43.425  28.181  33.471  1.00  0.00     0.034 A 
BRANCH  47  61
ATOM     61  C   UNL A   1      41.794  26.632  27.711  1.00  0.00     0.023 A 
ATOM     62  C   UNL A   1      41.337  25.304  27.679  1.00  0.00     0.031 A 
ATOM     63  C   UNL A   1      42.457  27.129  26.573  1.00  0.00     0.131 A 
ATOM     64  C   UNL A   1      41.584  24.506  26.551  1.00  0.00     0.055 A 
ATOM     65  C   UNL A   1      42.640  26.351  25.429  1.00  0.00     0.041 A 
ATOM     66  F   UNL A   1      42.933  28.384  26.555  1.00  0.00    -0.206 F 
ATOM     67  C   UNL A   1      42.209  25.029  25.416  1.00  0.00     0.022 A 
BRANCH  64  68
ATOM     68  S   UNL A   1      41.157  22.745  26.620  1.00  0.00     0.124 S 
ATOM     69  O   UNL A   1      41.918  22.212  25.493  1.00  0.00    -0.237 OA
ATOM     70  O   UNL A   1      41.624  22.358  27.946  1.00  0.00    -0.237 OA
ATOM     71  O   UNL A   1      39.707  22.736  26.443  1.00  0.00    -0.744 OA
ENDBRANCH  64  68
ENDBRANCH  47  61
BRANCH  48  72
ATOM     72  C   UNL A   1      39.568  32.319  35.658  1.00  0.00     0.023 A 
ATOM     73  C   UNL A   1      38.794  31.728  36.668  1.00  0.00     0.031 A 
ATOM     74  C   UNL A   1      39.906  33.677  35.799  1.00  0.00     0.131 A 
ATOM     75  C   UNL A   1      38.323  32.507  37.738  1.00  0.00     0.055 A 
ATOM     76  C   UNL A   1      39.494  34.431  36.900  1.00  0.00     0.041 A 
ATOM     77  F   UNL A   1      40.641  34.297  34.862  1.00  0.00    -0.206 F 
ATOM     78  C   UNL A   1      38.681  33.851  37.868  1.00  0.00     0.022 A 
BRANCH  75  79
ATOM     79  S   UNL A   1      37.123  31.772  38.883  1.00  0.00     0.124 S 
ATOM     80  O   UNL A   1      36.932  30.449  38.300  1.00  0.00    -0.237 OA
ATOM     81  O   UNL A   1      37.847  31.819  40.148  1.00  0.00    -0.237 OA
ATOM     82  O   UNL A   1      35.973  32.668  38.790  1.00  0.00    -0.744 OA
ENDBRANCH  75  79
ENDBRANCH  48  72
BRANCH  60  83
ATOM     83  C   UNL A   1      44.553  27.636  34.311  1.00  0.00     0.023 A 
ATOM     84  C   UNL A   1      44.391  26.482  35.098  1.00  0.00     0.031 A 
ATOM     85  C   UNL A   1      45.803  28.279  34.330  1.00  0.00     0.131 A 
ATOM     86  C   UNL A   1      45.444  26.037  35.911  1.00  0.00     0.055 A 
ATOM     87  C   UNL A   1      46.867  27.795  35.092  1.00  0.00     0.041 A 
ATOM     88  F   UNL A   1      46.012  29.388  33.602  1.00  0.00    -0.206 F 
ATOM     89  C   UNL A   1      46.687  26.675  35.898  1.00  0.00     0.022 A 
BRANCH  86  90
ATOM     90  S   UNL A   1      45.141  24.660  37.052  1.00  0.00     0.124 S 
ATOM     91  O   UNL A   1      44.020  25.160  37.840  1.00  0.00    -0.237 OA
ATOM     92  O   UNL A   1      44.840  23.559  36.142  1.00  0.00    -0.237 OA
ATOM     93  O   UNL A   1      46.403  24.533  37.779  1.00  0.00    -0.744 OA
ENDBRANCH  86  90
ENDBRANCH  60  83
ENDBRANCH  34  35
ENDBRANCH  26  29
ENDBRANCH  24  25
ENDBRANCH   1  24
TORSDOF 16
ENDMDL
