MODEL 1
REMARK VINA RESULT:     -12.4      0.000      0.000
REMARK SMILES C#Cc1ccc2c(c1)C=C(C(=O)NCCCCNC(=O)c1ccc(-c3c4nc(c(-c5cc(S(=O)(=O)[O-])ccc5F)c5ccc([nH]5)c(-c5cc(S(=O)(=O)[O-])ccc5F)c5nc(c(-c6cc(S(=O)(=O)[O-])ccc6F)c6ccc3[nH]6)C=C5)C=C4)cc1)[C@@H](C(F)(F)F)O2
REMARK SMILES IDX 16 1 15 2 14 3 13 4 11 5 12 6 10 8 3 9 4 10 8 11 5 12 7 13
REMARK SMILES IDX 6 14 9 15 89 16 84 17 2 18 1 19 85 20 86 21 87 22 88 23
REMARK SMILES IDX 17 24 18 25 19 26 20 28 21 29 22 30 83 31 23 32 82 33 24 34
REMARK SMILES IDX 25 35 26 36 76 37 27 38 81 39 75 40 77 41 28 42 80 43 74 44
REMARK SMILES IDX 73 45 29 47 61 48 41 49 60 50 42 51 45 52 59 53 78 54 43 55
REMARK SMILES IDX 44 56 58 58 79 59 46 60 30 61 31 62 39 63 32 64 38 65 40 66
REMARK SMILES IDX 37 67 33 68 34 69 35 70 36 71 62 72 63 73 71 74 64 75 70 76
REMARK SMILES IDX 72 77 69 78 65 79 66 80 67 81 68 82 47 83 48 84 56 85 49 86
REMARK SMILES IDX 55 87 57 88 54 89 50 90 51 91 52 92 53 93
REMARK H PARENT 13 7 18 27 77 46 45 57
REMARK Flexibility Score: inf
ROOT
ATOM      1  C   UNL A   1      32.845  29.366  25.416  1.00  0.00     0.023 C 
ENDROOT
BRANCH   1   2
ATOM      2  C   UNL A   1      34.029  28.493  25.024  1.00  0.00     0.023 C 
BRANCH   2   3
ATOM      3  C   UNL A   1      33.880  27.047  25.476  1.00  0.00     0.116 C 
BRANCH   3   4
ATOM      4  N   UNL A   1      33.670  26.137  24.361  1.00  0.00    -0.352 N 
ATOM      5  C   UNL A   1      32.670  25.855  23.491  1.00  0.00     0.251 C 
ATOM      6  O   UNL A   1      32.928  25.013  22.626  1.00  0.00    -0.270 OA
ATOM      7  H   UNL A   1      34.463  25.579  24.195  1.00  0.00     0.163 HD
BRANCH   5   8
ATOM      8  C   UNL A   1      31.313  26.481  23.527  1.00  0.00     0.067 C 
ATOM      9  C   UNL A   1      28.408  30.169  22.369  1.00  0.00     0.025 A 
ATOM     10  C   UNL A   1      27.305  29.437  22.813  1.00  0.00     0.021 A 
ATOM     11  C   UNL A   1      29.693  29.612  22.415  1.00  0.00     0.029 A 
ATOM     12  C   UNL A   1      27.483  28.150  23.306  1.00  0.00     0.048 A 
ATOM     13  C   UNL A   1      29.874  28.317  22.911  1.00  0.00     0.018 A 
ATOM     14  C   UNL A   1      28.761  27.603  23.359  1.00  0.00     0.128 A 
ATOM     15  C   UNL A   1      31.184  27.675  22.921  1.00  0.00     0.025 C 
ATOM     16  O   UNL A   1      28.830  26.329  23.829  1.00  0.00    -0.475 OA
ATOM     17  C   UNL A   1      30.140  25.849  24.216  1.00  0.00     0.314 C 
BRANCH   9  18
ATOM     18  C   UNL A   1      28.206  31.487  21.855  1.00  0.00    -0.070 C 
ATOM     19  C   UNL A   1      28.028  32.581  21.390  1.00  0.00     0.010 C 
ENDBRANCH   9  18
BRANCH  17  20
ATOM     20  C   UNL A   1      30.260  25.908  25.751  1.00  0.00     0.429 C 
ATOM     21  F   UNL A   1      30.578  27.165  26.151  1.00  0.00    -0.167 F 
ATOM     22  F   UNL A   1      29.109  25.586  26.387  1.00  0.00    -0.167 F 
ATOM     23  F   UNL A   1      31.215  25.077  26.228  1.00  0.00    -0.167 F 
ENDBRANCH  17  20
ENDBRANCH   5   8
ENDBRANCH   3   4
ENDBRANCH   2   3
ENDBRANCH   1   2
BRANCH   1  24
ATOM     24  C   UNL A   1      32.804  29.747  26.889  1.00  0.00     0.116 C 
BRANCH  24  25
ATOM     25  N   UNL A   1      32.673  31.182  27.128  1.00  0.00    -0.352 N 
ATOM     26  C   UNL A   1      33.629  32.041  27.631  1.00  0.00     0.251 C 
ATOM     27  H   UNL A   1      31.802  31.583  26.904  1.00  0.00     0.163 HD
ATOM     28  O   UNL A   1      33.358  33.207  27.890  1.00  0.00    -0.269 OA
BRANCH  26  29
ATOM     29  C   UNL A   1      34.970  31.484  27.896  1.00  0.00     0.039 A 
ATOM     30  C   UNL A   1      35.087  30.136  28.230  1.00  0.00     0.014 A 
ATOM     31  C   UNL A   1      36.062  32.346  28.001  1.00  0.00     0.014 A 
ATOM     32  C   UNL A   1      36.223  29.707  28.899  1.00  0.00     0.010 A 
ATOM     33  C   UNL A   1      37.255  31.870  28.550  1.00  0.00     0.010 A 
ATOM     34  C   UNL A   1      37.324  30.566  29.066  1.00  0.00    -0.014 A 
BRANCH  34  35
ATOM     35  C   UNL A   1      38.532  30.065  29.776  1.00  0.00     0.031 A 
ATOM     36  C   UNL A   1      38.872  30.523  31.171  1.00  0.00     0.074 A 
ATOM     37  C   UNL A   1      39.304  29.147  29.161  1.00  0.00     0.049 A 
ATOM     38  N   UNL A   1      39.882  30.172  31.924  1.00  0.00    -0.248 NA
ATOM     39  C   UNL A   1      37.973  31.502  31.803  1.00  0.00     0.031 C 
ATOM     40  C   UNL A   1      39.064  28.625  27.815  1.00  0.00     0.029 A 
ATOM     41  N   UNL A   1      40.421  28.472  29.582  1.00  0.00    -0.354 N 
ATOM     42  C   UNL A   1      39.758  30.900  33.103  1.00  0.00     0.074 A 
ATOM     43  C   UNL A   1      38.592  31.742  32.951  1.00  0.00     0.031 C 
ATOM     44  C   UNL A   1      39.963  27.673  27.544  1.00  0.00     0.029 A 
ATOM     45  C   UNL A   1      40.909  27.585  28.652  1.00  0.00     0.049 A 
ATOM     46  H   UNL A   1      40.835  28.610  30.465  1.00  0.00     0.167 HD
ATOM     47  C   UNL A   1      40.537  30.854  34.211  1.00  0.00     0.034 A 
ATOM     48  C   UNL A   1      42.009  26.804  28.663  1.00  0.00     0.034 A 
ATOM     49  C   UNL A   1      41.681  29.986  34.347  1.00  0.00     0.049 A 
ATOM     50  C   UNL A   1      42.879  26.804  29.889  1.00  0.00     0.074 A 
ATOM     51  C   UNL A   1      42.509  29.837  35.446  1.00  0.00     0.029 A 
ATOM     52  N   UNL A   1      42.164  29.126  33.369  1.00  0.00    -0.354 N 
ATOM     53  N   UNL A   1      42.713  27.455  31.015  1.00  0.00    -0.248 NA
ATOM     54  C   UNL A   1      44.080  25.961  29.855  1.00  0.00     0.031 C 
ATOM     55  C   UNL A   1      43.539  28.963  35.103  1.00  0.00     0.029 A 
ATOM     56  C   UNL A   1      43.300  28.477  33.828  1.00  0.00     0.049 A 
ATOM     57  H   UNL A   1      41.758  28.996  32.482  1.00  0.00     0.167 HD
ATOM     58  C   UNL A   1      43.774  27.083  31.834  1.00  0.00     0.074 A 
ATOM     59  C   UNL A   1      44.558  26.125  31.083  1.00  0.00     0.031 C 
ATOM     60  C   UNL A   1      44.071  27.505  33.088  1.00  0.00     0.034 A 
BRANCH  47  61
ATOM     61  C   UNL A   1      40.203  31.746  35.387  1.00  0.00     0.023 A 
ATOM     62  C   UNL A   1      39.248  31.327  36.333  1.00  0.00     0.031 A 
ATOM     63  C   UNL A   1      40.693  33.061  35.479  1.00  0.00     0.131 A 
ATOM     64  C   UNL A   1      38.769  32.230  37.291  1.00  0.00     0.055 A 
ATOM     65  C   UNL A   1      40.255  33.939  36.474  1.00  0.00     0.041 A 
ATOM     66  F   UNL A   1      41.601  33.517  34.601  1.00  0.00    -0.206 F 
ATOM     67  C   UNL A   1      39.275  33.531  37.373  1.00  0.00     0.022 A 
BRANCH  64  68
ATOM     68  S   UNL A   1      37.403  31.785  38.399  1.00  0.00     0.124 S 
ATOM     69  O   UNL A   1      38.018  31.953  39.714  1.00  0.00    -0.237 OA
ATOM     70  O   UNL A   1      36.394  32.782  38.052  1.00  0.00    -0.237 OA
ATOM     71  O   UNL A   1      37.087  30.409  38.034  1.00  0.00    -0.744 OA
ENDBRANCH  64  68
ENDBRANCH  47  61
BRANCH  48  72
ATOM     72  C   UNL A   1      42.299  25.951  27.473  1.00  0.00     0.023 A 
ATOM     73  C   UNL A   1      41.795  24.638  27.390  1.00  0.00     0.031 A 
ATOM     74  C   UNL A   1      43.186  26.381  26.474  1.00  0.00     0.131 A 
ATOM     75  C   UNL A   1      42.254  23.777  26.387  1.00  0.00     0.055 A 
ATOM     76  C   UNL A   1      43.571  25.547  25.423  1.00  0.00     0.041 A 
ATOM     77  F   UNL A   1      43.706  27.617  26.517  1.00  0.00    -0.206 F 
ATOM     78  C   UNL A   1      43.122  24.230  25.390  1.00  0.00     0.022 A 
BRANCH  75  79
ATOM     79  S   UNL A   1      41.871  22.004  26.442  1.00  0.00     0.124 S 
ATOM     80  O   UNL A   1      42.717  21.476  25.376  1.00  0.00    -0.237 OA
ATOM     81  O   UNL A   1      42.275  21.657  27.802  1.00  0.00    -0.237 OA
ATOM     82  O   UNL A   1      40.434  21.954  26.192  1.00  0.00    -0.744 OA
ENDBRANCH  75  79
ENDBRANCH  48  72
BRANCH  60  83
ATOM     83  C   UNL A   1      45.294  26.940  33.776  1.00  0.00     0.023 A 
ATOM     84  C   UNL A   1      45.171  25.798  34.592  1.00  0.00     0.031 A 
ATOM     85  C   UNL A   1      46.525  27.618  33.765  1.00  0.00     0.131 A 
ATOM     86  C   UNL A   1      46.236  25.407  35.410  1.00  0.00     0.055 A 
ATOM     87  C   UNL A   1      47.607  27.182  34.532  1.00  0.00     0.041 A 
ATOM     88  F   UNL A   1      46.692  28.719  33.016  1.00  0.00    -0.206 F 
ATOM     89  C   UNL A   1      47.459  26.085  35.375  1.00  0.00     0.022 A 
BRANCH  86  90
ATOM     90  S   UNL A   1      46.039  24.080  36.633  1.00  0.00     0.124 S 
ATOM     91  O   UNL A   1      46.261  22.886  35.822  1.00  0.00    -0.237 OA
ATOM     92  O   UNL A   1      47.097  24.388  37.591  1.00  0.00    -0.237 OA
ATOM     93  O   UNL A   1      44.676  24.253  37.123  1.00  0.00    -0.744 OA
ENDBRANCH  86  90
ENDBRANCH  60  83
ENDBRANCH  34  35
ENDBRANCH  26  29
ENDBRANCH  24  25
ENDBRANCH   1  24
TORSDOF 16
ENDMDL
MODEL 2
REMARK VINA RESULT:     -12.4      5.224     10.116
REMARK SMILES C#Cc1ccc2c(c1)C=C(C(=O)NCCCCNC(=O)c1ccc(-c3c4nc(c(-c5cc(S(=O)(=O)[O-])ccc5F)c5ccc([nH]5)c(-c5cc(S(=O)(=O)[O-])ccc5F)c5nc(c(-c6cc(S(=O)(=O)[O-])ccc6F)c6ccc3[nH]6)C=C5)C=C4)cc1)[C@@H](C(F)(F)F)O2
REMARK SMILES IDX 16 1 15 2 14 3 13 4 11 5 12 6 10 8 3 9 4 10 8 11 5 12 7 13
REMARK SMILES IDX 6 14 9 15 89 16 84 17 2 18 1 19 85 20 86 21 87 22 88 23
REMARK SMILES IDX 17 24 18 25 19 26 20 28 21 29 22 30 83 31 23 32 82 33 24 34
REMARK SMILES IDX 25 35 26 36 76 37 27 38 81 39 75 40 77 41 28 42 80 43 74 44
REMARK SMILES IDX 73 45 29 47 61 48 41 49 60 50 42 51 45 52 59 53 78 54 43 55
REMARK SMILES IDX 44 56 58 58 79 59 46 60 30 61 31 62 39 63 32 64 38 65 40 66
REMARK SMILES IDX 37 67 33 68 34 69 35 70 36 71 62 72 63 73 71 74 64 75 70 76
REMARK SMILES IDX 72 77 69 78 65 79 66 80 67 81 68 82 47 83 48 84 56 85 49 86
REMARK SMILES IDX 55 87 57 88 54 89 50 90 51 91 52 92 53 93
REMARK H PARENT 13 7 18 27 77 46 45 57
REMARK Flexibility Score: inf
ROOT
ATOM      1  C   UNL A   1      35.959  21.562  24.674  1.00  0.00     0.023 C 
ENDROOT
BRANCH   1   2
ATOM      2  C   UNL A   1      35.182  21.169  25.922  1.00  0.00     0.023 C 
BRANCH   2   3
ATOM      3  C   UNL A   1      33.677  21.117  25.697  1.00  0.00     0.116 C 
BRANCH   3   4
ATOM      4  N   UNL A   1      33.295  21.620  24.387  1.00  0.00    -0.352 N 
ATOM      5  C   UNL A   1      32.785  22.768  23.879  1.00  0.00     0.251 C 
ATOM      6  O   UNL A   1      32.651  22.804  22.653  1.00  0.00    -0.270 OA
ATOM      7  H   UNL A   1      33.447  20.949  23.683  1.00  0.00     0.163 HD
BRANCH   5   8
ATOM      8  C   UNL A   1      32.381  23.951  24.699  1.00  0.00     0.067 C 
ATOM      9  C   UNL A   1      33.569  28.112  26.857  1.00  0.00     0.025 A 
ATOM     10  C   UNL A   1      32.221  28.353  27.129  1.00  0.00     0.021 A 
ATOM     11  C   UNL A   1      33.955  26.959  26.162  1.00  0.00     0.029 A 
ATOM     12  C   UNL A   1      31.257  27.443  26.712  1.00  0.00     0.048 A 
ATOM     13  C   UNL A   1      32.988  26.041  25.741  1.00  0.00     0.018 A 
ATOM     14  C   UNL A   1      31.645  26.294  26.030  1.00  0.00     0.128 A 
ATOM     15  C   UNL A   1      33.339  24.859  24.962  1.00  0.00     0.025 C 
ATOM     16  O   UNL A   1      30.630  25.478  25.637  1.00  0.00    -0.475 OA
ATOM     17  C   UNL A   1      30.992  24.136  25.236  1.00  0.00     0.314 C 
BRANCH   9  18
ATOM     18  C   UNL A   1      34.545  29.064  27.283  1.00  0.00    -0.070 C 
ATOM     19  C   UNL A   1      35.384  29.839  27.659  1.00  0.00     0.010 C 
ENDBRANCH   9  18
BRANCH  17  20
ATOM     20  C   UNL A   1      30.677  23.167  26.392  1.00  0.00     0.429 C 
ATOM     21  F   UNL A   1      31.713  23.127  27.269  1.00  0.00    -0.167 F 
ATOM     22  F   UNL A   1      29.587  23.530  27.108  1.00  0.00    -0.167 F 
ATOM     23  F   UNL A   1      30.460  21.903  25.964  1.00  0.00    -0.167 F 
ENDBRANCH  17  20
ENDBRANCH   5   8
ENDBRANCH   3   4
ENDBRANCH   2   3
ENDBRANCH   1   2
BRANCH   1  24
ATOM     24  C   UNL A   1      37.400  21.979  24.934  1.00  0.00     0.116 C 
BRANCH  24  25
ATOM     25  N   UNL A   1      38.291  20.867  25.252  1.00  0.00    -0.352 N 
ATOM     26  C   UNL A   1      39.428  20.899  26.035  1.00  0.00     0.251 C 
ATOM     27  H   UNL A   1      38.055  19.994  24.863  1.00  0.00     0.163 HD
ATOM     28  O   UNL A   1      40.154  19.918  26.135  1.00  0.00    -0.269 OA
BRANCH  26  29
ATOM     29  C   UNL A   1      39.760  22.175  26.699  1.00  0.00     0.039 A 
ATOM     30  C   UNL A   1      39.210  23.356  26.203  1.00  0.00     0.014 A 
ATOM     31  C   UNL A   1      40.757  22.202  27.674  1.00  0.00     0.014 A 
ATOM     32  C   UNL A   1      39.830  24.560  26.501  1.00  0.00     0.010 A 
ATOM     33  C   UNL A   1      41.284  23.432  28.075  1.00  0.00     0.010 A 
ATOM     34  C   UNL A   1      40.873  24.616  27.442  1.00  0.00    -0.014 A 
BRANCH  34  35
ATOM     35  C   UNL A   1      41.503  25.929  27.748  1.00  0.00     0.031 A 
ATOM     36  C   UNL A   1      42.886  26.271  27.259  1.00  0.00     0.074 A 
ATOM     37  C   UNL A   1      40.788  26.839  28.441  1.00  0.00     0.049 A 
ATOM     38  N   UNL A   1      43.567  27.374  27.434  1.00  0.00    -0.248 NA
ATOM     39  C   UNL A   1      43.604  25.249  26.479  1.00  0.00     0.031 C 
ATOM     40  C   UNL A   1      39.436  26.618  28.956  1.00  0.00     0.029 A 
ATOM     41  N   UNL A   1      41.077  28.128  28.810  1.00  0.00    -0.354 N 
ATOM     42  C   UNL A   1      44.796  27.174  26.813  1.00  0.00     0.074 A 
ATOM     43  C   UNL A   1      44.782  25.827  26.287  1.00  0.00     0.031 C 
ATOM     44  C   UNL A   1      38.990  27.746  29.518  1.00  0.00     0.029 A 
ATOM     45  C   UNL A   1      40.057  28.741  29.499  1.00  0.00     0.049 A 
ATOM     46  H   UNL A   1      41.931  28.571  28.603  1.00  0.00     0.167 HD
ATOM     47  C   UNL A   1      45.828  28.042  26.683  1.00  0.00     0.034 A 
ATOM     48  C   UNL A   1      39.986  29.956  30.081  1.00  0.00     0.034 A 
ATOM     49  C   UNL A   1      45.809  29.390  27.196  1.00  0.00     0.049 A 
ATOM     50  C   UNL A   1      41.162  30.883  29.958  1.00  0.00     0.074 A 
ATOM     51  C   UNL A   1      46.789  30.359  27.079  1.00  0.00     0.029 A 
ATOM     52  N   UNL A   1      44.770  29.964  27.918  1.00  0.00    -0.354 N 
ATOM     53  N   UNL A   1      42.292  30.697  29.318  1.00  0.00    -0.248 NA
ATOM     54  C   UNL A   1      41.058  32.187  30.625  1.00  0.00     0.031 C 
ATOM     55  C   UNL A   1      46.387  31.480  27.804  1.00  0.00     0.029 A 
ATOM     56  C   UNL A   1      45.107  31.258  28.286  1.00  0.00     0.049 A 
ATOM     57  H   UNL A   1      43.920  29.518  28.135  1.00  0.00     0.167 HD
ATOM     58  C   UNL A   1      43.024  31.869  29.484  1.00  0.00     0.074 A 
ATOM     59  C   UNL A   1      42.194  32.768  30.259  1.00  0.00     0.031 C 
ATOM     60  C   UNL A   1      44.272  32.163  29.040  1.00  0.00     0.034 A 
BRANCH  47  61
ATOM     61  C   UNL A   1      47.080  27.599  25.957  1.00  0.00     0.023 A 
ATOM     62  C   UNL A   1      47.255  27.932  24.599  1.00  0.00     0.031 A 
ATOM     63  C   UNL A   1      48.004  26.717  26.545  1.00  0.00     0.131 A 
ATOM     64  C   UNL A   1      48.289  27.342  23.862  1.00  0.00     0.055 A 
ATOM     65  C   UNL A   1      49.069  26.178  25.819  1.00  0.00     0.041 A 
ATOM     66  F   UNL A   1      47.883  26.360  27.834  1.00  0.00    -0.206 F 
ATOM     67  C   UNL A   1      49.204  26.475  24.467  1.00  0.00     0.022 A 
BRANCH  64  68
ATOM     68  S   UNL A   1      48.428  27.598  22.071  1.00  0.00     0.124 S 
ATOM     69  O   UNL A   1      48.640  26.235  21.589  1.00  0.00    -0.237 OA
ATOM     70  O   UNL A   1      47.128  28.177  21.745  1.00  0.00    -0.237 OA
ATOM     71  O   UNL A   1      49.573  28.491  21.930  1.00  0.00    -0.744 OA
ENDBRANCH  64  68
ENDBRANCH  47  61
BRANCH  48  72
ATOM     72  C   UNL A   1      38.733  30.340  30.796  1.00  0.00     0.023 A 
ATOM     73  C   UNL A   1      37.795  31.199  30.190  1.00  0.00     0.031 A 
ATOM     74  C   UNL A   1      38.519  29.967  32.131  1.00  0.00     0.131 A 
ATOM     75  C   UNL A   1      36.744  31.729  30.948  1.00  0.00     0.055 A 
ATOM     76  C   UNL A   1      37.418  30.426  32.856  1.00  0.00     0.041 A 
ATOM     77  F   UNL A   1      39.391  29.163  32.758  1.00  0.00    -0.206 F 
ATOM     78  C   UNL A   1      36.536  31.331  32.271  1.00  0.00     0.022 A 
BRANCH  75  79
ATOM     79  S   UNL A   1      35.716  33.073  30.291  1.00  0.00     0.124 S 
ATOM     80  O   UNL A   1      36.508  33.536  29.155  1.00  0.00    -0.237 OA
ATOM     81  O   UNL A   1      34.483  32.365  29.956  1.00  0.00    -0.237 OA
ATOM     82  O   UNL A   1      35.610  34.004  31.409  1.00  0.00    -0.744 OA
ENDBRANCH  75  79
ENDBRANCH  48  72
BRANCH  60  83
ATOM     83  C   UNL A   1      44.852  33.525  29.353  1.00  0.00     0.023 A 
ATOM     84  C   UNL A   1      44.667  34.587  28.446  1.00  0.00     0.031 A 
ATOM     85  C   UNL A   1      45.719  33.725  30.440  1.00  0.00     0.131 A 
ATOM     86  C   UNL A   1      45.388  35.776  28.608  1.00  0.00     0.055 A 
ATOM     87  C   UNL A   1      46.383  34.937  30.635  1.00  0.00     0.041 A 
ATOM     88  F   UNL A   1      45.942  32.741  31.326  1.00  0.00    -0.206 F 
ATOM     89  C   UNL A   1      46.235  35.962  29.705  1.00  0.00     0.022 A 
BRANCH  86  90
ATOM     90  S   UNL A   1      45.343  37.076  27.343  1.00  0.00     0.124 S 
ATOM     91  O   UNL A   1      43.943  37.047  26.927  1.00  0.00    -0.237 OA
ATOM     92  O   UNL A   1      45.742  38.257  28.104  1.00  0.00    -0.237 OA
ATOM     93  O   UNL A   1      46.299  36.623  26.338  1.00  0.00    -0.744 OA
ENDBRANCH  86  90
ENDBRANCH  60  83
ENDBRANCH  34  35
ENDBRANCH  26  29
ENDBRANCH  24  25
ENDBRANCH   1  24
TORSDOF 16
ENDMDL
MODEL 3
REMARK VINA RESULT:     -12.3      1.500      7.669
REMARK SMILES C#Cc1ccc2c(c1)C=C(C(=O)NCCCCNC(=O)c1ccc(-c3c4nc(c(-c5cc(S(=O)(=O)[O-])ccc5F)c5ccc([nH]5)c(-c5cc(S(=O)(=O)[O-])ccc5F)c5nc(c(-c6cc(S(=O)(=O)[O-])ccc6F)c6ccc3[nH]6)C=C5)C=C4)cc1)[C@@H](C(F)(F)F)O2
REMARK SMILES IDX 16 1 15 2 14 3 13 4 11 5 12 6 10 8 3 9 4 10 8 11 5 12 7 13
REMARK SMILES IDX 6 14 9 15 89 16 84 17 2 18 1 19 85 20 86 21 87 22 88 23
REMARK SMILES IDX 17 24 18 25 19 26 20 28 21 29 22 30 83 31 23 32 82 33 24 34
REMARK SMILES IDX 25 35 26 36 76 37 27 38 81 39 75 40 77 41 28 42 80 43 74 44
REMARK SMILES IDX 73 45 29 47 61 48 41 49 60 50 42 51 45 52 59 53 78 54 43 55
REMARK SMILES IDX 44 56 58 58 79 59 46 60 30 61 31 62 39 63 32 64 38 65 40 66
REMARK SMILES IDX 37 67 33 68 34 69 35 70 36 71 62 72 63 73 71 74 64 75 70 76
REMARK SMILES IDX 72 77 69 78 65 79 66 80 67 81 68 82 47 83 48 84 56 85 49 86
REMARK SMILES IDX 55 87 57 88 54 89 50 90 51 91 52 92 53 93
REMARK H PARENT 13 7 18 27 77 46 45 57
REMARK Flexibility Score: inf
ROOT
ATOM      1  C   UNL A   1      32.900  29.346  24.826  1.00  0.00     0.023 C 
ENDROOT
BRANCH   1   2
ATOM      2  C   UNL A   1      34.086  28.440  24.531  1.00  0.00     0.023 C 
BRANCH   2   3
ATOM      3  C   UNL A   1      33.916  27.033  25.088  1.00  0.00     0.116 C 
BRANCH   3   4
ATOM      4  N   UNL A   1      33.607  26.060  24.052  1.00  0.00    -0.352 N 
ATOM      5  C   UNL A   1      32.543  25.755  23.269  1.00  0.00     0.251 C 
ATOM      6  O   UNL A   1      32.720  24.851  22.447  1.00  0.00    -0.270 OA
ATOM      7  H   UNL A   1      34.371  25.468  23.872  1.00  0.00     0.163 HD
BRANCH   5   8
ATOM      8  C   UNL A   1      31.210  26.426  23.351  1.00  0.00     0.067 C 
ATOM      9  C   UNL A   1      28.377  30.187  22.252  1.00  0.00     0.025 A 
ATOM     10  C   UNL A   1      27.271  29.498  22.755  1.00  0.00     0.021 A 
ATOM     11  C   UNL A   1      29.644  29.589  22.254  1.00  0.00     0.029 A 
ATOM     12  C   UNL A   1      27.428  28.214  23.263  1.00  0.00     0.048 A 
ATOM     13  C   UNL A   1      29.805  28.297  22.764  1.00  0.00     0.018 A 
ATOM     14  C   UNL A   1      28.690  27.627  23.271  1.00  0.00     0.128 A 
ATOM     15  C   UNL A   1      31.093  27.614  22.730  1.00  0.00     0.025 C 
ATOM     16  O   UNL A   1      28.739  26.359  23.761  1.00  0.00    -0.475 OA
ATOM     17  C   UNL A   1      30.048  25.843  24.100  1.00  0.00     0.314 C 
BRANCH   9  18
ATOM     18  C   UNL A   1      28.195  31.502  21.724  1.00  0.00    -0.070 C 
ATOM     19  C   UNL A   1      28.031  32.619  21.312  1.00  0.00     0.010 C 
ENDBRANCH   9  18
BRANCH  17  20
ATOM     20  C   UNL A   1      30.236  25.923  25.627  1.00  0.00     0.429 C 
ATOM     21  F   UNL A   1      30.602  27.178  25.992  1.00  0.00    -0.167 F 
ATOM     22  F   UNL A   1      29.106  25.640  26.317  1.00  0.00    -0.167 F 
ATOM     23  F   UNL A   1      31.189  25.076  26.077  1.00  0.00    -0.167 F 
ENDBRANCH  17  20
ENDBRANCH   5   8
ENDBRANCH   3   4
ENDBRANCH   2   3
ENDBRANCH   1   2
BRANCH   1  24
ATOM     24  C   UNL A   1      32.667  29.619  26.306  1.00  0.00     0.116 C 
BRANCH  24  25
ATOM     25  N   UNL A   1      32.404  31.021  26.617  1.00  0.00    -0.352 N 
ATOM     26  C   UNL A   1      33.225  31.899  27.296  1.00  0.00     0.251 C 
ATOM     27  H   UNL A   1      31.542  31.382  26.308  1.00  0.00     0.163 HD
ATOM     28  O   UNL A   1      32.841  33.023  27.591  1.00  0.00    -0.269 OA
BRANCH  26  29
ATOM     29  C   UNL A   1      34.559  31.410  27.697  1.00  0.00     0.039 A 
ATOM     30  C   UNL A   1      34.721  30.057  27.993  1.00  0.00     0.014 A 
ATOM     31  C   UNL A   1      35.575  32.328  27.962  1.00  0.00     0.014 A 
ATOM     32  C   UNL A   1      35.795  29.666  28.775  1.00  0.00     0.010 A 
ATOM     33  C   UNL A   1      36.724  31.898  28.630  1.00  0.00     0.010 A 
ATOM     34  C   UNL A   1      36.814  30.579  29.104  1.00  0.00    -0.014 A 
BRANCH  34  35
ATOM     35  C   UNL A   1      37.960  30.118  29.932  1.00  0.00     0.031 A 
ATOM     36  C   UNL A   1      38.987  29.157  29.390  1.00  0.00     0.074 A 
ATOM     37  C   UNL A   1      38.095  30.616  31.178  1.00  0.00     0.049 A 
ATOM     38  N   UNL A   1      40.046  28.669  29.983  1.00  0.00    -0.248 NA
ATOM     39  C   UNL A   1      38.805  28.673  28.012  1.00  0.00     0.031 C 
ATOM     40  C   UNL A   1      37.166  31.560  31.801  1.00  0.00     0.029 A 
ATOM     41  N   UNL A   1      39.063  30.427  32.131  1.00  0.00    -0.354 N 
ATOM     42  C   UNL A   1      40.641  27.807  29.068  1.00  0.00     0.074 A 
ATOM     43  C   UNL A   1      39.803  27.809  27.890  1.00  0.00     0.031 C 
ATOM     44  C   UNL A   1      37.636  31.913  33.002  1.00  0.00     0.029 A 
ATOM     45  C   UNL A   1      38.846  31.147  33.282  1.00  0.00     0.049 A 
ATOM     46  H   UNL A   1      39.838  29.833  32.003  1.00  0.00     0.167 HD
ATOM     47  C   UNL A   1      41.787  27.097  29.199  1.00  0.00     0.034 A 
ATOM     48  C   UNL A   1      39.519  31.174  34.450  1.00  0.00     0.034 A 
ATOM     49  C   UNL A   1      42.619  27.131  30.377  1.00  0.00     0.049 A 
ATOM     50  C   UNL A   1      40.765  30.342  34.583  1.00  0.00     0.074 A 
ATOM     51  C   UNL A   1      43.821  26.478  30.589  1.00  0.00     0.029 A 
ATOM     52  N   UNL A   1      42.348  27.847  31.536  1.00  0.00    -0.354 N 
ATOM     53  N   UNL A   1      41.343  29.579  33.686  1.00  0.00    -0.248 NA
ATOM     54  C   UNL A   1      41.457  30.378  35.877  1.00  0.00     0.031 C 
ATOM     55  C   UNL A   1      44.227  26.722  31.900  1.00  0.00     0.029 A 
ATOM     56  C   UNL A   1      43.339  27.616  32.478  1.00  0.00     0.049 A 
ATOM     57  H   UNL A   1      41.568  28.432  31.669  1.00  0.00     0.167 HD
ATOM     58  C   UNL A   1      42.480  29.062  34.299  1.00  0.00     0.074 A 
ATOM     59  C   UNL A   1      42.523  29.626  35.632  1.00  0.00     0.031 C 
ATOM     60  C   UNL A   1      43.395  28.194  33.800  1.00  0.00     0.034 A 
BRANCH  47  61
ATOM     61  C   UNL A   1      42.246  26.217  28.056  1.00  0.00     0.023 A 
ATOM     62  C   UNL A   1      41.731  24.912  27.928  1.00  0.00     0.031 A 
ATOM     63  C   UNL A   1      43.302  26.597  27.208  1.00  0.00     0.131 A 
ATOM     64  C   UNL A   1      42.309  24.018  27.018  1.00  0.00     0.055 A 
ATOM     65  C   UNL A   1      43.835  25.718  26.262  1.00  0.00     0.041 A 
ATOM     66  F   UNL A   1      43.836  27.826  27.289  1.00  0.00    -0.206 F 
ATOM     67  C   UNL A   1      43.351  24.417  26.177  1.00  0.00     0.022 A 
BRANCH  64  68
ATOM     68  S   UNL A   1      41.799  22.277  26.962  1.00  0.00     0.124 S 
ATOM     69  O   UNL A   1      40.359  22.379  27.190  1.00  0.00    -0.237 OA
ATOM     70  O   UNL A   1      42.189  21.891  25.609  1.00  0.00    -0.237 OA
ATOM     71  O   UNL A   1      42.556  21.654  28.042  1.00  0.00    -0.744 OA
ENDBRANCH  64  68
ENDBRANCH  47  61
BRANCH  48  72
ATOM     72  C   UNL A   1      39.019  32.049  35.551  1.00  0.00     0.023 A 
ATOM     73  C   UNL A   1      39.441  33.390  35.651  1.00  0.00     0.031 A 
ATOM     74  C   UNL A   1      38.225  31.529  36.584  1.00  0.00     0.131 A 
ATOM     75  C   UNL A   1      39.147  34.129  36.802  1.00  0.00     0.055 A 
ATOM     76  C   UNL A   1      37.857  32.300  37.688  1.00  0.00     0.041 A 
ATOM     77  F   UNL A   1      37.810  30.254  36.543  1.00  0.00    -0.206 F 
ATOM     78  C   UNL A   1      38.338  33.600  37.812  1.00  0.00     0.022 A 
BRANCH  75  79
ATOM     79  S   UNL A   1      39.939  35.735  37.098  1.00  0.00     0.124 S 
ATOM     80  O   UNL A   1      39.258  36.193  38.306  1.00  0.00    -0.237 OA
ATOM     81  O   UNL A   1      41.337  35.348  37.268  1.00  0.00    -0.237 OA
ATOM     82  O   UNL A   1      39.650  36.491  35.884  1.00  0.00    -0.744 OA
ENDBRANCH  75  79
ENDBRANCH  48  72
BRANCH  60  83
ATOM     83  C   UNL A   1      44.559  27.782  34.675  1.00  0.00     0.023 A 
ATOM     84  C   UNL A   1      44.349  26.880  35.736  1.00  0.00     0.031 A 
ATOM     85  C   UNL A   1      45.816  28.402  34.570  1.00  0.00     0.131 A 
ATOM     86  C   UNL A   1      45.357  26.673  36.686  1.00  0.00     0.055 A 
ATOM     87  C   UNL A   1      46.840  28.140  35.481  1.00  0.00     0.041 A 
ATOM     88  F   UNL A   1      46.064  29.280  33.586  1.00  0.00    -0.206 F 
ATOM     89  C   UNL A   1      46.606  27.288  36.556  1.00  0.00     0.022 A 
BRANCH  86  90
ATOM     90  S   UNL A   1      45.045  25.694  38.182  1.00  0.00     0.124 S 
ATOM     91  O   UNL A   1      46.353  25.714  38.834  1.00  0.00    -0.237 OA
ATOM     92  O   UNL A   1      44.006  26.475  38.847  1.00  0.00    -0.237 OA
ATOM     93  O   UNL A   1      44.626  24.394  37.671  1.00  0.00    -0.744 OA
ENDBRANCH  86  90
ENDBRANCH  60  83
ENDBRANCH  34  35
ENDBRANCH  26  29
ENDBRANCH  24  25
ENDBRANCH   1  24
TORSDOF 16
ENDMDL
