MODEL 1
REMARK VINA RESULT:     -12.1      0.000      0.000
REMARK SMILES O=C(NCCCCNC(=O)c1c(-c2ccc(Cl)cc2)noc1CO[C@@H]1CCCCO1)c1ccc(-c2c3nc(c(-c4cc(S(=O)(=O)[O-])ccc4F)c4ccc([nH]4)c(-c4cc(S(=O)(=O)[O-])ccc4F)c4nc(c(-c5cc(S(=O)(=O)[O-])ccc5F)c5ccc2[nH]5)C=C4)C=C3)cc1
REMARK SMILES IDX 5 1 4 2 3 3 1 4 2 5 31 7 32 8 93 9 33 10 92 11 34 12 35 13
REMARK SMILES IDX 36 14 86 15 37 16 91 17 85 18 87 19 38 20 90 21 84 22 83 23
REMARK SMILES IDX 39 25 71 26 51 27 70 28 52 29 55 30 69 31 88 32 53 33 54 34
REMARK SMILES IDX 68 36 89 37 56 38 40 39 41 40 49 41 42 42 48 43 50 44 47 45
REMARK SMILES IDX 43 46 44 47 45 48 46 49 72 50 73 51 81 52 74 53 80 54 82 55
REMARK SMILES IDX 79 56 75 57 76 58 77 59 78 60 57 61 58 62 66 63 59 64 65 65
REMARK SMILES IDX 67 66 64 67 60 68 61 69 62 70 63 71 6 72 7 73 8 74 9 75
REMARK SMILES IDX 10 77 11 78 12 79 22 80 20 81 21 82 13 83 14 84 19 85 15 86
REMARK SMILES IDX 18 87 16 88 17 89 23 90 24 91 25 92 26 93 30 94 27 95 29 96
REMARK SMILES IDX 28 97
REMARK H PARENT 3 6 87 24 55 35 8 76
REMARK Flexibility Score: inf
ROOT
ATOM      1  C   UNL A   1      32.251  28.308  27.213  1.00  0.00     0.023 C 
ENDROOT
BRANCH   1   2
ATOM      2  C   UNL A   1      33.022  29.257  26.303  1.00  0.00     0.116 C 
BRANCH   2   3
ATOM      3  N   UNL A   1      32.797  30.660  26.606  1.00  0.00    -0.352 N 
ATOM      4  O   UNL A   1      33.177  32.660  27.570  1.00  0.00    -0.269 OA
ATOM      5  C   UNL A   1      33.577  31.521  27.342  1.00  0.00     0.251 C 
ATOM      6  H   UNL A   1      31.971  31.046  26.235  1.00  0.00     0.163 HD
BRANCH   5   7
ATOM      7  C   UNL A   1      34.876  31.065  27.884  1.00  0.00     0.039 A 
ATOM      8  C   UNL A   1      35.043  29.758  28.349  1.00  0.00     0.014 A 
ATOM      9  C   UNL A   1      35.942  31.968  27.932  1.00  0.00     0.014 A 
ATOM     10  C   UNL A   1      36.232  29.396  28.979  1.00  0.00     0.010 A 
ATOM     11  C   UNL A   1      37.157  31.583  28.508  1.00  0.00     0.010 A 
ATOM     12  C   UNL A   1      37.299  30.304  29.066  1.00  0.00    -0.014 A 
BRANCH  12  13
ATOM     13  C   UNL A   1      38.562  29.881  29.722  1.00  0.00     0.031 A 
ATOM     14  C   UNL A   1      38.926  30.377  31.095  1.00  0.00     0.074 A 
ATOM     15  C   UNL A   1      39.362  29.006  29.083  1.00  0.00     0.049 A 
ATOM     16  N   UNL A   1      39.967  30.078  31.831  1.00  0.00    -0.248 NA
ATOM     17  C   UNL A   1      38.007  31.341  31.718  1.00  0.00     0.031 C 
ATOM     18  C   UNL A   1      39.119  28.470  27.741  1.00  0.00     0.029 A 
ATOM     19  N   UNL A   1      40.527  28.401  29.477  1.00  0.00    -0.354 N 
ATOM     20  C   UNL A   1      39.838  30.825  32.996  1.00  0.00     0.074 A 
ATOM     21  C   UNL A   1      38.629  31.611  32.857  1.00  0.00     0.031 C 
ATOM     22  C   UNL A   1      40.079  27.583  27.442  1.00  0.00     0.029 A 
ATOM     23  C   UNL A   1      41.028  27.520  28.549  1.00  0.00     0.049 A 
ATOM     24  H   UNL A   1      40.960  28.578  30.342  1.00  0.00     0.167 HD
ATOM     25  C   UNL A   1      40.651  30.849  34.083  1.00  0.00     0.034 A 
ATOM     26  C   UNL A   1      42.132  26.750  28.582  1.00  0.00     0.034 A 
ATOM     27  C   UNL A   1      41.850  30.057  34.214  1.00  0.00     0.049 A 
ATOM     28  C   UNL A   1      43.009  26.788  29.800  1.00  0.00     0.074 A 
ATOM     29  C   UNL A   1      42.731  29.989  35.280  1.00  0.00     0.029 A 
ATOM     30  N   UNL A   1      42.340  29.192  33.243  1.00  0.00    -0.354 N 
ATOM     31  N   UNL A   1      42.869  27.499  30.894  1.00  0.00    -0.248 NA
ATOM     32  C   UNL A   1      44.193  25.919  29.787  1.00  0.00     0.031 C 
ATOM     33  C   UNL A   1      43.775  29.119  34.937  1.00  0.00     0.029 A 
ATOM     34  C   UNL A   1      43.519  28.605  33.677  1.00  0.00     0.049 A 
ATOM     35  H   UNL A   1      41.912  29.022  32.372  1.00  0.00     0.167 HD
ATOM     36  C   UNL A   1      43.950  27.164  31.701  1.00  0.00     0.074 A 
ATOM     37  C   UNL A   1      44.716  26.167  30.979  1.00  0.00     0.031 C 
ATOM     38  C   UNL A   1      44.285  27.640  32.926  1.00  0.00     0.034 A 
BRANCH  25  39
ATOM     39  C   UNL A   1      40.287  31.798  35.196  1.00  0.00     0.023 A 
ATOM     40  C   UNL A   1      39.321  31.469  36.162  1.00  0.00     0.031 A 
ATOM     41  C   UNL A   1      40.905  33.058  35.282  1.00  0.00     0.131 A 
ATOM     42  C   UNL A   1      38.959  32.410  37.138  1.00  0.00     0.055 A 
ATOM     43  C   UNL A   1      40.586  33.967  36.293  1.00  0.00     0.041 A 
ATOM     44  F   UNL A   1      41.821  33.432  34.374  1.00  0.00    -0.206 F 
ATOM     45  C   UNL A   1      39.600  33.649  37.223  1.00  0.00     0.022 A 
BRANCH  42  46
ATOM     46  S   UNL A   1      37.563  32.034  38.233  1.00  0.00     0.124 S 
ATOM     47  O   UNL A   1      38.152  32.259  39.551  1.00  0.00    -0.237 OA
ATOM     48  O   UNL A   1      36.559  33.003  37.809  1.00  0.00    -0.237 OA
ATOM     49  O   UNL A   1      37.252  30.639  37.927  1.00  0.00    -0.744 OA
ENDBRANCH  42  46
ENDBRANCH  25  39
BRANCH  26  50
ATOM     50  C   UNL A   1      42.479  25.900  27.413  1.00  0.00     0.023 A 
ATOM     51  C   UNL A   1      42.129  24.542  27.375  1.00  0.00     0.031 A 
ATOM     52  C   UNL A   1      43.180  26.438  26.319  1.00  0.00     0.131 A 
ATOM     53  C   UNL A   1      42.500  23.759  26.272  1.00  0.00     0.055 A 
ATOM     54  C   UNL A   1      43.517  25.663  25.210  1.00  0.00     0.041 A 
ATOM     55  F   UNL A   1      43.526  27.735  26.308  1.00  0.00    -0.206 F 
ATOM     56  C   UNL A   1      43.185  24.311  25.187  1.00  0.00     0.022 A 
BRANCH  53  57
ATOM     57  S   UNL A   1      42.121  21.985  26.300  1.00  0.00     0.124 S 
ATOM     58  O   UNL A   1      40.706  21.975  25.946  1.00  0.00    -0.237 OA
ATOM     59  O   UNL A   1      43.038  21.466  25.291  1.00  0.00    -0.237 OA
ATOM     60  O   UNL A   1      42.424  21.594  27.675  1.00  0.00    -0.744 OA
ENDBRANCH  53  57
ENDBRANCH  26  50
BRANCH  38  61
ATOM     61  C   UNL A   1      45.534  27.072  33.543  1.00  0.00     0.023 A 
ATOM     62  C   UNL A   1      45.490  25.916  34.340  1.00  0.00     0.031 A 
ATOM     63  C   UNL A   1      46.769  27.719  33.370  1.00  0.00     0.131 A 
ATOM     64  C   UNL A   1      46.653  25.469  34.982  1.00  0.00     0.055 A 
ATOM     65  C   UNL A   1      47.933  27.244  33.978  1.00  0.00     0.041 A 
ATOM     66  F   UNL A   1      46.861  28.829  32.620  1.00  0.00    -0.206 F 
ATOM     67  C   UNL A   1      47.877  26.121  34.799  1.00  0.00     0.022 A 
BRANCH  64  68
ATOM     68  S   UNL A   1      46.529  24.072  36.133  1.00  0.00     0.124 S 
ATOM     69  O   UNL A   1      46.631  22.927  35.235  1.00  0.00    -0.237 OA
ATOM     70  O   UNL A   1      47.669  24.294  37.017  1.00  0.00    -0.237 OA
ATOM     71  O   UNL A   1      45.219  24.257  36.756  1.00  0.00    -0.744 OA
ENDBRANCH  64  68
ENDBRANCH  38  61
ENDBRANCH  12  13
ENDBRANCH   5   7
ENDBRANCH   2   3
ENDBRANCH   1   2
BRANCH   1  72
ATOM     72  C   UNL A   1      31.547  27.138  26.526  1.00  0.00     0.023 C 
BRANCH  72  73
ATOM     73  C   UNL A   1      32.310  25.817  26.507  1.00  0.00     0.116 C 
BRANCH  73  74
ATOM     74  N   UNL A   1      31.442  24.658  26.614  1.00  0.00    -0.352 N 
ATOM     75  C   UNL A   1      31.121  23.710  25.678  1.00  0.00     0.257 C 
ATOM     76  H   UNL A   1      31.018  24.533  27.495  1.00  0.00     0.163 HD
ATOM     77  O   UNL A   1      30.284  22.854  25.958  1.00  0.00    -0.269 OA
BRANCH  75  78
ATOM     78  C   UNL A   1      31.764  23.755  24.393  1.00  0.00     0.113 A 
ATOM     79  C   UNL A   1      31.554  24.673  23.327  1.00  0.00     0.127 A 
ATOM     80  C   UNL A   1      32.645  22.830  23.877  1.00  0.00     0.175 A 
ATOM     81  N   UNL A   1      32.330  24.363  22.276  1.00  0.00    -0.079 NA
ATOM     82  O   UNL A   1      33.012  23.212  22.626  1.00  0.00    -0.357 OA
BRANCH  79  83
ATOM     83  C   UNL A   1      30.654  25.822  23.295  1.00  0.00     0.005 A 
ATOM     84  C   UNL A   1      29.363  25.741  23.840  1.00  0.00     0.012 A 
ATOM     85  C   UNL A   1      31.065  27.015  22.685  1.00  0.00     0.012 A 
ATOM     86  C   UNL A   1      28.494  26.836  23.765  1.00  0.00     0.021 A 
ATOM     87  C   UNL A   1      30.195  28.107  22.607  1.00  0.00     0.021 A 
ATOM     88  C   UNL A   1      28.914  28.011  23.145  1.00  0.00     0.041 A 
ATOM     89  Cl  UNL A   1      27.843  29.355  23.047  1.00  0.00    -0.084 Cl
ENDBRANCH  79  83
BRANCH  80  90
ATOM     90  C   UNL A   1      33.221  21.570  24.400  1.00  0.00     0.242 C 
BRANCH  90  91
ATOM     91  O   UNL A   1      34.646  21.620  24.430  1.00  0.00    -0.345 OA
BRANCH  91  92
ATOM     92  C   UNL A   1      35.201  21.626  25.745  1.00  0.00     0.250 C 
ATOM     93  C   UNL A   1      34.966  22.994  26.387  1.00  0.00     0.062 C 
ATOM     94  O   UNL A   1      36.599  21.336  25.717  1.00  0.00    -0.353 OA
ATOM     95  C   UNL A   1      35.752  24.085  25.667  1.00  0.00     0.008 C 
ATOM     96  C   UNL A   1      37.341  22.279  24.945  1.00  0.00     0.163 C 
ATOM     97  C   UNL A   1      37.214  23.682  25.525  1.00  0.00     0.029 C 
ENDBRANCH  91  92
ENDBRANCH  90  91
ENDBRANCH  80  90
ENDBRANCH  75  78
ENDBRANCH  73  74
ENDBRANCH  72  73
ENDBRANCH   1  72
TORSDOF 18
ENDMDL
MODEL 2
REMARK VINA RESULT:     -12.0      5.041     10.021
REMARK SMILES O=C(NCCCCNC(=O)c1c(-c2ccc(Cl)cc2)noc1CO[C@@H]1CCCCO1)c1ccc(-c2c3nc(c(-c4cc(S(=O)(=O)[O-])ccc4F)c4ccc([nH]4)c(-c4cc(S(=O)(=O)[O-])ccc4F)c4nc(c(-c5cc(S(=O)(=O)[O-])ccc5F)c5ccc2[nH]5)C=C4)C=C3)cc1
REMARK SMILES IDX 5 1 4 2 3 3 1 4 2 5 31 7 32 8 93 9 33 10 92 11 34 12 35 13
REMARK SMILES IDX 36 14 86 15 37 16 91 17 85 18 87 19 38 20 90 21 84 22 83 23
REMARK SMILES IDX 39 25 71 26 51 27 70 28 52 29 55 30 69 31 88 32 53 33 54 34
REMARK SMILES IDX 68 36 89 37 56 38 40 39 41 40 49 41 42 42 48 43 50 44 47 45
REMARK SMILES IDX 43 46 44 47 45 48 46 49 72 50 73 51 81 52 74 53 80 54 82 55
REMARK SMILES IDX 79 56 75 57 76 58 77 59 78 60 57 61 58 62 66 63 59 64 65 65
REMARK SMILES IDX 67 66 64 67 60 68 61 69 62 70 63 71 6 72 7 73 8 74 9 75
REMARK SMILES IDX 10 77 11 78 12 79 22 80 20 81 21 82 13 83 14 84 19 85 15 86
REMARK SMILES IDX 18 87 16 88 17 89 23 90 24 91 25 92 26 93 30 94 27 95 29 96
REMARK SMILES IDX 28 97
REMARK H PARENT 3 6 87 24 55 35 8 76
REMARK Flexibility Score: inf
ROOT
ATOM      1  C   UNL A   1      35.915  21.800  25.007  1.00  0.00     0.023 C 
ENDROOT
BRANCH   1   2
ATOM      2  C   UNL A   1      37.414  21.851  24.734  1.00  0.00     0.116 C 
BRANCH   2   3
ATOM      3  N   UNL A   1      38.152  20.764  25.355  1.00  0.00    -0.352 N 
ATOM      4  O   UNL A   1      39.795  19.789  26.547  1.00  0.00    -0.269 OA
ATOM      5  C   UNL A   1      39.244  20.827  26.188  1.00  0.00     0.251 C 
ATOM      6  H   UNL A   1      37.824  19.858  25.150  1.00  0.00     0.163 HD
BRANCH   5   7
ATOM      7  C   UNL A   1      39.773  22.139  26.620  1.00  0.00     0.039 A 
ATOM      8  C   UNL A   1      39.244  23.330  26.116  1.00  0.00     0.014 A 
ATOM      9  C   UNL A   1      40.822  22.173  27.544  1.00  0.00     0.014 A 
ATOM     10  C   UNL A   1      39.849  24.543  26.434  1.00  0.00     0.010 A 
ATOM     11  C   UNL A   1      41.388  23.398  27.911  1.00  0.00     0.010 A 
ATOM     12  C   UNL A   1      40.928  24.590  27.332  1.00  0.00    -0.014 A 
BRANCH  12  13
ATOM     13  C   UNL A   1      41.536  25.902  27.670  1.00  0.00     0.031 A 
ATOM     14  C   UNL A   1      42.883  26.293  27.127  1.00  0.00     0.074 A 
ATOM     15  C   UNL A   1      40.840  26.759  28.441  1.00  0.00     0.049 A 
ATOM     16  N   UNL A   1      43.543  27.412  27.286  1.00  0.00    -0.248 NA
ATOM     17  C   UNL A   1      43.584  25.295  26.305  1.00  0.00     0.031 C 
ATOM     18  C   UNL A   1      39.532  26.481  29.038  1.00  0.00     0.029 A 
ATOM     19  N   UNL A   1      41.123  28.040  28.840  1.00  0.00    -0.354 N 
ATOM     20  C   UNL A   1      44.742  27.251  26.600  1.00  0.00     0.074 A 
ATOM     21  C   UNL A   1      44.727  25.914  26.043  1.00  0.00     0.031 C 
ATOM     22  C   UNL A   1      39.106  27.573  29.689  1.00  0.00     0.029 A 
ATOM     23  C   UNL A   1      40.126  28.611  29.594  1.00  0.00     0.049 A 
ATOM     24  H   UNL A   1      41.958  28.505  28.607  1.00  0.00     0.167 HD
ATOM     25  C   UNL A   1      45.757  28.138  26.445  1.00  0.00     0.034 A 
ATOM     26  C   UNL A   1      40.044  29.833  30.153  1.00  0.00     0.034 A 
ATOM     27  C   UNL A   1      45.758  29.471  26.998  1.00  0.00     0.049 A 
ATOM     28  C   UNL A   1      41.177  30.799  29.958  1.00  0.00     0.074 A 
ATOM     29  C   UNL A   1      46.725  30.456  26.882  1.00  0.00     0.029 A 
ATOM     30  N   UNL A   1      44.742  30.008  27.778  1.00  0.00    -0.354 N 
ATOM     31  N   UNL A   1      42.301  30.629  29.303  1.00  0.00    -0.248 NA
ATOM     32  C   UNL A   1      41.030  32.122  30.578  1.00  0.00     0.031 C 
ATOM     33  C   UNL A   1      46.313  31.570  27.626  1.00  0.00     0.029 A 
ATOM     34  C   UNL A   1      45.066  31.299  28.164  1.00  0.00     0.049 A 
ATOM     35  H   UNL A   1      43.910  29.538  28.020  1.00  0.00     0.167 HD
ATOM     36  C   UNL A   1      42.998  31.825  29.434  1.00  0.00     0.074 A 
ATOM     37  C   UNL A   1      42.154  32.716  30.206  1.00  0.00     0.031 C 
ATOM     38  C   UNL A   1      44.226  32.157  28.964  1.00  0.00     0.034 A 
BRANCH  25  39
ATOM     39  C   UNL A   1      46.970  27.673  25.679  1.00  0.00     0.023 A 
ATOM     40  C   UNL A   1      47.150  27.983  24.321  1.00  0.00     0.031 A 
ATOM     41  C   UNL A   1      47.951  26.892  26.315  1.00  0.00     0.131 A 
ATOM     42  C   UNL A   1      48.256  27.469  23.627  1.00  0.00     0.055 A 
ATOM     43  C   UNL A   1      49.082  26.434  25.635  1.00  0.00     0.041 A 
ATOM     44  F   UNL A   1      47.819  26.549  27.607  1.00  0.00    -0.206 F 
ATOM     45  C   UNL A   1      49.234  26.714  24.280  1.00  0.00     0.022 A 
BRANCH  42  46
ATOM     46  S   UNL A   1      48.346  27.711  21.831  1.00  0.00     0.124 S 
ATOM     47  O   UNL A   1      47.014  28.234  21.537  1.00  0.00    -0.237 OA
ATOM     48  O   UNL A   1      49.448  28.655  21.694  1.00  0.00    -0.237 OA
ATOM     49  O   UNL A   1      48.607  26.368  21.317  1.00  0.00    -0.744 OA
ENDBRANCH  42  46
ENDBRANCH  25  39
BRANCH  26  50
ATOM     50  C   UNL A   1      38.857  30.199  30.968  1.00  0.00     0.023 A 
ATOM     51  C   UNL A   1      37.812  30.962  30.426  1.00  0.00     0.031 A 
ATOM     52  C   UNL A   1      38.758  29.794  32.311  1.00  0.00     0.131 A 
ATOM     53  C   UNL A   1      36.721  31.319  31.232  1.00  0.00     0.055 A 
ATOM     54  C   UNL A   1      37.655  30.123  33.098  1.00  0.00     0.041 A 
ATOM     55  F   UNL A   1      39.730  29.054  32.869  1.00  0.00    -0.206 F 
ATOM     56  C   UNL A   1      36.632  30.898  32.561  1.00  0.00     0.022 A 
BRANCH  53  57
ATOM     57  S   UNL A   1      35.437  32.391  30.529  1.00  0.00     0.124 S 
ATOM     58  O   UNL A   1      35.200  31.767  29.233  1.00  0.00    -0.237 OA
ATOM     59  O   UNL A   1      34.366  32.258  31.511  1.00  0.00    -0.237 OA
ATOM     60  O   UNL A   1      36.078  33.703  30.484  1.00  0.00    -0.744 OA
ENDBRANCH  53  57
ENDBRANCH  26  50
BRANCH  38  61
ATOM     61  C   UNL A   1      44.708  33.546  29.283  1.00  0.00     0.023 A 
ATOM     62  C   UNL A   1      44.588  34.589  28.348  1.00  0.00     0.031 A 
ATOM     63  C   UNL A   1      45.333  33.818  30.511  1.00  0.00     0.131 A 
ATOM     64  C   UNL A   1      45.136  35.846  28.635  1.00  0.00     0.055 A 
ATOM     65  C   UNL A   1      45.839  35.085  30.808  1.00  0.00     0.041 A 
ATOM     66  F   UNL A   1      45.473  32.853  31.435  1.00  0.00    -0.206 F 
ATOM     67  C   UNL A   1      45.753  36.104  29.864  1.00  0.00     0.022 A 
BRANCH  64  68
ATOM     68  S   UNL A   1      45.109  37.121  27.345  1.00  0.00     0.124 S 
ATOM     69  O   UNL A   1      43.691  37.190  27.012  1.00  0.00    -0.237 OA
ATOM     70  O   UNL A   1      45.659  38.280  28.041  1.00  0.00    -0.237 OA
ATOM     71  O   UNL A   1      45.965  36.566  26.297  1.00  0.00    -0.744 OA
ENDBRANCH  64  68
ENDBRANCH  38  61
ENDBRANCH  12  13
ENDBRANCH   5   7
ENDBRANCH   2   3
ENDBRANCH   1   2
BRANCH   1  72
ATOM     72  C   UNL A   1      35.343  22.946  25.842  1.00  0.00     0.023 C 
BRANCH  72  73
ATOM     73  C   UNL A   1      35.157  24.274  25.114  1.00  0.00     0.116 C 
BRANCH  73  74
ATOM     74  N   UNL A   1      34.934  24.112  23.688  1.00  0.00    -0.352 N 
ATOM     75  C   UNL A   1      33.768  23.910  22.997  1.00  0.00     0.257 C 
ATOM     76  H   UNL A   1      35.745  24.155  23.131  1.00  0.00     0.163 HD
ATOM     77  O   UNL A   1      33.819  23.707  21.785  1.00  0.00    -0.269 OA
BRANCH  75  78
ATOM     78  C   UNL A   1      32.522  23.927  23.715  1.00  0.00     0.113 A 
ATOM     79  C   UNL A   1      31.806  22.833  24.275  1.00  0.00     0.127 A 
ATOM     80  C   UNL A   1      31.693  25.011  23.905  1.00  0.00     0.175 A 
ATOM     81  N   UNL A   1      30.664  23.257  24.842  1.00  0.00    -0.079 NA
ATOM     82  O   UNL A   1      30.601  24.620  24.611  1.00  0.00    -0.357 OA
BRANCH  79  83
ATOM     83  C   UNL A   1      32.184  21.424  24.288  1.00  0.00     0.005 A 
ATOM     84  C   UNL A   1      32.187  20.667  23.106  1.00  0.00     0.012 A 
ATOM     85  C   UNL A   1      32.518  20.801  25.499  1.00  0.00     0.012 A 
ATOM     86  C   UNL A   1      32.509  19.306  23.139  1.00  0.00     0.021 A 
ATOM     87  C   UNL A   1      32.837  19.440  25.531  1.00  0.00     0.021 A 
ATOM     88  C   UNL A   1      32.829  18.700  24.352  1.00  0.00     0.041 A 
ATOM     89  Cl  UNL A   1      33.219  17.024  24.393  1.00  0.00    -0.084 Cl
ENDBRANCH  79  83
BRANCH  80  90
ATOM     90  C   UNL A   1      31.767  26.433  23.500  1.00  0.00     0.242 C 
BRANCH  90  91
ATOM     91  O   UNL A   1      32.576  27.192  24.397  1.00  0.00    -0.345 OA
BRANCH  91  92
ATOM     92  C   UNL A   1      32.476  26.780  25.761  1.00  0.00     0.250 C 
ATOM     93  C   UNL A   1      31.398  27.606  26.461  1.00  0.00     0.062 C 
ATOM     94  O   UNL A   1      33.724  26.933  26.438  1.00  0.00    -0.353 OA
ATOM     95  C   UNL A   1      31.804  29.073  26.565  1.00  0.00     0.008 C 
ATOM     96  C   UNL A   1      34.185  28.284  26.441  1.00  0.00     0.163 C 
ATOM     97  C   UNL A   1      33.200  29.197  27.160  1.00  0.00     0.029 C 
ENDBRANCH  91  92
ENDBRANCH  90  91
ENDBRANCH  80  90
ENDBRANCH  75  78
ENDBRANCH  73  74
ENDBRANCH  72  73
ENDBRANCH   1  72
TORSDOF 18
ENDMDL
MODEL 3
REMARK VINA RESULT:     -12.0      4.832      9.242
REMARK SMILES O=C(NCCCCNC(=O)c1c(-c2ccc(Cl)cc2)noc1CO[C@@H]1CCCCO1)c1ccc(-c2c3nc(c(-c4cc(S(=O)(=O)[O-])ccc4F)c4ccc([nH]4)c(-c4cc(S(=O)(=O)[O-])ccc4F)c4nc(c(-c5cc(S(=O)(=O)[O-])ccc5F)c5ccc2[nH]5)C=C4)C=C3)cc1
REMARK SMILES IDX 5 1 4 2 3 3 1 4 2 5 31 7 32 8 93 9 33 10 92 11 34 12 35 13
REMARK SMILES IDX 36 14 86 15 37 16 91 17 85 18 87 19 38 20 90 21 84 22 83 23
REMARK SMILES IDX 39 25 71 26 51 27 70 28 52 29 55 30 69 31 88 32 53 33 54 34
REMARK SMILES IDX 68 36 89 37 56 38 40 39 41 40 49 41 42 42 48 43 50 44 47 45
REMARK SMILES IDX 43 46 44 47 45 48 46 49 72 50 73 51 81 52 74 53 80 54 82 55
REMARK SMILES IDX 79 56 75 57 76 58 77 59 78 60 57 61 58 62 66 63 59 64 65 65
REMARK SMILES IDX 67 66 64 67 60 68 61 69 62 70 63 71 6 72 7 73 8 74 9 75
REMARK SMILES IDX 10 77 11 78 12 79 22 80 20 81 21 82 13 83 14 84 19 85 15 86
REMARK SMILES IDX 18 87 16 88 17 89 23 90 24 91 25 92 26 93 30 94 27 95 29 96
REMARK SMILES IDX 28 97
REMARK H PARENT 3 6 87 24 55 35 8 76
REMARK Flexibility Score: inf
ROOT
ATOM      1  C   UNL A   1      35.677  22.785  25.216  1.00  0.00     0.023 C 
ENDROOT
BRANCH   1   2
ATOM      2  C   UNL A   1      36.976  23.464  25.632  1.00  0.00     0.116 C 
BRANCH   2   3
ATOM      3  N   UNL A   1      38.044  22.528  25.943  1.00  0.00    -0.352 N 
ATOM      4  O   UNL A   1      40.084  21.862  26.625  1.00  0.00    -0.269 OA
ATOM      5  C   UNL A   1      39.267  22.774  26.522  1.00  0.00     0.251 C 
ATOM      6  H   UNL A   1      37.866  21.589  25.705  1.00  0.00     0.163 HD
BRANCH   5   7
ATOM      7  C   UNL A   1      39.607  24.136  26.986  1.00  0.00     0.039 A 
ATOM      8  C   UNL A   1      40.124  25.089  26.104  1.00  0.00     0.014 A 
ATOM      9  C   UNL A   1      39.410  24.460  28.332  1.00  0.00     0.014 A 
ATOM     10  C   UNL A   1      40.563  26.317  26.594  1.00  0.00     0.010 A 
ATOM     11  C   UNL A   1      39.793  25.717  28.810  1.00  0.00     0.010 A 
ATOM     12  C   UNL A   1      40.404  26.642  27.951  1.00  0.00    -0.014 A 
BRANCH  12  13
ATOM     13  C   UNL A   1      40.860  27.969  28.439  1.00  0.00     0.031 A 
ATOM     14  C   UNL A   1      42.312  28.359  28.377  1.00  0.00     0.074 A 
ATOM     15  C   UNL A   1      39.942  28.840  28.900  1.00  0.00     0.049 A 
ATOM     16  N   UNL A   1      42.877  29.489  28.720  1.00  0.00    -0.248 NA
ATOM     17  C   UNL A   1      43.252  27.346  27.874  1.00  0.00     0.031 C 
ATOM     18  C   UNL A   1      38.508  28.564  29.022  1.00  0.00     0.029 A 
ATOM     19  N   UNL A   1      40.071  30.133  29.334  1.00  0.00    -0.354 N 
ATOM     20  C   UNL A   1      44.238  29.321  28.490  1.00  0.00     0.074 A 
ATOM     21  C   UNL A   1      44.414  27.969  28.000  1.00  0.00     0.031 C 
ATOM     22  C   UNL A   1      37.885  29.669  29.456  1.00  0.00     0.029 A 
ATOM     23  C   UNL A   1      38.877  30.715  29.686  1.00  0.00     0.049 A 
ATOM     24  H   UNL A   1      40.935  30.601  29.387  1.00  0.00     0.167 HD
ATOM     25  C   UNL A   1      45.245  30.214  28.666  1.00  0.00     0.034 A 
ATOM     26  C   UNL A   1      38.608  31.951  30.147  1.00  0.00     0.034 A 
ATOM     27  C   UNL A   1      45.057  31.561  29.147  1.00  0.00     0.049 A 
ATOM     28  C   UNL A   1      39.739  32.922  30.323  1.00  0.00     0.074 A 
ATOM     29  C   UNL A   1      46.005  32.552  29.340  1.00  0.00     0.029 A 
ATOM     30  N   UNL A   1      43.834  32.109  29.516  1.00  0.00    -0.354 N 
ATOM     31  N   UNL A   1      41.020  32.746  30.097  1.00  0.00    -0.248 NA
ATOM     32  C   UNL A   1      39.388  34.259  30.818  1.00  0.00     0.031 C 
ATOM     33  C   UNL A   1      45.363  33.682  29.865  1.00  0.00     0.029 A 
ATOM     34  C   UNL A   1      44.007  33.413  29.953  1.00  0.00     0.049 A 
ATOM     35  H   UNL A   1      42.970  31.637  29.474  1.00  0.00     0.167 HD
ATOM     36  C   UNL A   1      41.629  33.952  30.424  1.00  0.00     0.074 A 
ATOM     37  C   UNL A   1      40.571  34.855  30.835  1.00  0.00     0.031 C 
ATOM     38  C   UNL A   1      42.943  34.284  30.392  1.00  0.00     0.034 A 
BRANCH  25  39
ATOM     39  C   UNL A   1      46.646  29.740  28.374  1.00  0.00     0.023 A 
ATOM     40  C   UNL A   1      47.449  29.152  29.367  1.00  0.00     0.031 A 
ATOM     41  C   UNL A   1      47.192  29.895  27.088  1.00  0.00     0.131 A 
ATOM     42  C   UNL A   1      48.773  28.792  29.072  1.00  0.00     0.055 A 
ATOM     43  C   UNL A   1      48.490  29.478  26.784  1.00  0.00     0.041 A 
ATOM     44  F   UNL A   1      46.477  30.468  26.108  1.00  0.00    -0.206 F 
ATOM     45  C   UNL A   1      49.292  28.932  27.783  1.00  0.00     0.022 A 
BRANCH  42  46
ATOM     46  S   UNL A   1      49.844  28.235  30.427  1.00  0.00     0.124 S 
ATOM     47  O   UNL A   1      50.954  27.630  29.695  1.00  0.00    -0.237 OA
ATOM     48  O   UNL A   1      50.143  29.480  31.125  1.00  0.00    -0.237 OA
ATOM     49  O   UNL A   1      49.005  27.293  31.163  1.00  0.00    -0.744 OA
ENDBRANCH  42  46
ENDBRANCH  25  39
BRANCH  26  50
ATOM     50  C   UNL A   1      37.213  32.326  30.497  1.00  0.00     0.023 A 
ATOM     51  C   UNL A   1      36.338  32.843  29.530  1.00  0.00     0.031 A 
ATOM     52  C   UNL A   1      36.741  32.180  31.813  1.00  0.00     0.131 A 
ATOM     53  C   UNL A   1      35.038  33.220  29.900  1.00  0.00     0.055 A 
ATOM     54  C   UNL A   1      35.437  32.523  32.168  1.00  0.00     0.041 A 
ATOM     55  F   UNL A   1      37.541  31.679  32.769  1.00  0.00    -0.206 F 
ATOM     56  C   UNL A   1      34.580  33.056  31.209  1.00  0.00     0.022 A 
BRANCH  53  57
ATOM     57  S   UNL A   1      33.966  33.979  28.650  1.00  0.00     0.124 S 
ATOM     58  O   UNL A   1      32.856  34.466  29.461  1.00  0.00    -0.237 OA
ATOM     59  O   UNL A   1      34.841  34.999  28.083  1.00  0.00    -0.237 OA
ATOM     60  O   UNL A   1      33.647  32.868  27.756  1.00  0.00    -0.744 OA
ENDBRANCH  53  57
ENDBRANCH  26  50
BRANCH  38  61
ATOM     61  C   UNL A   1      43.287  35.686  30.816  1.00  0.00     0.023 A 
ATOM     62  C   UNL A   1      43.425  36.717  29.871  1.00  0.00     0.031 A 
ATOM     63  C   UNL A   1      43.523  35.982  32.169  1.00  0.00     0.131 A 
ATOM     64  C   UNL A   1      43.844  37.989  30.286  1.00  0.00     0.055 A 
ATOM     65  C   UNL A   1      43.897  37.262  32.581  1.00  0.00     0.041 A 
ATOM     66  F   UNL A   1      43.406  35.030  33.108  1.00  0.00    -0.206 F 
ATOM     67  C   UNL A   1      44.072  38.271  31.637  1.00  0.00     0.022 A 
BRANCH  64  68
ATOM     68  S   UNL A   1      44.171  39.250  29.024  1.00  0.00     0.124 S 
ATOM     69  O   UNL A   1      45.181  38.600  28.196  1.00  0.00    -0.237 OA
ATOM     70  O   UNL A   1      42.859  39.426  28.411  1.00  0.00    -0.237 OA
ATOM     71  O   UNL A   1      44.649  40.394  29.800  1.00  0.00    -0.744 OA
ENDBRANCH  64  68
ENDBRANCH  38  61
ENDBRANCH  12  13
ENDBRANCH   5   7
ENDBRANCH   2   3
ENDBRANCH   1   2
BRANCH   1  72
ATOM     72  C   UNL A   1      34.743  22.364  26.352  1.00  0.00     0.023 C 
BRANCH  72  73
ATOM     73  C   UNL A   1      33.983  21.058  26.140  1.00  0.00     0.116 C 
BRANCH  73  74
ATOM     74  N   UNL A   1      32.544  21.212  26.271  1.00  0.00    -0.352 N 
ATOM     75  C   UNL A   1      31.650  21.854  25.454  1.00  0.00     0.257 C 
ATOM     76  H   UNL A   1      32.150  20.790  27.069  1.00  0.00     0.163 HD
ATOM     77  O   UNL A   1      30.475  21.940  25.806  1.00  0.00    -0.269 OA
BRANCH  75  78
ATOM     78  C   UNL A   1      32.118  22.417  24.217  1.00  0.00     0.113 A 
ATOM     79  C   UNL A   1      32.368  23.782  23.902  1.00  0.00     0.127 A 
ATOM     80  C   UNL A   1      32.310  21.752  23.025  1.00  0.00     0.175 A 
ATOM     81  N   UNL A   1      32.770  23.907  22.627  1.00  0.00    -0.079 NA
ATOM     82  O   UNL A   1      32.734  22.635  22.084  1.00  0.00    -0.357 OA
BRANCH  79  83
ATOM     83  C   UNL A   1      32.244  24.943  24.777  1.00  0.00     0.005 A 
ATOM     84  C   UNL A   1      33.382  25.621  25.241  1.00  0.00     0.012 A 
ATOM     85  C   UNL A   1      30.976  25.374  25.192  1.00  0.00     0.012 A 
ATOM     86  C   UNL A   1      33.252  26.706  26.115  1.00  0.00     0.021 A 
ATOM     87  C   UNL A   1      30.847  26.457  26.067  1.00  0.00     0.021 A 
ATOM     88  C   UNL A   1      31.986  27.116  26.525  1.00  0.00     0.041 A 
ATOM     89  Cl  UNL A   1      31.825  28.446  27.605  1.00  0.00    -0.084 Cl
ENDBRANCH  79  83
BRANCH  80  90
ATOM     90  C   UNL A   1      32.139  20.342  22.608  1.00  0.00     0.242 C 
BRANCH  90  91
ATOM     91  O   UNL A   1      32.819  19.450  23.488  1.00  0.00    -0.345 OA
BRANCH  91  92
ATOM     92  C   UNL A   1      32.192  18.174  23.623  1.00  0.00     0.250 C 
ATOM     93  C   UNL A   1      32.354  17.681  25.061  1.00  0.00     0.062 C 
ATOM     94  O   UNL A   1      32.753  17.225  22.717  1.00  0.00    -0.353 OA
ATOM     95  C   UNL A   1      33.816  17.391  25.385  1.00  0.00     0.008 C 
ATOM     96  C   UNL A   1      34.152  17.028  22.923  1.00  0.00     0.163 C 
ATOM     97  C   UNL A   1      34.428  16.490  24.321  1.00  0.00     0.029 C 
ENDBRANCH  91  92
ENDBRANCH  90  91
ENDBRANCH  80  90
ENDBRANCH  75  78
ENDBRANCH  73  74
ENDBRANCH  72  73
ENDBRANCH   1  72
TORSDOF 18
ENDMDL
