MODEL 1
REMARK VINA RESULT:     -12.8      0.000      0.000
REMARK SMILES COc1cc(-c2ccc(F)c(C(F)(F)F)c2)ccc1C(=O)NCCCCNC(=O)c1ccc(-c2c3nc(c(-c4cc(S(=O)(=O)[O-])ccc4F)c4ccc([nH]4)c(-c4cc(S(=O)(=O)[O-])ccc4F)c4nc(c(-c5cc(S(=O)(=O)[O-])ccc5F)c5ccc2[nH]5)C=C4)C=C3)cc1
REMARK SMILES IDX 25 1 24 2 23 3 22 4 20 5 21 6 19 8 3 9 4 10 5 11 18 12 17 13
REMARK SMILES IDX 2 14 1 15 6 16 7 17 16 18 8 19 11 20 9 21 10 22 12 23 13 24
REMARK SMILES IDX 14 25 15 26 26 27 27 28 28 29 29 31 30 32 31 33 92 34 32 35
REMARK SMILES IDX 91 36 33 37 34 38 35 39 85 40 36 41 90 42 84 43 86 44 37 45
REMARK SMILES IDX 89 46 83 47 82 48 38 50 70 51 50 52 69 53 51 54 54 55 68 56
REMARK SMILES IDX 87 57 52 58 53 59 67 61 88 62 55 63 39 64 40 65 48 66 41 67
REMARK SMILES IDX 47 68 49 69 46 70 42 71 43 72 44 73 45 74 71 75 72 76 80 77
REMARK SMILES IDX 73 78 79 79 81 80 78 81 74 82 75 83 76 84 77 85 56 86 57 87
REMARK SMILES IDX 65 88 58 89 64 90 66 91 63 92 59 93 60 94 61 95 62 96
REMARK H PARENT 22 7 27 30 86 49 54 60
REMARK Flexibility Score: inf
ROOT
ATOM      1  C   UNL A   1      35.792  21.468  25.146  1.00  0.00     0.023 C 
ENDROOT
BRANCH   1   2
ATOM      2  C   UNL A   1      35.441  22.224  26.429  1.00  0.00     0.023 C 
BRANCH   2   3
ATOM      3  C   UNL A   1      34.259  21.681  27.225  1.00  0.00     0.116 C 
BRANCH   3   4
ATOM      4  N   UNL A   1      33.226  21.050  26.425  1.00  0.00    -0.352 N 
ATOM      5  C   UNL A   1      32.276  21.633  25.617  1.00  0.00     0.255 C 
ATOM      6  O   UNL A   1      31.502  20.914  24.987  1.00  0.00    -0.269 OA
ATOM      7  H   UNL A   1      33.200  20.067  26.466  1.00  0.00     0.163 HD
BRANCH   5   8
ATOM      8  C   UNL A   1      32.095  23.106  25.550  1.00  0.00     0.081 A 
ATOM      9  C   UNL A   1      31.318  23.871  26.423  1.00  0.00     0.132 A 
ATOM     10  C   UNL A   1      31.053  25.213  26.128  1.00  0.00     0.056 A 
ATOM     11  C   UNL A   1      31.626  25.852  25.014  1.00  0.00    -0.015 A 
ATOM     12  C   UNL A   1      32.755  23.758  24.495  1.00  0.00     0.018 A 
ATOM     13  C   UNL A   1      32.529  25.115  24.237  1.00  0.00     0.010 A 
BRANCH   9  14
ATOM     14  O   UNL A   1      30.681  23.391  27.534  1.00  0.00    -0.496 OA
ATOM     15  C   UNL A   1      29.380  22.883  27.241  1.00  0.00     0.278 C 
ENDBRANCH   9  14
BRANCH  11  16
ATOM     16  C   UNL A   1      31.210  27.218  24.643  1.00  0.00    -0.017 A 
ATOM     17  C   UNL A   1      31.927  28.347  25.071  1.00  0.00     0.012 A 
ATOM     18  C   UNL A   1      30.015  27.428  23.927  1.00  0.00     0.025 A 
ATOM     19  C   UNL A   1      31.452  29.637  24.822  1.00  0.00     0.040 A 
ATOM     20  C   UNL A   1      29.529  28.722  23.670  1.00  0.00     0.092 A 
ATOM     21  C   UNL A   1      30.257  29.811  24.133  1.00  0.00     0.135 A 
ATOM     22  F   UNL A   1      29.803  31.055  23.931  1.00  0.00    -0.206 F 
BRANCH  20  23
ATOM     23  C   UNL A   1      28.234  28.953  22.954  1.00  0.00     0.419 C 
ATOM     24  F   UNL A   1      27.467  29.912  23.542  1.00  0.00    -0.166 F 
ATOM     25  F   UNL A   1      28.400  29.339  21.659  1.00  0.00    -0.166 F 
ATOM     26  F   UNL A   1      27.447  27.839  22.900  1.00  0.00    -0.166 F 
ENDBRANCH  20  23
ENDBRANCH  11  16
ENDBRANCH   5   8
ENDBRANCH   3   4
ENDBRANCH   2   3
ENDBRANCH   1   2
BRANCH   1  27
ATOM     27  C   UNL A   1      37.227  21.597  24.641  1.00  0.00     0.116 C 
BRANCH  27  28
ATOM     28  N   UNL A   1      38.107  20.525  25.087  1.00  0.00    -0.352 N 
ATOM     29  C   UNL A   1      39.231  20.567  25.879  1.00  0.00     0.251 C 
ATOM     30  H   UNL A   1      37.858  19.627  24.771  1.00  0.00     0.163 HD
ATOM     31  O   UNL A   1      39.879  19.538  26.061  1.00  0.00    -0.269 OA
BRANCH  29  32
ATOM     32  C   UNL A   1      39.694  21.845  26.469  1.00  0.00     0.039 A 
ATOM     33  C   UNL A   1      40.754  21.821  27.380  1.00  0.00     0.014 A 
ATOM     34  C   UNL A   1      39.111  23.064  26.115  1.00  0.00     0.014 A 
ATOM     35  C   UNL A   1      41.300  23.021  27.845  1.00  0.00     0.010 A 
ATOM     36  C   UNL A   1      39.708  24.258  26.515  1.00  0.00     0.010 A 
ATOM     37  C   UNL A   1      40.822  24.252  27.368  1.00  0.00    -0.014 A 
BRANCH  37  38
ATOM     38  C   UNL A   1      41.495  25.534  27.715  1.00  0.00     0.031 A 
ATOM     39  C   UNL A   1      40.755  26.600  28.478  1.00  0.00     0.074 A 
ATOM     40  C   UNL A   1      42.742  25.777  27.263  1.00  0.00     0.049 A 
ATOM     41  N   UNL A   1      41.129  27.820  28.772  1.00  0.00    -0.248 NA
ATOM     42  C   UNL A   1      39.403  26.259  28.941  1.00  0.00     0.031 C 
ATOM     43  C   UNL A   1      43.550  24.847  26.469  1.00  0.00     0.029 A 
ATOM     44  N   UNL A   1      43.547  26.884  27.388  1.00  0.00    -0.354 N 
ATOM     45  C   UNL A   1      40.051  28.399  29.434  1.00  0.00     0.074 A 
ATOM     46  C   UNL A   1      38.992  27.412  29.449  1.00  0.00     0.031 C 
ATOM     47  C   UNL A   1      44.736  25.414  26.196  1.00  0.00     0.029 A 
ATOM     48  C   UNL A   1      44.760  26.763  26.749  1.00  0.00     0.049 A 
ATOM     49  H   UNL A   1      43.280  27.688  27.889  1.00  0.00     0.167 HD
ATOM     50  C   UNL A   1      39.961  29.632  29.994  1.00  0.00     0.034 A 
ATOM     51  C   UNL A   1      45.770  27.644  26.604  1.00  0.00     0.034 A 
ATOM     52  C   UNL A   1      41.033  30.599  29.991  1.00  0.00     0.049 A 
ATOM     53  C   UNL A   1      45.645  29.010  27.229  1.00  0.00     0.074 A 
ATOM     54  C   UNL A   1      41.071  31.845  30.593  1.00  0.00     0.029 A 
ATOM     55  N   UNL A   1      42.253  30.434  29.349  1.00  0.00    -0.354 N 
ATOM     56  N   UNL A   1      44.639  29.520  27.903  1.00  0.00    -0.248 NA
ATOM     57  C   UNL A   1      46.792  29.915  27.083  1.00  0.00     0.031 C 
ATOM     58  C   UNL A   1      42.285  32.458  30.262  1.00  0.00     0.029 A 
ATOM     59  C   UNL A   1      43.036  31.566  29.514  1.00  0.00     0.049 A 
ATOM     60  H   UNL A   1      42.523  29.630  28.849  1.00  0.00     0.167 HD
ATOM     61  C   UNL A   1      45.048  30.795  28.285  1.00  0.00     0.074 A 
ATOM     62  C   UNL A   1      46.394  30.970  27.778  1.00  0.00     0.031 C 
ATOM     63  C   UNL A   1      44.374  31.734  28.995  1.00  0.00     0.034 A 
BRANCH  50  64
ATOM     64  C   UNL A   1      38.646  30.011  30.633  1.00  0.00     0.023 A 
ATOM     65  C   UNL A   1      37.640  30.678  29.914  1.00  0.00     0.031 A 
ATOM     66  C   UNL A   1      38.403  29.721  31.988  1.00  0.00     0.131 A 
ATOM     67  C   UNL A   1      36.474  31.104  30.569  1.00  0.00     0.055 A 
ATOM     68  C   UNL A   1      37.205  30.074  32.613  1.00  0.00     0.041 A 
ATOM     69  F   UNL A   1      39.333  29.103  32.732  1.00  0.00    -0.206 F 
ATOM     70  C   UNL A   1      36.238  30.783  31.907  1.00  0.00     0.022 A 
BRANCH  67  71
ATOM     71  S   UNL A   1      35.336  32.204  29.683  1.00  0.00     0.124 S 
ATOM     72  O   UNL A   1      36.244  33.241  29.202  1.00  0.00    -0.237 OA
ATOM     73  O   UNL A   1      34.774  31.324  28.665  1.00  0.00    -0.237 OA
ATOM     74  O   UNL A   1      34.401  32.636  30.720  1.00  0.00    -0.744 OA
ENDBRANCH  67  71
ENDBRANCH  50  64
BRANCH  51  75
ATOM     75  C   UNL A   1      46.987  27.278  25.823  1.00  0.00     0.023 A 
ATOM     76  C   UNL A   1      47.146  27.698  24.493  1.00  0.00     0.031 A 
ATOM     77  C   UNL A   1      47.988  26.462  26.382  1.00  0.00     0.131 A 
ATOM     78  C   UNL A   1      48.255  27.263  23.750  1.00  0.00     0.055 A 
ATOM     79  C   UNL A   1      49.115  26.076  25.654  1.00  0.00     0.041 A 
ATOM     80  F   UNL A   1      47.887  26.039  27.652  1.00  0.00    -0.206 F 
ATOM     81  C   UNL A   1      49.247  26.465  24.326  1.00  0.00     0.022 A 
BRANCH  78  82
ATOM     82  S   UNL A   1      48.341  27.689  21.989  1.00  0.00     0.124 S 
ATOM     83  O   UNL A   1      48.545  26.381  21.376  1.00  0.00    -0.237 OA
ATOM     84  O   UNL A   1      47.039  28.308  21.764  1.00  0.00    -0.237 OA
ATOM     85  O   UNL A   1      49.482  28.599  21.915  1.00  0.00    -0.744 OA
ENDBRANCH  78  82
ENDBRANCH  51  75
BRANCH  63  86
ATOM     86  C   UNL A   1      45.106  33.017  29.304  1.00  0.00     0.023 A 
ATOM     87  C   UNL A   1      45.126  34.094  28.400  1.00  0.00     0.031 A 
ATOM     88  C   UNL A   1      45.801  33.158  30.518  1.00  0.00     0.131 A 
ATOM     89  C   UNL A   1      45.871  35.245  28.702  1.00  0.00     0.055 A 
ATOM     90  C   UNL A   1      46.493  34.327  30.837  1.00  0.00     0.041 A 
ATOM     91  F   UNL A   1      45.817  32.159  31.415  1.00  0.00    -0.206 F 
ATOM     92  C   UNL A   1      46.540  35.374  29.922  1.00  0.00     0.022 A 
BRANCH  89  93
ATOM     93  S   UNL A   1      46.020  36.543  27.444  1.00  0.00     0.124 S 
ATOM     94  O   UNL A   1      45.113  37.566  27.954  1.00  0.00    -0.237 OA
ATOM     95  O   UNL A   1      47.442  36.869  27.496  1.00  0.00    -0.237 OA
ATOM     96  O   UNL A   1      45.581  35.883  26.216  1.00  0.00    -0.744 OA
ENDBRANCH  89  93
ENDBRANCH  63  86
ENDBRANCH  37  38
ENDBRANCH  29  32
ENDBRANCH  27  28
ENDBRANCH   1  27
TORSDOF 17
ENDMDL
MODEL 2
REMARK VINA RESULT:     -12.8      1.593      7.674
REMARK SMILES COc1cc(-c2ccc(F)c(C(F)(F)F)c2)ccc1C(=O)NCCCCNC(=O)c1ccc(-c2c3nc(c(-c4cc(S(=O)(=O)[O-])ccc4F)c4ccc([nH]4)c(-c4cc(S(=O)(=O)[O-])ccc4F)c4nc(c(-c5cc(S(=O)(=O)[O-])ccc5F)c5ccc2[nH]5)C=C4)C=C3)cc1
REMARK SMILES IDX 25 1 24 2 23 3 22 4 20 5 21 6 19 8 3 9 4 10 5 11 18 12 17 13
REMARK SMILES IDX 2 14 1 15 6 16 7 17 16 18 8 19 11 20 9 21 10 22 12 23 13 24
REMARK SMILES IDX 14 25 15 26 26 27 27 28 28 29 29 31 30 32 31 33 92 34 32 35
REMARK SMILES IDX 91 36 33 37 34 38 35 39 85 40 36 41 90 42 84 43 86 44 37 45
REMARK SMILES IDX 89 46 83 47 82 48 38 50 70 51 50 52 69 53 51 54 54 55 68 56
REMARK SMILES IDX 87 57 52 58 53 59 67 61 88 62 55 63 39 64 40 65 48 66 41 67
REMARK SMILES IDX 47 68 49 69 46 70 42 71 43 72 44 73 45 74 71 75 72 76 80 77
REMARK SMILES IDX 73 78 79 79 81 80 78 81 74 82 75 83 76 84 77 85 56 86 57 87
REMARK SMILES IDX 65 88 58 89 64 90 66 91 63 92 59 93 60 94 61 95 62 96
REMARK H PARENT 22 7 27 30 86 49 54 60
REMARK Flexibility Score: inf
ROOT
ATOM      1  C   UNL A   1      36.024  21.008  25.294  1.00  0.00     0.023 C 
ENDROOT
BRANCH   1   2
ATOM      2  C   UNL A   1      35.323  22.020  26.202  1.00  0.00     0.023 C 
BRANCH   2   3
ATOM      3  C   UNL A   1      34.158  21.485  27.029  1.00  0.00     0.116 C 
BRANCH   3   4
ATOM      4  N   UNL A   1      33.366  20.462  26.372  1.00  0.00    -0.352 N 
ATOM      5  C   UNL A   1      32.349  20.606  25.456  1.00  0.00     0.255 C 
ATOM      6  O   UNL A   1      31.819  19.600  24.984  1.00  0.00    -0.269 OA
ATOM      7  H   UNL A   1      33.588  19.534  26.615  1.00  0.00     0.163 HD
BRANCH   5   8
ATOM      8  C   UNL A   1      31.805  21.937  25.085  1.00  0.00     0.081 A 
ATOM      9  C   UNL A   1      31.986  22.576  23.857  1.00  0.00     0.132 A 
ATOM     10  C   UNL A   1      31.609  23.916  23.704  1.00  0.00     0.056 A 
ATOM     11  C   UNL A   1      30.962  24.623  24.732  1.00  0.00    -0.015 A 
ATOM     12  C   UNL A   1      31.067  22.598  26.081  1.00  0.00     0.018 A 
ATOM     13  C   UNL A   1      30.644  23.920  25.902  1.00  0.00     0.010 A 
BRANCH   9  14
ATOM     14  O   UNL A   1      32.613  22.030  22.771  1.00  0.00    -0.496 OA
ATOM     15  C   UNL A   1      33.310  23.005  21.995  1.00  0.00     0.278 C 
ENDBRANCH   9  14
BRANCH  11  16
ATOM     16  C   UNL A   1      30.714  26.071  24.599  1.00  0.00    -0.017 A 
ATOM     17  C   UNL A   1      29.791  26.579  23.671  1.00  0.00     0.012 A 
ATOM     18  C   UNL A   1      31.480  26.994  25.338  1.00  0.00     0.025 A 
ATOM     19  C   UNL A   1      29.660  27.953  23.465  1.00  0.00     0.040 A 
ATOM     20  C   UNL A   1      31.355  28.381  25.140  1.00  0.00     0.092 A 
ATOM     21  C   UNL A   1      30.447  28.838  24.194  1.00  0.00     0.135 A 
ATOM     22  F   UNL A   1      30.328  30.152  23.959  1.00  0.00    -0.206 F 
BRANCH  20  23
ATOM     23  C   UNL A   1      32.201  29.366  25.885  1.00  0.00     0.419 C 
ATOM     24  F   UNL A   1      33.028  30.078  25.070  1.00  0.00    -0.166 F 
ATOM     25  F   UNL A   1      31.471  30.281  26.580  1.00  0.00    -0.166 F 
ATOM     26  F   UNL A   1      33.017  28.779  26.809  1.00  0.00    -0.166 F 
ENDBRANCH  20  23
ENDBRANCH  11  16
ENDBRANCH   5   8
ENDBRANCH   3   4
ENDBRANCH   2   3
ENDBRANCH   1   2
BRANCH   1  27
ATOM     27  C   UNL A   1      37.454  21.338  24.871  1.00  0.00     0.116 C 
BRANCH  27  28
ATOM     28  N   UNL A   1      38.450  20.406  25.382  1.00  0.00    -0.352 N 
ATOM     29  C   UNL A   1      39.576  20.632  26.140  1.00  0.00     0.251 C 
ATOM     30  H   UNL A   1      38.293  19.463  25.148  1.00  0.00     0.163 HD
ATOM     31  O   UNL A   1      40.332  19.696  26.390  1.00  0.00    -0.269 OA
BRANCH  29  32
ATOM     32  C   UNL A   1      39.909  21.997  26.609  1.00  0.00     0.039 A 
ATOM     33  C   UNL A   1      40.962  22.158  27.515  1.00  0.00     0.014 A 
ATOM     34  C   UNL A   1      39.213  23.117  26.149  1.00  0.00     0.014 A 
ATOM     35  C   UNL A   1      41.387  23.443  27.867  1.00  0.00     0.010 A 
ATOM     36  C   UNL A   1      39.689  24.395  26.436  1.00  0.00     0.010 A 
ATOM     37  C   UNL A   1      40.794  24.573  27.283  1.00  0.00    -0.014 A 
BRANCH  37  38
ATOM     38  C   UNL A   1      41.338  25.941  27.510  1.00  0.00     0.031 A 
ATOM     39  C   UNL A   1      42.694  26.320  26.978  1.00  0.00     0.074 A 
ATOM     40  C   UNL A   1      40.650  26.813  28.275  1.00  0.00     0.049 A 
ATOM     41  N   UNL A   1      43.383  27.417  27.170  1.00  0.00    -0.248 NA
ATOM     42  C   UNL A   1      43.379  25.318  26.150  1.00  0.00     0.031 C 
ATOM     43  C   UNL A   1      39.347  26.552  28.893  1.00  0.00     0.029 A 
ATOM     44  N   UNL A   1      40.953  28.091  28.681  1.00  0.00    -0.354 N 
ATOM     45  C   UNL A   1      44.590  27.229  26.505  1.00  0.00     0.074 A 
ATOM     46  C   UNL A   1      44.557  25.891  25.953  1.00  0.00     0.031 C 
ATOM     47  C   UNL A   1      38.958  27.638  29.581  1.00  0.00     0.029 A 
ATOM     48  C   UNL A   1      40.000  28.655  29.497  1.00  0.00     0.049 A 
ATOM     49  H   UNL A   1      41.776  28.559  28.411  1.00  0.00     0.167 HD
ATOM     50  C   UNL A   1      45.622  28.098  26.355  1.00  0.00     0.034 A 
ATOM     51  C   UNL A   1      39.973  29.848  30.127  1.00  0.00     0.034 A 
ATOM     52  C   UNL A   1      45.632  29.437  26.893  1.00  0.00     0.049 A 
ATOM     53  C   UNL A   1      41.133  30.794  29.950  1.00  0.00     0.074 A 
ATOM     54  C   UNL A   1      46.593  30.422  26.735  1.00  0.00     0.029 A 
ATOM     55  N   UNL A   1      44.640  29.980  27.700  1.00  0.00    -0.354 N 
ATOM     56  N   UNL A   1      42.242  30.621  29.268  1.00  0.00    -0.248 NA
ATOM     57  C   UNL A   1      41.033  32.098  30.618  1.00  0.00     0.031 C 
ATOM     58  C   UNL A   1      46.214  31.534  27.497  1.00  0.00     0.029 A 
ATOM     59  C   UNL A   1      44.981  31.271  28.072  1.00  0.00     0.049 A 
ATOM     60  H   UNL A   1      43.815  29.515  27.969  1.00  0.00     0.167 HD
ATOM     61  C   UNL A   1      42.958  31.808  29.403  1.00  0.00     0.074 A 
ATOM     62  C   UNL A   1      42.149  32.691  30.218  1.00  0.00     0.031 C 
ATOM     63  C   UNL A   1      44.172  32.140  28.895  1.00  0.00     0.034 A 
BRANCH  50  64
ATOM     64  C   UNL A   1      46.835  27.612  25.597  1.00  0.00     0.023 A 
ATOM     65  C   UNL A   1      47.081  28.002  24.269  1.00  0.00     0.031 A 
ATOM     66  C   UNL A   1      47.747  26.729  26.203  1.00  0.00     0.131 A 
ATOM     67  C   UNL A   1      48.162  27.450  23.565  1.00  0.00     0.055 A 
ATOM     68  C   UNL A   1      48.867  26.248  25.523  1.00  0.00     0.041 A 
ATOM     69  F   UNL A   1      47.554  26.306  27.461  1.00  0.00    -0.206 F 
ATOM     70  C   UNL A   1      49.072  26.596  24.191  1.00  0.00     0.022 A 
BRANCH  67  71
ATOM     71  S   UNL A   1      48.279  27.755  21.781  1.00  0.00     0.124 S 
ATOM     72  O   UNL A   1      49.324  28.774  21.725  1.00  0.00    -0.237 OA
ATOM     73  O   UNL A   1      48.639  26.441  21.260  1.00  0.00    -0.237 OA
ATOM     74  O   UNL A   1      46.942  28.223  21.424  1.00  0.00    -0.744 OA
ENDBRANCH  67  71
ENDBRANCH  50  64
BRANCH  51  75
ATOM     75  C   UNL A   1      38.821  30.217  30.998  1.00  0.00     0.023 A 
ATOM     76  C   UNL A   1      37.733  30.943  30.488  1.00  0.00     0.031 A 
ATOM     77  C   UNL A   1      38.812  29.888  32.366  1.00  0.00     0.131 A 
ATOM     78  C   UNL A   1      36.704  31.359  31.349  1.00  0.00     0.055 A 
ATOM     79  C   UNL A   1      37.761  30.259  33.206  1.00  0.00     0.041 A 
ATOM     80  F   UNL A   1      39.825  29.189  32.902  1.00  0.00    -0.206 F 
ATOM     81  C   UNL A   1      36.705  31.012  32.702  1.00  0.00     0.022 A 
BRANCH  78  82
ATOM     82  S   UNL A   1      35.403  32.436  30.689  1.00  0.00     0.124 S 
ATOM     83  O   UNL A   1      34.376  32.328  31.720  1.00  0.00    -0.237 OA
ATOM     84  O   UNL A   1      36.090  33.720  30.599  1.00  0.00    -0.237 OA
ATOM     85  O   UNL A   1      35.069  31.819  29.407  1.00  0.00    -0.744 OA
ENDBRANCH  78  82
ENDBRANCH  51  75
BRANCH  63  86
ATOM     86  C   UNL A   1      44.672  33.536  29.171  1.00  0.00     0.023 A 
ATOM     87  C   UNL A   1      45.457  33.832  30.299  1.00  0.00     0.031 A 
ATOM     88  C   UNL A   1      44.348  34.587  28.294  1.00  0.00     0.131 A 
ATOM     89  C   UNL A   1      45.849  35.157  30.549  1.00  0.00     0.055 A 
ATOM     90  C   UNL A   1      44.789  35.892  28.517  1.00  0.00     0.041 A 
ATOM     91  F   UNL A   1      43.599  34.360  27.203  1.00  0.00    -0.206 F 
ATOM     92  C   UNL A   1      45.534  36.185  29.655  1.00  0.00     0.022 A 
BRANCH  89  93
ATOM     93  S   UNL A   1      46.710  35.535  32.099  1.00  0.00     0.124 S 
ATOM     94  O   UNL A   1      48.080  35.745  31.641  1.00  0.00    -0.237 OA
ATOM     95  O   UNL A   1      46.006  36.724  32.568  1.00  0.00    -0.237 OA
ATOM     96  O   UNL A   1      46.505  34.334  32.908  1.00  0.00    -0.744 OA
ENDBRANCH  89  93
ENDBRANCH  63  86
ENDBRANCH  37  38
ENDBRANCH  29  32
ENDBRANCH  27  28
ENDBRANCH   1  27
TORSDOF 17
ENDMDL
MODEL 3
REMARK VINA RESULT:     -12.8      5.582     10.308
REMARK SMILES COc1cc(-c2ccc(F)c(C(F)(F)F)c2)ccc1C(=O)NCCCCNC(=O)c1ccc(-c2c3nc(c(-c4cc(S(=O)(=O)[O-])ccc4F)c4ccc([nH]4)c(-c4cc(S(=O)(=O)[O-])ccc4F)c4nc(c(-c5cc(S(=O)(=O)[O-])ccc5F)c5ccc2[nH]5)C=C4)C=C3)cc1
REMARK SMILES IDX 25 1 24 2 23 3 22 4 20 5 21 6 19 8 3 9 4 10 5 11 18 12 17 13
REMARK SMILES IDX 2 14 1 15 6 16 7 17 16 18 8 19 11 20 9 21 10 22 12 23 13 24
REMARK SMILES IDX 14 25 15 26 26 27 27 28 28 29 29 31 30 32 31 33 92 34 32 35
REMARK SMILES IDX 91 36 33 37 34 38 35 39 85 40 36 41 90 42 84 43 86 44 37 45
REMARK SMILES IDX 89 46 83 47 82 48 38 50 70 51 50 52 69 53 51 54 54 55 68 56
REMARK SMILES IDX 87 57 52 58 53 59 67 61 88 62 55 63 39 64 40 65 48 66 41 67
REMARK SMILES IDX 47 68 49 69 46 70 42 71 43 72 44 73 45 74 71 75 72 76 80 77
REMARK SMILES IDX 73 78 79 79 81 80 78 81 74 82 75 83 76 84 77 85 56 86 57 87
REMARK SMILES IDX 65 88 58 89 64 90 66 91 63 92 59 93 60 94 61 95 62 96
REMARK H PARENT 22 7 27 30 86 49 54 60
REMARK Flexibility Score: inf
ROOT
ATOM      1  C   UNL A   1      31.347  29.939  25.098  1.00  0.00     0.023 C 
ENDROOT
BRANCH   1   2
ATOM      2  C   UNL A   1      31.931  28.744  24.342  1.00  0.00     0.023 C 
BRANCH   2   3
ATOM      3  C   UNL A   1      31.166  28.297  23.101  1.00  0.00     0.116 C 
BRANCH   3   4
ATOM      4  N   UNL A   1      29.773  27.960  23.333  1.00  0.00    -0.352 N 
ATOM      5  C   UNL A   1      29.234  26.810  23.863  1.00  0.00     0.255 C 
ATOM      6  O   UNL A   1      28.016  26.732  24.013  1.00  0.00    -0.269 OA
ATOM      7  H   UNL A   1      29.122  28.652  23.076  1.00  0.00     0.163 HD
BRANCH   5   8
ATOM      8  C   UNL A   1      30.068  25.621  24.177  1.00  0.00     0.081 A 
ATOM      9  C   UNL A   1      30.656  25.344  25.412  1.00  0.00     0.132 A 
ATOM     10  C   UNL A   1      31.593  24.309  25.523  1.00  0.00     0.056 A 
ATOM     11  C   UNL A   1      31.898  23.469  24.438  1.00  0.00    -0.015 A 
ATOM     12  C   UNL A   1      30.285  24.726  23.116  1.00  0.00     0.018 A 
ATOM     13  C   UNL A   1      31.181  23.660  23.249  1.00  0.00     0.010 A 
BRANCH   9  14
ATOM     14  O   UNL A   1      30.475  26.078  26.552  1.00  0.00    -0.496 OA
ATOM     15  C   UNL A   1      31.680  26.699  26.999  1.00  0.00     0.278 C 
ENDBRANCH   9  14
BRANCH  11  16
ATOM     16  C   UNL A   1      32.996  22.489  24.540  1.00  0.00    -0.017 A 
ATOM     17  C   UNL A   1      32.810  21.236  25.147  1.00  0.00     0.012 A 
ATOM     18  C   UNL A   1      34.295  22.830  24.116  1.00  0.00     0.025 A 
ATOM     19  C   UNL A   1      33.887  20.370  25.353  1.00  0.00     0.040 A 
ATOM     20  C   UNL A   1      35.385  21.965  24.316  1.00  0.00     0.092 A 
ATOM     21  C   UNL A   1      35.162  20.746  24.944  1.00  0.00     0.135 A 
ATOM     22  F   UNL A   1      36.186  19.914  25.177  1.00  0.00    -0.206 F 
BRANCH  20  23
ATOM     23  C   UNL A   1      36.778  22.341  23.914  1.00  0.00     0.419 C 
ATOM     24  F   UNL A   1      37.690  21.370  24.192  1.00  0.00    -0.166 F 
ATOM     25  F   UNL A   1      36.897  22.605  22.583  1.00  0.00    -0.166 F 
ATOM     26  F   UNL A   1      37.233  23.461  24.547  1.00  0.00    -0.166 F 
ENDBRANCH  20  23
ENDBRANCH  11  16
ENDBRANCH   5   8
ENDBRANCH   3   4
ENDBRANCH   2   3
ENDBRANCH   1   2
BRANCH   1  27
ATOM     27  C   UNL A   1      32.037  30.333  26.402  1.00  0.00     0.116 C 
BRANCH  27  28
ATOM     28  N   UNL A   1      31.918  31.748  26.727  1.00  0.00    -0.352 N 
ATOM     29  C   UNL A   1      32.789  32.588  27.381  1.00  0.00     0.251 C 
ATOM     30  H   UNL A   1      31.080  32.172  26.432  1.00  0.00     0.163 HD
ATOM     31  O   UNL A   1      32.445  33.743  27.626  1.00  0.00    -0.269 OA
BRANCH  29  32
ATOM     32  C   UNL A   1      34.112  32.100  27.836  1.00  0.00     0.039 A 
ATOM     33  C   UNL A   1      35.163  33.015  27.951  1.00  0.00     0.014 A 
ATOM     34  C   UNL A   1      34.319  30.761  28.171  1.00  0.00     0.014 A 
ATOM     35  C   UNL A   1      36.380  32.611  28.508  1.00  0.00     0.010 A 
ATOM     36  C   UNL A   1      35.503  30.379  28.800  1.00  0.00     0.010 A 
ATOM     37  C   UNL A   1      36.540  31.304  28.995  1.00  0.00    -0.014 A 
BRANCH  37  38
ATOM     38  C   UNL A   1      37.762  30.897  29.743  1.00  0.00     0.031 A 
ATOM     39  C   UNL A   1      38.712  29.887  29.158  1.00  0.00     0.074 A 
ATOM     40  C   UNL A   1      37.967  31.367  30.991  1.00  0.00     0.049 A 
ATOM     41  N   UNL A   1      39.761  29.323  29.702  1.00  0.00    -0.248 NA
ATOM     42  C   UNL A   1      38.424  29.425  27.793  1.00  0.00     0.031 C 
ATOM     43  C   UNL A   1      37.094  32.312  31.693  1.00  0.00     0.029 A 
ATOM     44  N   UNL A   1      38.964  31.105  31.900  1.00  0.00    -0.354 N 
ATOM     45  C   UNL A   1      40.245  28.425  28.756  1.00  0.00     0.074 A 
ATOM     46  C   UNL A   1      39.340  28.484  27.627  1.00  0.00     0.031 C 
ATOM     47  C   UNL A   1      37.602  32.561  32.911  1.00  0.00     0.029 A 
ATOM     48  C   UNL A   1      38.808  31.761  33.100  1.00  0.00     0.049 A 
ATOM     49  H   UNL A   1      39.719  30.503  31.710  1.00  0.00     0.167 HD
ATOM     50  C   UNL A   1      41.350  27.640  28.817  1.00  0.00     0.034 A 
ATOM     51  C   UNL A   1      39.538  31.712  34.232  1.00  0.00     0.034 A 
ATOM     52  C   UNL A   1      42.256  27.609  29.940  1.00  0.00     0.049 A 
ATOM     53  C   UNL A   1      40.757  30.828  34.278  1.00  0.00     0.074 A 
ATOM     54  C   UNL A   1      43.442  26.907  30.071  1.00  0.00     0.029 A 
ATOM     55  N   UNL A   1      42.074  28.301  31.130  1.00  0.00    -0.354 N 
ATOM     56  N   UNL A   1      41.233  30.029  33.350  1.00  0.00    -0.248 NA
ATOM     57  C   UNL A   1      41.544  30.846  35.518  1.00  0.00     0.031 C 
ATOM     58  C   UNL A   1      43.943  27.124  31.360  1.00  0.00     0.029 A 
ATOM     59  C   UNL A   1      43.108  28.019  32.010  1.00  0.00     0.049 A 
ATOM     60  H   UNL A   1      41.321  28.905  31.321  1.00  0.00     0.167 HD
ATOM     61  C   UNL A   1      42.391  29.473  33.887  1.00  0.00     0.074 A 
ATOM     62  C   UNL A   1      42.548  30.038  35.212  1.00  0.00     0.031 C 
ATOM     63  C   UNL A   1      43.250  28.580  33.333  1.00  0.00     0.034 A 
BRANCH  50  64
ATOM     64  C   UNL A   1      41.623  26.733  27.640  1.00  0.00     0.023 A 
ATOM     65  C   UNL A   1      41.198  25.393  27.626  1.00  0.00     0.031 A 
ATOM     66  C   UNL A   1      42.339  27.207  26.526  1.00  0.00     0.131 A 
ATOM     67  C   UNL A   1      41.559  24.554  26.561  1.00  0.00     0.055 A 
ATOM     68  C   UNL A   1      42.624  26.388  25.432  1.00  0.00     0.041 A 
ATOM     69  F   UNL A   1      42.788  28.471  26.490  1.00  0.00    -0.206 F 
ATOM     70  C   UNL A   1      42.247  25.049  25.451  1.00  0.00     0.022 A 
BRANCH  67  71
ATOM     71  S   UNL A   1      41.241  22.775  26.715  1.00  0.00     0.124 S 
ATOM     72  O   UNL A   1      42.202  22.222  25.765  1.00  0.00    -0.237 OA
ATOM     73  O   UNL A   1      41.518  22.525  28.124  1.00  0.00    -0.237 OA
ATOM     74  O   UNL A   1      39.840  22.642  26.321  1.00  0.00    -0.744 OA
ENDBRANCH  67  71
ENDBRANCH  50  64
BRANCH  51  75
ATOM     75  C   UNL A   1      39.134  32.507  35.427  1.00  0.00     0.023 A 
ATOM     76  C   UNL A   1      39.607  33.815  35.619  1.00  0.00     0.031 A 
ATOM     77  C   UNL A   1      38.304  31.953  36.420  1.00  0.00     0.131 A 
ATOM     78  C   UNL A   1      39.287  34.509  36.797  1.00  0.00     0.055 A 
ATOM     79  C   UNL A   1      37.947  32.668  37.565  1.00  0.00     0.041 A 
ATOM     80  F   UNL A   1      37.820  30.709  36.282  1.00  0.00    -0.206 F 
ATOM     81  C   UNL A   1      38.451  33.949  37.765  1.00  0.00     0.022 A 
BRANCH  78  82
ATOM     82  S   UNL A   1      40.051  36.129  37.084  1.00  0.00     0.124 S 
ATOM     83  O   UNL A   1      39.245  36.647  38.184  1.00  0.00    -0.237 OA
ATOM     84  O   UNL A   1      41.425  35.761  37.412  1.00  0.00    -0.237 OA
ATOM     85  O   UNL A   1      39.881  36.816  35.806  1.00  0.00    -0.744 OA
ENDBRANCH  78  82
ENDBRANCH  51  75
BRANCH  63  86
ATOM     86  C   UNL A   1      44.462  28.198  34.147  1.00  0.00     0.023 A 
ATOM     87  C   UNL A   1      44.451  27.096  35.019  1.00  0.00     0.031 A 
ATOM     88  C   UNL A   1      45.642  28.958  34.053  1.00  0.00     0.131 A 
ATOM     89  C   UNL A   1      45.582  26.814  35.803  1.00  0.00     0.055 A 
ATOM     90  C   UNL A   1      46.781  28.639  34.792  1.00  0.00     0.041 A 
ATOM     91  F   UNL A   1      45.705  30.023  33.238  1.00  0.00    -0.206 F 
ATOM     92  C   UNL A   1      46.752  27.569  35.681  1.00  0.00     0.022 A 
BRANCH  89  93
ATOM     93  S   UNL A   1      45.478  25.495  37.042  1.00  0.00     0.124 S 
ATOM     94  O   UNL A   1      44.379  25.956  37.884  1.00  0.00    -0.237 OA
ATOM     95  O   UNL A   1      45.204  24.317  36.225  1.00  0.00    -0.237 OA
ATOM     96  O   UNL A   1      46.794  25.515  37.677  1.00  0.00    -0.744 OA
ENDBRANCH  89  93
ENDBRANCH  63  86
ENDBRANCH  37  38
ENDBRANCH  29  32
ENDBRANCH  27  28
ENDBRANCH   1  27
TORSDOF 17
ENDMDL
