MODEL 1
REMARK VINA RESULT:     -12.1      0.000      0.000
REMARK SMILES O=C(NCCCCNC(=O)c1cc2n[nH]cc2cc1[N+](=O)[O-])c1ccc(-c2c3nc(c(-c4cc(S(=O)(=O)[O-])ccc4F)c4ccc([nH]4)c(-c4cc(S(=O)(=O)[O-])ccc4F)c4nc(c(-c5cc(S(=O)(=O)[O-])ccc5F)c5ccc2[nH]5)C=C4)C=C3)cc1
REMARK SMILES IDX 4 1 3 2 1 3 2 4 23 6 24 7 85 8 25 9 84 10 26 11 27 12 28 13
REMARK SMILES IDX 78 14 29 15 83 16 77 17 79 18 30 19 82 20 76 21 75 22 31 24
REMARK SMILES IDX 63 25 43 26 62 27 44 28 47 29 61 30 80 31 45 32 46 33 60 35
REMARK SMILES IDX 81 36 48 37 32 38 33 39 41 40 34 41 40 42 42 43 39 44 35 45
REMARK SMILES IDX 36 46 37 47 38 48 64 49 65 50 73 51 66 52 72 53 74 54 71 55
REMARK SMILES IDX 67 56 68 57 69 58 70 59 49 60 50 61 58 62 51 63 57 64 59 65
REMARK SMILES IDX 56 66 52 67 53 68 54 69 55 70 5 71 6 72 7 73 8 74 9 75 10 77
REMARK SMILES IDX 11 78 12 79 19 80 13 81 18 82 14 83 17 84 15 85 16 86 20 88
REMARK SMILES IDX 21 89 22 90
REMARK H PARENT 3 5 79 23 47 34 8 76 15 87
REMARK Flexibility Score: inf
ROOT
ATOM      1  C   UNL A   1      37.694  21.467  25.179  1.00  0.00     0.116 C 
ENDROOT
BRANCH   1   2
ATOM      2  N   UNL A   1      38.608  20.473  25.719  1.00  0.00    -0.352 N 
ATOM      3  O   UNL A   1      40.499  19.678  26.651  1.00  0.00    -0.269 OA
ATOM      4  C   UNL A   1      39.797  20.650  26.388  1.00  0.00     0.251 C 
ATOM      5  H   UNL A   1      38.337  19.536  25.586  1.00  0.00     0.163 HD
BRANCH   4   6
ATOM      6  C   UNL A   1      40.241  22.011  26.765  1.00  0.00     0.039 A 
ATOM      7  C   UNL A   1      39.735  23.138  26.113  1.00  0.00     0.014 A 
ATOM      8  C   UNL A   1      41.179  22.161  27.792  1.00  0.00     0.014 A 
ATOM      9  C   UNL A   1      40.271  24.393  26.383  1.00  0.00     0.010 A 
ATOM     10  C   UNL A   1      41.658  23.433  28.118  1.00  0.00     0.010 A 
ATOM     11  C   UNL A   1      41.234  24.557  27.392  1.00  0.00    -0.014 A 
BRANCH  11  12
ATOM     12  C   UNL A   1      41.750  25.917  27.696  1.00  0.00     0.031 A 
ATOM     13  C   UNL A   1      43.091  26.372  27.187  1.00  0.00     0.074 A 
ATOM     14  C   UNL A   1      40.980  26.757  28.417  1.00  0.00     0.049 A 
ATOM     15  N   UNL A   1      43.689  27.525  27.350  1.00  0.00    -0.248 NA
ATOM     16  C   UNL A   1      43.868  25.400  26.405  1.00  0.00     0.031 C 
ATOM     17  C   UNL A   1      39.665  26.422  28.971  1.00  0.00     0.029 A 
ATOM     18  N   UNL A   1      41.177  28.058  28.797  1.00  0.00    -0.354 N 
ATOM     19  C   UNL A   1      44.917  27.416  26.706  1.00  0.00     0.074 A 
ATOM     20  C   UNL A   1      44.989  26.069  26.178  1.00  0.00     0.031 C 
ATOM     21  C   UNL A   1      39.159  27.500  29.585  1.00  0.00     0.029 A 
ATOM     22  C   UNL A   1      40.134  28.583  29.523  1.00  0.00     0.049 A 
ATOM     23  H   UNL A   1      41.989  28.569  28.570  1.00  0.00     0.167 HD
ATOM     24  C   UNL A   1      45.887  28.355  26.563  1.00  0.00     0.034 A 
ATOM     25  C   UNL A   1      39.985  29.793  30.094  1.00  0.00     0.034 A 
ATOM     26  C   UNL A   1      45.794  29.696  27.091  1.00  0.00     0.049 A 
ATOM     27  C   UNL A   1      41.083  30.807  29.942  1.00  0.00     0.074 A 
ATOM     28  C   UNL A   1      46.699  30.737  26.970  1.00  0.00     0.029 A 
ATOM     29  N   UNL A   1      44.737  30.181  27.852  1.00  0.00    -0.354 N 
ATOM     30  N   UNL A   1      42.231  30.693  29.312  1.00  0.00    -0.248 NA
ATOM     31  C   UNL A   1      40.868  32.114  30.575  1.00  0.00     0.031 C 
ATOM     32  C   UNL A   1      46.218  31.827  27.705  1.00  0.00     0.029 A 
ATOM     33  C   UNL A   1      44.982  31.493  28.232  1.00  0.00     0.049 A 
ATOM     34  H   UNL A   1      43.929  29.668  28.088  1.00  0.00     0.167 HD
ATOM     35  C   UNL A   1      42.869  31.919  29.465  1.00  0.00     0.074 A 
ATOM     36  C   UNL A   1      41.969  32.763  30.227  1.00  0.00     0.031 C 
ATOM     37  C   UNL A   1      44.087  32.312  29.016  1.00  0.00     0.034 A 
BRANCH  24  38
ATOM     38  C   UNL A   1      47.152  27.945  25.845  1.00  0.00     0.023 A 
ATOM     39  C   UNL A   1      47.298  28.093  24.454  1.00  0.00     0.031 A 
ATOM     40  C   UNL A   1      48.221  27.380  26.561  1.00  0.00     0.131 A 
ATOM     41  C   UNL A   1      48.456  27.621  23.816  1.00  0.00     0.055 A 
ATOM     42  C   UNL A   1      49.401  26.978  25.931  1.00  0.00     0.041 A 
ATOM     43  F   UNL A   1      48.133  27.197  27.888  1.00  0.00    -0.206 F 
ATOM     44  C   UNL A   1      49.518  27.084  24.548  1.00  0.00     0.022 A 
BRANCH  41  45
ATOM     45  S   UNL A   1      48.500  27.593  22.003  1.00  0.00     0.124 S 
ATOM     46  O   UNL A   1      49.633  28.471  21.719  1.00  0.00    -0.237 OA
ATOM     47  O   UNL A   1      48.699  26.178  21.714  1.00  0.00    -0.237 OA
ATOM     48  O   UNL A   1      47.195  28.131  21.619  1.00  0.00    -0.744 OA
ENDBRANCH  41  45
ENDBRANCH  24  38
BRANCH  25  49
ATOM     49  C   UNL A   1      38.762  30.094  30.890  1.00  0.00     0.023 A 
ATOM     50  C   UNL A   1      37.732  30.889  30.368  1.00  0.00     0.031 A 
ATOM     51  C   UNL A   1      38.617  29.592  32.196  1.00  0.00     0.131 A 
ATOM     52  C   UNL A   1      36.611  31.184  31.161  1.00  0.00     0.055 A 
ATOM     53  C   UNL A   1      37.480  29.848  32.961  1.00  0.00     0.041 A 
ATOM     54  F   UNL A   1      39.574  28.819  32.737  1.00  0.00    -0.206 F 
ATOM     55  C   UNL A   1      36.473  30.658  32.447  1.00  0.00     0.022 A 
BRANCH  52  56
ATOM     56  S   UNL A   1      35.359  32.320  30.506  1.00  0.00     0.124 S 
ATOM     57  O   UNL A   1      34.989  31.667  29.255  1.00  0.00    -0.237 OA
ATOM     58  O   UNL A   1      34.352  32.303  31.561  1.00  0.00    -0.237 OA
ATOM     59  O   UNL A   1      36.085  33.580  30.360  1.00  0.00    -0.744 OA
ENDBRANCH  52  56
ENDBRANCH  25  49
BRANCH  37  60
ATOM     60  C   UNL A   1      44.494  33.730  29.326  1.00  0.00     0.023 A 
ATOM     61  C   UNL A   1      44.212  34.784  28.440  1.00  0.00     0.031 A 
ATOM     62  C   UNL A   1      45.200  34.023  30.504  1.00  0.00     0.131 A 
ATOM     63  C   UNL A   1      44.685  36.075  28.720  1.00  0.00     0.055 A 
ATOM     64  C   UNL A   1      45.621  35.319  30.803  1.00  0.00     0.041 A 
ATOM     65  F   UNL A   1      45.497  33.051  31.382  1.00  0.00    -0.206 F 
ATOM     66  C   UNL A   1      45.375  36.352  29.903  1.00  0.00     0.022 A 
BRANCH  63  67
ATOM     67  S   UNL A   1      44.459  37.376  27.474  1.00  0.00     0.124 S 
ATOM     68  O   UNL A   1      43.184  37.000  26.872  1.00  0.00    -0.237 OA
ATOM     69  O   UNL A   1      44.449  38.588  28.287  1.00  0.00    -0.237 OA
ATOM     70  O   UNL A   1      45.624  37.224  26.605  1.00  0.00    -0.744 OA
ENDBRANCH  63  67
ENDBRANCH  37  60
ENDBRANCH  11  12
ENDBRANCH   4   6
ENDBRANCH   1   2
BRANCH   1  71
ATOM     71  C   UNL A   1      36.231  21.164  25.483  1.00  0.00     0.023 C 
BRANCH  71  72
ATOM     72  C   UNL A   1      35.456  22.277  26.189  1.00  0.00     0.023 C 
BRANCH  72  73
ATOM     73  C   UNL A   1      34.290  21.818  27.061  1.00  0.00     0.116 C 
BRANCH  73  74
ATOM     74  N   UNL A   1      33.541  20.713  26.483  1.00  0.00    -0.352 N 
ATOM     75  C   UNL A   1      32.677  20.704  25.420  1.00  0.00     0.258 C 
ATOM     76  H   UNL A   1      33.674  19.841  26.921  1.00  0.00     0.163 HD
ATOM     77  O   UNL A   1      32.078  19.690  25.086  1.00  0.00    -0.269 OA
BRANCH  75  78
ATOM     78  C   UNL A   1      32.411  21.957  24.696  1.00  0.00     0.119 A 
ATOM     79  C   UNL A   1      33.162  22.137  23.507  1.00  0.00     0.052 A 
ATOM     80  C   UNL A   1      31.439  22.900  25.160  1.00  0.00     0.282 A 
ATOM     81  C   UNL A   1      32.813  23.297  22.801  1.00  0.00     0.093 A 
ATOM     82  C   UNL A   1      31.059  24.075  24.467  1.00  0.00     0.098 A 
ATOM     83  N   UNL A   1      33.282  23.772  21.637  1.00  0.00    -0.176 NA
ATOM     84  C   UNL A   1      31.793  24.192  23.294  1.00  0.00     0.026 A 
ATOM     85  N   UNL A   1      32.584  24.901  21.413  1.00  0.00    -0.285 N 
ATOM     86  C   UNL A   1      31.668  25.198  22.381  1.00  0.00     0.114 A 
ATOM     87  H   UNL A   1      32.722  25.465  20.617  1.00  0.00     0.189 HD
BRANCH  80  88
ATOM     88  N   UNL A   1      30.770  22.661  26.426  1.00  0.00     0.063 N 
ATOM     89  O   UNL A   1      31.330  23.103  27.439  1.00  0.00    -0.258 OA
ATOM     90  O   UNL A   1      29.729  21.997  26.407  1.00  0.00    -0.258 OA
ENDBRANCH  80  88
ENDBRANCH  75  78
ENDBRANCH  73  74
ENDBRANCH  72  73
ENDBRANCH  71  72
ENDBRANCH   1  71
TORSDOF 15
ENDMDL
MODEL 2
REMARK VINA RESULT:     -12.0      5.979      9.118
REMARK SMILES O=C(NCCCCNC(=O)c1cc2n[nH]cc2cc1[N+](=O)[O-])c1ccc(-c2c3nc(c(-c4cc(S(=O)(=O)[O-])ccc4F)c4ccc([nH]4)c(-c4cc(S(=O)(=O)[O-])ccc4F)c4nc(c(-c5cc(S(=O)(=O)[O-])ccc5F)c5ccc2[nH]5)C=C4)C=C3)cc1
REMARK SMILES IDX 4 1 3 2 1 3 2 4 23 6 24 7 85 8 25 9 84 10 26 11 27 12 28 13
REMARK SMILES IDX 78 14 29 15 83 16 77 17 79 18 30 19 82 20 76 21 75 22 31 24
REMARK SMILES IDX 63 25 43 26 62 27 44 28 47 29 61 30 80 31 45 32 46 33 60 35
REMARK SMILES IDX 81 36 48 37 32 38 33 39 41 40 34 41 40 42 42 43 39 44 35 45
REMARK SMILES IDX 36 46 37 47 38 48 64 49 65 50 73 51 66 52 72 53 74 54 71 55
REMARK SMILES IDX 67 56 68 57 69 58 70 59 49 60 50 61 58 62 51 63 57 64 59 65
REMARK SMILES IDX 56 66 52 67 53 68 54 69 55 70 5 71 6 72 7 73 8 74 9 75 10 77
REMARK SMILES IDX 11 78 12 79 19 80 13 81 18 82 14 83 17 84 15 85 16 86 20 88
REMARK SMILES IDX 21 89 22 90
REMARK H PARENT 3 5 79 23 47 34 8 76 15 87
REMARK Flexibility Score: inf
ROOT
ATOM      1  C   UNL A   1      32.771  32.536  27.234  1.00  0.00     0.116 C 
ENDROOT
BRANCH   1   2
ATOM      2  N   UNL A   1      32.568  33.928  27.605  1.00  0.00    -0.352 N 
ATOM      3  O   UNL A   1      32.782  35.802  28.838  1.00  0.00    -0.269 OA
ATOM      4  C   UNL A   1      33.186  34.671  28.584  1.00  0.00     0.251 C 
ATOM      5  H   UNL A   1      31.888  34.408  27.080  1.00  0.00     0.163 HD
BRANCH   4   6
ATOM      6  C   UNL A   1      34.317  34.098  29.348  1.00  0.00     0.039 A 
ATOM      7  C   UNL A   1      35.639  34.387  28.998  1.00  0.00     0.014 A 
ATOM      8  C   UNL A   1      34.050  33.260  30.435  1.00  0.00     0.014 A 
ATOM      9  C   UNL A   1      36.684  33.726  29.636  1.00  0.00     0.010 A 
ATOM     10  C   UNL A   1      35.105  32.659  31.128  1.00  0.00     0.010 A 
ATOM     11  C   UNL A   1      36.430  32.859  30.712  1.00  0.00    -0.014 A 
BRANCH  11  12
ATOM     12  C   UNL A   1      37.570  32.209  31.410  1.00  0.00     0.031 A 
ATOM     13  C   UNL A   1      38.347  31.097  30.760  1.00  0.00     0.074 A 
ATOM     14  C   UNL A   1      37.918  32.652  32.635  1.00  0.00     0.049 A 
ATOM     15  N   UNL A   1      39.372  30.426  31.222  1.00  0.00    -0.248 NA
ATOM     16  C   UNL A   1      37.907  30.673  29.423  1.00  0.00     0.031 C 
ATOM     17  C   UNL A   1      37.231  33.719  33.368  1.00  0.00     0.029 A 
ATOM     18  N   UNL A   1      38.937  32.278  33.472  1.00  0.00    -0.354 N 
ATOM     19  C   UNL A   1      39.693  29.492  30.242  1.00  0.00     0.074 A 
ATOM     20  C   UNL A   1      38.729  29.663  29.175  1.00  0.00     0.031 C 
ATOM     21  C   UNL A   1      37.869  33.938  34.526  1.00  0.00     0.029 A 
ATOM     22  C   UNL A   1      38.972  32.991  34.647  1.00  0.00     0.049 A 
ATOM     23  H   UNL A   1      39.582  31.567  33.252  1.00  0.00     0.167 HD
ATOM     24  C   UNL A   1      40.702  28.584  30.233  1.00  0.00     0.034 A 
ATOM     25  C   UNL A   1      39.786  32.884  35.714  1.00  0.00     0.034 A 
ATOM     26  C   UNL A   1      41.658  28.432  31.304  1.00  0.00     0.049 A 
ATOM     27  C   UNL A   1      40.881  31.854  35.690  1.00  0.00     0.074 A 
ATOM     28  C   UNL A   1      42.742  27.573  31.380  1.00  0.00     0.029 A 
ATOM     29  N   UNL A   1      41.642  29.148  32.495  1.00  0.00    -0.354 N 
ATOM     30  N   UNL A   1      41.182  30.992  34.746  1.00  0.00    -0.248 NA
ATOM     31  C   UNL A   1      41.747  31.784  36.872  1.00  0.00     0.031 C 
ATOM     32  C   UNL A   1      43.341  27.727  32.637  1.00  0.00     0.029 A 
ATOM     33  C   UNL A   1      42.674  28.729  33.322  1.00  0.00     0.049 A 
ATOM     34  H   UNL A   1      40.990  29.852  32.720  1.00  0.00     0.167 HD
ATOM     35  C   UNL A   1      42.280  30.283  35.218  1.00  0.00     0.074 A 
ATOM     36  C   UNL A   1      42.602  30.835  36.520  1.00  0.00     0.031 C 
ATOM     37  C   UNL A   1      42.964  29.269  34.630  1.00  0.00     0.034 A 
BRANCH  24  38
ATOM     38  C   UNL A   1      40.791  27.654  29.045  1.00  0.00     0.023 A 
ATOM     39  C   UNL A   1      41.732  27.848  28.018  1.00  0.00     0.031 A 
ATOM     40  C   UNL A   1      39.907  26.567  28.929  1.00  0.00     0.131 A 
ATOM     41  C   UNL A   1      41.723  27.010  26.892  1.00  0.00     0.055 A 
ATOM     42  C   UNL A   1      39.950  25.693  27.840  1.00  0.00     0.041 A 
ATOM     43  F   UNL A   1      38.975  26.342  29.868  1.00  0.00    -0.206 F 
ATOM     44  C   UNL A   1      40.853  25.921  26.806  1.00  0.00     0.022 A 
BRANCH  41  45
ATOM     45  S   UNL A   1      42.774  27.445  25.478  1.00  0.00     0.124 S 
ATOM     46  O   UNL A   1      42.024  28.545  24.877  1.00  0.00    -0.237 OA
ATOM     47  O   UNL A   1      44.033  27.804  26.119  1.00  0.00    -0.237 OA
ATOM     48  O   UNL A   1      42.806  26.217  24.684  1.00  0.00    -0.744 OA
ENDBRANCH  41  45
ENDBRANCH  24  38
BRANCH  25  49
ATOM     49  C   UNL A   1      39.571  33.753  36.904  1.00  0.00     0.023 A 
ATOM     50  C   UNL A   1      38.952  33.261  38.062  1.00  0.00     0.031 A 
ATOM     51  C   UNL A   1      39.977  35.100  36.889  1.00  0.00     0.131 A 
ATOM     52  C   UNL A   1      38.730  34.120  39.150  1.00  0.00     0.055 A 
ATOM     53  C   UNL A   1      39.798  35.936  37.990  1.00  0.00     0.041 A 
ATOM     54  F   UNL A   1      40.581  35.615  35.805  1.00  0.00    -0.206 F 
ATOM     55  C   UNL A   1      39.160  35.449  39.127  1.00  0.00     0.022 A 
BRANCH  52  56
ATOM     56  S   UNL A   1      37.812  33.489  40.581  1.00  0.00     0.124 S 
ATOM     57  O   UNL A   1      37.627  34.698  41.375  1.00  0.00    -0.237 OA
ATOM     58  O   UNL A   1      36.613  32.943  39.954  1.00  0.00    -0.237 OA
ATOM     59  O   UNL A   1      38.718  32.498  41.157  1.00  0.00    -0.744 OA
ENDBRANCH  52  56
ENDBRANCH  25  49
BRANCH  37  60
ATOM     60  C   UNL A   1      44.140  28.717  35.394  1.00  0.00     0.023 A 
ATOM     61  C   UNL A   1      43.994  27.645  36.291  1.00  0.00     0.031 A 
ATOM     62  C   UNL A   1      45.413  29.292  35.246  1.00  0.00     0.131 A 
ATOM     63  C   UNL A   1      45.094  27.217  37.051  1.00  0.00     0.055 A 
ATOM     64  C   UNL A   1      46.515  28.827  35.965  1.00  0.00     0.041 A 
ATOM     65  F   UNL A   1      45.604  30.320  34.403  1.00  0.00    -0.206 F 
ATOM     66  C   UNL A   1      46.356  27.792  36.883  1.00  0.00     0.022 A 
BRANCH  63  67
ATOM     67  S   UNL A   1      44.833  25.954  38.326  1.00  0.00     0.124 S 
ATOM     68  O   UNL A   1      44.116  26.703  39.353  1.00  0.00    -0.237 OA
ATOM     69  O   UNL A   1      44.057  24.945  37.613  1.00  0.00    -0.237 OA
ATOM     70  O   UNL A   1      46.190  25.548  38.689  1.00  0.00    -0.744 OA
ENDBRANCH  63  67
ENDBRANCH  37  60
ENDBRANCH  11  12
ENDBRANCH   4   6
ENDBRANCH   1   2
BRANCH   1  71
ATOM     71  C   UNL A   1      31.550  31.908  26.571  1.00  0.00     0.023 C 
BRANCH  71  72
ATOM     72  C   UNL A   1      31.574  30.385  26.442  1.00  0.00     0.023 C 
BRANCH  72  73
ATOM     73  C   UNL A   1      32.341  29.837  25.243  1.00  0.00     0.116 C 
BRANCH  73  74
ATOM     74  N   UNL A   1      31.477  29.421  24.149  1.00  0.00    -0.352 N 
ATOM     75  C   UNL A   1      31.186  28.161  23.696  1.00  0.00     0.258 C 
ATOM     76  H   UNL A   1      31.033  30.153  23.662  1.00  0.00     0.163 HD
ATOM     77  O   UNL A   1      30.472  27.979  22.719  1.00  0.00    -0.269 OA
BRANCH  75  78
ATOM     78  C   UNL A   1      31.797  26.998  24.357  1.00  0.00     0.119 A 
ATOM     79  C   UNL A   1      31.084  26.497  25.475  1.00  0.00     0.052 A 
ATOM     80  C   UNL A   1      33.010  26.410  23.873  1.00  0.00     0.282 A 
ATOM     81  C   UNL A   1      31.649  25.335  26.018  1.00  0.00     0.093 A 
ATOM     82  C   UNL A   1      33.601  25.234  24.394  1.00  0.00     0.098 A 
ATOM     83  N   UNL A   1      31.240  24.577  27.047  1.00  0.00    -0.176 NA
ATOM     84  C   UNL A   1      32.851  24.760  25.463  1.00  0.00     0.026 A 
ATOM     85  N   UNL A   1      32.138  23.576  27.122  1.00  0.00    -0.285 N 
ATOM     86  C   UNL A   1      33.129  23.637  26.185  1.00  0.00     0.114 A 
ATOM     87  H   UNL A   1      32.083  22.860  27.797  1.00  0.00     0.189 HD
BRANCH  80  88
ATOM     88  N   UNL A   1      33.705  27.037  22.763  1.00  0.00     0.063 N 
ATOM     89  O   UNL A   1      34.156  28.173  22.964  1.00  0.00    -0.258 OA
ATOM     90  O   UNL A   1      33.752  26.419  21.695  1.00  0.00    -0.258 OA
ENDBRANCH  80  88
ENDBRANCH  75  78
ENDBRANCH  73  74
ENDBRANCH  72  73
ENDBRANCH  71  72
ENDBRANCH   1  71
TORSDOF 15
ENDMDL
MODEL 3
REMARK VINA RESULT:     -12.0      5.039     10.139
REMARK SMILES O=C(NCCCCNC(=O)c1cc2n[nH]cc2cc1[N+](=O)[O-])c1ccc(-c2c3nc(c(-c4cc(S(=O)(=O)[O-])ccc4F)c4ccc([nH]4)c(-c4cc(S(=O)(=O)[O-])ccc4F)c4nc(c(-c5cc(S(=O)(=O)[O-])ccc5F)c5ccc2[nH]5)C=C4)C=C3)cc1
REMARK SMILES IDX 4 1 3 2 1 3 2 4 23 6 24 7 85 8 25 9 84 10 26 11 27 12 28 13
REMARK SMILES IDX 78 14 29 15 83 16 77 17 79 18 30 19 82 20 76 21 75 22 31 24
REMARK SMILES IDX 63 25 43 26 62 27 44 28 47 29 61 30 80 31 45 32 46 33 60 35
REMARK SMILES IDX 81 36 48 37 32 38 33 39 41 40 34 41 40 42 42 43 39 44 35 45
REMARK SMILES IDX 36 46 37 47 38 48 64 49 65 50 73 51 66 52 72 53 74 54 71 55
REMARK SMILES IDX 67 56 68 57 69 58 70 59 49 60 50 61 58 62 51 63 57 64 59 65
REMARK SMILES IDX 56 66 52 67 53 68 54 69 55 70 5 71 6 72 7 73 8 74 9 75 10 77
REMARK SMILES IDX 11 78 12 79 19 80 13 81 18 82 14 83 17 84 15 85 16 86 20 88
REMARK SMILES IDX 21 89 22 90
REMARK H PARENT 3 5 79 23 47 34 8 76 15 87
REMARK Flexibility Score: inf
ROOT
ATOM      1  C   UNL A   1      33.077  29.158  25.585  1.00  0.00     0.116 C 
ENDROOT
BRANCH   1   2
ATOM      2  N   UNL A   1      32.648  30.462  26.068  1.00  0.00    -0.352 N 
ATOM      3  O   UNL A   1      32.621  32.277  27.402  1.00  0.00    -0.269 OA
ATOM      4  C   UNL A   1      33.208  31.263  27.035  1.00  0.00     0.251 C 
ATOM      5  H   UNL A   1      31.838  30.823  25.640  1.00  0.00     0.163 HD
BRANCH   4   6
ATOM      6  C   UNL A   1      34.500  30.889  27.653  1.00  0.00     0.039 A 
ATOM      7  C   UNL A   1      34.727  29.590  28.113  1.00  0.00     0.014 A 
ATOM      8  C   UNL A   1      35.503  31.857  27.770  1.00  0.00     0.014 A 
ATOM      9  C   UNL A   1      35.890  29.299  28.818  1.00  0.00     0.010 A 
ATOM     10  C   UNL A   1      36.706  31.539  28.408  1.00  0.00     0.010 A 
ATOM     11  C   UNL A   1      36.896  30.267  28.969  1.00  0.00    -0.014 A 
BRANCH  11  12
ATOM     12  C   UNL A   1      38.152  29.911  29.680  1.00  0.00     0.031 A 
ATOM     13  C   UNL A   1      38.447  30.450  31.053  1.00  0.00     0.074 A 
ATOM     14  C   UNL A   1      39.018  29.068  29.083  1.00  0.00     0.049 A 
ATOM     15  N   UNL A   1      39.487  30.236  31.819  1.00  0.00    -0.248 NA
ATOM     16  C   UNL A   1      37.450  31.359  31.637  1.00  0.00     0.031 C 
ATOM     17  C   UNL A   1      38.842  28.490  27.748  1.00  0.00     0.029 A 
ATOM     18  N   UNL A   1      40.206  28.541  29.518  1.00  0.00    -0.354 N 
ATOM     19  C   UNL A   1      39.281  30.992  32.969  1.00  0.00     0.074 A 
ATOM     20  C   UNL A   1      38.029  31.697  32.781  1.00  0.00     0.031 C 
ATOM     21  C   UNL A   1      39.863  27.661  27.490  1.00  0.00     0.029 A 
ATOM     22  C   UNL A   1      40.796  27.692  28.611  1.00  0.00     0.049 A 
ATOM     23  H   UNL A   1      40.599  28.749  30.397  1.00  0.00     0.167 HD
ATOM     24  C   UNL A   1      40.060  31.082  34.076  1.00  0.00     0.034 A 
ATOM     25  C   UNL A   1      41.966  27.029  28.663  1.00  0.00     0.034 A 
ATOM     26  C   UNL A   1      41.302  30.366  34.248  1.00  0.00     0.049 A 
ATOM     27  C   UNL A   1      42.822  27.164  29.890  1.00  0.00     0.074 A 
ATOM     28  C   UNL A   1      42.148  30.353  35.344  1.00  0.00     0.029 A 
ATOM     29  N   UNL A   1      41.885  29.542  33.292  1.00  0.00    -0.354 N 
ATOM     30  N   UNL A   1      42.602  27.869  30.977  1.00  0.00    -0.248 NA
ATOM     31  C   UNL A   1      44.083  26.413  29.902  1.00  0.00     0.031 C 
ATOM     32  C   UNL A   1      43.268  29.574  35.029  1.00  0.00     0.029 A 
ATOM     33  C   UNL A   1      43.092  29.043  33.762  1.00  0.00     0.049 A 
ATOM     34  H   UNL A   1      41.498  29.341  32.409  1.00  0.00     0.167 HD
ATOM     35  C   UNL A   1      43.694  27.637  31.806  1.00  0.00     0.074 A 
ATOM     36  C   UNL A   1      44.559  26.709  31.103  1.00  0.00     0.031 C 
ATOM     37  C   UNL A   1      43.957  28.142  33.037  1.00  0.00     0.034 A 
BRANCH  24  38
ATOM     38  C   UNL A   1      39.610  32.024  35.169  1.00  0.00     0.023 A 
ATOM     39  C   UNL A   1      38.927  31.568  36.310  1.00  0.00     0.031 A 
ATOM     40  C   UNL A   1      39.852  33.405  35.056  1.00  0.00     0.131 A 
ATOM     41  C   UNL A   1      38.453  32.488  37.258  1.00  0.00     0.055 A 
ATOM     42  C   UNL A   1      39.440  34.309  36.039  1.00  0.00     0.041 A 
ATOM     43  F   UNL A   1      40.482  33.903  33.981  1.00  0.00    -0.206 F 
ATOM     44  C   UNL A   1      38.724  33.853  37.142  1.00  0.00     0.022 A 
BRANCH  41  45
ATOM     45  S   UNL A   1      37.360  31.890  38.577  1.00  0.00     0.124 S 
ATOM     46  O   UNL A   1      37.107  30.515  38.154  1.00  0.00    -0.237 OA
ATOM     47  O   UNL A   1      38.186  32.051  39.768  1.00  0.00    -0.237 OA
ATOM     48  O   UNL A   1      36.204  32.781  38.495  1.00  0.00    -0.744 OA
ENDBRANCH  41  45
ENDBRANCH  24  38
BRANCH  25  49
ATOM     49  C   UNL A   1      42.407  26.208  27.501  1.00  0.00     0.023 A 
ATOM     50  C   UNL A   1      42.054  24.855  27.390  1.00  0.00     0.031 A 
ATOM     51  C   UNL A   1      43.202  26.772  26.487  1.00  0.00     0.131 A 
ATOM     52  C   UNL A   1      42.521  24.102  26.301  1.00  0.00     0.055 A 
ATOM     53  C   UNL A   1      43.623  26.032  25.383  1.00  0.00     0.041 A 
ATOM     54  F   UNL A   1      43.560  28.066  26.545  1.00  0.00    -0.206 F 
ATOM     55  C   UNL A   1      43.290  24.684  25.291  1.00  0.00     0.022 A 
BRANCH  52  56
ATOM     56  S   UNL A   1      42.156  22.326  26.254  1.00  0.00     0.124 S 
ATOM     57  O   UNL A   1      42.679  21.880  27.541  1.00  0.00    -0.237 OA
ATOM     58  O   UNL A   1      40.704  22.318  26.115  1.00  0.00    -0.237 OA
ATOM     59  O   UNL A   1      42.895  21.857  25.084  1.00  0.00    -0.744 OA
ENDBRANCH  52  56
ENDBRANCH  25  49
BRANCH  37  60
ATOM     60  C   UNL A   1      45.228  27.674  33.699  1.00  0.00     0.023 A 
ATOM     61  C   UNL A   1      45.251  26.530  34.516  1.00  0.00     0.031 A 
ATOM     62  C   UNL A   1      46.420  28.400  33.538  1.00  0.00     0.131 A 
ATOM     63  C   UNL A   1      46.431  26.177  35.187  1.00  0.00     0.055 A 
ATOM     64  C   UNL A   1      47.604  28.012  34.165  1.00  0.00     0.041 A 
ATOM     65  F   UNL A   1      46.449  29.501  32.770  1.00  0.00    -0.206 F 
ATOM     66  C   UNL A   1      47.612  26.903  35.006  1.00  0.00     0.022 A 
BRANCH  63  67
ATOM     67  S   UNL A   1      46.383  24.803  36.371  1.00  0.00     0.124 S 
ATOM     68  O   UNL A   1      47.262  25.285  37.431  1.00  0.00    -0.237 OA
ATOM     69  O   UNL A   1      44.964  24.726  36.704  1.00  0.00    -0.237 OA
ATOM     70  O   UNL A   1      46.900  23.671  35.604  1.00  0.00    -0.744 OA
ENDBRANCH  63  67
ENDBRANCH  37  60
ENDBRANCH  11  12
ENDBRANCH   4   6
ENDBRANCH   1   2
BRANCH   1  71
ATOM     71  C   UNL A   1      32.215  28.014  26.105  1.00  0.00     0.023 C 
BRANCH  71  72
ATOM     72  C   UNL A   1      32.883  26.639  26.133  1.00  0.00     0.023 C 
BRANCH  72  73
ATOM     73  C   UNL A   1      31.990  25.463  25.748  1.00  0.00     0.116 C 
BRANCH  73  74
ATOM     74  N   UNL A   1      31.804  24.506  26.828  1.00  0.00    -0.352 N 
ATOM     75  C   UNL A   1      32.512  23.370  27.120  1.00  0.00     0.258 C 
ATOM     76  H   UNL A   1      31.058  24.703  27.440  1.00  0.00     0.163 HD
ATOM     77  O   UNL A   1      32.193  22.634  28.045  1.00  0.00    -0.269 OA
BRANCH  75  78
ATOM     78  C   UNL A   1      33.647  22.988  26.267  1.00  0.00     0.119 A 
ATOM     79  C   UNL A   1      34.903  23.508  26.665  1.00  0.00     0.052 A 
ATOM     80  C   UNL A   1      33.479  22.126  25.135  1.00  0.00     0.282 A 
ATOM     81  C   UNL A   1      35.970  23.046  25.881  1.00  0.00     0.093 A 
ATOM     82  C   UNL A   1      34.535  21.636  24.329  1.00  0.00     0.098 A 
ATOM     83  N   UNL A   1      37.284  23.298  25.978  1.00  0.00    -0.176 NA
ATOM     84  C   UNL A   1      35.747  22.144  24.777  1.00  0.00     0.026 A 
ATOM     85  N   UNL A   1      37.852  22.582  24.989  1.00  0.00    -0.285 N 
ATOM     86  C   UNL A   1      36.968  21.862  24.237  1.00  0.00     0.114 A 
ATOM     87  H   UNL A   1      38.823  22.577  24.824  1.00  0.00     0.189 HD
BRANCH  80  88
ATOM     88  N   UNL A   1      32.141  21.699  24.764  1.00  0.00     0.063 N 
ATOM     89  O   UNL A   1      31.813  20.553  25.102  1.00  0.00    -0.258 OA
ATOM     90  O   UNL A   1      31.453  22.484  24.104  1.00  0.00    -0.258 OA
ENDBRANCH  80  88
ENDBRANCH  75  78
ENDBRANCH  73  74
ENDBRANCH  72  73
ENDBRANCH  71  72
ENDBRANCH   1  71
TORSDOF 15
ENDMDL
