MODEL 1
REMARK VINA RESULT:     -12.2      0.000      0.000
REMARK SMILES Nc1nc(N2CCOC[C@H]2C(=O)NCCCCNC(=O)c2ccc(-c3c4nc(c(-c5cc(S(=O)(=O)[O-])ccc5F)c5ccc([nH]5)c(-c5cc(S(=O)(=O)[O-])ccc5F)c5nc(c(-c6cc(S(=O)(=O)[O-])ccc6F)c6ccc3[nH]6)C=C5)C=C4)cc2)ccc1[N+](=O)[O-]
REMARK SMILES IDX 16 1 15 2 14 3 13 4 11 5 12 6 10 8 5 9 6 10 7 11 9 12 8 13
REMARK SMILES IDX 4 14 2 15 3 16 86 17 85 18 84 19 1 20 87 23 88 24 89 25
REMARK SMILES IDX 17 26 18 27 19 28 20 30 21 31 22 32 83 33 23 34 82 35 24 36
REMARK SMILES IDX 25 37 26 38 76 39 27 40 81 41 75 42 77 43 28 44 80 45 74 46
REMARK SMILES IDX 73 47 29 49 61 50 41 51 60 52 42 53 45 54 59 55 78 56 43 57
REMARK SMILES IDX 44 58 58 60 79 61 46 62 30 63 31 64 39 65 32 66 38 67 40 68
REMARK SMILES IDX 37 69 33 70 34 71 35 72 36 73 62 74 63 75 71 76 64 77 70 78
REMARK SMILES IDX 72 79 69 80 65 81 66 82 67 83 68 84 47 85 48 86 56 87 49 88
REMARK SMILES IDX 55 89 57 90 54 91 50 92 51 93 52 94 53 95
REMARK H PARENT 13 7 1 21 1 22 18 29 77 48 45 59
REMARK Flexibility Score: inf
ROOT
ATOM      1  C   UNL A   1      31.593  31.353  26.634  1.00  0.00     0.023 C 
ENDROOT
BRANCH   1   2
ATOM      2  C   UNL A   1      31.861  30.117  25.780  1.00  0.00     0.023 C 
BRANCH   2   3
ATOM      3  C   UNL A   1      31.884  28.803  26.559  1.00  0.00     0.116 C 
BRANCH   3   4
ATOM      4  N   UNL A   1      33.018  27.987  26.185  1.00  0.00    -0.354 N 
ATOM      5  C   UNL A   1      33.117  26.711  25.724  1.00  0.00     0.245 C 
ATOM      6  O   UNL A   1      34.275  26.333  25.485  1.00  0.00    -0.273 OA
ATOM      7  H   UNL A   1      33.885  28.443  26.285  1.00  0.00     0.163 HD
BRANCH   5   8
ATOM      8  C   UNL A   1      31.925  25.783  25.389  1.00  0.00     0.199 C 
ATOM      9  N   UNL A   1      31.417  25.794  23.995  1.00  0.00    -0.340 N 
ATOM     10  C   UNL A   1      31.888  24.764  23.076  1.00  0.00     0.147 C 
ATOM     11  C   UNL A   1      31.893  23.394  23.753  1.00  0.00     0.181 C 
ATOM     12  C   UNL A   1      32.106  24.342  25.916  1.00  0.00     0.195 C 
ATOM     13  O   UNL A   1      32.645  23.405  24.970  1.00  0.00    -0.377 OA
BRANCH   9  14
ATOM     14  C   UNL A   1      30.578  26.807  23.580  1.00  0.00     0.132 A 
ATOM     15  C   UNL A   1      30.274  28.824  22.408  1.00  0.00     0.204 A 
ATOM     16  N   UNL A   1      31.084  27.840  22.875  1.00  0.00    -0.207 NA
ATOM     17  C   UNL A   1      28.908  28.822  22.673  1.00  0.00     0.311 A 
ATOM     18  C   UNL A   1      28.378  27.799  23.457  1.00  0.00     0.093 A 
ATOM     19  C   UNL A   1      29.225  26.794  23.911  1.00  0.00     0.054 A 
BRANCH  15  20
ATOM     20  N   UNL A   1      30.947  29.834  21.755  1.00  0.00    -0.378 N 
ATOM     21  H   UNL A   1      31.007  30.728  22.162  1.00  0.00     0.158 HD
ATOM     22  H   UNL A   1      31.368  29.660  20.883  1.00  0.00     0.158 HD
ENDBRANCH  15  20
BRANCH  17  23
ATOM     23  N   UNL A   1      28.001  29.834  22.135  1.00  0.00     0.066 N 
ATOM     24  O   UNL A   1      28.167  30.178  20.952  1.00  0.00    -0.258 OA
ATOM     25  O   UNL A   1      27.136  30.324  22.875  1.00  0.00    -0.258 OA
ENDBRANCH  17  23
ENDBRANCH   9  14
ENDBRANCH   5   8
ENDBRANCH   3   4
ENDBRANCH   2   3
ENDBRANCH   1   2
BRANCH   1  26
ATOM     26  C   UNL A   1      32.840  32.134  27.029  1.00  0.00     0.116 C 
BRANCH  26  27
ATOM     27  N   UNL A   1      32.572  33.495  27.469  1.00  0.00    -0.352 N 
ATOM     28  C   UNL A   1      33.234  34.228  28.433  1.00  0.00     0.251 C 
ATOM     29  H   UNL A   1      31.823  33.952  27.022  1.00  0.00     0.163 HD
ATOM     30  O   UNL A   1      32.828  35.331  28.754  1.00  0.00    -0.269 OA
BRANCH  28  31
ATOM     31  C   UNL A   1      34.412  33.624  29.095  1.00  0.00     0.039 A 
ATOM     32  C   UNL A   1      34.218  32.592  30.015  1.00  0.00     0.014 A 
ATOM     33  C   UNL A   1      35.703  34.038  28.757  1.00  0.00     0.014 A 
ATOM     34  C   UNL A   1      35.326  31.931  30.548  1.00  0.00     0.010 A 
ATOM     35  C   UNL A   1      36.798  33.317  29.215  1.00  0.00     0.010 A 
ATOM     36  C   UNL A   1      36.625  32.267  30.129  1.00  0.00    -0.014 A 
BRANCH  36  37
ATOM     37  C   UNL A   1      37.818  31.578  30.681  1.00  0.00     0.031 A 
ATOM     38  C   UNL A   1      38.287  31.916  32.072  1.00  0.00     0.074 A 
ATOM     39  C   UNL A   1      38.503  30.697  29.926  1.00  0.00     0.049 A 
ATOM     40  N   UNL A   1      39.341  31.493  32.720  1.00  0.00    -0.248 NA
ATOM     41  C   UNL A   1      37.481  32.896  32.816  1.00  0.00     0.031 C 
ATOM     42  C   UNL A   1      38.175  30.326  28.547  1.00  0.00     0.029 A 
ATOM     43  N   UNL A   1      39.617  29.950  30.211  1.00  0.00    -0.354 N 
ATOM     44  C   UNL A   1      39.331  32.166  33.938  1.00  0.00     0.074 A 
ATOM     45  C   UNL A   1      38.218  33.089  33.897  1.00  0.00     0.031 C 
ATOM     46  C   UNL A   1      39.045  29.394  28.123  1.00  0.00     0.029 A 
ATOM     47  C   UNL A   1      40.013  29.127  29.181  1.00  0.00     0.049 A 
ATOM     48  H   UNL A   1      40.091  29.998  31.073  1.00  0.00     0.167 HD
ATOM     49  C   UNL A   1      40.149  32.005  35.008  1.00  0.00     0.034 A 
ATOM     50  C   UNL A   1      41.035  28.253  29.109  1.00  0.00     0.034 A 
ATOM     51  C   UNL A   1      41.239  31.062  35.040  1.00  0.00     0.049 A 
ATOM     52  C   UNL A   1      41.925  28.080  30.316  1.00  0.00     0.074 A 
ATOM     53  C   UNL A   1      42.125  30.797  36.070  1.00  0.00     0.029 A 
ATOM     54  N   UNL A   1      41.586  30.218  33.992  1.00  0.00    -0.354 N 
ATOM     55  N   UNL A   1      41.882  28.701  31.473  1.00  0.00    -0.248 NA
ATOM     56  C   UNL A   1      42.985  27.069  30.214  1.00  0.00     0.031 C 
ATOM     57  C   UNL A   1      43.033  29.825  35.628  1.00  0.00     0.029 A 
ATOM     58  C   UNL A   1      42.672  29.436  34.348  1.00  0.00     0.049 A 
ATOM     59  H   UNL A   1      41.126  30.182  33.122  1.00  0.00     0.167 HD
ATOM     60  C   UNL A   1      42.882  28.121  32.251  1.00  0.00     0.074 A 
ATOM     61  C   UNL A   1      43.494  27.093  31.436  1.00  0.00     0.031 C 
ATOM     62  C   UNL A   1      43.262  28.410  33.523  1.00  0.00     0.034 A 
BRANCH  49  63
ATOM     63  C   UNL A   1      39.883  32.876  36.213  1.00  0.00     0.023 A 
ATOM     64  C   UNL A   1      39.082  32.426  37.279  1.00  0.00     0.031 A 
ATOM     65  C   UNL A   1      40.384  34.188  36.277  1.00  0.00     0.131 A 
ATOM     66  C   UNL A   1      38.728  33.308  38.312  1.00  0.00     0.055 A 
ATOM     67  C   UNL A   1      40.102  35.031  37.355  1.00  0.00     0.041 A 
ATOM     68  F   UNL A   1      41.136  34.682  35.281  1.00  0.00    -0.206 F 
ATOM     69  C   UNL A   1      39.255  34.600  38.372  1.00  0.00     0.022 A 
BRANCH  66  70
ATOM     70  S   UNL A   1      37.441  32.794  39.483  1.00  0.00     0.124 S 
ATOM     71  O   UNL A   1      36.257  32.775  38.627  1.00  0.00    -0.237 OA
ATOM     72  O   UNL A   1      37.925  31.494  39.934  1.00  0.00    -0.237 OA
ATOM     73  O   UNL A   1      37.455  33.850  40.493  1.00  0.00    -0.744 OA
ENDBRANCH  66  70
ENDBRANCH  49  63
BRANCH  50  74
ATOM     74  C   UNL A   1      41.271  27.449  27.874  1.00  0.00     0.023 A 
ATOM     75  C   UNL A   1      40.976  26.076  27.843  1.00  0.00     0.031 A 
ATOM     76  C   UNL A   1      41.857  28.022  26.732  1.00  0.00     0.131 A 
ATOM     77  C   UNL A   1      41.327  25.308  26.722  1.00  0.00     0.055 A 
ATOM     78  C   UNL A   1      42.154  27.264  25.597  1.00  0.00     0.041 A 
ATOM     79  F   UNL A   1      42.152  29.331  26.704  1.00  0.00    -0.206 F 
ATOM     80  C   UNL A   1      41.904  25.894  25.595  1.00  0.00     0.022 A 
BRANCH  77  81
ATOM     81  S   UNL A   1      41.114  23.508  26.804  1.00  0.00     0.124 S 
ATOM     82  O   UNL A   1      39.698  23.362  26.487  1.00  0.00    -0.237 OA
ATOM     83  O   UNL A   1      42.050  23.046  25.784  1.00  0.00    -0.237 OA
ATOM     84  O   UNL A   1      41.484  23.184  28.180  1.00  0.00    -0.744 OA
ENDBRANCH  77  81
ENDBRANCH  50  74
BRANCH  62  85
ATOM     85  C   UNL A   1      44.345  27.545  34.121  1.00  0.00     0.023 A 
ATOM     86  C   UNL A   1      44.061  26.296  34.699  1.00  0.00     0.031 A 
ATOM     87  C   UNL A   1      45.675  28.001  34.148  1.00  0.00     0.131 A 
ATOM     88  C   UNL A   1      45.078  25.580  35.349  1.00  0.00     0.055 A 
ATOM     89  C   UNL A   1      46.695  27.252  34.736  1.00  0.00     0.041 A 
ATOM     90  F   UNL A   1      46.003  29.186  33.609  1.00  0.00    -0.206 F 
ATOM     91  C   UNL A   1      46.396  26.044  35.357  1.00  0.00     0.022 A 
BRANCH  88  92
ATOM     92  S   UNL A   1      44.630  24.095  36.289  1.00  0.00     0.124 S 
ATOM     93  O   UNL A   1      44.476  24.625  37.640  1.00  0.00    -0.237 OA
ATOM     94  O   UNL A   1      43.401  23.668  35.628  1.00  0.00    -0.237 OA
ATOM     95  O   UNL A   1      45.777  23.210  36.098  1.00  0.00    -0.744 OA
ENDBRANCH  88  92
ENDBRANCH  62  85
ENDBRANCH  36  37
ENDBRANCH  28  31
ENDBRANCH  26  27
ENDBRANCH   1  26
TORSDOF 17
ENDMDL
MODEL 2
REMARK VINA RESULT:     -12.1      5.515     10.810
REMARK SMILES Nc1nc(N2CCOC[C@H]2C(=O)NCCCCNC(=O)c2ccc(-c3c4nc(c(-c5cc(S(=O)(=O)[O-])ccc5F)c5ccc([nH]5)c(-c5cc(S(=O)(=O)[O-])ccc5F)c5nc(c(-c6cc(S(=O)(=O)[O-])ccc6F)c6ccc3[nH]6)C=C5)C=C4)cc2)ccc1[N+](=O)[O-]
REMARK SMILES IDX 16 1 15 2 14 3 13 4 11 5 12 6 10 8 5 9 6 10 7 11 9 12 8 13
REMARK SMILES IDX 4 14 2 15 3 16 86 17 85 18 84 19 1 20 87 23 88 24 89 25
REMARK SMILES IDX 17 26 18 27 19 28 20 30 21 31 22 32 83 33 23 34 82 35 24 36
REMARK SMILES IDX 25 37 26 38 76 39 27 40 81 41 75 42 77 43 28 44 80 45 74 46
REMARK SMILES IDX 73 47 29 49 61 50 41 51 60 52 42 53 45 54 59 55 78 56 43 57
REMARK SMILES IDX 44 58 58 60 79 61 46 62 30 63 31 64 39 65 32 66 38 67 40 68
REMARK SMILES IDX 37 69 33 70 34 71 35 72 36 73 62 74 63 75 71 76 64 77 70 78
REMARK SMILES IDX 72 79 69 80 65 81 66 82 67 83 68 84 47 85 48 86 56 87 49 88
REMARK SMILES IDX 55 89 57 90 54 91 50 92 51 93 52 94 53 95
REMARK H PARENT 13 7 1 21 1 22 18 29 77 48 45 59
REMARK Flexibility Score: inf
ROOT
ATOM      1  C   UNL A   1      36.100  22.359  25.418  1.00  0.00     0.023 C 
ENDROOT
BRANCH   1   2
ATOM      2  C   UNL A   1      35.543  23.630  26.053  1.00  0.00     0.023 C 
BRANCH   2   3
ATOM      3  C   UNL A   1      34.341  24.228  25.322  1.00  0.00     0.116 C 
BRANCH   3   4
ATOM      4  N   UNL A   1      34.385  23.932  23.906  1.00  0.00    -0.354 N 
ATOM      5  C   UNL A   1      33.527  23.275  23.081  1.00  0.00     0.245 C 
ATOM      6  O   UNL A   1      33.884  23.224  21.892  1.00  0.00    -0.273 OA
ATOM      7  H   UNL A   1      35.190  24.273  23.454  1.00  0.00     0.163 HD
BRANCH   5   8
ATOM      8  C   UNL A   1      32.146  22.708  23.489  1.00  0.00     0.199 C 
ATOM      9  N   UNL A   1      32.104  21.759  24.630  1.00  0.00    -0.340 N 
ATOM     10  C   UNL A   1      31.773  22.279  25.952  1.00  0.00     0.147 C 
ATOM     11  C   UNL A   1      30.597  23.252  25.874  1.00  0.00     0.181 C 
ATOM     12  C   UNL A   1      31.052  23.792  23.610  1.00  0.00     0.195 C 
ATOM     13  O   UNL A   1      30.840  24.304  24.935  1.00  0.00    -0.377 OA
BRANCH   9  14
ATOM     14  C   UNL A   1      32.445  20.438  24.435  1.00  0.00     0.132 A 
ATOM     15  C   UNL A   1      32.476  18.546  23.036  1.00  0.00     0.204 A 
ATOM     16  N   UNL A   1      32.107  19.831  23.278  1.00  0.00    -0.207 NA
ATOM     17  C   UNL A   1      33.175  17.804  23.983  1.00  0.00     0.311 A 
ATOM     18  C   UNL A   1      33.473  18.394  25.211  1.00  0.00     0.093 A 
ATOM     19  C   UNL A   1      33.099  19.715  25.429  1.00  0.00     0.054 A 
BRANCH  15  20
ATOM     20  N   UNL A   1      32.010  18.052  21.837  1.00  0.00    -0.378 N 
ATOM     21  H   UNL A   1      31.116  17.643  21.787  1.00  0.00     0.158 HD
ATOM     22  H   UNL A   1      32.571  18.109  21.031  1.00  0.00     0.158 HD
ENDBRANCH  15  20
BRANCH  17  23
ATOM     23  N   UNL A   1      33.637  16.441  23.730  1.00  0.00     0.066 N 
ATOM     24  O   UNL A   1      34.201  16.223  22.644  1.00  0.00    -0.258 OA
ATOM     25  O   UNL A   1      33.425  15.564  24.579  1.00  0.00    -0.258 OA
ENDBRANCH  17  23
ENDBRANCH   9  14
ENDBRANCH   5   8
ENDBRANCH   3   4
ENDBRANCH   2   3
ENDBRANCH   1   2
BRANCH   1  26
ATOM     26  C   UNL A   1      37.557  22.456  24.980  1.00  0.00     0.116 C 
BRANCH  26  27
ATOM     27  N   UNL A   1      38.400  21.384  25.488  1.00  0.00    -0.352 N 
ATOM     28  C   UNL A   1      39.506  21.482  26.308  1.00  0.00     0.251 C 
ATOM     29  H   UNL A   1      38.150  20.472  25.212  1.00  0.00     0.163 HD
ATOM     30  O   UNL A   1      40.165  20.492  26.573  1.00  0.00    -0.269 OA
BRANCH  28  31
ATOM     31  C   UNL A   1      39.895  22.818  26.813  1.00  0.00     0.039 A 
ATOM     32  C   UNL A   1      40.835  22.906  27.842  1.00  0.00     0.014 A 
ATOM     33  C   UNL A   1      39.375  23.975  26.228  1.00  0.00     0.014 A 
ATOM     34  C   UNL A   1      41.302  24.161  28.238  1.00  0.00     0.010 A 
ATOM     35  C   UNL A   1      39.910  25.213  26.558  1.00  0.00     0.010 A 
ATOM     36  C   UNL A   1      40.866  25.323  27.578  1.00  0.00    -0.014 A 
BRANCH  36  37
ATOM     37  C   UNL A   1      41.349  26.668  27.981  1.00  0.00     0.031 A 
ATOM     38  C   UNL A   1      42.775  27.058  27.690  1.00  0.00     0.074 A 
ATOM     39  C   UNL A   1      40.534  27.510  28.646  1.00  0.00     0.049 A 
ATOM     40  N   UNL A   1      43.422  28.146  28.018  1.00  0.00    -0.248 NA
ATOM     41  C   UNL A   1      43.591  26.069  26.969  1.00  0.00     0.031 C 
ATOM     42  C   UNL A   1      39.149  27.225  29.029  1.00  0.00     0.029 A 
ATOM     43  N   UNL A   1      40.750  28.780  29.116  1.00  0.00    -0.354 N 
ATOM     44  C   UNL A   1      44.723  27.963  27.556  1.00  0.00     0.074 A 
ATOM     45  C   UNL A   1      44.790  26.626  27.009  1.00  0.00     0.031 C 
ATOM     46  C   UNL A   1      38.630  28.303  29.640  1.00  0.00     0.029 A 
ATOM     47  C   UNL A   1      39.651  29.342  29.726  1.00  0.00     0.049 A 
ATOM     48  H   UNL A   1      41.612  29.247  29.027  1.00  0.00     0.167 HD
ATOM     49  C   UNL A   1      45.757  28.842  27.553  1.00  0.00     0.034 A 
ATOM     50  C   UNL A   1      39.490  30.559  30.280  1.00  0.00     0.034 A 
ATOM     51  C   UNL A   1      45.665  30.180  28.080  1.00  0.00     0.049 A 
ATOM     52  C   UNL A   1      40.650  31.524  30.254  1.00  0.00     0.074 A 
ATOM     53  C   UNL A   1      46.637  31.164  28.119  1.00  0.00     0.029 A 
ATOM     54  N   UNL A   1      44.524  30.726  28.656  1.00  0.00    -0.354 N 
ATOM     55  N   UNL A   1      41.864  31.349  29.784  1.00  0.00    -0.248 NA
ATOM     56  C   UNL A   1      40.407  32.862  30.810  1.00  0.00     0.031 C 
ATOM     57  C   UNL A   1      46.097  32.289  28.756  1.00  0.00     0.029 A 
ATOM     58  C   UNL A   1      44.768  32.030  29.054  1.00  0.00     0.049 A 
ATOM     59  H   UNL A   1      43.667  30.254  28.765  1.00  0.00     0.167 HD
ATOM     60  C   UNL A   1      42.514  32.570  29.949  1.00  0.00     0.074 A 
ATOM     61  C   UNL A   1      41.551  33.473  30.544  1.00  0.00     0.031 C 
ATOM     62  C   UNL A   1      43.790  32.916  29.638  1.00  0.00     0.034 A 
BRANCH  49  63
ATOM     63  C   UNL A   1      47.063  28.363  26.963  1.00  0.00     0.023 A 
ATOM     64  C   UNL A   1      47.234  28.233  25.572  1.00  0.00     0.031 A 
ATOM     65  C   UNL A   1      48.129  27.976  27.794  1.00  0.00     0.131 A 
ATOM     66  C   UNL A   1      48.400  27.644  25.060  1.00  0.00     0.055 A 
ATOM     67  C   UNL A   1      49.324  27.475  27.272  1.00  0.00     0.041 A 
ATOM     68  F   UNL A   1      48.018  28.055  29.129  1.00  0.00    -0.206 F 
ATOM     69  C   UNL A   1      49.458  27.289  25.899  1.00  0.00     0.022 A 
BRANCH  66  70
ATOM     70  S   UNL A   1      48.443  27.200  23.302  1.00  0.00     0.124 S 
ATOM     71  O   UNL A   1      47.394  28.058  22.757  1.00  0.00    -0.237 OA
ATOM     72  O   UNL A   1      49.809  27.540  22.923  1.00  0.00    -0.237 OA
ATOM     73  O   UNL A   1      48.133  25.771  23.302  1.00  0.00    -0.744 OA
ENDBRANCH  66  70
ENDBRANCH  49  63
BRANCH  50  74
ATOM     74  C   UNL A   1      38.186  30.960  30.885  1.00  0.00     0.023 A 
ATOM     75  C   UNL A   1      37.196  31.585  30.109  1.00  0.00     0.031 A 
ATOM     76  C   UNL A   1      37.935  30.787  32.257  1.00  0.00     0.131 A 
ATOM     77  C   UNL A   1      36.032  32.076  30.719  1.00  0.00     0.055 A 
ATOM     78  C   UNL A   1      36.749  31.227  32.850  1.00  0.00     0.041 A 
ATOM     79  F   UNL A   1      38.841  30.187  33.043  1.00  0.00    -0.206 F 
ATOM     80  C   UNL A   1      35.796  31.892  32.082  1.00  0.00     0.022 A 
BRANCH  77  81
ATOM     81  S   UNL A   1      34.876  33.054  29.720  1.00  0.00     0.124 S 
ATOM     82  O   UNL A   1      33.990  33.602  30.741  1.00  0.00    -0.237 OA
ATOM     83  O   UNL A   1      35.769  34.006  29.069  1.00  0.00    -0.237 OA
ATOM     84  O   UNL A   1      34.271  32.063  28.833  1.00  0.00    -0.744 OA
ENDBRANCH  77  81
ENDBRANCH  50  74
BRANCH  62  85
ATOM     85  C   UNL A   1      44.180  34.355  29.875  1.00  0.00     0.023 A 
ATOM     86  C   UNL A   1      44.071  35.328  28.867  1.00  0.00     0.031 A 
ATOM     87  C   UNL A   1      44.706  34.746  31.119  1.00  0.00     0.131 A 
ATOM     88  C   UNL A   1      44.556  36.625  29.094  1.00  0.00     0.055 A 
ATOM     89  C   UNL A   1      45.124  36.055  31.360  1.00  0.00     0.041 A 
ATOM     90  F   UNL A   1      44.831  33.858  32.118  1.00  0.00    -0.206 F 
ATOM     91  C   UNL A   1      45.068  36.998  30.339  1.00  0.00     0.022 A 
BRANCH  88  92
ATOM     92  S   UNL A   1      44.622  37.784  27.700  1.00  0.00     0.124 S 
ATOM     93  O   UNL A   1      43.260  37.713  27.180  1.00  0.00    -0.237 OA
ATOM     94  O   UNL A   1      44.990  39.036  28.354  1.00  0.00    -0.237 OA
ATOM     95  O   UNL A   1      45.648  37.214  26.829  1.00  0.00    -0.744 OA
ENDBRANCH  88  92
ENDBRANCH  62  85
ENDBRANCH  36  37
ENDBRANCH  28  31
ENDBRANCH  26  27
ENDBRANCH   1  26
TORSDOF 17
ENDMDL
MODEL 3
REMARK VINA RESULT:     -12.1      1.407      1.939
REMARK SMILES Nc1nc(N2CCOC[C@H]2C(=O)NCCCCNC(=O)c2ccc(-c3c4nc(c(-c5cc(S(=O)(=O)[O-])ccc5F)c5ccc([nH]5)c(-c5cc(S(=O)(=O)[O-])ccc5F)c5nc(c(-c6cc(S(=O)(=O)[O-])ccc6F)c6ccc3[nH]6)C=C5)C=C4)cc2)ccc1[N+](=O)[O-]
REMARK SMILES IDX 16 1 15 2 14 3 13 4 11 5 12 6 10 8 5 9 6 10 7 11 9 12 8 13
REMARK SMILES IDX 4 14 2 15 3 16 86 17 85 18 84 19 1 20 87 23 88 24 89 25
REMARK SMILES IDX 17 26 18 27 19 28 20 30 21 31 22 32 83 33 23 34 82 35 24 36
REMARK SMILES IDX 25 37 26 38 76 39 27 40 81 41 75 42 77 43 28 44 80 45 74 46
REMARK SMILES IDX 73 47 29 49 61 50 41 51 60 52 42 53 45 54 59 55 78 56 43 57
REMARK SMILES IDX 44 58 58 60 79 61 46 62 30 63 31 64 39 65 32 66 38 67 40 68
REMARK SMILES IDX 37 69 33 70 34 71 35 72 36 73 62 74 63 75 71 76 64 77 70 78
REMARK SMILES IDX 72 79 69 80 65 81 66 82 67 83 68 84 47 85 48 86 56 87 49 88
REMARK SMILES IDX 55 89 57 90 54 91 50 92 51 93 52 94 53 95
REMARK H PARENT 13 7 1 21 1 22 18 29 77 48 45 59
REMARK Flexibility Score: inf
ROOT
ATOM      1  C   UNL A   1      31.815  29.354  26.277  1.00  0.00     0.023 C 
ENDROOT
BRANCH   1   2
ATOM      2  C   UNL A   1      31.543  28.282  27.329  1.00  0.00     0.023 C 
BRANCH   2   3
ATOM      3  C   UNL A   1      31.544  26.852  26.790  1.00  0.00     0.116 C 
BRANCH   3   4
ATOM      4  N   UNL A   1      32.863  26.454  26.351  1.00  0.00    -0.354 N 
ATOM      5  C   UNL A   1      33.287  25.592  25.388  1.00  0.00     0.245 C 
ATOM      6  O   UNL A   1      34.520  25.507  25.272  1.00  0.00    -0.273 OA
ATOM      7  H   UNL A   1      33.594  26.891  26.844  1.00  0.00     0.163 HD
BRANCH   5   8
ATOM      8  C   UNL A   1      32.372  24.829  24.401  1.00  0.00     0.199 C 
ATOM      9  N   UNL A   1      32.069  25.481  23.102  1.00  0.00    -0.340 N 
ATOM     10  C   UNL A   1      32.866  25.111  21.938  1.00  0.00     0.147 C 
ATOM     11  C   UNL A   1      33.063  23.597  21.873  1.00  0.00     0.181 C 
ATOM     12  C   UNL A   1      32.775  23.349  24.214  1.00  0.00     0.195 C 
ATOM     13  O   UNL A   1      33.622  23.081  23.085  1.00  0.00    -0.377 OA
BRANCH   9  14
ATOM     14  C   UNL A   1      31.103  26.462  23.037  1.00  0.00     0.132 A 
ATOM     15  C   UNL A   1      30.451  28.609  22.331  1.00  0.00     0.204 A 
ATOM     16  N   UNL A   1      31.398  27.644  22.457  1.00  0.00    -0.207 NA
ATOM     17  C   UNL A   1      29.165  28.430  22.829  1.00  0.00     0.311 A 
ATOM     18  C   UNL A   1      28.862  27.242  23.492  1.00  0.00     0.093 A 
ATOM     19  C   UNL A   1      29.843  26.262  23.595  1.00  0.00     0.054 A 
BRANCH  15  20
ATOM     20  N   UNL A   1      30.920  29.776  21.766  1.00  0.00    -0.378 N 
ATOM     21  H   UNL A   1      30.889  29.897  20.790  1.00  0.00     0.158 HD
ATOM     22  H   UNL A   1      31.287  30.487  22.339  1.00  0.00     0.158 HD
ENDBRANCH  15  20
BRANCH  17  23
ATOM     23  N   UNL A   1      28.108  29.425  22.657  1.00  0.00     0.066 N 
ATOM     24  O   UNL A   1      27.196  29.439  23.501  1.00  0.00    -0.258 OA
ATOM     25  O   UNL A   1      28.145  30.182  21.677  1.00  0.00    -0.258 OA
ENDBRANCH  17  23
ENDBRANCH   9  14
ENDBRANCH   5   8
ENDBRANCH   3   4
ENDBRANCH   2   3
ENDBRANCH   1   2
BRANCH   1  26
ATOM     26  C   UNL A   1      33.134  30.097  26.455  1.00  0.00     0.116 C 
BRANCH  26  27
ATOM     27  N   UNL A   1      32.980  31.482  26.876  1.00  0.00    -0.352 N 
ATOM     28  C   UNL A   1      33.822  32.232  27.672  1.00  0.00     0.251 C 
ATOM     29  H   UNL A   1      32.173  31.943  26.552  1.00  0.00     0.163 HD
ATOM     30  O   UNL A   1      33.506  33.358  28.012  1.00  0.00    -0.269 OA
BRANCH  28  31
ATOM     31  C   UNL A   1      35.087  31.619  28.136  1.00  0.00     0.039 A 
ATOM     32  C   UNL A   1      36.249  32.393  28.152  1.00  0.00     0.014 A 
ATOM     33  C   UNL A   1      35.105  30.305  28.610  1.00  0.00     0.014 A 
ATOM     34  C   UNL A   1      37.417  31.865  28.706  1.00  0.00     0.010 A 
ATOM     35  C   UNL A   1      36.240  29.818  29.245  1.00  0.00     0.010 A 
ATOM     36  C   UNL A   1      37.414  30.584  29.285  1.00  0.00    -0.014 A 
BRANCH  36  37
ATOM     37  C   UNL A   1      38.643  30.002  29.880  1.00  0.00     0.031 A 
ATOM     38  C   UNL A   1      39.083  30.449  31.250  1.00  0.00     0.074 A 
ATOM     39  C   UNL A   1      39.385  29.121  29.180  1.00  0.00     0.049 A 
ATOM     40  N   UNL A   1      40.157  30.129  31.924  1.00  0.00    -0.248 NA
ATOM     41  C   UNL A   1      38.215  31.421  31.932  1.00  0.00     0.031 C 
ATOM     42  C   UNL A   1      39.087  28.651  27.824  1.00  0.00     0.029 A 
ATOM     43  N   UNL A   1      40.540  28.461  29.511  1.00  0.00    -0.354 N 
ATOM     44  C   UNL A   1      40.099  30.871  33.100  1.00  0.00     0.074 A 
ATOM     45  C   UNL A   1      38.933  31.721  33.002  1.00  0.00     0.031 C 
ATOM     46  C   UNL A   1      40.015  27.750  27.458  1.00  0.00     0.029 A 
ATOM     47  C   UNL A   1      40.991  27.604  28.532  1.00  0.00     0.049 A 
ATOM     48  H   UNL A   1      41.005  28.588  30.370  1.00  0.00     0.167 HD
ATOM     49  C   UNL A   1      40.919  30.822  34.179  1.00  0.00     0.034 A 
ATOM     50  C   UNL A   1      42.064  26.790  28.514  1.00  0.00     0.034 A 
ATOM     51  C   UNL A   1      42.063  29.950  34.270  1.00  0.00     0.049 A 
ATOM     52  C   UNL A   1      42.956  26.743  29.731  1.00  0.00     0.074 A 
ATOM     53  C   UNL A   1      42.958  29.801  35.315  1.00  0.00     0.029 A 
ATOM     54  N   UNL A   1      42.467  29.069  33.274  1.00  0.00    -0.354 N 
ATOM     55  N   UNL A   1      42.869  27.427  30.850  1.00  0.00    -0.248 NA
ATOM     56  C   UNL A   1      44.075  25.794  29.692  1.00  0.00     0.031 C 
ATOM     57  C   UNL A   1      43.925  28.861  34.934  1.00  0.00     0.029 A 
ATOM     58  C   UNL A   1      43.596  28.376  33.678  1.00  0.00     0.049 A 
ATOM     59  H   UNL A   1      42.015  28.955  32.406  1.00  0.00     0.167 HD
ATOM     60  C   UNL A   1      43.897  26.956  31.662  1.00  0.00     0.074 A 
ATOM     61  C   UNL A   1      44.575  25.921  30.911  1.00  0.00     0.031 C 
ATOM     62  C   UNL A   1      44.252  27.341  32.916  1.00  0.00     0.034 A 
BRANCH  49  63
ATOM     63  C   UNL A   1      40.594  31.745  35.331  1.00  0.00     0.023 A 
ATOM     64  C   UNL A   1      39.578  31.435  36.253  1.00  0.00     0.031 A 
ATOM     65  C   UNL A   1      41.262  32.973  35.479  1.00  0.00     0.131 A 
ATOM     66  C   UNL A   1      39.195  32.377  37.220  1.00  0.00     0.055 A 
ATOM     67  C   UNL A   1      40.938  33.868  36.502  1.00  0.00     0.041 A 
ATOM     68  F   UNL A   1      42.226  33.335  34.618  1.00  0.00    -0.206 F 
ATOM     69  C   UNL A   1      39.887  33.581  37.368  1.00  0.00     0.022 A 
BRANCH  66  70
ATOM     70  S   UNL A   1      37.679  32.075  38.168  1.00  0.00     0.124 S 
ATOM     71  O   UNL A   1      37.347  30.712  37.763  1.00  0.00    -0.237 OA
ATOM     72  O   UNL A   1      38.128  32.241  39.546  1.00  0.00    -0.237 OA
ATOM     73  O   UNL A   1      36.760  33.104  37.683  1.00  0.00    -0.744 OA
ENDBRANCH  66  70
ENDBRANCH  49  63
BRANCH  50  74
ATOM     74  C   UNL A   1      42.356  25.932  27.330  1.00  0.00     0.023 A 
ATOM     75  C   UNL A   1      41.925  24.596  27.287  1.00  0.00     0.031 A 
ATOM     76  C   UNL A   1      43.125  26.409  26.255  1.00  0.00     0.131 A 
ATOM     77  C   UNL A   1      42.321  23.763  26.228  1.00  0.00     0.055 A 
ATOM     78  C   UNL A   1      43.470  25.592  25.175  1.00  0.00     0.041 A 
ATOM     79  F   UNL A   1      43.556  27.680  26.239  1.00  0.00    -0.206 F 
ATOM     80  C   UNL A   1      43.081  24.255  25.167  1.00  0.00     0.022 A 
BRANCH  77  81
ATOM     81  S   UNL A   1      41.913  21.997  26.315  1.00  0.00     0.124 S 
ATOM     82  O   UNL A   1      42.773  21.443  25.275  1.00  0.00    -0.237 OA
ATOM     83  O   UNL A   1      42.277  21.671  27.689  1.00  0.00    -0.237 OA
ATOM     84  O   UNL A   1      40.481  21.965  26.027  1.00  0.00    -0.744 OA
ENDBRANCH  77  81
ENDBRANCH  50  74
BRANCH  62  85
ATOM     85  C   UNL A   1      45.381  26.580  33.567  1.00  0.00     0.023 A 
ATOM     86  C   UNL A   1      45.151  25.425  34.334  1.00  0.00     0.031 A 
ATOM     87  C   UNL A   1      46.703  27.045  33.449  1.00  0.00     0.131 A 
ATOM     88  C   UNL A   1      46.215  24.819  35.018  1.00  0.00     0.055 A 
ATOM     89  C   UNL A   1      47.767  26.397  34.077  1.00  0.00     0.041 A 
ATOM     90  F   UNL A   1      46.980  28.143  32.727  1.00  0.00    -0.206 F 
ATOM     91  C   UNL A   1      47.524  25.289  34.882  1.00  0.00     0.022 A 
BRANCH  88  92
ATOM     92  S   UNL A   1      45.847  23.481  36.186  1.00  0.00     0.124 S 
ATOM     93  O   UNL A   1      44.515  23.063  35.761  1.00  0.00    -0.237 OA
ATOM     94  O   UNL A   1      46.925  22.534  35.924  1.00  0.00    -0.237 OA
ATOM     95  O   UNL A   1      45.903  24.140  37.490  1.00  0.00    -0.744 OA
ENDBRANCH  88  92
ENDBRANCH  62  85
ENDBRANCH  36  37
ENDBRANCH  28  31
ENDBRANCH  26  27
ENDBRANCH   1  26
TORSDOF 17
ENDMDL
