MODEL 1
REMARK VINA RESULT:     -10.8      0.000      0.000
REMARK SMILES CCOC(=O)c1cc(C[NH2+]CC(=O)NCCCCNC(=O)c2ccc(-c3c4nc(c(-c5cc(S(=O)(=O)[O-])ccc5F)c5ccc([nH]5)c(-c5cc(S(=O)(=O)[O-])ccc5F)c5nc(c(-c6cc(S(=O)(=O)[O-])ccc6F)c6ccc3[nH]6)C=C5)C=C4)cc2)c(C)o1
REMARK SMILES IDX 15 1 14 2 12 3 13 4 11 6 10 7 9 10 8 11 6 12 7 13 87 14
REMARK SMILES IDX 85 15 86 16 4 17 5 18 3 19 2 20 1 21 16 22 17 23 18 24 19 25
REMARK SMILES IDX 20 26 21 28 22 29 23 30 84 31 24 32 83 33 25 34 26 35 27 36
REMARK SMILES IDX 77 37 28 38 82 39 76 40 78 41 29 42 81 43 75 44 74 45 30 47
REMARK SMILES IDX 62 48 42 49 61 50 43 51 46 52 60 53 79 54 44 55 45 56 59 58
REMARK SMILES IDX 80 59 47 60 31 61 32 62 40 63 33 64 39 65 41 66 38 67 34 68
REMARK SMILES IDX 35 69 36 70 37 71 63 72 64 73 72 74 65 75 71 76 73 77 70 78
REMARK SMILES IDX 66 79 67 80 68 81 69 82 48 83 49 84 57 85 50 86 56 87 58 88
REMARK SMILES IDX 55 89 51 90 52 91 53 92 54 93
REMARK H PARENT 14 5 10 8 10 9 19 27 78 46 46 57
REMARK Flexibility Score: inf
ROOT
ATOM      1  C   UNL A   1      31.545  28.229  26.154  1.00  0.00     0.116 C 
ENDROOT
BRANCH   1   2
ATOM      2  N   UNL A   1      31.389  26.919  26.776  1.00  0.00    -0.351 N 
ATOM      3  C   UNL A   1      31.095  25.693  26.239  1.00  0.00     0.275 C 
ATOM      4  O   UNL A   1      30.898  24.757  27.018  1.00  0.00    -0.269 OA
ATOM      5  H   UNL A   1      31.518  26.915  27.751  1.00  0.00     0.163 HD
BRANCH   3   6
ATOM      6  C   UNL A   1      30.967  25.482  24.713  1.00  0.00     0.362 C 
BRANCH   6   7
ATOM      7  N   UNL A   1      30.516  24.106  24.338  1.00  0.00    -0.335 N 
ATOM      8  H   UNL A   1      30.365  23.549  25.179  1.00  0.00     0.347 HD
ATOM      9  H   UNL A   1      29.639  24.143  23.819  1.00  0.00     0.347 HD
BRANCH   7  10
ATOM     10  C   UNL A   1      31.560  23.510  23.532  1.00  0.00     0.301 C 
BRANCH  10  11
ATOM     11  C   UNL A   1      32.473  22.544  24.182  1.00  0.00     0.048 A 
ATOM     12  C   UNL A   1      33.012  20.462  24.835  1.00  0.00     0.212 A 
ATOM     13  C   UNL A   1      32.006  21.405  24.898  1.00  0.00     0.068 A 
ATOM     14  O   UNL A   1      34.154  21.056  24.370  1.00  0.00    -0.454 OA
ATOM     15  C   UNL A   1      33.818  22.319  23.965  1.00  0.00     0.110 A 
ATOM     16  C   UNL A   1      34.871  23.073  23.255  1.00  0.00     0.088 C 
BRANCH  12  17
ATOM     17  C   UNL A   1      32.941  19.024  24.980  1.00  0.00     0.374 C 
ATOM     18  O   UNL A   1      32.255  18.394  25.773  1.00  0.00    -0.242 OA
BRANCH  17  19
ATOM     19  O   UNL A   1      33.916  18.473  24.197  1.00  0.00    -0.460 OA
BRANCH  19  20
ATOM     20  C   UNL A   1      33.478  17.464  23.276  1.00  0.00     0.230 C 
ATOM     21  C   UNL A   1      32.333  18.067  22.474  1.00  0.00     0.049 C 
ENDBRANCH  19  20
ENDBRANCH  17  19
ENDBRANCH  12  17
ENDBRANCH  10  11
ENDBRANCH   7  10
ENDBRANCH   6   7
ENDBRANCH   3   6
ENDBRANCH   1   2
BRANCH   1  22
ATOM     22  C   UNL A   1      31.946  29.308  27.173  1.00  0.00     0.023 C 
BRANCH  22  23
ATOM     23  C   UNL A   1      31.925  30.737  26.647  1.00  0.00     0.023 C 
BRANCH  23  24
ATOM     24  C   UNL A   1      33.049  31.608  27.173  1.00  0.00     0.116 C 
BRANCH  24  25
ATOM     25  N   UNL A   1      32.666  33.006  27.324  1.00  0.00    -0.352 N 
ATOM     26  C   UNL A   1      33.151  33.948  28.202  1.00  0.00     0.251 C 
ATOM     27  H   UNL A   1      31.961  33.320  26.713  1.00  0.00     0.163 HD
ATOM     28  O   UNL A   1      32.617  35.050  28.273  1.00  0.00    -0.269 OA
BRANCH  26  29
ATOM     29  C   UNL A   1      34.285  33.596  29.081  1.00  0.00     0.039 A 
ATOM     30  C   UNL A   1      34.051  32.822  30.218  1.00  0.00     0.014 A 
ATOM     31  C   UNL A   1      35.585  33.972  28.738  1.00  0.00     0.014 A 
ATOM     32  C   UNL A   1      35.135  32.350  30.962  1.00  0.00     0.010 A 
ATOM     33  C   UNL A   1      36.661  33.408  29.409  1.00  0.00     0.010 A 
ATOM     34  C   UNL A   1      36.450  32.597  30.534  1.00  0.00    -0.014 A 
BRANCH  34  35
ATOM     35  C   UNL A   1      37.626  32.039  31.251  1.00  0.00     0.031 A 
ATOM     36  C   UNL A   1      38.438  30.947  30.604  1.00  0.00     0.074 A 
ATOM     37  C   UNL A   1      37.900  32.445  32.508  1.00  0.00     0.049 A 
ATOM     38  N   UNL A   1      39.420  30.242  31.102  1.00  0.00    -0.248 NA
ATOM     39  C   UNL A   1      38.063  30.565  29.233  1.00  0.00     0.031 C 
ATOM     40  C   UNL A   1      37.141  33.448  33.261  1.00  0.00     0.029 A 
ATOM     41  N   UNL A   1      38.883  32.053  33.384  1.00  0.00    -0.354 N 
ATOM     42  C   UNL A   1      39.753  29.313  30.121  1.00  0.00     0.074 A 
ATOM     43  C   UNL A   1      38.831  29.507  29.025  1.00  0.00     0.031 C 
ATOM     44  C   UNL A   1      37.699  33.605  34.473  1.00  0.00     0.029 A 
ATOM     45  C   UNL A   1      38.823  32.686  34.605  1.00  0.00     0.049 A 
ATOM     46  H   UNL A   1      39.566  31.381  33.159  1.00  0.00     0.167 HD
ATOM     47  C   UNL A   1      40.752  28.399  30.127  1.00  0.00     0.034 A 
ATOM     48  C   UNL A   1      39.581  32.530  35.710  1.00  0.00     0.034 A 
ATOM     49  C   UNL A   1      41.695  28.260  31.207  1.00  0.00     0.049 A 
ATOM     50  C   UNL A   1      40.713  31.533  35.673  1.00  0.00     0.074 A 
ATOM     51  C   UNL A   1      42.809  27.442  31.275  1.00  0.00     0.029 A 
ATOM     52  N   UNL A   1      41.637  28.955  32.407  1.00  0.00    -0.354 N 
ATOM     53  N   UNL A   1      41.066  30.720  34.702  1.00  0.00    -0.248 NA
ATOM     54  C   UNL A   1      41.560  31.442  36.870  1.00  0.00     0.031 C 
ATOM     55  C   UNL A   1      43.385  27.593  32.540  1.00  0.00     0.029 A 
ATOM     56  C   UNL A   1      42.677  28.561  33.234  1.00  0.00     0.049 A 
ATOM     57  H   UNL A   1      40.957  29.628  32.637  1.00  0.00     0.167 HD
ATOM     58  C   UNL A   1      42.195  30.048  35.163  1.00  0.00     0.074 A 
ATOM     59  C   UNL A   1      42.474  30.564  36.487  1.00  0.00     0.031 C 
ATOM     60  C   UNL A   1      42.937  29.092  34.550  1.00  0.00     0.034 A 
BRANCH  47  61
ATOM     61  C   UNL A   1      40.866  27.471  28.942  1.00  0.00     0.023 A 
ATOM     62  C   UNL A   1      41.807  27.679  27.921  1.00  0.00     0.031 A 
ATOM     63  C   UNL A   1      40.015  26.356  28.836  1.00  0.00     0.131 A 
ATOM     64  C   UNL A   1      41.834  26.825  26.808  1.00  0.00     0.055 A 
ATOM     65  C   UNL A   1      40.098  25.466  27.764  1.00  0.00     0.041 A 
ATOM     66  F   UNL A   1      39.080  26.120  29.770  1.00  0.00    -0.206 F 
ATOM     67  C   UNL A   1      41.004  25.704  26.736  1.00  0.00     0.022 A 
BRANCH  64  68
ATOM     68  S   UNL A   1      42.887  27.267  25.400  1.00  0.00     0.124 S 
ATOM     69  O   UNL A   1      42.882  26.027  24.628  1.00  0.00    -0.237 OA
ATOM     70  O   UNL A   1      42.171  28.391  24.808  1.00  0.00    -0.237 OA
ATOM     71  O   UNL A   1      44.167  27.602  26.021  1.00  0.00    -0.744 OA
ENDBRANCH  64  68
ENDBRANCH  47  61
BRANCH  48  72
ATOM     72  C   UNL A   1      39.297  33.313  36.950  1.00  0.00     0.023 A 
ATOM     73  C   UNL A   1      39.934  34.542  37.192  1.00  0.00     0.031 A 
ATOM     74  C   UNL A   1      38.436  32.813  37.942  1.00  0.00     0.131 A 
ATOM     75  C   UNL A   1      39.752  35.195  38.421  1.00  0.00     0.055 A 
ATOM     76  C   UNL A   1      38.212  33.497  39.139  1.00  0.00     0.041 A 
ATOM     77  F   UNL A   1      37.796  31.647  37.762  1.00  0.00    -0.206 F 
ATOM     78  C   UNL A   1      38.886  34.688  39.391  1.00  0.00     0.022 A 
BRANCH  75  79
ATOM     79  S   UNL A   1      40.757  36.662  38.780  1.00  0.00     0.124 S 
ATOM     80  O   UNL A   1      41.449  36.257  39.998  1.00  0.00    -0.237 OA
ATOM     81  O   UNL A   1      41.579  36.764  37.578  1.00  0.00    -0.237 OA
ATOM     82  O   UNL A   1      39.765  37.721  38.948  1.00  0.00    -0.744 OA
ENDBRANCH  75  79
ENDBRANCH  48  72
BRANCH  60  83
ATOM     83  C   UNL A   1      44.150  28.586  35.288  1.00  0.00     0.023 A 
ATOM     84  C   UNL A   1      44.063  27.546  36.229  1.00  0.00     0.031 A 
ATOM     85  C   UNL A   1      45.413  29.157  35.046  1.00  0.00     0.131 A 
ATOM     86  C   UNL A   1      45.208  27.146  36.934  1.00  0.00     0.055 A 
ATOM     87  C   UNL A   1      46.559  28.713  35.705  1.00  0.00     0.041 A 
ATOM     88  F   UNL A   1      45.552  30.154  34.157  1.00  0.00    -0.206 F 
ATOM     89  C   UNL A   1      46.458  27.710  36.666  1.00  0.00     0.022 A 
BRANCH  86  90
ATOM     90  S   UNL A   1      45.026  25.938  38.275  1.00  0.00     0.124 S 
ATOM     91  O   UNL A   1      46.416  25.637  38.603  1.00  0.00    -0.237 OA
ATOM     92  O   UNL A   1      44.283  26.695  39.278  1.00  0.00    -0.237 OA
ATOM     93  O   UNL A   1      44.284  24.844  37.651  1.00  0.00    -0.744 OA
ENDBRANCH  86  90
ENDBRANCH  60  83
ENDBRANCH  34  35
ENDBRANCH  26  29
ENDBRANCH  24  25
ENDBRANCH  23  24
ENDBRANCH  22  23
ENDBRANCH   1  22
TORSDOF 20
ENDMDL
MODEL 2
REMARK VINA RESULT:     -10.8      5.584      8.812
REMARK SMILES CCOC(=O)c1cc(C[NH2+]CC(=O)NCCCCNC(=O)c2ccc(-c3c4nc(c(-c5cc(S(=O)(=O)[O-])ccc5F)c5ccc([nH]5)c(-c5cc(S(=O)(=O)[O-])ccc5F)c5nc(c(-c6cc(S(=O)(=O)[O-])ccc6F)c6ccc3[nH]6)C=C5)C=C4)cc2)c(C)o1
REMARK SMILES IDX 15 1 14 2 12 3 13 4 11 6 10 7 9 10 8 11 6 12 7 13 87 14
REMARK SMILES IDX 85 15 86 16 4 17 5 18 3 19 2 20 1 21 16 22 17 23 18 24 19 25
REMARK SMILES IDX 20 26 21 28 22 29 23 30 84 31 24 32 83 33 25 34 26 35 27 36
REMARK SMILES IDX 77 37 28 38 82 39 76 40 78 41 29 42 81 43 75 44 74 45 30 47
REMARK SMILES IDX 62 48 42 49 61 50 43 51 46 52 60 53 79 54 44 55 45 56 59 58
REMARK SMILES IDX 80 59 47 60 31 61 32 62 40 63 33 64 39 65 41 66 38 67 34 68
REMARK SMILES IDX 35 69 36 70 37 71 63 72 64 73 72 74 65 75 71 76 73 77 70 78
REMARK SMILES IDX 66 79 67 80 68 81 69 82 48 83 49 84 57 85 50 86 56 87 58 88
REMARK SMILES IDX 55 89 51 90 52 91 53 92 54 93
REMARK H PARENT 14 5 10 8 10 9 19 27 78 46 46 57
REMARK Flexibility Score: inf
ROOT
ATOM      1  C   UNL A   1      33.168  20.574  25.617  1.00  0.00     0.116 C 
ENDROOT
BRANCH   1   2
ATOM      2  N   UNL A   1      32.912  20.094  24.264  1.00  0.00    -0.351 N 
ATOM      3  C   UNL A   1      32.338  20.707  23.182  1.00  0.00     0.275 C 
ATOM      4  O   UNL A   1      32.130  20.021  22.177  1.00  0.00    -0.269 OA
ATOM      5  H   UNL A   1      33.204  19.170  24.100  1.00  0.00     0.163 HD
BRANCH   3   6
ATOM      6  C   UNL A   1      31.918  22.195  23.215  1.00  0.00     0.362 C 
BRANCH   6   7
ATOM      7  N   UNL A   1      32.468  22.994  22.076  1.00  0.00    -0.335 N 
ATOM      8  H   UNL A   1      32.666  22.381  21.285  1.00  0.00     0.347 HD
ATOM      9  H   UNL A   1      31.795  23.697  21.773  1.00  0.00     0.347 HD
BRANCH   7  10
ATOM     10  C   UNL A   1      33.689  23.621  22.534  1.00  0.00     0.301 C 
BRANCH  10  11
ATOM     11  C   UNL A   1      33.652  25.067  22.845  1.00  0.00     0.048 A 
ATOM     12  C   UNL A   1      32.653  27.080  22.780  1.00  0.00     0.212 A 
ATOM     13  C   UNL A   1      33.048  26.025  21.981  1.00  0.00     0.068 A 
ATOM     14  O   UNL A   1      33.224  26.943  24.016  1.00  0.00    -0.454 OA
ATOM     15  C   UNL A   1      33.821  25.712  24.054  1.00  0.00     0.110 A 
ATOM     16  C   UNL A   1      34.341  25.285  25.369  1.00  0.00     0.088 C 
BRANCH  12  17
ATOM     17  C   UNL A   1      31.638  28.083  22.548  1.00  0.00     0.374 C 
ATOM     18  O   UNL A   1      31.730  29.288  22.743  1.00  0.00    -0.242 OA
BRANCH  17  19
ATOM     19  O   UNL A   1      30.471  27.440  22.243  1.00  0.00    -0.460 OA
BRANCH  19  20
ATOM     20  C   UNL A   1      29.443  27.508  23.242  1.00  0.00     0.230 C 
ATOM     21  C   UNL A   1      29.491  26.196  24.012  1.00  0.00     0.049 C 
ENDBRANCH  19  20
ENDBRANCH  17  19
ENDBRANCH  12  17
ENDBRANCH  10  11
ENDBRANCH   7  10
ENDBRANCH   6   7
ENDBRANCH   3   6
ENDBRANCH   1   2
BRANCH   1  22
ATOM     22  C   UNL A   1      34.379  21.521  25.676  1.00  0.00     0.023 C 
BRANCH  22  23
ATOM     23  C   UNL A   1      35.590  21.076  24.868  1.00  0.00     0.023 C 
BRANCH  23  24
ATOM     24  C   UNL A   1      36.901  21.678  25.335  1.00  0.00     0.116 C 
BRANCH  24  25
ATOM     25  N   UNL A   1      37.940  20.681  25.559  1.00  0.00    -0.352 N 
ATOM     26  C   UNL A   1      39.211  20.851  26.059  1.00  0.00     0.251 C 
ATOM     27  H   UNL A   1      37.700  19.757  25.319  1.00  0.00     0.163 HD
ATOM     28  O   UNL A   1      39.999  19.911  26.058  1.00  0.00    -0.269 OA
BRANCH  26  29
ATOM     29  C   UNL A   1      39.621  22.183  26.547  1.00  0.00     0.039 A 
ATOM     30  C   UNL A   1      40.670  22.281  27.462  1.00  0.00     0.014 A 
ATOM     31  C   UNL A   1      39.014  23.336  26.043  1.00  0.00     0.014 A 
ATOM     32  C   UNL A   1      41.169  23.540  27.802  1.00  0.00     0.010 A 
ATOM     33  C   UNL A   1      39.584  24.576  26.293  1.00  0.00     0.010 A 
ATOM     34  C   UNL A   1      40.664  24.695  27.181  1.00  0.00    -0.014 A 
BRANCH  34  35
ATOM     35  C   UNL A   1      41.227  26.042  27.454  1.00  0.00     0.031 A 
ATOM     36  C   UNL A   1      42.590  26.397  26.917  1.00  0.00     0.074 A 
ATOM     37  C   UNL A   1      40.561  26.900  28.254  1.00  0.00     0.049 A 
ATOM     38  N   UNL A   1      43.314  27.463  27.138  1.00  0.00    -0.248 NA
ATOM     39  C   UNL A   1      43.245  25.398  26.056  1.00  0.00     0.031 C 
ATOM     40  C   UNL A   1      39.264  26.638  28.885  1.00  0.00     0.029 A 
ATOM     41  N   UNL A   1      40.888  28.161  28.689  1.00  0.00    -0.354 N 
ATOM     42  C   UNL A   1      44.518  27.246  26.477  1.00  0.00     0.074 A 
ATOM     43  C   UNL A   1      44.449  25.925  25.895  1.00  0.00     0.031 C 
ATOM     44  C   UNL A   1      38.900  27.711  29.607  1.00  0.00     0.029 A 
ATOM     45  C   UNL A   1      39.951  28.718  29.531  1.00  0.00     0.049 A 
ATOM     46  H   UNL A   1      41.716  28.623  28.423  1.00  0.00     0.167 HD
ATOM     47  C   UNL A   1      45.575  28.084  26.347  1.00  0.00     0.034 A 
ATOM     48  C   UNL A   1      39.951  29.902  30.178  1.00  0.00     0.034 A 
ATOM     49  C   UNL A   1      45.601  29.419  26.887  1.00  0.00     0.049 A 
ATOM     50  C   UNL A   1      41.123  30.832  29.981  1.00  0.00     0.074 A 
ATOM     51  C   UNL A   1      46.572  30.391  26.728  1.00  0.00     0.029 A 
ATOM     52  N   UNL A   1      44.611  29.971  27.689  1.00  0.00    -0.354 N 
ATOM     53  N   UNL A   1      42.219  30.642  29.282  1.00  0.00    -0.248 NA
ATOM     54  C   UNL A   1      41.053  32.140  30.646  1.00  0.00     0.031 C 
ATOM     55  C   UNL A   1      46.203  31.505  27.487  1.00  0.00     0.029 A 
ATOM     56  C   UNL A   1      44.965  31.258  28.059  1.00  0.00     0.049 A 
ATOM     57  H   UNL A   1      43.782  29.515  27.957  1.00  0.00     0.167 HD
ATOM     58  C   UNL A   1      42.950  31.821  29.397  1.00  0.00     0.074 A 
ATOM     59  C   UNL A   1      42.163  32.720  30.216  1.00  0.00     0.031 C 
ATOM     60  C   UNL A   1      44.162  32.138  28.875  1.00  0.00     0.034 A 
BRANCH  47  61
ATOM     61  C   UNL A   1      46.790  27.577  25.609  1.00  0.00     0.023 A 
ATOM     62  C   UNL A   1      47.061  27.943  24.281  1.00  0.00     0.031 A 
ATOM     63  C   UNL A   1      47.694  26.711  26.251  1.00  0.00     0.131 A 
ATOM     64  C   UNL A   1      48.170  27.397  23.616  1.00  0.00     0.055 A 
ATOM     65  C   UNL A   1      48.837  26.232  25.610  1.00  0.00     0.041 A 
ATOM     66  F   UNL A   1      47.474  26.308  27.513  1.00  0.00    -0.206 F 
ATOM     67  C   UNL A   1      49.075  26.566  24.281  1.00  0.00     0.022 A 
BRANCH  64  68
ATOM     68  S   UNL A   1      48.348  27.695  21.837  1.00  0.00     0.124 S 
ATOM     69  O   UNL A   1      48.547  26.339  21.330  1.00  0.00    -0.237 OA
ATOM     70  O   UNL A   1      47.079  28.326  21.493  1.00  0.00    -0.237 OA
ATOM     71  O   UNL A   1      49.520  28.564  21.750  1.00  0.00    -0.744 OA
ENDBRANCH  64  68
ENDBRANCH  47  61
BRANCH  48  72
ATOM     72  C   UNL A   1      38.824  30.278  31.082  1.00  0.00     0.023 A 
ATOM     73  C   UNL A   1      37.721  31.005  30.603  1.00  0.00     0.031 A 
ATOM     74  C   UNL A   1      38.864  29.976  32.455  1.00  0.00     0.131 A 
ATOM     75  C   UNL A   1      36.739  31.460  31.497  1.00  0.00     0.055 A 
ATOM     76  C   UNL A   1      37.854  30.380  33.330  1.00  0.00     0.041 A 
ATOM     77  F   UNL A   1      39.890  29.278  32.968  1.00  0.00    -0.206 F 
ATOM     78  C   UNL A   1      36.791  31.142  32.855  1.00  0.00     0.022 A 
BRANCH  75  79
ATOM     79  S   UNL A   1      35.451  32.576  30.875  1.00  0.00     0.124 S 
ATOM     80  O   UNL A   1      36.093  33.878  31.017  1.00  0.00    -0.237 OA
ATOM     81  O   UNL A   1      35.271  32.095  29.509  1.00  0.00    -0.237 OA
ATOM     82  O   UNL A   1      34.327  32.331  31.775  1.00  0.00    -0.744 OA
ENDBRANCH  75  79
ENDBRANCH  48  72
BRANCH  60  83
ATOM     83  C   UNL A   1      44.678  33.530  29.131  1.00  0.00     0.023 A 
ATOM     84  C   UNL A   1      44.306  34.618  28.323  1.00  0.00     0.031 A 
ATOM     85  C   UNL A   1      45.559  33.770  30.201  1.00  0.00     0.131 A 
ATOM     86  C   UNL A   1      44.855  35.885  28.564  1.00  0.00     0.055 A 
ATOM     87  C   UNL A   1      46.054  35.045  30.474  1.00  0.00     0.041 A 
ATOM     88  F   UNL A   1      45.948  32.766  31.005  1.00  0.00    -0.206 F 
ATOM     89  C   UNL A   1      45.713  36.110  29.645  1.00  0.00     0.022 A 
BRANCH  86  90
ATOM     90  S   UNL A   1      44.505  37.222  27.390  1.00  0.00     0.124 S 
ATOM     91  O   UNL A   1      43.307  36.729  26.718  1.00  0.00    -0.237 OA
ATOM     92  O   UNL A   1      44.314  38.370  28.272  1.00  0.00    -0.237 OA
ATOM     93  O   UNL A   1      45.706  37.273  26.560  1.00  0.00    -0.744 OA
ENDBRANCH  86  90
ENDBRANCH  60  83
ENDBRANCH  34  35
ENDBRANCH  26  29
ENDBRANCH  24  25
ENDBRANCH  23  24
ENDBRANCH  22  23
ENDBRANCH   1  22
TORSDOF 20
ENDMDL
MODEL 3
REMARK VINA RESULT:     -10.6      5.058     10.663
REMARK SMILES CCOC(=O)c1cc(C[NH2+]CC(=O)NCCCCNC(=O)c2ccc(-c3c4nc(c(-c5cc(S(=O)(=O)[O-])ccc5F)c5ccc([nH]5)c(-c5cc(S(=O)(=O)[O-])ccc5F)c5nc(c(-c6cc(S(=O)(=O)[O-])ccc6F)c6ccc3[nH]6)C=C5)C=C4)cc2)c(C)o1
REMARK SMILES IDX 15 1 14 2 12 3 13 4 11 6 10 7 9 10 8 11 6 12 7 13 87 14
REMARK SMILES IDX 85 15 86 16 4 17 5 18 3 19 2 20 1 21 16 22 17 23 18 24 19 25
REMARK SMILES IDX 20 26 21 28 22 29 23 30 84 31 24 32 83 33 25 34 26 35 27 36
REMARK SMILES IDX 77 37 28 38 82 39 76 40 78 41 29 42 81 43 75 44 74 45 30 47
REMARK SMILES IDX 62 48 42 49 61 50 43 51 46 52 60 53 79 54 44 55 45 56 59 58
REMARK SMILES IDX 80 59 47 60 31 61 32 62 40 63 33 64 39 65 41 66 38 67 34 68
REMARK SMILES IDX 35 69 36 70 37 71 63 72 64 73 72 74 65 75 71 76 73 77 70 78
REMARK SMILES IDX 66 79 67 80 68 81 69 82 48 83 49 84 57 85 50 86 56 87 58 88
REMARK SMILES IDX 55 89 51 90 52 91 53 92 54 93
REMARK H PARENT 14 5 10 8 10 9 19 27 78 46 46 57
REMARK Flexibility Score: inf
ROOT
ATOM      1  C   UNL A   1      33.562  22.642  24.643  1.00  0.00     0.116 C 
ENDROOT
BRANCH   1   2
ATOM      2  N   UNL A   1      32.945  23.068  25.893  1.00  0.00    -0.351 N 
ATOM      3  C   UNL A   1      31.813  23.799  26.139  1.00  0.00     0.275 C 
ATOM      4  O   UNL A   1      31.582  24.126  27.307  1.00  0.00    -0.269 OA
ATOM      5  H   UNL A   1      33.425  22.779  26.702  1.00  0.00     0.163 HD
BRANCH   3   6
ATOM      6  C   UNL A   1      30.869  24.247  24.999  1.00  0.00     0.362 C 
BRANCH   6   7
ATOM      7  N   UNL A   1      30.473  25.687  25.085  1.00  0.00    -0.335 N 
ATOM      8  H   UNL A   1      29.500  25.797  24.799  1.00  0.00     0.347 HD
ATOM      9  H   UNL A   1      30.564  26.028  26.042  1.00  0.00     0.347 HD
BRANCH   7  10
ATOM     10  C   UNL A   1      31.338  26.430  24.195  1.00  0.00     0.301 C 
BRANCH  10  11
ATOM     11  C   UNL A   1      30.874  27.752  23.720  1.00  0.00     0.048 A 
ATOM     12  C   UNL A   1      29.261  29.137  22.988  1.00  0.00     0.212 A 
ATOM     13  C   UNL A   1      29.835  27.903  22.757  1.00  0.00     0.068 A 
ATOM     14  O   UNL A   1      30.062  29.850  23.840  1.00  0.00    -0.454 OA
ATOM     15  C   UNL A   1      31.035  28.999  24.290  1.00  0.00     0.110 A 
ATOM     16  C   UNL A   1      31.899  29.518  25.369  1.00  0.00     0.088 C 
BRANCH  12  17
ATOM     17  C   UNL A   1      27.943  29.622  22.644  1.00  0.00     0.374 C 
ATOM     18  O   UNL A   1      26.880  29.305  23.161  1.00  0.00    -0.242 OA
BRANCH  17  19
ATOM     19  O   UNL A   1      28.052  30.369  21.505  1.00  0.00    -0.460 OA
BRANCH  19  20
ATOM     20  C   UNL A   1      28.066  31.792  21.694  1.00  0.00     0.230 C 
ATOM     21  C   UNL A   1      28.035  32.419  20.307  1.00  0.00     0.049 C 
ENDBRANCH  19  20
ENDBRANCH  17  19
ENDBRANCH  12  17
ENDBRANCH  10  11
ENDBRANCH   7  10
ENDBRANCH   6   7
ENDBRANCH   3   6
ENDBRANCH   1   2
BRANCH   1  22
ATOM     22  C   UNL A   1      34.853  23.421  24.340  1.00  0.00     0.023 C 
BRANCH  22  23
ATOM     23  C   UNL A   1      36.127  22.588  24.330  1.00  0.00     0.023 C 
BRANCH  23  24
ATOM     24  C   UNL A   1      36.571  22.117  25.701  1.00  0.00     0.116 C 
BRANCH  24  25
ATOM     25  N   UNL A   1      37.595  21.081  25.646  1.00  0.00    -0.352 N 
ATOM     26  C   UNL A   1      38.930  21.163  25.967  1.00  0.00     0.251 C 
ATOM     27  H   UNL A   1      37.288  20.198  25.334  1.00  0.00     0.163 HD
ATOM     28  O   UNL A   1      39.674  20.216  25.736  1.00  0.00    -0.269 OA
BRANCH  26  29
ATOM     29  C   UNL A   1      39.455  22.417  26.546  1.00  0.00     0.039 A 
ATOM     30  C   UNL A   1      40.401  22.351  27.570  1.00  0.00     0.014 A 
ATOM     31  C   UNL A   1      39.063  23.652  26.025  1.00  0.00     0.014 A 
ATOM     32  C   UNL A   1      41.021  23.523  28.008  1.00  0.00     0.010 A 
ATOM     33  C   UNL A   1      39.760  24.797  26.380  1.00  0.00     0.010 A 
ATOM     34  C   UNL A   1      40.742  24.750  27.381  1.00  0.00    -0.014 A 
BRANCH  34  35
ATOM     35  C   UNL A   1      41.444  26.002  27.763  1.00  0.00     0.031 A 
ATOM     36  C   UNL A   1      40.688  27.080  28.496  1.00  0.00     0.074 A 
ATOM     37  C   UNL A   1      42.719  26.204  27.371  1.00  0.00     0.049 A 
ATOM     38  N   UNL A   1      41.071  28.289  28.813  1.00  0.00    -0.248 NA
ATOM     39  C   UNL A   1      39.300  26.774  28.880  1.00  0.00     0.031 C 
ATOM     40  C   UNL A   1      43.529  25.258  26.598  1.00  0.00     0.029 A 
ATOM     41  N   UNL A   1      43.555  27.278  27.553  1.00  0.00    -0.354 N 
ATOM     42  C   UNL A   1      39.964  28.895  29.397  1.00  0.00     0.074 A 
ATOM     43  C   UNL A   1      38.880  27.942  29.338  1.00  0.00     0.031 C 
ATOM     44  C   UNL A   1      44.748  25.786  26.393  1.00  0.00     0.029 A 
ATOM     45  C   UNL A   1      44.795  27.122  26.974  1.00  0.00     0.049 A 
ATOM     46  H   UNL A   1      43.292  28.086  28.051  1.00  0.00     0.167 HD
ATOM     47  C   UNL A   1      39.870  30.127  29.953  1.00  0.00     0.034 A 
ATOM     48  C   UNL A   1      45.843  27.968  26.909  1.00  0.00     0.034 A 
ATOM     49  C   UNL A   1      40.979  31.041  30.052  1.00  0.00     0.049 A 
ATOM     50  C   UNL A   1      45.724  29.317  27.574  1.00  0.00     0.074 A 
ATOM     51  C   UNL A   1      41.027  32.269  30.688  1.00  0.00     0.029 A 
ATOM     52  N   UNL A   1      42.236  30.828  29.503  1.00  0.00    -0.354 N 
ATOM     53  N   UNL A   1      44.692  29.842  28.197  1.00  0.00    -0.248 NA
ATOM     54  C   UNL A   1      46.910  30.183  27.542  1.00  0.00     0.031 C 
ATOM     55  C   UNL A   1      42.289  32.827  30.465  1.00  0.00     0.029 A 
ATOM     56  C   UNL A   1      43.055  31.916  29.757  1.00  0.00     0.049 A 
ATOM     57  H   UNL A   1      42.506  30.023  29.005  1.00  0.00     0.167 HD
ATOM     58  C   UNL A   1      45.121  31.083  28.659  1.00  0.00     0.074 A 
ATOM     59  C   UNL A   1      46.507  31.219  28.260  1.00  0.00     0.031 C 
ATOM     60  C   UNL A   1      44.436  32.028  29.351  1.00  0.00     0.034 A 
BRANCH  47  61
ATOM     61  C   UNL A   1      38.525  30.561  30.481  1.00  0.00     0.023 A 
ATOM     62  C   UNL A   1      37.570  31.188  29.663  1.00  0.00     0.031 A 
ATOM     63  C   UNL A   1      38.192  30.340  31.830  1.00  0.00     0.131 A 
ATOM     64  C   UNL A   1      36.357  31.629  30.214  1.00  0.00     0.055 A 
ATOM     65  C   UNL A   1      36.953  30.711  32.353  1.00  0.00     0.041 A 
ATOM     66  F   UNL A   1      39.072  29.765  32.665  1.00  0.00    -0.206 F 
ATOM     67  C   UNL A   1      36.031  31.370  31.546  1.00  0.00     0.022 A 
BRANCH  64  68
ATOM     68  S   UNL A   1      35.262  32.651  29.192  1.00  0.00     0.124 S 
ATOM     69  O   UNL A   1      34.163  32.919  30.116  1.00  0.00    -0.237 OA
ATOM     70  O   UNL A   1      36.109  33.790  28.859  1.00  0.00    -0.237 OA
ATOM     71  O   UNL A   1      34.925  31.776  28.070  1.00  0.00    -0.744 OA
ENDBRANCH  64  68
ENDBRANCH  47  61
BRANCH  48  72
ATOM     72  C   UNL A   1      47.090  27.586  26.182  1.00  0.00     0.023 A 
ATOM     73  C   UNL A   1      47.254  27.883  24.819  1.00  0.00     0.031 A 
ATOM     74  C   UNL A   1      48.109  26.858  26.822  1.00  0.00     0.131 A 
ATOM     75  C   UNL A   1      48.376  27.399  24.126  1.00  0.00     0.055 A 
ATOM     76  C   UNL A   1      49.251  26.431  26.142  1.00  0.00     0.041 A 
ATOM     77  F   UNL A   1      48.009  26.552  28.126  1.00  0.00    -0.206 F 
ATOM     78  C   UNL A   1      49.381  26.686  24.781  1.00  0.00     0.022 A 
BRANCH  75  79
ATOM     79  S   UNL A   1      48.442  27.616  22.326  1.00  0.00     0.124 S 
ATOM     80  O   UNL A   1      47.196  28.327  22.066  1.00  0.00    -0.237 OA
ATOM     81  O   UNL A   1      49.669  28.389  22.162  1.00  0.00    -0.237 OA
ATOM     82  O   UNL A   1      48.498  26.246  21.821  1.00  0.00    -0.744 OA
ENDBRANCH  75  79
ENDBRANCH  48  72
BRANCH  60  83
ATOM     83  C   UNL A   1      45.195  33.263  29.764  1.00  0.00     0.023 A 
ATOM     84  C   UNL A   1      45.881  33.335  30.989  1.00  0.00     0.031 A 
ATOM     85  C   UNL A   1      45.230  34.386  28.918  1.00  0.00     0.131 A 
ATOM     86  C   UNL A   1      46.526  34.524  31.357  1.00  0.00     0.055 A 
ATOM     87  C   UNL A   1      45.926  35.544  29.262  1.00  0.00     0.041 A 
ATOM     88  F   UNL A   1      44.592  34.371  27.736  1.00  0.00    -0.206 F 
ATOM     89  C   UNL A   1      46.568  35.623  30.495  1.00  0.00     0.022 A 
BRANCH  86  90
ATOM     90  S   UNL A   1      47.235  34.648  33.022  1.00  0.00     0.124 S 
ATOM     91  O   UNL A   1      47.878  35.958  32.981  1.00  0.00    -0.237 OA
ATOM     92  O   UNL A   1      46.054  34.544  33.873  1.00  0.00    -0.237 OA
ATOM     93  O   UNL A   1      48.150  33.510  33.090  1.00  0.00    -0.744 OA
ENDBRANCH  86  90
ENDBRANCH  60  83
ENDBRANCH  34  35
ENDBRANCH  26  29
ENDBRANCH  24  25
ENDBRANCH  23  24
ENDBRANCH  22  23
ENDBRANCH   1  22
TORSDOF 20
ENDMDL
