MODEL 1
REMARK VINA RESULT:     -10.6      0.000      0.000
REMARK SMILES O=C(NCCCCNC(=O)[C@@H]1C[C@@H]1c1cccc(F)c1)c1ccc(-c2c3nc(c(-c4cc(S(=O)(=O)[O-])ccc4F)c4ccc([nH]4)c(-c4cc(S(=O)(=O)[O-])ccc4F)c4nc(c(-c5cc(S(=O)(=O)[O-])ccc5F)c5ccc2[nH]5)C=C4)C=C3)cc1
REMARK SMILES IDX 4 1 3 2 1 3 2 4 21 6 22 7 83 8 23 9 82 10 24 11 25 12 26 13
REMARK SMILES IDX 76 14 27 15 81 16 75 17 77 18 28 19 80 20 74 21 73 22 29 24
REMARK SMILES IDX 61 25 41 26 60 27 42 28 45 29 59 30 78 31 43 32 44 33 58 35
REMARK SMILES IDX 79 36 46 37 30 38 31 39 39 40 32 41 38 42 40 43 37 44 33 45
REMARK SMILES IDX 34 46 35 47 36 48 62 49 63 50 71 51 64 52 70 53 72 54 69 55
REMARK SMILES IDX 65 56 66 57 67 58 68 59 47 60 48 61 56 62 49 63 55 64 57 65
REMARK SMILES IDX 54 66 50 67 51 68 52 69 53 70 5 71 6 72 7 73 8 74 9 75 10 77
REMARK SMILES IDX 11 78 12 79 13 80 14 81 15 82 20 83 16 84 18 85 17 86 19 87
REMARK H PARENT 3 5 77 23 45 34 8 76
REMARK Flexibility Score: inf
ROOT
ATOM      1  C   UNL A   1      34.034  33.042  28.712  1.00  0.00     0.116 C 
ENDROOT
BRANCH   1   2
ATOM      2  N   UNL A   1      33.594  31.990  27.805  1.00  0.00    -0.352 N 
ATOM      3  O   UNL A   1      33.798  30.098  26.587  1.00  0.00    -0.269 OA
ATOM      4  C   UNL A   1      34.255  30.832  27.457  1.00  0.00     0.251 C 
ATOM      5  H   UNL A   1      32.712  32.124  27.389  1.00  0.00     0.163 HD
BRANCH   4   6
ATOM      6  C   UNL A   1      35.536  30.504  28.121  1.00  0.00     0.039 A 
ATOM      7  C   UNL A   1      36.740  30.964  27.585  1.00  0.00     0.014 A 
ATOM      8  C   UNL A   1      35.537  29.698  29.263  1.00  0.00     0.014 A 
ATOM      9  C   UNL A   1      37.941  30.484  28.088  1.00  0.00     0.010 A 
ATOM     10  C   UNL A   1      36.752  29.296  29.829  1.00  0.00     0.010 A 
ATOM     11  C   UNL A   1      37.965  29.658  29.225  1.00  0.00    -0.014 A 
BRANCH  11  12
ATOM     12  C   UNL A   1      39.285  29.256  29.778  1.00  0.00     0.031 A 
ATOM     13  C   UNL A   1      39.814  29.837  31.060  1.00  0.00     0.074 A 
ATOM     14  C   UNL A   1      39.969  28.285  29.141  1.00  0.00     0.049 A 
ATOM     15  N   UNL A   1      40.897  29.513  31.720  1.00  0.00    -0.248 NA
ATOM     16  C   UNL A   1      39.040  30.923  31.678  1.00  0.00     0.031 C 
ATOM     17  C   UNL A   1      39.550  27.656  27.885  1.00  0.00     0.029 A 
ATOM     18  N   UNL A   1      41.118  27.619  29.477  1.00  0.00    -0.354 N 
ATOM     19  C   UNL A   1      40.947  30.365  32.818  1.00  0.00     0.074 A 
ATOM     20  C   UNL A   1      39.796  31.237  32.721  1.00  0.00     0.031 C 
ATOM     21  C   UNL A   1      40.373  26.637  27.609  1.00  0.00     0.029 A 
ATOM     22  C   UNL A   1      41.424  26.587  28.619  1.00  0.00     0.049 A 
ATOM     23  H   UNL A   1      41.672  27.854  30.256  1.00  0.00     0.167 HD
ATOM     24  C   UNL A   1      41.868  30.406  33.814  1.00  0.00     0.034 A 
ATOM     25  C   UNL A   1      42.435  25.699  28.634  1.00  0.00     0.034 A 
ATOM     26  C   UNL A   1      42.999  29.514  33.902  1.00  0.00     0.049 A 
ATOM     27  C   UNL A   1      43.453  25.780  29.732  1.00  0.00     0.074 A 
ATOM     28  C   UNL A   1      43.965  29.445  34.892  1.00  0.00     0.029 A 
ATOM     29  N   UNL A   1      43.325  28.542  32.965  1.00  0.00    -0.354 N 
ATOM     30  N   UNL A   1      43.489  26.598  30.756  1.00  0.00    -0.248 NA
ATOM     31  C   UNL A   1      44.572  24.832  29.672  1.00  0.00     0.031 C 
ATOM     32  C   UNL A   1      44.907  28.480  34.522  1.00  0.00     0.029 A 
ATOM     33  C   UNL A   1      44.494  27.895  33.336  1.00  0.00     0.049 A 
ATOM     34  H   UNL A   1      42.802  28.342  32.154  1.00  0.00     0.167 HD
ATOM     35  C   UNL A   1      44.636  26.266  31.465  1.00  0.00     0.074 A 
ATOM     36  C   UNL A   1      45.259  25.165  30.757  1.00  0.00     0.031 C 
ATOM     37  C   UNL A   1      45.121  26.820  32.604  1.00  0.00     0.034 A 
BRANCH  24  38
ATOM     38  C   UNL A   1      41.718  31.475  34.867  1.00  0.00     0.023 A 
ATOM     39  C   UNL A   1      40.662  31.467  35.794  1.00  0.00     0.031 A 
ATOM     40  C   UNL A   1      42.666  32.512  34.957  1.00  0.00     0.131 A 
ATOM     41  C   UNL A   1      40.553  32.499  36.739  1.00  0.00     0.055 A 
ATOM     42  C   UNL A   1      42.588  33.500  35.940  1.00  0.00     0.041 A 
ATOM     43  F   UNL A   1      43.687  32.580  34.087  1.00  0.00    -0.206 F 
ATOM     44  C   UNL A   1      41.521  33.501  36.833  1.00  0.00     0.022 A 
BRANCH  41  45
ATOM     45  S   UNL A   1      39.073  32.567  37.787  1.00  0.00     0.124 S 
ATOM     46  O   UNL A   1      38.485  33.842  37.384  1.00  0.00    -0.237 OA
ATOM     47  O   UNL A   1      38.344  31.371  37.383  1.00  0.00    -0.237 OA
ATOM     48  O   UNL A   1      39.612  32.539  39.145  1.00  0.00    -0.744 OA
ENDBRANCH  41  45
ENDBRANCH  24  38
BRANCH  25  49
ATOM     49  C   UNL A   1      42.524  24.686  27.549  1.00  0.00     0.023 A 
ATOM     50  C   UNL A   1      41.759  23.511  27.589  1.00  0.00     0.031 A 
ATOM     51  C   UNL A   1      43.319  24.927  26.413  1.00  0.00     0.131 A 
ATOM     52  C   UNL A   1      41.803  22.618  26.507  1.00  0.00     0.055 A 
ATOM     53  C   UNL A   1      43.331  24.055  25.326  1.00  0.00     0.041 A 
ATOM     54  F   UNL A   1      44.051  26.049  26.325  1.00  0.00    -0.206 F 
ATOM     55  C   UNL A   1      42.570  22.891  25.369  1.00  0.00     0.022 A 
BRANCH  52  56
ATOM     56  S   UNL A   1      40.828  21.092  26.591  1.00  0.00     0.124 S 
ATOM     57  O   UNL A   1      41.650  20.172  25.813  1.00  0.00    -0.237 OA
ATOM     58  O   UNL A   1      40.768  20.843  28.027  1.00  0.00    -0.237 OA
ATOM     59  O   UNL A   1      39.557  21.466  25.975  1.00  0.00    -0.744 OA
ENDBRANCH  52  56
ENDBRANCH  25  49
BRANCH  37  60
ATOM     60  C   UNL A   1      46.388  26.237  33.169  1.00  0.00     0.023 A 
ATOM     61  C   UNL A   1      46.369  25.090  33.979  1.00  0.00     0.031 A 
ATOM     62  C   UNL A   1      47.630  26.810  32.846  1.00  0.00     0.131 A 
ATOM     63  C   UNL A   1      47.575  24.558  34.456  1.00  0.00     0.055 A 
ATOM     64  C   UNL A   1      48.829  26.252  33.290  1.00  0.00     0.041 A 
ATOM     65  F   UNL A   1      47.696  27.905  32.073  1.00  0.00    -0.206 F 
ATOM     66  C   UNL A   1      48.805  25.121  34.102  1.00  0.00     0.022 A 
BRANCH  63  67
ATOM     67  S   UNL A   1      47.524  23.120  35.560  1.00  0.00     0.124 S 
ATOM     68  O   UNL A   1      46.897  23.680  36.753  1.00  0.00    -0.237 OA
ATOM     69  O   UNL A   1      46.719  22.166  34.804  1.00  0.00    -0.237 OA
ATOM     70  O   UNL A   1      48.931  22.755  35.712  1.00  0.00    -0.744 OA
ENDBRANCH  63  67
ENDBRANCH  37  60
ENDBRANCH  11  12
ENDBRANCH   4   6
ENDBRANCH   1   2
BRANCH   1  71
ATOM     71  C   UNL A   1      34.377  34.346  28.005  1.00  0.00     0.023 C 
BRANCH  71  72
ATOM     72  C   UNL A   1      33.900  35.616  28.715  1.00  0.00     0.023 C 
BRANCH  72  73
ATOM     73  C   UNL A   1      33.195  35.369  30.049  1.00  0.00     0.116 C 
BRANCH  73  74
ATOM     74  N   UNL A   1      33.807  36.130  31.122  1.00  0.00    -0.356 N 
ATOM     75  C   UNL A   1      34.173  35.703  32.370  1.00  0.00     0.223 C 
ATOM     76  H   UNL A   1      33.984  37.078  30.926  1.00  0.00     0.163 HD
ATOM     77  O   UNL A   1      34.607  36.493  33.200  1.00  0.00    -0.275 OA
BRANCH  75  78
ATOM     78  C   UNL A   1      34.053  34.255  32.672  1.00  0.00     0.086 C 
ATOM     79  C   UNL A   1      34.872  33.613  33.759  1.00  0.00     0.023 C 
ATOM     80  C   UNL A   1      35.167  33.284  32.311  1.00  0.00     0.032 C 
BRANCH  80  81
ATOM     81  C   UNL A   1      36.511  33.706  31.754  1.00  0.00    -0.041 A 
ATOM     82  C   UNL A   1      37.507  34.226  32.606  1.00  0.00     0.004 A 
ATOM     83  C   UNL A   1      36.837  33.582  30.395  1.00  0.00     0.043 A 
ATOM     84  C   UNL A   1      38.753  34.637  32.122  1.00  0.00     0.003 A 
ATOM     85  C   UNL A   1      38.077  33.998  29.916  1.00  0.00     0.123 A 
ATOM     86  C   UNL A   1      39.037  34.527  30.767  1.00  0.00     0.039 A 
ATOM     87  F   UNL A   1      38.351  33.880  28.610  1.00  0.00    -0.207 F 
ENDBRANCH  80  81
ENDBRANCH  75  78
ENDBRANCH  73  74
ENDBRANCH  72  73
ENDBRANCH  71  72
ENDBRANCH   1  71
TORSDOF 15
ENDMDL
MODEL 2
REMARK VINA RESULT:     -10.4      1.392      1.693
REMARK SMILES O=C(NCCCCNC(=O)[C@@H]1C[C@@H]1c1cccc(F)c1)c1ccc(-c2c3nc(c(-c4cc(S(=O)(=O)[O-])ccc4F)c4ccc([nH]4)c(-c4cc(S(=O)(=O)[O-])ccc4F)c4nc(c(-c5cc(S(=O)(=O)[O-])ccc5F)c5ccc2[nH]5)C=C4)C=C3)cc1
REMARK SMILES IDX 4 1 3 2 1 3 2 4 21 6 22 7 83 8 23 9 82 10 24 11 25 12 26 13
REMARK SMILES IDX 76 14 27 15 81 16 75 17 77 18 28 19 80 20 74 21 73 22 29 24
REMARK SMILES IDX 61 25 41 26 60 27 42 28 45 29 59 30 78 31 43 32 44 33 58 35
REMARK SMILES IDX 79 36 46 37 30 38 31 39 39 40 32 41 38 42 40 43 37 44 33 45
REMARK SMILES IDX 34 46 35 47 36 48 62 49 63 50 71 51 64 52 70 53 72 54 69 55
REMARK SMILES IDX 65 56 66 57 67 58 68 59 47 60 48 61 56 62 49 63 55 64 57 65
REMARK SMILES IDX 54 66 50 67 51 68 52 69 53 70 5 71 6 72 7 73 8 74 9 75 10 77
REMARK SMILES IDX 11 78 12 79 13 80 14 81 15 82 20 83 16 84 18 85 17 86 19 87
REMARK H PARENT 3 5 77 23 45 34 8 76
REMARK Flexibility Score: inf
ROOT
ATOM      1  C   UNL A   1      34.227  33.087  28.779  1.00  0.00     0.116 C 
ENDROOT
BRANCH   1   2
ATOM      2  N   UNL A   1      33.739  32.033  27.900  1.00  0.00    -0.352 N 
ATOM      3  O   UNL A   1      33.866  30.117  26.708  1.00  0.00    -0.269 OA
ATOM      4  C   UNL A   1      34.361  30.853  27.555  1.00  0.00     0.251 C 
ATOM      5  H   UNL A   1      32.852  32.184  27.501  1.00  0.00     0.163 HD
BRANCH   4   6
ATOM      6  C   UNL A   1      35.649  30.502  28.195  1.00  0.00     0.039 A 
ATOM      7  C   UNL A   1      36.851  30.931  27.631  1.00  0.00     0.014 A 
ATOM      8  C   UNL A   1      35.655  29.705  29.343  1.00  0.00     0.014 A 
ATOM      9  C   UNL A   1      38.051  30.428  28.113  1.00  0.00     0.010 A 
ATOM     10  C   UNL A   1      36.873  29.281  29.888  1.00  0.00     0.010 A 
ATOM     11  C   UNL A   1      38.081  29.610  29.255  1.00  0.00    -0.014 A 
BRANCH  11  12
ATOM     12  C   UNL A   1      39.403  29.184  29.785  1.00  0.00     0.031 A 
ATOM     13  C   UNL A   1      39.967  29.755  31.056  1.00  0.00     0.074 A 
ATOM     14  C   UNL A   1      40.056  28.199  29.136  1.00  0.00     0.049 A 
ATOM     15  N   UNL A   1      41.056  29.411  31.696  1.00  0.00    -0.248 NA
ATOM     16  C   UNL A   1      39.225  30.856  31.687  1.00  0.00     0.031 C 
ATOM     17  C   UNL A   1      39.602  27.577  27.888  1.00  0.00     0.029 A 
ATOM     18  N   UNL A   1      41.199  27.511  29.452  1.00  0.00    -0.354 N 
ATOM     19  C   UNL A   1      41.142  30.262  32.792  1.00  0.00     0.074 A 
ATOM     20  C   UNL A   1      40.007  31.156  32.716  1.00  0.00     0.031 C 
ATOM     21  C   UNL A   1      40.401  26.542  27.598  1.00  0.00     0.029 A 
ATOM     22  C   UNL A   1      41.468  26.473  28.589  1.00  0.00     0.049 A 
ATOM     23  H   UNL A   1      41.771  27.736  30.220  1.00  0.00     0.167 HD
ATOM     24  C   UNL A   1      42.082  30.287  33.770  1.00  0.00     0.034 A 
ATOM     25  C   UNL A   1      42.463  25.566  28.586  1.00  0.00     0.034 A 
ATOM     26  C   UNL A   1      43.198  29.373  33.838  1.00  0.00     0.049 A 
ATOM     27  C   UNL A   1      43.502  25.628  29.665  1.00  0.00     0.074 A 
ATOM     28  C   UNL A   1      44.180  29.286  34.811  1.00  0.00     0.029 A 
ATOM     29  N   UNL A   1      43.487  28.394  32.897  1.00  0.00    -0.354 N 
ATOM     30  N   UNL A   1      43.573  26.446  30.687  1.00  0.00    -0.248 NA
ATOM     31  C   UNL A   1      44.602  24.659  29.585  1.00  0.00     0.031 C 
ATOM     32  C   UNL A   1      45.096  28.303  34.425  1.00  0.00     0.029 A 
ATOM     33  C   UNL A   1      44.650  27.725  33.247  1.00  0.00     0.049 A 
ATOM     34  H   UNL A   1      42.945  28.203  32.096  1.00  0.00     0.167 HD
ATOM     35  C   UNL A   1      44.726  26.092  31.376  1.00  0.00     0.074 A 
ATOM     36  C   UNL A   1      45.315  24.979  30.657  1.00  0.00     0.031 C 
ATOM     37  C   UNL A   1      45.243  26.638  32.505  1.00  0.00     0.034 A 
BRANCH  24  38
ATOM     38  C   UNL A   1      41.972  31.360  34.825  1.00  0.00     0.023 A 
ATOM     39  C   UNL A   1      42.530  32.637  34.650  1.00  0.00     0.031 A 
ATOM     40  C   UNL A   1      41.276  31.101  36.021  1.00  0.00     0.131 A 
ATOM     41  C   UNL A   1      42.423  33.593  35.673  1.00  0.00     0.055 A 
ATOM     42  C   UNL A   1      41.117  32.077  37.007  1.00  0.00     0.041 A 
ATOM     43  F   UNL A   1      40.736  29.893  36.249  1.00  0.00    -0.206 F 
ATOM     44  C   UNL A   1      41.700  33.329  36.839  1.00  0.00     0.022 A 
BRANCH  41  45
ATOM     45  S   UNL A   1      43.322  35.159  35.500  1.00  0.00     0.124 S 
ATOM     46  O   UNL A   1      44.609  34.705  34.979  1.00  0.00    -0.237 OA
ATOM     47  O   UNL A   1      42.483  35.904  34.569  1.00  0.00    -0.237 OA
ATOM     48  O   UNL A   1      43.360  35.686  36.862  1.00  0.00    -0.744 OA
ENDBRANCH  41  45
ENDBRANCH  24  38
BRANCH  25  49
ATOM     49  C   UNL A   1      42.512  24.550  27.501  1.00  0.00     0.023 A 
ATOM     50  C   UNL A   1      41.739  23.382  27.565  1.00  0.00     0.031 A 
ATOM     51  C   UNL A   1      43.275  24.783  26.342  1.00  0.00     0.131 A 
ATOM     52  C   UNL A   1      41.745  22.487  26.484  1.00  0.00     0.055 A 
ATOM     53  C   UNL A   1      43.249  23.909  25.256  1.00  0.00     0.041 A 
ATOM     54  F   UNL A   1      44.014  25.899  26.231  1.00  0.00    -0.206 F 
ATOM     55  C   UNL A   1      42.480  22.752  25.324  1.00  0.00     0.022 A 
BRANCH  52  56
ATOM     56  S   UNL A   1      40.760  20.968  26.599  1.00  0.00     0.124 S 
ATOM     57  O   UNL A   1      39.472  21.411  26.075  1.00  0.00    -0.237 OA
ATOM     58  O   UNL A   1      41.514  20.048  25.756  1.00  0.00    -0.237 OA
ATOM     59  O   UNL A   1      40.780  20.657  28.026  1.00  0.00    -0.744 OA
ENDBRANCH  52  56
ENDBRANCH  25  49
BRANCH  37  60
ATOM     60  C   UNL A   1      46.508  26.031  33.047  1.00  0.00     0.023 A 
ATOM     61  C   UNL A   1      46.478  24.938  33.927  1.00  0.00     0.031 A 
ATOM     62  C   UNL A   1      47.758  26.524  32.632  1.00  0.00     0.131 A 
ATOM     63  C   UNL A   1      47.681  24.379  34.381  1.00  0.00     0.055 A 
ATOM     64  C   UNL A   1      48.950  25.938  33.055  1.00  0.00     0.041 A 
ATOM     65  F   UNL A   1      47.834  27.566  31.789  1.00  0.00    -0.206 F 
ATOM     66  C   UNL A   1      48.916  24.861  33.937  1.00  0.00     0.022 A 
BRANCH  63  67
ATOM     67  S   UNL A   1      47.619  23.014  35.575  1.00  0.00     0.124 S 
ATOM     68  O   UNL A   1      48.117  21.898  34.778  1.00  0.00    -0.237 OA
ATOM     69  O   UNL A   1      48.501  23.482  36.639  1.00  0.00    -0.237 OA
ATOM     70  O   UNL A   1      46.205  22.937  35.935  1.00  0.00    -0.744 OA
ENDBRANCH  63  67
ENDBRANCH  37  60
ENDBRANCH  11  12
ENDBRANCH   4   6
ENDBRANCH   1   2
BRANCH   1  71
ATOM     71  C   UNL A   1      34.434  34.419  28.071  1.00  0.00     0.023 C 
BRANCH  71  72
ATOM     72  C   UNL A   1      33.799  35.629  28.761  1.00  0.00     0.023 C 
BRANCH  72  73
ATOM     73  C   UNL A   1      33.199  35.331  30.136  1.00  0.00     0.116 C 
BRANCH  73  74
ATOM     74  N   UNL A   1      33.864  36.087  31.179  1.00  0.00    -0.356 N 
ATOM     75  C   UNL A   1      34.272  35.661  32.415  1.00  0.00     0.223 C 
ATOM     76  H   UNL A   1      34.046  37.032  30.973  1.00  0.00     0.163 HD
ATOM     77  O   UNL A   1      34.750  36.448  33.222  1.00  0.00    -0.275 OA
BRANCH  75  78
ATOM     78  C   UNL A   1      34.144  34.216  32.728  1.00  0.00     0.086 C 
ATOM     79  C   UNL A   1      34.936  33.584  33.840  1.00  0.00     0.023 C 
ATOM     80  C   UNL A   1      35.264  33.240  32.403  1.00  0.00     0.032 C 
BRANCH  80  81
ATOM     81  C   UNL A   1      36.622  33.655  31.873  1.00  0.00    -0.041 A 
ATOM     82  C   UNL A   1      37.601  34.173  32.745  1.00  0.00     0.004 A 
ATOM     83  C   UNL A   1      36.975  33.526  30.522  1.00  0.00     0.043 A 
ATOM     84  C   UNL A   1      38.860  34.578  32.287  1.00  0.00     0.003 A 
ATOM     85  C   UNL A   1      38.227  33.935  30.068  1.00  0.00     0.123 A 
ATOM     86  C   UNL A   1      39.172  34.463  30.938  1.00  0.00     0.039 A 
ATOM     87  F   UNL A   1      38.529  33.813  28.769  1.00  0.00    -0.207 F 
ENDBRANCH  80  81
ENDBRANCH  75  78
ENDBRANCH  73  74
ENDBRANCH  72  73
ENDBRANCH  71  72
ENDBRANCH   1  71
TORSDOF 15
ENDMDL
MODEL 3
REMARK VINA RESULT:     -10.3      4.674     11.764
REMARK SMILES O=C(NCCCCNC(=O)[C@@H]1C[C@@H]1c1cccc(F)c1)c1ccc(-c2c3nc(c(-c4cc(S(=O)(=O)[O-])ccc4F)c4ccc([nH]4)c(-c4cc(S(=O)(=O)[O-])ccc4F)c4nc(c(-c5cc(S(=O)(=O)[O-])ccc5F)c5ccc2[nH]5)C=C4)C=C3)cc1
REMARK SMILES IDX 4 1 3 2 1 3 2 4 21 6 22 7 83 8 23 9 82 10 24 11 25 12 26 13
REMARK SMILES IDX 76 14 27 15 81 16 75 17 77 18 28 19 80 20 74 21 73 22 29 24
REMARK SMILES IDX 61 25 41 26 60 27 42 28 45 29 59 30 78 31 43 32 44 33 58 35
REMARK SMILES IDX 79 36 46 37 30 38 31 39 39 40 32 41 38 42 40 43 37 44 33 45
REMARK SMILES IDX 34 46 35 47 36 48 62 49 63 50 71 51 64 52 70 53 72 54 69 55
REMARK SMILES IDX 65 56 66 57 67 58 68 59 47 60 48 61 56 62 49 63 55 64 57 65
REMARK SMILES IDX 54 66 50 67 51 68 52 69 53 70 5 71 6 72 7 73 8 74 9 75 10 77
REMARK SMILES IDX 11 78 12 79 13 80 14 81 15 82 20 83 16 84 18 85 17 86 19 87
REMARK H PARENT 3 5 77 23 45 34 8 76
REMARK Flexibility Score: inf
ROOT
ATOM      1  C   UNL A   1      40.741  21.513  26.156  1.00  0.00     0.116 C 
ENDROOT
BRANCH   1   2
ATOM      2  N   UNL A   1      39.328  21.734  25.880  1.00  0.00    -0.352 N 
ATOM      3  O   UNL A   1      37.360  22.843  25.951  1.00  0.00    -0.269 OA
ATOM      4  C   UNL A   1      38.572  22.856  26.141  1.00  0.00     0.251 C 
ATOM      5  H   UNL A   1      38.853  20.985  25.452  1.00  0.00     0.163 HD
BRANCH   4   6
ATOM      6  C   UNL A   1      39.235  24.063  26.683  1.00  0.00     0.039 A 
ATOM      7  C   UNL A   1      39.158  24.350  28.047  1.00  0.00     0.014 A 
ATOM      8  C   UNL A   1      39.902  24.933  25.817  1.00  0.00     0.014 A 
ATOM      9  C   UNL A   1      39.599  25.581  28.513  1.00  0.00     0.010 A 
ATOM     10  C   UNL A   1      40.436  26.130  26.310  1.00  0.00     0.010 A 
ATOM     11  C   UNL A   1      40.258  26.480  27.657  1.00  0.00    -0.014 A 
BRANCH  11  12
ATOM     12  C   UNL A   1      40.797  27.739  28.234  1.00  0.00     0.031 A 
ATOM     13  C   UNL A   1      42.259  28.084  28.151  1.00  0.00     0.074 A 
ATOM     14  C   UNL A   1      39.924  28.616  28.766  1.00  0.00     0.049 A 
ATOM     15  N   UNL A   1      42.862  29.187  28.516  1.00  0.00    -0.248 NA
ATOM     16  C   UNL A   1      43.161  27.063  27.599  1.00  0.00     0.031 C 
ATOM     17  C   UNL A   1      38.483  28.380  28.904  1.00  0.00     0.029 A 
ATOM     18  N   UNL A   1      40.096  29.891  29.238  1.00  0.00    -0.354 N 
ATOM     19  C   UNL A   1      44.214  28.989  28.257  1.00  0.00     0.074 A 
ATOM     20  C   UNL A   1      44.344  27.649  27.726  1.00  0.00     0.031 C 
ATOM     21  C   UNL A   1      37.893  29.503  29.333  1.00  0.00     0.029 A 
ATOM     22  C   UNL A   1      38.917  30.513  29.579  1.00  0.00     0.049 A 
ATOM     23  H   UNL A   1      40.977  30.321  29.325  1.00  0.00     0.167 HD
ATOM     24  C   UNL A   1      45.244  29.852  28.442  1.00  0.00     0.034 A 
ATOM     25  C   UNL A   1      38.676  31.754  30.041  1.00  0.00     0.034 A 
ATOM     26  C   UNL A   1      45.089  31.192  28.956  1.00  0.00     0.049 A 
ATOM     27  C   UNL A   1      39.834  32.682  30.259  1.00  0.00     0.074 A 
ATOM     28  C   UNL A   1      46.062  32.160  29.140  1.00  0.00     0.029 A 
ATOM     29  N   UNL A   1      43.890  31.753  29.375  1.00  0.00    -0.354 N 
ATOM     30  N   UNL A   1      41.106  32.473  30.019  1.00  0.00    -0.248 NA
ATOM     31  C   UNL A   1      39.530  34.002  30.824  1.00  0.00     0.031 C 
ATOM     32  C   UNL A   1      45.465  33.278  29.730  1.00  0.00     0.029 A 
ATOM     33  C   UNL A   1      44.105  33.038  29.849  1.00  0.00     0.049 A 
ATOM     34  H   UNL A   1      43.014  31.304  29.340  1.00  0.00     0.167 HD
ATOM     35  C   UNL A   1      41.759  33.638  30.403  1.00  0.00     0.074 A 
ATOM     36  C   UNL A   1      40.738  34.549  30.883  1.00  0.00     0.031 C 
ATOM     37  C   UNL A   1      43.083  33.925  30.354  1.00  0.00     0.034 A 
BRANCH  24  38
ATOM     38  C   UNL A   1      46.636  29.363  28.129  1.00  0.00     0.023 A 
ATOM     39  C   UNL A   1      47.440  28.734  29.095  1.00  0.00     0.031 A 
ATOM     40  C   UNL A   1      47.159  29.513  26.831  1.00  0.00     0.131 A 
ATOM     41  C   UNL A   1      48.739  28.321  28.760  1.00  0.00     0.055 A 
ATOM     42  C   UNL A   1      48.427  29.041  26.488  1.00  0.00     0.041 A 
ATOM     43  F   UNL A   1      46.441  30.121  25.872  1.00  0.00    -0.206 F 
ATOM     44  C   UNL A   1      49.229  28.448  27.458  1.00  0.00     0.022 A 
BRANCH  41  45
ATOM     45  S   UNL A   1      49.820  27.696  30.077  1.00  0.00     0.124 S 
ATOM     46  O   UNL A   1      49.301  26.344  30.269  1.00  0.00    -0.237 OA
ATOM     47  O   UNL A   1      51.143  27.792  29.472  1.00  0.00    -0.237 OA
ATOM     48  O   UNL A   1      49.575  28.614  31.188  1.00  0.00    -0.744 OA
ENDBRANCH  41  45
ENDBRANCH  24  38
BRANCH  25  49
ATOM     49  C   UNL A   1      37.276  32.155  30.343  1.00  0.00     0.023 A 
ATOM     50  C   UNL A   1      36.428  32.642  29.338  1.00  0.00     0.031 A 
ATOM     51  C   UNL A   1      36.747  31.973  31.634  1.00  0.00     0.131 A 
ATOM     52  C   UNL A   1      35.088  32.930  29.642  1.00  0.00     0.055 A 
ATOM     53  C   UNL A   1      35.406  32.225  31.921  1.00  0.00     0.041 A 
ATOM     54  F   UNL A   1      37.519  31.489  32.621  1.00  0.00    -0.206 F 
ATOM     55  C   UNL A   1      34.568  32.707  30.921  1.00  0.00     0.022 A 
BRANCH  52  56
ATOM     56  S   UNL A   1      34.015  33.585  28.335  1.00  0.00     0.124 S 
ATOM     57  O   UNL A   1      34.983  34.230  27.454  1.00  0.00    -0.237 OA
ATOM     58  O   UNL A   1      33.384  32.375  27.819  1.00  0.00    -0.237 OA
ATOM     59  O   UNL A   1      33.122  34.492  29.051  1.00  0.00    -0.744 OA
ENDBRANCH  52  56
ENDBRANCH  25  49
BRANCH  37  60
ATOM     60  C   UNL A   1      43.510  35.289  30.821  1.00  0.00     0.023 A 
ATOM     61  C   UNL A   1      43.592  36.375  29.934  1.00  0.00     0.031 A 
ATOM     62  C   UNL A   1      43.787  35.512  32.181  1.00  0.00     0.131 A 
ATOM     63  C   UNL A   1      43.960  37.639  30.417  1.00  0.00     0.055 A 
ATOM     64  C   UNL A   1      44.113  36.779  32.662  1.00  0.00     0.041 A 
ATOM     65  F   UNL A   1      43.720  34.503  33.064  1.00  0.00    -0.206 F 
ATOM     66  C   UNL A   1      44.203  37.852  31.778  1.00  0.00     0.022 A 
BRANCH  63  67
ATOM     67  S   UNL A   1      44.129  39.012  29.244  1.00  0.00     0.124 S 
ATOM     68  O   UNL A   1      42.796  39.604  29.282  1.00  0.00    -0.237 OA
ATOM     69  O   UNL A   1      45.199  39.807  29.837  1.00  0.00    -0.237 OA
ATOM     70  O   UNL A   1      44.478  38.348  27.989  1.00  0.00    -0.744 OA
ENDBRANCH  63  67
ENDBRANCH  37  60
ENDBRANCH  11  12
ENDBRANCH   4   6
ENDBRANCH   1   2
BRANCH   1  71
ATOM     71  C   UNL A   1      40.990  20.519  27.282  1.00  0.00     0.023 C 
BRANCH  71  72
ATOM     72  C   UNL A   1      42.152  19.550  27.050  1.00  0.00     0.023 C 
BRANCH  72  73
ATOM     73  C   UNL A   1      42.815  19.673  25.677  1.00  0.00     0.116 C 
BRANCH  73  74
ATOM     74  N   UNL A   1      44.242  19.902  25.796  1.00  0.00    -0.356 N 
ATOM     75  C   UNL A   1      44.993  20.909  25.251  1.00  0.00     0.223 C 
ATOM     76  H   UNL A   1      44.736  19.249  26.340  1.00  0.00     0.163 HD
ATOM     77  O   UNL A   1      46.212  20.919  25.376  1.00  0.00    -0.275 OA
BRANCH  75  78
ATOM     78  C   UNL A   1      44.282  21.996  24.533  1.00  0.00     0.086 C 
ATOM     79  C   UNL A   1      44.948  23.317  24.257  1.00  0.00     0.023 C 
ATOM     80  C   UNL A   1      43.820  23.247  25.263  1.00  0.00     0.032 C 
BRANCH  80  81
ATOM     81  C   UNL A   1      44.149  23.554  26.711  1.00  0.00    -0.041 A 
ATOM     82  C   UNL A   1      43.203  23.305  27.727  1.00  0.00     0.004 A 
ATOM     83  C   UNL A   1      45.392  24.067  27.109  1.00  0.00     0.043 A 
ATOM     84  C   UNL A   1      43.470  23.588  29.070  1.00  0.00     0.003 A 
ATOM     85  C   UNL A   1      45.652  24.353  28.447  1.00  0.00     0.123 A 
ATOM     86  C   UNL A   1      44.700  24.121  29.432  1.00  0.00     0.039 A 
ATOM     87  F   UNL A   1      46.844  24.857  28.794  1.00  0.00    -0.207 F 
ENDBRANCH  80  81
ENDBRANCH  75  78
ENDBRANCH  73  74
ENDBRANCH  72  73
ENDBRANCH  71  72
ENDBRANCH   1  71
TORSDOF 15
ENDMDL
