MODEL 1
REMARK VINA RESULT:     -11.8      0.000      0.000
REMARK SMILES CC(C)(C)OC(=O)N1CCC[C@H]1C(=O)N[C@@H](Cc1ccccc1)C(=O)NCCCCNC(=O)c1ccc(-c2c3nc(c(-c4cc(S(=O)(=O)[O-])ccc4F)c4ccc([nH]4)c(-c4cc(S(=O)(=O)[O-])ccc4F)c4nc(c(-c5cc(S(=O)(=O)[O-])ccc5F)c5ccc2[nH]5)C=C4)C=C3)cc1
REMARK SMILES IDX 27 1 26 2 24 3 25 4 16 6 15 7 13 8 14 9 12 11 8 12 9 13
REMARK SMILES IDX 10 14 11 15 6 16 7 17 5 18 2 19 1 20 3 21 4 22 17 23 18 24
REMARK SMILES IDX 19 25 23 26 20 27 22 28 21 29 28 30 29 31 30 32 31 33 32 34
REMARK SMILES IDX 33 36 34 37 35 38 96 39 36 40 95 41 37 42 38 43 39 44 89 45
REMARK SMILES IDX 40 46 94 47 88 48 90 49 41 50 93 51 87 52 86 53 42 55 74 56
REMARK SMILES IDX 54 57 73 58 55 59 58 60 72 61 91 62 56 63 57 64 71 66 92 67
REMARK SMILES IDX 59 68 43 69 44 70 52 71 45 72 51 73 53 74 50 75 46 76 47 77
REMARK SMILES IDX 48 78 49 79 75 80 76 81 84 82 77 83 83 84 85 85 82 86 78 87
REMARK SMILES IDX 79 88 80 89 81 90 60 91 61 92 69 93 62 94 68 95 70 96 67 97
REMARK SMILES IDX 63 98 64 99 65 100 66 101
REMARK H PARENT 26 5 15 10 31 35 90 54 58 65
REMARK Flexibility Score: inf
ROOT
ATOM      1  C   UNL A   1      32.210  29.490  25.941  1.00  0.00     0.116 C 
ENDROOT
BRANCH   1   2
ATOM      2  N   UNL A   1      33.325  29.289  25.040  1.00  0.00    -0.354 N 
ATOM      3  C   UNL A   1      33.369  28.581  23.872  1.00  0.00     0.242 C 
ATOM      4  O   UNL A   1      34.151  28.983  23.000  1.00  0.00    -0.273 OA
ATOM      5  H   UNL A   1      34.168  29.721  25.307  1.00  0.00     0.163 HD
BRANCH   3   6
ATOM      6  C   UNL A   1      32.407  27.409  23.543  1.00  0.00     0.175 C 
BRANCH   6   7
ATOM      7  N   UNL A   1      31.682  26.863  24.696  1.00  0.00    -0.342 N 
ATOM      8  C   UNL A   1      31.872  25.669  25.337  1.00  0.00     0.243 C 
ATOM      9  O   UNL A   1      31.390  25.539  26.466  1.00  0.00    -0.273 OA
ATOM     10  H   UNL A   1      30.963  27.432  25.056  1.00  0.00     0.164 HD
BRANCH   8  11
ATOM     11  C   UNL A   1      32.534  24.490  24.597  1.00  0.00     0.178 C 
ATOM     12  N   UNL A   1      32.856  23.350  25.445  1.00  0.00    -0.296 N 
ATOM     13  C   UNL A   1      32.142  22.155  25.049  1.00  0.00     0.124 C 
ATOM     14  C   UNL A   1      31.760  22.424  23.603  1.00  0.00     0.024 C 
ATOM     15  C   UNL A   1      31.534  23.931  23.572  1.00  0.00     0.037 C 
BRANCH  12  16
ATOM     16  C   UNL A   1      33.901  23.427  26.329  1.00  0.00     0.410 C 
ATOM     17  O   UNL A   1      33.778  23.145  27.515  1.00  0.00    -0.224 OA
BRANCH  16  18
ATOM     18  O   UNL A   1      35.028  23.915  25.753  1.00  0.00    -0.444 OA
BRANCH  18  19
ATOM     19  C   UNL A   1      35.989  23.034  25.112  1.00  0.00     0.106 C 
ATOM     20  C   UNL A   1      37.363  23.641  25.440  1.00  0.00     0.056 C 
ATOM     21  C   UNL A   1      35.768  23.072  23.599  1.00  0.00     0.056 C 
ATOM     22  C   UNL A   1      35.975  21.595  25.650  1.00  0.00     0.056 C 
ENDBRANCH  18  19
ENDBRANCH  16  18
ENDBRANCH  12  16
ENDBRANCH   8  11
ENDBRANCH   6   7
BRANCH   6  23
ATOM     23  C   UNL A   1      31.529  27.653  22.297  1.00  0.00     0.070 C 
BRANCH  23  24
ATOM     24  C   UNL A   1      30.200  28.339  22.493  1.00  0.00    -0.045 A 
ATOM     25  C   UNL A   1      29.999  29.642  22.017  1.00  0.00     0.004 A 
ATOM     26  C   UNL A   1      29.142  27.688  23.142  1.00  0.00     0.004 A 
ATOM     27  C   UNL A   1      28.795  30.309  22.256  1.00  0.00     0.000 A 
ATOM     28  C   UNL A   1      27.928  28.346  23.354  1.00  0.00     0.000 A 
ATOM     29  C   UNL A   1      27.763  29.663  22.929  1.00  0.00     0.000 A 
ENDBRANCH  23  24
ENDBRANCH   6  23
ENDBRANCH   3   6
ENDBRANCH   1   2
BRANCH   1  30
ATOM     30  C   UNL A   1      31.109  30.393  25.407  1.00  0.00     0.023 C 
BRANCH  30  31
ATOM     31  C   UNL A   1      31.151  31.838  25.913  1.00  0.00     0.023 C 
BRANCH  31  32
ATOM     32  C   UNL A   1      32.048  32.124  27.120  1.00  0.00     0.116 C 
BRANCH  32  33
ATOM     33  N   UNL A   1      32.281  33.538  27.383  1.00  0.00    -0.352 N 
ATOM     34  C   UNL A   1      33.406  34.133  27.914  1.00  0.00     0.251 C 
ATOM     35  H   UNL A   1      31.542  34.146  27.153  1.00  0.00     0.163 HD
ATOM     36  O   UNL A   1      33.437  35.344  28.109  1.00  0.00    -0.269 OA
BRANCH  34  37
ATOM     37  C   UNL A   1      34.559  33.283  28.287  1.00  0.00     0.039 A 
ATOM     38  C   UNL A   1      35.844  33.829  28.250  1.00  0.00     0.014 A 
ATOM     39  C   UNL A   1      34.356  31.981  28.753  1.00  0.00     0.014 A 
ATOM     40  C   UNL A   1      36.917  33.105  28.780  1.00  0.00     0.010 A 
ATOM     41  C   UNL A   1      35.417  31.286  29.332  1.00  0.00     0.010 A 
ATOM     42  C   UNL A   1      36.702  31.851  29.376  1.00  0.00    -0.014 A 
BRANCH  42  43
ATOM     43  C   UNL A   1      37.793  31.127  30.085  1.00  0.00     0.031 A 
ATOM     44  C   UNL A   1      38.135  31.486  31.505  1.00  0.00     0.074 A 
ATOM     45  C   UNL A   1      38.530  30.210  29.425  1.00  0.00     0.049 A 
ATOM     46  N   UNL A   1      39.137  31.082  32.243  1.00  0.00    -0.248 NA
ATOM     47  C   UNL A   1      37.242  32.444  32.174  1.00  0.00     0.031 C 
ATOM     48  C   UNL A   1      38.313  29.790  28.038  1.00  0.00     0.029 A 
ATOM     49  N   UNL A   1      39.624  29.478  29.821  1.00  0.00    -0.354 N 
ATOM     50  C   UNL A   1      39.000  31.738  33.462  1.00  0.00     0.074 A 
ATOM     51  C   UNL A   1      37.849  32.609  33.340  1.00  0.00     0.031 C 
ATOM     52  C   UNL A   1      39.237  28.873  27.705  1.00  0.00     0.029 A 
ATOM     53  C   UNL A   1      40.145  28.675  28.830  1.00  0.00     0.049 A 
ATOM     54  H   UNL A   1      40.000  29.522  30.730  1.00  0.00     0.167 HD
ATOM     55  C   UNL A   1      39.750  31.610  34.583  1.00  0.00     0.034 A 
ATOM     56  C   UNL A   1      41.242  27.889  28.820  1.00  0.00     0.034 A 
ATOM     57  C   UNL A   1      40.893  30.738  34.694  1.00  0.00     0.049 A 
ATOM     58  C   UNL A   1      42.089  27.800  30.069  1.00  0.00     0.074 A 
ATOM     59  C   UNL A   1      41.717  30.530  35.788  1.00  0.00     0.029 A 
ATOM     60  N   UNL A   1      41.374  29.924  33.676  1.00  0.00    -0.354 N 
ATOM     61  N   UNL A   1      41.932  28.416  31.217  1.00  0.00    -0.248 NA
ATOM     62  C   UNL A   1      43.252  26.903  30.025  1.00  0.00     0.031 C 
ATOM     63  C   UNL A   1      42.724  29.633  35.416  1.00  0.00     0.029 A 
ATOM     64  C   UNL A   1      42.488  29.226  34.115  1.00  0.00     0.049 A 
ATOM     65  H   UNL A   1      40.983  29.856  32.776  1.00  0.00     0.167 HD
ATOM     66  C   UNL A   1      42.947  27.941  32.044  1.00  0.00     0.074 A 
ATOM     67  C   UNL A   1      43.708  26.988  31.267  1.00  0.00     0.031 C 
ATOM     68  C   UNL A   1      43.222  28.260  33.333  1.00  0.00     0.034 A 
BRANCH  55  69
ATOM     69  C   UNL A   1      39.362  32.446  35.778  1.00  0.00     0.023 A 
ATOM     70  C   UNL A   1      39.748  33.793  35.884  1.00  0.00     0.031 A 
ATOM     71  C   UNL A   1      38.597  31.894  36.820  1.00  0.00     0.131 A 
ATOM     72  C   UNL A   1      39.421  34.525  37.035  1.00  0.00     0.055 A 
ATOM     73  C   UNL A   1      38.211  32.651  37.928  1.00  0.00     0.041 A 
ATOM     74  F   UNL A   1      38.216  30.607  36.781  1.00  0.00    -0.206 F 
ATOM     75  C   UNL A   1      38.633  33.971  38.045  1.00  0.00     0.022 A 
BRANCH  72  76
ATOM     76  S   UNL A   1      40.141  36.176  37.243  1.00  0.00     0.124 S 
ATOM     77  O   UNL A   1      39.320  36.721  38.321  1.00  0.00    -0.237 OA
ATOM     78  O   UNL A   1      41.527  35.877  37.584  1.00  0.00    -0.237 OA
ATOM     79  O   UNL A   1      39.942  36.803  35.938  1.00  0.00    -0.744 OA
ENDBRANCH  72  76
ENDBRANCH  55  69
BRANCH  56  80
ATOM     80  C   UNL A   1      41.636  27.139  27.590  1.00  0.00     0.023 A 
ATOM     81  C   UNL A   1      41.480  25.746  27.512  1.00  0.00     0.031 A 
ATOM     82  C   UNL A   1      42.251  27.792  26.507  1.00  0.00     0.131 A 
ATOM     83  C   UNL A   1      41.996  25.042  26.412  1.00  0.00     0.055 A 
ATOM     84  C   UNL A   1      42.703  27.096  25.384  1.00  0.00     0.041 A 
ATOM     85  F   UNL A   1      42.426  29.123  26.524  1.00  0.00    -0.206 F 
ATOM     86  C   UNL A   1      42.595  25.709  25.341  1.00  0.00     0.022 A 
BRANCH  83  87
ATOM     87  S   UNL A   1      41.993  23.229  26.464  1.00  0.00     0.124 S 
ATOM     88  O   UNL A   1      40.567  22.938  26.565  1.00  0.00    -0.237 OA
ATOM     89  O   UNL A   1      42.630  22.890  25.196  1.00  0.00    -0.237 OA
ATOM     90  O   UNL A   1      42.778  22.923  27.658  1.00  0.00    -0.744 OA
ENDBRANCH  83  87
ENDBRANCH  56  80
BRANCH  68  91
ATOM     91  C   UNL A   1      44.338  27.506  34.013  1.00  0.00     0.023 A 
ATOM     92  C   UNL A   1      44.106  26.329  34.745  1.00  0.00     0.031 A 
ATOM     93  C   UNL A   1      45.660  27.972  33.905  1.00  0.00     0.131 A 
ATOM     94  C   UNL A   1      45.179  25.679  35.376  1.00  0.00     0.055 A 
ATOM     95  C   UNL A   1      46.729  27.294  34.490  1.00  0.00     0.041 A 
ATOM     96  F   UNL A   1      45.935  29.091  33.216  1.00  0.00    -0.206 F 
ATOM     97  C   UNL A   1      46.490  26.145  35.239  1.00  0.00     0.022 A 
BRANCH  94  98
ATOM     98  S   UNL A   1      44.834  24.243  36.428  1.00  0.00     0.124 S 
ATOM     99  O   UNL A   1      43.938  23.457  35.587  1.00  0.00    -0.237 OA
ATOM    100  O   UNL A   1      46.165  23.683  36.639  1.00  0.00    -0.237 OA
ATOM    101  O   UNL A   1      44.216  24.828  37.617  1.00  0.00    -0.744 OA
ENDBRANCH  94  98
ENDBRANCH  68  91
ENDBRANCH  42  43
ENDBRANCH  34  37
ENDBRANCH  32  33
ENDBRANCH  31  32
ENDBRANCH  30  31
ENDBRANCH   1  30
TORSDOF 21
ENDMDL
MODEL 2
REMARK VINA RESULT:     -11.7      4.975     10.702
REMARK SMILES CC(C)(C)OC(=O)N1CCC[C@H]1C(=O)N[C@@H](Cc1ccccc1)C(=O)NCCCCNC(=O)c1ccc(-c2c3nc(c(-c4cc(S(=O)(=O)[O-])ccc4F)c4ccc([nH]4)c(-c4cc(S(=O)(=O)[O-])ccc4F)c4nc(c(-c5cc(S(=O)(=O)[O-])ccc5F)c5ccc2[nH]5)C=C4)C=C3)cc1
REMARK SMILES IDX 27 1 26 2 24 3 25 4 16 6 15 7 13 8 14 9 12 11 8 12 9 13
REMARK SMILES IDX 10 14 11 15 6 16 7 17 5 18 2 19 1 20 3 21 4 22 17 23 18 24
REMARK SMILES IDX 19 25 23 26 20 27 22 28 21 29 28 30 29 31 30 32 31 33 32 34
REMARK SMILES IDX 33 36 34 37 35 38 96 39 36 40 95 41 37 42 38 43 39 44 89 45
REMARK SMILES IDX 40 46 94 47 88 48 90 49 41 50 93 51 87 52 86 53 42 55 74 56
REMARK SMILES IDX 54 57 73 58 55 59 58 60 72 61 91 62 56 63 57 64 71 66 92 67
REMARK SMILES IDX 59 68 43 69 44 70 52 71 45 72 51 73 53 74 50 75 46 76 47 77
REMARK SMILES IDX 48 78 49 79 75 80 76 81 84 82 77 83 83 84 85 85 82 86 78 87
REMARK SMILES IDX 79 88 80 89 81 90 60 91 61 92 69 93 62 94 68 95 70 96 67 97
REMARK SMILES IDX 63 98 64 99 65 100 66 101
REMARK H PARENT 26 5 15 10 31 35 90 54 58 65
REMARK Flexibility Score: inf
ROOT
ATOM      1  C   UNL A   1      36.400  21.131  25.014  1.00  0.00     0.116 C 
ENDROOT
BRANCH   1   2
ATOM      2  N   UNL A   1      35.728  21.556  26.223  1.00  0.00    -0.354 N 
ATOM      3  C   UNL A   1      34.389  21.598  26.491  1.00  0.00     0.242 C 
ATOM      4  O   UNL A   1      34.045  21.419  27.668  1.00  0.00    -0.273 OA
ATOM      5  H   UNL A   1      36.317  21.858  26.951  1.00  0.00     0.163 HD
BRANCH   3   6
ATOM      6  C   UNL A   1      33.297  21.718  25.395  1.00  0.00     0.175 C 
BRANCH   6   7
ATOM      7  N   UNL A   1      33.791  22.123  24.074  1.00  0.00    -0.342 N 
ATOM      8  C   UNL A   1      33.716  23.350  23.473  1.00  0.00     0.243 C 
ATOM      9  O   UNL A   1      34.465  23.570  22.517  1.00  0.00    -0.273 OA
ATOM     10  H   UNL A   1      34.237  21.417  23.550  1.00  0.00     0.164 HD
BRANCH   8  11
ATOM     11  C   UNL A   1      32.621  24.351  23.892  1.00  0.00     0.178 C 
ATOM     12  N   UNL A   1      32.542  25.543  23.059  1.00  0.00    -0.296 N 
ATOM     13  C   UNL A   1      31.266  25.657  22.387  1.00  0.00     0.124 C 
ATOM     14  C   UNL A   1      30.338  24.792  23.222  1.00  0.00     0.024 C 
ATOM     15  C   UNL A   1      31.250  23.677  23.724  1.00  0.00     0.037 C 
BRANCH  12  16
ATOM     16  C   UNL A   1      33.511  26.509  23.152  1.00  0.00     0.410 C 
ATOM     17  O   UNL A   1      34.050  26.993  22.163  1.00  0.00    -0.224 OA
BRANCH  16  18
ATOM     18  O   UNL A   1      33.835  26.791  24.438  1.00  0.00    -0.444 OA
BRANCH  18  19
ATOM     19  C   UNL A   1      33.137  27.824  25.183  1.00  0.00     0.106 C 
ATOM     20  C   UNL A   1      32.625  28.806  24.116  1.00  0.00     0.056 C 
ATOM     21  C   UNL A   1      34.134  28.542  26.094  1.00  0.00     0.056 C 
ATOM     22  C   UNL A   1      31.919  27.314  25.969  1.00  0.00     0.056 C 
ENDBRANCH  18  19
ENDBRANCH  16  18
ENDBRANCH  12  16
ENDBRANCH   8  11
ENDBRANCH   6   7
BRANCH   6  23
ATOM     23  C   UNL A   1      32.307  20.535  25.368  1.00  0.00     0.070 C 
BRANCH  23  24
ATOM     24  C   UNL A   1      32.712  19.291  24.616  1.00  0.00    -0.045 A 
ATOM     25  C   UNL A   1      32.421  19.164  23.251  1.00  0.00     0.004 A 
ATOM     26  C   UNL A   1      33.391  18.250  25.261  1.00  0.00     0.004 A 
ATOM     27  C   UNL A   1      32.732  17.988  22.565  1.00  0.00     0.000 A 
ATOM     28  C   UNL A   1      33.727  17.086  24.566  1.00  0.00     0.000 A 
ATOM     29  C   UNL A   1      33.378  16.947  23.224  1.00  0.00     0.000 A 
ENDBRANCH  23  24
ENDBRANCH   6  23
ENDBRANCH   3   6
ENDBRANCH   1   2
BRANCH   1  30
ATOM     30  C   UNL A   1      36.621  19.630  24.897  1.00  0.00     0.023 C 
BRANCH  30  31
ATOM     31  C   UNL A   1      38.083  19.181  24.963  1.00  0.00     0.023 C 
BRANCH  31  32
ATOM     32  C   UNL A   1      39.036  20.044  25.794  1.00  0.00     0.116 C 
BRANCH  32  33
ATOM     33  N   UNL A   1      40.312  19.413  26.106  1.00  0.00    -0.352 N 
ATOM     34  C   UNL A   1      41.447  19.996  26.628  1.00  0.00     0.251 C 
ATOM     35  H   UNL A   1      40.371  18.447  25.920  1.00  0.00     0.163 HD
ATOM     36  O   UNL A   1      42.464  19.331  26.804  1.00  0.00    -0.269 OA
BRANCH  34  37
ATOM     37  C   UNL A   1      41.435  21.443  26.932  1.00  0.00     0.039 A 
ATOM     38  C   UNL A   1      41.706  21.866  28.236  1.00  0.00     0.014 A 
ATOM     39  C   UNL A   1      41.243  22.379  25.911  1.00  0.00     0.014 A 
ATOM     40  C   UNL A   1      41.888  23.227  28.497  1.00  0.00     0.010 A 
ATOM     41  C   UNL A   1      41.481  23.729  26.163  1.00  0.00     0.010 A 
ATOM     42  C   UNL A   1      41.833  24.164  27.451  1.00  0.00    -0.014 A 
BRANCH  42  43
ATOM     43  C   UNL A   1      42.175  25.597  27.668  1.00  0.00     0.031 A 
ATOM     44  C   UNL A   1      43.550  26.102  27.329  1.00  0.00     0.074 A 
ATOM     45  C   UNL A   1      41.278  26.421  28.249  1.00  0.00     0.049 A 
ATOM     46  N   UNL A   1      44.089  27.268  27.579  1.00  0.00    -0.248 NA
ATOM     47  C   UNL A   1      44.444  25.160  26.639  1.00  0.00     0.031 C 
ATOM     48  C   UNL A   1      39.918  26.046  28.646  1.00  0.00     0.029 A 
ATOM     49  N   UNL A   1      41.378  27.739  28.627  1.00  0.00    -0.354 N 
ATOM     50  C   UNL A   1      45.386  27.201  27.080  1.00  0.00     0.074 A 
ATOM     51  C   UNL A   1      45.568  25.859  26.566  1.00  0.00     0.031 C 
ATOM     52  C   UNL A   1      39.312  27.109  29.202  1.00  0.00     0.029 A 
ATOM     53  C   UNL A   1      40.250  28.225  29.253  1.00  0.00     0.049 A 
ATOM     54  H   UNL A   1      42.180  28.285  28.465  1.00  0.00     0.167 HD
ATOM     55  C   UNL A   1      46.329  28.174  27.036  1.00  0.00     0.034 A 
ATOM     56  C   UNL A   1      40.009  29.424  29.824  1.00  0.00     0.034 A 
ATOM     57  C   UNL A   1      46.137  29.507  27.549  1.00  0.00     0.049 A 
ATOM     58  C   UNL A   1      41.093  30.476  29.803  1.00  0.00     0.074 A 
ATOM     59  C   UNL A   1      47.026  30.569  27.547  1.00  0.00     0.029 A 
ATOM     60  N   UNL A   1      44.974  29.967  28.154  1.00  0.00    -0.354 N 
ATOM     61  N   UNL A   1      42.308  30.397  29.311  1.00  0.00    -0.248 NA
ATOM     62  C   UNL A   1      40.773  31.778  30.403  1.00  0.00     0.031 C 
ATOM     63  C   UNL A   1      46.422  31.651  28.196  1.00  0.00     0.029 A 
ATOM     64  C   UNL A   1      45.130  31.289  28.538  1.00  0.00     0.049 A 
ATOM     65  H   UNL A   1      44.160  29.432  28.291  1.00  0.00     0.167 HD
ATOM     66  C   UNL A   1      42.874  31.656  29.499  1.00  0.00     0.074 A 
ATOM     67  C   UNL A   1      41.871  32.474  30.146  1.00  0.00     0.031 C 
ATOM     68  C   UNL A   1      44.111  32.099  29.161  1.00  0.00     0.034 A 
BRANCH  55  69
ATOM     69  C   UNL A   1      47.661  27.822  26.420  1.00  0.00     0.023 A 
ATOM     70  C   UNL A   1      47.837  27.794  25.027  1.00  0.00     0.031 A 
ATOM     71  C   UNL A   1      48.766  27.513  27.232  1.00  0.00     0.131 A 
ATOM     72  C   UNL A   1      49.071  27.404  24.485  1.00  0.00     0.055 A 
ATOM     73  C   UNL A   1      50.013  27.200  26.687  1.00  0.00     0.041 A 
ATOM     74  F   UNL A   1      48.652  27.506  28.570  1.00  0.00    -0.206 F 
ATOM     75  C   UNL A   1      50.167  27.133  25.306  1.00  0.00     0.022 A 
BRANCH  72  76
ATOM     76  S   UNL A   1      49.186  27.145  22.695  1.00  0.00     0.124 S 
ATOM     77  O   UNL A   1      50.633  27.135  22.492  1.00  0.00    -0.237 OA
ATOM     78  O   UNL A   1      48.508  25.867  22.515  1.00  0.00    -0.237 OA
ATOM     79  O   UNL A   1      48.492  28.303  22.136  1.00  0.00    -0.744 OA
ENDBRANCH  72  76
ENDBRANCH  55  69
BRANCH  56  80
ATOM     80  C   UNL A   1      38.703  29.704  30.494  1.00  0.00     0.023 A 
ATOM     81  C   UNL A   1      37.706  30.451  29.849  1.00  0.00     0.031 A 
ATOM     82  C   UNL A   1      38.465  29.300  31.820  1.00  0.00     0.131 A 
ATOM     83  C   UNL A   1      36.550  30.833  30.549  1.00  0.00     0.055 A 
ATOM     84  C   UNL A   1      37.285  29.625  32.492  1.00  0.00     0.041 A 
ATOM     85  F   UNL A   1      39.382  28.581  32.487  1.00  0.00    -0.206 F 
ATOM     86  C   UNL A   1      36.327  30.414  31.863  1.00  0.00     0.022 A 
BRANCH  83  87
ATOM     87  S   UNL A   1      35.406  32.000  29.762  1.00  0.00     0.124 S 
ATOM     88  O   UNL A   1      34.541  32.365  30.879  1.00  0.00    -0.237 OA
ATOM     89  O   UNL A   1      36.314  33.038  29.287  1.00  0.00    -0.237 OA
ATOM     90  O   UNL A   1      34.771  31.200  28.717  1.00  0.00    -0.744 OA
ENDBRANCH  83  87
ENDBRANCH  56  80
BRANCH  68  91
ATOM     91  C   UNL A   1      44.417  33.556  29.402  1.00  0.00     0.023 A 
ATOM     92  C   UNL A   1      44.072  34.555  28.477  1.00  0.00     0.031 A 
ATOM     93  C   UNL A   1      45.054  33.946  30.595  1.00  0.00     0.131 A 
ATOM     94  C   UNL A   1      44.400  35.894  28.742  1.00  0.00     0.055 A 
ATOM     95  C   UNL A   1      45.331  35.283  30.877  1.00  0.00     0.041 A 
ATOM     96  F   UNL A   1      45.405  33.030  31.512  1.00  0.00    -0.206 F 
ATOM     97  C   UNL A   1      45.013  36.265  29.942  1.00  0.00     0.022 A 
BRANCH  94  98
ATOM     98  S   UNL A   1      44.068  37.144  27.471  1.00  0.00     0.124 S 
ATOM     99  O   UNL A   1      43.615  38.277  28.270  1.00  0.00    -0.237 OA
ATOM    100  O   UNL A   1      45.371  37.295  26.832  1.00  0.00    -0.237 OA
ATOM    101  O   UNL A   1      43.041  36.522  26.637  1.00  0.00    -0.744 OA
ENDBRANCH  94  98
ENDBRANCH  68  91
ENDBRANCH  42  43
ENDBRANCH  34  37
ENDBRANCH  32  33
ENDBRANCH  31  32
ENDBRANCH  30  31
ENDBRANCH   1  30
TORSDOF 21
ENDMDL
MODEL 3
REMARK VINA RESULT:     -11.6      2.240      2.892
REMARK SMILES CC(C)(C)OC(=O)N1CCC[C@H]1C(=O)N[C@@H](Cc1ccccc1)C(=O)NCCCCNC(=O)c1ccc(-c2c3nc(c(-c4cc(S(=O)(=O)[O-])ccc4F)c4ccc([nH]4)c(-c4cc(S(=O)(=O)[O-])ccc4F)c4nc(c(-c5cc(S(=O)(=O)[O-])ccc5F)c5ccc2[nH]5)C=C4)C=C3)cc1
REMARK SMILES IDX 27 1 26 2 24 3 25 4 16 6 15 7 13 8 14 9 12 11 8 12 9 13
REMARK SMILES IDX 10 14 11 15 6 16 7 17 5 18 2 19 1 20 3 21 4 22 17 23 18 24
REMARK SMILES IDX 19 25 23 26 20 27 22 28 21 29 28 30 29 31 30 32 31 33 32 34
REMARK SMILES IDX 33 36 34 37 35 38 96 39 36 40 95 41 37 42 38 43 39 44 89 45
REMARK SMILES IDX 40 46 94 47 88 48 90 49 41 50 93 51 87 52 86 53 42 55 74 56
REMARK SMILES IDX 54 57 73 58 55 59 58 60 72 61 91 62 56 63 57 64 71 66 92 67
REMARK SMILES IDX 59 68 43 69 44 70 52 71 45 72 51 73 53 74 50 75 46 76 47 77
REMARK SMILES IDX 48 78 49 79 75 80 76 81 84 82 77 83 83 84 85 85 82 86 78 87
REMARK SMILES IDX 79 88 80 89 81 90 60 91 61 92 69 93 62 94 68 95 70 96 67 97
REMARK SMILES IDX 63 98 64 99 65 100 66 101
REMARK H PARENT 26 5 15 10 31 35 90 54 58 65
REMARK Flexibility Score: inf
ROOT
ATOM      1  C   UNL A   1      34.025  29.356  27.014  1.00  0.00     0.116 C 
ENDROOT
BRANCH   1   2
ATOM      2  N   UNL A   1      32.623  29.198  27.338  1.00  0.00    -0.354 N 
ATOM      3  C   UNL A   1      31.863  28.063  27.331  1.00  0.00     0.242 C 
ATOM      4  O   UNL A   1      30.932  28.004  28.147  1.00  0.00    -0.273 OA
ATOM      5  H   UNL A   1      32.152  30.022  27.597  1.00  0.00     0.163 HD
BRANCH   3   6
ATOM      6  C   UNL A   1      32.188  26.817  26.466  1.00  0.00     0.175 C 
BRANCH   6   7
ATOM      7  N   UNL A   1      31.470  25.596  26.848  1.00  0.00    -0.342 N 
ATOM      8  C   UNL A   1      31.645  24.321  26.382  1.00  0.00     0.243 C 
ATOM      9  O   UNL A   1      31.178  23.394  27.051  1.00  0.00    -0.273 OA
ATOM     10  H   UNL A   1      30.769  25.708  27.531  1.00  0.00     0.164 HD
BRANCH   8  11
ATOM     11  C   UNL A   1      32.268  24.083  24.992  1.00  0.00     0.178 C 
ATOM     12  N   UNL A   1      33.432  23.206  24.995  1.00  0.00    -0.296 N 
ATOM     13  C   UNL A   1      33.213  22.006  24.217  1.00  0.00     0.124 C 
ATOM     14  C   UNL A   1      32.076  22.382  23.282  1.00  0.00     0.024 C 
ATOM     15  C   UNL A   1      31.242  23.352  24.113  1.00  0.00     0.037 C 
BRANCH  12  16
ATOM     16  C   UNL A   1      34.627  23.656  25.493  1.00  0.00     0.410 C 
ATOM     17  O   UNL A   1      34.878  24.849  25.619  1.00  0.00    -0.224 OA
BRANCH  16  18
ATOM     18  O   UNL A   1      35.493  22.643  25.747  1.00  0.00    -0.444 OA
BRANCH  18  19
ATOM     19  C   UNL A   1      36.757  22.535  25.039  1.00  0.00     0.106 C 
ATOM     20  C   UNL A   1      37.077  21.031  25.025  1.00  0.00     0.056 C 
ATOM     21  C   UNL A   1      37.836  23.275  25.831  1.00  0.00     0.056 C 
ATOM     22  C   UNL A   1      36.699  23.012  23.579  1.00  0.00     0.056 C 
ENDBRANCH  18  19
ENDBRANCH  16  18
ENDBRANCH  12  16
ENDBRANCH   8  11
ENDBRANCH   6   7
BRANCH   6  23
ATOM     23  C   UNL A   1      32.202  27.096  24.948  1.00  0.00     0.070 C 
BRANCH  23  24
ATOM     24  C   UNL A   1      30.930  27.593  24.309  1.00  0.00    -0.045 A 
ATOM     25  C   UNL A   1      30.843  28.910  23.836  1.00  0.00     0.004 A 
ATOM     26  C   UNL A   1      29.819  26.751  24.167  1.00  0.00     0.004 A 
ATOM     27  C   UNL A   1      29.646  29.398  23.307  1.00  0.00     0.000 A 
ATOM     28  C   UNL A   1      28.632  27.232  23.610  1.00  0.00     0.000 A 
ATOM     29  C   UNL A   1      28.539  28.561  23.200  1.00  0.00     0.000 A 
ENDBRANCH  23  24
ENDBRANCH   6  23
ENDBRANCH   3   6
ENDBRANCH   1   2
BRANCH   1  30
ATOM     30  C   UNL A   1      34.693  30.574  27.635  1.00  0.00     0.023 C 
BRANCH  30  31
ATOM     31  C   UNL A   1      33.734  31.667  28.114  1.00  0.00     0.023 C 
BRANCH  31  32
ATOM     32  C   UNL A   1      33.851  33.036  27.440  1.00  0.00     0.116 C 
BRANCH  32  33
ATOM     33  N   UNL A   1      33.092  34.099  28.086  1.00  0.00    -0.352 N 
ATOM     34  C   UNL A   1      33.302  34.664  29.326  1.00  0.00     0.251 C 
ATOM     35  H   UNL A   1      32.332  34.459  27.573  1.00  0.00     0.163 HD
ATOM     36  O   UNL A   1      32.548  35.535  29.749  1.00  0.00    -0.269 OA
BRANCH  34  37
ATOM     37  C   UNL A   1      34.423  34.175  30.157  1.00  0.00     0.039 A 
ATOM     38  C   UNL A   1      34.150  33.331  31.237  1.00  0.00     0.014 A 
ATOM     39  C   UNL A   1      35.743  34.480  29.815  1.00  0.00     0.014 A 
ATOM     40  C   UNL A   1      35.206  32.709  31.910  1.00  0.00     0.010 A 
ATOM     41  C   UNL A   1      36.790  33.815  30.450  1.00  0.00     0.010 A 
ATOM     42  C   UNL A   1      36.531  32.901  31.486  1.00  0.00    -0.014 A 
BRANCH  42  43
ATOM     43  C   UNL A   1      37.660  32.134  32.081  1.00  0.00     0.031 A 
ATOM     44  C   UNL A   1      38.196  32.513  33.434  1.00  0.00     0.074 A 
ATOM     45  C   UNL A   1      38.258  31.157  31.368  1.00  0.00     0.049 A 
ATOM     46  N   UNL A   1      39.258  32.071  34.057  1.00  0.00    -0.248 NA
ATOM     47  C   UNL A   1      37.447  33.541  34.173  1.00  0.00     0.031 C 
ATOM     48  C   UNL A   1      37.847  30.711  30.034  1.00  0.00     0.029 A 
ATOM     49  N   UNL A   1      39.351  30.374  31.653  1.00  0.00    -0.354 N 
ATOM     50  C   UNL A   1      39.310  32.769  35.260  1.00  0.00     0.074 A 
ATOM     51  C   UNL A   1      38.203  33.703  35.249  1.00  0.00     0.031 C 
ATOM     52  C   UNL A   1      38.671  29.732  29.623  1.00  0.00     0.029 A 
ATOM     53  C   UNL A   1      39.700  29.514  30.634  1.00  0.00     0.049 A 
ATOM     54  H   UNL A   1      39.839  30.421  32.506  1.00  0.00     0.167 HD
ATOM     55  C   UNL A   1      40.187  32.629  36.284  1.00  0.00     0.034 A 
ATOM     56  C   UNL A   1      40.742  28.664  30.517  1.00  0.00     0.034 A 
ATOM     57  C   UNL A   1      41.285  31.695  36.285  1.00  0.00     0.049 A 
ATOM     58  C   UNL A   1      41.732  28.561  31.655  1.00  0.00     0.074 A 
ATOM     59  C   UNL A   1      42.226  31.470  37.276  1.00  0.00     0.029 A 
ATOM     60  N   UNL A   1      41.590  30.825  35.245  1.00  0.00    -0.354 N 
ATOM     61  N   UNL A   1      41.753  29.218  32.791  1.00  0.00    -0.248 NA
ATOM     62  C   UNL A   1      42.830  27.596  31.501  1.00  0.00     0.031 C 
ATOM     63  C   UNL A   1      43.128  30.505  36.815  1.00  0.00     0.029 A 
ATOM     64  C   UNL A   1      42.709  30.075  35.568  1.00  0.00     0.049 A 
ATOM     65  H   UNL A   1      41.086  30.754  34.403  1.00  0.00     0.167 HD
ATOM     66  C   UNL A   1      42.836  28.708  33.503  1.00  0.00     0.074 A 
ATOM     67  C   UNL A   1      43.441  27.689  32.672  1.00  0.00     0.031 C 
ATOM     68  C   UNL A   1      43.286  29.046  34.737  1.00  0.00     0.034 A 
BRANCH  55  69
ATOM     69  C   UNL A   1      39.997  33.520  37.487  1.00  0.00     0.023 A 
ATOM     70  C   UNL A   1      39.190  33.127  38.567  1.00  0.00     0.031 A 
ATOM     71  C   UNL A   1      40.628  34.775  37.556  1.00  0.00     0.131 A 
ATOM     72  C   UNL A   1      38.985  34.004  39.643  1.00  0.00     0.055 A 
ATOM     73  C   UNL A   1      40.481  35.610  38.665  1.00  0.00     0.041 A 
ATOM     74  F   UNL A   1      41.396  35.210  36.545  1.00  0.00    -0.206 F 
ATOM     75  C   UNL A   1      39.646  35.231  39.711  1.00  0.00     0.022 A 
BRANCH  72  76
ATOM     76  S   UNL A   1      37.750  33.563  40.895  1.00  0.00     0.124 S 
ATOM     77  O   UNL A   1      37.436  34.868  41.471  1.00  0.00    -0.237 OA
ATOM     78  O   UNL A   1      36.696  32.947  40.098  1.00  0.00    -0.237 OA
ATOM     79  O   UNL A   1      38.473  32.654  41.783  1.00  0.00    -0.744 OA
ENDBRANCH  72  76
ENDBRANCH  55  69
BRANCH  56  80
ATOM     80  C   UNL A   1      40.938  27.857  29.276  1.00  0.00     0.023 A 
ATOM     81  C   UNL A   1      41.926  28.198  28.339  1.00  0.00     0.031 A 
ATOM     82  C   UNL A   1      40.085  26.782  28.966  1.00  0.00     0.131 A 
ATOM     83  C   UNL A   1      41.993  27.523  27.110  1.00  0.00     0.055 A 
ATOM     84  C   UNL A   1      40.198  26.069  27.771  1.00  0.00     0.041 A 
ATOM     85  F   UNL A   1      39.122  26.408  29.825  1.00  0.00    -0.206 F 
ATOM     86  C   UNL A   1      41.144  26.451  26.825  1.00  0.00     0.022 A 
BRANCH  83  87
ATOM     87  S   UNL A   1      43.118  28.153  25.835  1.00  0.00     0.124 S 
ATOM     88  O   UNL A   1      43.243  29.556  26.217  1.00  0.00    -0.237 OA
ATOM     89  O   UNL A   1      44.300  27.324  26.039  1.00  0.00    -0.237 OA
ATOM     90  O   UNL A   1      42.392  27.909  24.591  1.00  0.00    -0.744 OA
ENDBRANCH  83  87
ENDBRANCH  56  80
BRANCH  68  91
ATOM     91  C   UNL A   1      44.435  28.247  35.301  1.00  0.00     0.023 A 
ATOM     92  C   UNL A   1      44.242  27.012  35.942  1.00  0.00     0.031 A 
ATOM     93  C   UNL A   1      45.749  28.731  35.173  1.00  0.00     0.131 A 
ATOM     94  C   UNL A   1      45.345  26.320  36.467  1.00  0.00     0.055 A 
ATOM     95  C   UNL A   1      46.847  28.016  35.651  1.00  0.00     0.041 A 
ATOM     96  F   UNL A   1      45.988  29.907  34.568  1.00  0.00    -0.206 F 
ATOM     97  C   UNL A   1      46.646  26.807  36.311  1.00  0.00     0.022 A 
BRANCH  94  98
ATOM     98  S   UNL A   1      45.055  24.799  37.410  1.00  0.00     0.124 S 
ATOM     99  O   UNL A   1      46.396  24.231  37.493  1.00  0.00    -0.237 OA
ATOM    100  O   UNL A   1      44.500  25.307  38.661  1.00  0.00    -0.237 OA
ATOM    101  O   UNL A   1      44.115  24.051  36.577  1.00  0.00    -0.744 OA
ENDBRANCH  94  98
ENDBRANCH  68  91
ENDBRANCH  42  43
ENDBRANCH  34  37
ENDBRANCH  32  33
ENDBRANCH  31  32
ENDBRANCH  30  31
ENDBRANCH   1  30
TORSDOF 21
ENDMDL
