MODEL 1
REMARK VINA RESULT:     -10.3      0.000      0.000
REMARK SMILES CCC(CC)[S@](=O)CCC(=O)NCCCCNC(=O)c1ccc(-c2c3nc(c(-c4cc(S(=O)(=O)[O-])ccc4F)c4ccc([nH]4)c(-c4cc(S(=O)(=O)[O-])ccc4F)c4nc(c(-c5cc(S(=O)(=O)[O-])ccc5F)c5ccc2[nH]5)C=C4)C=C3)cc1
REMARK SMILES IDX 14 1 13 2 12 3 10 4 11 5 9 7 8 8 6 9 7 10 3 11 2 12 1 13
REMARK SMILES IDX 4 14 5 15 15 16 16 17 17 18 18 19 19 21 20 22 21 23 82 24
REMARK SMILES IDX 22 25 81 26 23 27 24 28 25 29 75 30 26 31 80 32 74 33 76 34
REMARK SMILES IDX 27 35 79 36 73 37 72 38 28 40 60 41 40 42 59 43 41 44 44 45
REMARK SMILES IDX 58 46 77 47 42 48 43 49 57 51 78 52 45 53 29 54 30 55 38 56
REMARK SMILES IDX 31 57 37 58 39 59 36 60 32 61 33 62 34 63 35 64 61 65 62 66
REMARK SMILES IDX 70 67 63 68 69 69 71 70 68 71 64 72 65 73 66 74 67 75 46 76
REMARK SMILES IDX 47 77 55 78 48 79 54 80 56 81 53 82 49 83 50 84 51 85 52 86
REMARK H PARENT 12 6 17 20 76 39 44 50
REMARK Flexibility Score: inf
ROOT
ATOM      1  C   UNL A   1      32.527  28.198  27.277  1.00  0.00     0.023 C 
ENDROOT
BRANCH   1   2
ATOM      2  C   UNL A   1      32.350  27.101  26.223  1.00  0.00     0.116 C 
BRANCH   2   3
ATOM      3  N   UNL A   1      31.389  26.101  26.650  1.00  0.00    -0.356 N 
ATOM      4  C   UNL A   1      30.207  25.744  26.075  1.00  0.00     0.220 C 
ATOM      5  O   UNL A   1      29.456  24.972  26.675  1.00  0.00    -0.275 OA
ATOM      6  H   UNL A   1      31.625  25.612  27.472  1.00  0.00     0.163 HD
BRANCH   4   7
ATOM      7  C   UNL A   1      29.870  26.209  24.672  1.00  0.00     0.113 C 
BRANCH   7   8
ATOM      8  C   UNL A   1      30.178  25.217  23.563  1.00  0.00     0.115 C 
BRANCH   8   9
ATOM      9  S   UNL A   1      31.799  25.236  22.792  1.00  0.00     0.025 S 
ATOM     10  O   UNL A   1      32.318  26.620  22.646  1.00  0.00    -0.259 OA
BRANCH   9  11
ATOM     11  C   UNL A   1      32.917  24.197  23.805  1.00  0.00     0.079 C 
BRANCH  11  12
ATOM     12  C   UNL A   1      32.457  22.728  23.640  1.00  0.00     0.014 C 
ATOM     13  C   UNL A   1      31.862  22.121  24.902  1.00  0.00     0.005 C 
ENDBRANCH  11  12
BRANCH  11  14
ATOM     14  C   UNL A   1      34.432  24.378  23.628  1.00  0.00     0.014 C 
ATOM     15  C   UNL A   1      35.301  23.123  23.661  1.00  0.00     0.005 C 
ENDBRANCH  11  14
ENDBRANCH   9  11
ENDBRANCH   8   9
ENDBRANCH   7   8
ENDBRANCH   4   7
ENDBRANCH   2   3
ENDBRANCH   1   2
BRANCH   1  16
ATOM     16  C   UNL A   1      31.682  29.436  27.041  1.00  0.00     0.023 C 
BRANCH  16  17
ATOM     17  C   UNL A   1      32.441  30.571  26.366  1.00  0.00     0.116 C 
BRANCH  17  18
ATOM     18  N   UNL A   1      32.181  31.894  26.930  1.00  0.00    -0.352 N 
ATOM     19  C   UNL A   1      33.070  32.712  27.603  1.00  0.00     0.251 C 
ATOM     20  H   UNL A   1      31.267  32.243  26.818  1.00  0.00     0.163 HD
ATOM     21  O   UNL A   1      32.736  33.798  28.042  1.00  0.00    -0.269 OA
BRANCH  19  22
ATOM     22  C   UNL A   1      34.431  32.182  27.825  1.00  0.00     0.039 A 
ATOM     23  C   UNL A   1      35.499  33.081  27.877  1.00  0.00     0.014 A 
ATOM     24  C   UNL A   1      34.591  30.848  28.205  1.00  0.00     0.014 A 
ATOM     25  C   UNL A   1      36.710  32.668  28.436  1.00  0.00     0.010 A 
ATOM     26  C   UNL A   1      35.766  30.469  28.840  1.00  0.00     0.010 A 
ATOM     27  C   UNL A   1      36.826  31.382  28.988  1.00  0.00    -0.014 A 
BRANCH  27  28
ATOM     28  C   UNL A   1      38.022  30.962  29.764  1.00  0.00     0.031 A 
ATOM     29  C   UNL A   1      38.972  29.965  29.166  1.00  0.00     0.074 A 
ATOM     30  C   UNL A   1      38.170  31.358  31.044  1.00  0.00     0.049 A 
ATOM     31  N   UNL A   1      39.943  29.298  29.732  1.00  0.00    -0.248 NA
ATOM     32  C   UNL A   1      38.754  29.635  27.751  1.00  0.00     0.031 C 
ATOM     33  C   UNL A   1      37.279  32.274  31.760  1.00  0.00     0.029 A 
ATOM     34  N   UNL A   1      39.108  31.010  31.985  1.00  0.00    -0.354 N 
ATOM     35  C   UNL A   1      40.425  28.434  28.754  1.00  0.00     0.074 A 
ATOM     36  C   UNL A   1      39.594  28.627  27.583  1.00  0.00     0.031 C 
ATOM     37  C   UNL A   1      37.711  32.414  33.022  1.00  0.00     0.029 A 
ATOM     38  C   UNL A   1      38.880  31.565  33.224  1.00  0.00     0.049 A 
ATOM     39  H   UNL A   1      39.872  30.420  31.792  1.00  0.00     0.167 HD
ATOM     40  C   UNL A   1      41.472  27.575  28.822  1.00  0.00     0.034 A 
ATOM     41  C   UNL A   1      39.520  31.386  34.396  1.00  0.00     0.034 A 
ATOM     42  C   UNL A   1      42.303  27.425  29.991  1.00  0.00     0.049 A 
ATOM     43  C   UNL A   1      40.702  30.455  34.449  1.00  0.00     0.074 A 
ATOM     44  C   UNL A   1      43.440  26.652  30.148  1.00  0.00     0.029 A 
ATOM     45  N   UNL A   1      42.082  28.058  31.209  1.00  0.00    -0.354 N 
ATOM     46  N   UNL A   1      41.186  29.685  33.502  1.00  0.00    -0.248 NA
ATOM     47  C   UNL A   1      41.428  30.373  35.723  1.00  0.00     0.031 C 
ATOM     48  C   UNL A   1      43.874  26.774  31.475  1.00  0.00     0.029 A 
ATOM     49  C   UNL A   1      43.046  27.675  32.128  1.00  0.00     0.049 A 
ATOM     50  H   UNL A   1      41.347  28.687  31.392  1.00  0.00     0.167 HD
ATOM     51  C   UNL A   1      42.290  29.046  34.057  1.00  0.00     0.074 A 
ATOM     52  C   UNL A   1      42.401  29.523  35.422  1.00  0.00     0.031 C 
ATOM     53  C   UNL A   1      43.139  28.154  33.488  1.00  0.00     0.034 A 
BRANCH  40  54
ATOM     54  C   UNL A   1      41.738  26.721  27.605  1.00  0.00     0.023 A 
ATOM     55  C   UNL A   1      41.316  25.381  27.538  1.00  0.00     0.031 A 
ATOM     56  C   UNL A   1      42.496  27.223  26.533  1.00  0.00     0.131 A 
ATOM     57  C   UNL A   1      41.754  24.560  26.489  1.00  0.00     0.055 A 
ATOM     58  C   UNL A   1      42.842  26.427  25.440  1.00  0.00     0.041 A 
ATOM     59  F   UNL A   1      42.943  28.489  26.546  1.00  0.00    -0.206 F 
ATOM     60  C   UNL A   1      42.493  25.079  25.425  1.00  0.00     0.022 A 
BRANCH  57  61
ATOM     61  S   UNL A   1      41.516  22.768  26.644  1.00  0.00     0.124 S 
ATOM     62  O   UNL A   1      40.058  22.666  26.666  1.00  0.00    -0.237 OA
ATOM     63  O   UNL A   1      42.174  22.259  25.447  1.00  0.00    -0.237 OA
ATOM     64  O   UNL A   1      42.175  22.442  27.906  1.00  0.00    -0.744 OA
ENDBRANCH  57  61
ENDBRANCH  40  54
BRANCH  41  65
ATOM     65  C   UNL A   1      39.041  32.087  35.620  1.00  0.00     0.023 A 
ATOM     66  C   UNL A   1      38.330  31.402  36.618  1.00  0.00     0.031 A 
ATOM     67  C   UNL A   1      39.292  33.457  35.809  1.00  0.00     0.131 A 
ATOM     68  C   UNL A   1      37.870  32.097  37.749  1.00  0.00     0.055 A 
ATOM     69  C   UNL A   1      38.866  34.134  36.953  1.00  0.00     0.041 A 
ATOM     70  F   UNL A   1      39.980  34.153  34.889  1.00  0.00    -0.206 F 
ATOM     71  C   UNL A   1      38.144  33.455  37.929  1.00  0.00     0.022 A 
BRANCH  68  72
ATOM     72  S   UNL A   1      36.874  31.203  38.974  1.00  0.00     0.124 S 
ATOM     73  O   UNL A   1      37.724  31.277  40.157  1.00  0.00    -0.237 OA
ATOM     74  O   UNL A   1      35.651  31.999  39.011  1.00  0.00    -0.237 OA
ATOM     75  O   UNL A   1      36.730  29.872  38.390  1.00  0.00    -0.744 OA
ENDBRANCH  68  72
ENDBRANCH  41  65
BRANCH  53  76
ATOM     76  C   UNL A   1      44.296  27.675  34.325  1.00  0.00     0.023 A 
ATOM     77  C   UNL A   1      44.237  26.477  35.059  1.00  0.00     0.031 A 
ATOM     78  C   UNL A   1      45.485  28.425  34.369  1.00  0.00     0.131 A 
ATOM     79  C   UNL A   1      45.338  26.081  35.833  1.00  0.00     0.055 A 
ATOM     80  C   UNL A   1      46.592  28.002  35.104  1.00  0.00     0.041 A 
ATOM     81  F   UNL A   1      45.591  29.577  33.687  1.00  0.00    -0.206 F 
ATOM     82  C   UNL A   1      46.520  26.828  35.847  1.00  0.00     0.022 A 
BRANCH  79  83
ATOM     83  S   UNL A   1      45.193  24.596  36.865  1.00  0.00     0.124 S 
ATOM     84  O   UNL A   1      44.291  23.765  36.072  1.00  0.00    -0.237 OA
ATOM     85  O   UNL A   1      46.575  24.137  36.950  1.00  0.00    -0.237 OA
ATOM     86  O   UNL A   1      44.630  25.101  38.116  1.00  0.00    -0.744 OA
ENDBRANCH  79  83
ENDBRANCH  53  76
ENDBRANCH  27  28
ENDBRANCH  19  22
ENDBRANCH  17  18
ENDBRANCH  16  17
ENDBRANCH   1  16
TORSDOF 19
ENDMDL
MODEL 2
REMARK VINA RESULT:     -10.0      1.912      8.010
REMARK SMILES CCC(CC)[S@](=O)CCC(=O)NCCCCNC(=O)c1ccc(-c2c3nc(c(-c4cc(S(=O)(=O)[O-])ccc4F)c4ccc([nH]4)c(-c4cc(S(=O)(=O)[O-])ccc4F)c4nc(c(-c5cc(S(=O)(=O)[O-])ccc5F)c5ccc2[nH]5)C=C4)C=C3)cc1
REMARK SMILES IDX 14 1 13 2 12 3 10 4 11 5 9 7 8 8 6 9 7 10 3 11 2 12 1 13
REMARK SMILES IDX 4 14 5 15 15 16 16 17 17 18 18 19 19 21 20 22 21 23 82 24
REMARK SMILES IDX 22 25 81 26 23 27 24 28 25 29 75 30 26 31 80 32 74 33 76 34
REMARK SMILES IDX 27 35 79 36 73 37 72 38 28 40 60 41 40 42 59 43 41 44 44 45
REMARK SMILES IDX 58 46 77 47 42 48 43 49 57 51 78 52 45 53 29 54 30 55 38 56
REMARK SMILES IDX 31 57 37 58 39 59 36 60 32 61 33 62 34 63 35 64 61 65 62 66
REMARK SMILES IDX 70 67 63 68 69 69 71 70 68 71 64 72 65 73 66 74 67 75 46 76
REMARK SMILES IDX 47 77 55 78 48 79 54 80 56 81 53 82 49 83 50 84 51 85 52 86
REMARK H PARENT 12 6 17 20 76 39 44 50
REMARK Flexibility Score: inf
ROOT
ATOM      1  C   UNL A   1      32.407  27.879  27.014  1.00  0.00     0.023 C 
ENDROOT
BRANCH   1   2
ATOM      2  C   UNL A   1      31.875  26.822  26.042  1.00  0.00     0.116 C 
BRANCH   2   3
ATOM      3  N   UNL A   1      31.315  25.683  26.746  1.00  0.00    -0.356 N 
ATOM      4  C   UNL A   1      31.680  24.372  26.688  1.00  0.00     0.220 C 
ATOM      5  O   UNL A   1      30.980  23.528  27.251  1.00  0.00    -0.275 OA
ATOM      6  H   UNL A   1      30.566  25.887  27.351  1.00  0.00     0.163 HD
BRANCH   4   7
ATOM      7  C   UNL A   1      32.984  23.972  26.026  1.00  0.00     0.113 C 
BRANCH   7   8
ATOM      8  C   UNL A   1      32.864  23.480  24.593  1.00  0.00     0.115 C 
BRANCH   8   9
ATOM      9  S   UNL A   1      34.275  22.691  23.814  1.00  0.00     0.025 S 
ATOM     10  O   UNL A   1      35.150  23.683  23.136  1.00  0.00    -0.259 OA
BRANCH   9  11
ATOM     11  C   UNL A   1      35.181  21.756  25.102  1.00  0.00     0.079 C 
BRANCH  11  12
ATOM     12  C   UNL A   1      34.216  20.680  25.655  1.00  0.00     0.014 C 
ATOM     13  C   UNL A   1      33.795  19.640  24.626  1.00  0.00     0.005 C 
ENDBRANCH  11  12
BRANCH  11  14
ATOM     14  C   UNL A   1      36.569  21.198  24.750  1.00  0.00     0.014 C 
ATOM     15  C   UNL A   1      37.783  21.881  25.376  1.00  0.00     0.005 C 
ENDBRANCH  11  14
ENDBRANCH   9  11
ENDBRANCH   8   9
ENDBRANCH   7   8
ENDBRANCH   4   7
ENDBRANCH   2   3
ENDBRANCH   1   2
BRANCH   1  16
ATOM     16  C   UNL A   1      31.777  29.251  26.853  1.00  0.00     0.023 C 
BRANCH  16  17
ATOM     17  C   UNL A   1      32.728  30.293  26.279  1.00  0.00     0.116 C 
BRANCH  17  18
ATOM     18  N   UNL A   1      32.596  31.624  26.867  1.00  0.00    -0.352 N 
ATOM     19  C   UNL A   1      33.531  32.306  27.626  1.00  0.00     0.251 C 
ATOM     20  H   UNL A   1      31.744  32.089  26.706  1.00  0.00     0.163 HD
ATOM     21  O   UNL A   1      33.306  33.414  28.077  1.00  0.00    -0.269 OA
BRANCH  19  22
ATOM     22  C   UNL A   1      34.796  31.601  27.921  1.00  0.00     0.039 A 
ATOM     23  C   UNL A   1      35.962  32.355  28.072  1.00  0.00     0.014 A 
ATOM     24  C   UNL A   1      34.760  30.250  28.269  1.00  0.00     0.014 A 
ATOM     25  C   UNL A   1      37.069  31.779  28.697  1.00  0.00     0.010 A 
ATOM     26  C   UNL A   1      35.830  29.709  28.968  1.00  0.00     0.010 A 
ATOM     27  C   UNL A   1      36.984  30.476  29.215  1.00  0.00    -0.014 A 
BRANCH  27  28
ATOM     28  C   UNL A   1      38.060  29.890  30.056  1.00  0.00     0.031 A 
ATOM     29  C   UNL A   1      38.239  30.377  31.464  1.00  0.00     0.074 A 
ATOM     30  C   UNL A   1      38.955  29.040  29.512  1.00  0.00     0.049 A 
ATOM     31  N   UNL A   1      39.227  30.174  32.295  1.00  0.00    -0.248 NA
ATOM     32  C   UNL A   1      37.185  31.261  31.979  1.00  0.00     0.031 C 
ATOM     33  C   UNL A   1      38.928  28.543  28.135  1.00  0.00     0.029 A 
ATOM     34  N   UNL A   1      40.088  28.474  30.043  1.00  0.00    -0.354 N 
ATOM     35  C   UNL A   1      38.936  30.943  33.418  1.00  0.00     0.074 A 
ATOM     36  C   UNL A   1      37.710  31.657  33.127  1.00  0.00     0.031 C 
ATOM     37  C   UNL A   1      39.989  27.748  27.932  1.00  0.00     0.029 A 
ATOM     38  C   UNL A   1      40.801  27.715  29.144  1.00  0.00     0.049 A 
ATOM     39  H   UNL A   1      40.363  28.598  30.980  1.00  0.00     0.167 HD
ATOM     40  C   UNL A   1      39.620  31.030  34.586  1.00  0.00     0.034 A 
ATOM     41  C   UNL A   1      41.988  27.090  29.270  1.00  0.00     0.034 A 
ATOM     42  C   UNL A   1      40.822  30.284  34.862  1.00  0.00     0.049 A 
ATOM     43  C   UNL A   1      42.718  27.167  30.583  1.00  0.00     0.074 A 
ATOM     44  C   UNL A   1      41.551  30.225  36.037  1.00  0.00     0.029 A 
ATOM     45  N   UNL A   1      41.479  29.469  33.947  1.00  0.00    -0.354 N 
ATOM     46  N   UNL A   1      42.406  27.851  31.660  1.00  0.00    -0.248 NA
ATOM     47  C   UNL A   1      43.956  26.386  30.704  1.00  0.00     0.031 C 
ATOM     48  C   UNL A   1      42.676  29.421  35.815  1.00  0.00     0.029 A 
ATOM     49  C   UNL A   1      42.615  28.924  34.523  1.00  0.00     0.049 A 
ATOM     50  H   UNL A   1      41.179  29.304  33.023  1.00  0.00     0.167 HD
ATOM     51  C   UNL A   1      43.394  27.562  32.595  1.00  0.00     0.074 A 
ATOM     52  C   UNL A   1      44.312  26.640  31.957  1.00  0.00     0.031 C 
ATOM     53  C   UNL A   1      43.525  28.011  33.869  1.00  0.00     0.034 A 
BRANCH  40  54
ATOM     54  C   UNL A   1      39.086  31.991  35.622  1.00  0.00     0.023 A 
ATOM     55  C   UNL A   1      39.509  33.332  35.672  1.00  0.00     0.031 A 
ATOM     56  C   UNL A   1      38.208  31.544  36.625  1.00  0.00     0.131 A 
ATOM     57  C   UNL A   1      39.155  34.139  36.762  1.00  0.00     0.055 A 
ATOM     58  C   UNL A   1      37.776  32.384  37.653  1.00  0.00     0.041 A 
ATOM     59  F   UNL A   1      37.782  30.272  36.643  1.00  0.00    -0.206 F 
ATOM     60  C   UNL A   1      38.270  33.683  37.741  1.00  0.00     0.022 A 
BRANCH  57  61
ATOM     61  S   UNL A   1      40.028  35.713  36.986  1.00  0.00     0.124 S 
ATOM     62  O   UNL A   1      41.419  35.271  37.056  1.00  0.00    -0.237 OA
ATOM     63  O   UNL A   1      39.653  36.454  35.787  1.00  0.00    -0.237 OA
ATOM     64  O   UNL A   1      39.483  36.233  38.238  1.00  0.00    -0.744 OA
ENDBRANCH  57  61
ENDBRANCH  40  54
BRANCH  41  65
ATOM     65  C   UNL A   1      42.569  26.356  28.111  1.00  0.00     0.023 A 
ATOM     66  C   UNL A   1      42.321  24.988  27.919  1.00  0.00     0.031 A 
ATOM     67  C   UNL A   1      43.382  27.019  27.175  1.00  0.00     0.131 A 
ATOM     68  C   UNL A   1      42.904  24.319  26.830  1.00  0.00     0.055 A 
ATOM     69  C   UNL A   1      43.926  26.358  26.072  1.00  0.00     0.041 A 
ATOM     70  F   UNL A   1      43.636  28.330  27.308  1.00  0.00    -0.206 F 
ATOM     71  C   UNL A   1      43.694  24.997  25.899  1.00  0.00     0.022 A 
BRANCH  68  72
ATOM     72  S   UNL A   1      42.640  22.532  26.663  1.00  0.00     0.124 S 
ATOM     73  O   UNL A   1      42.732  22.088  28.050  1.00  0.00    -0.237 OA
ATOM     74  O   UNL A   1      41.312  22.475  26.058  1.00  0.00    -0.237 OA
ATOM     75  O   UNL A   1      43.735  22.105  25.796  1.00  0.00    -0.744 OA
ENDBRANCH  68  72
ENDBRANCH  41  65
BRANCH  53  76
ATOM     76  C   UNL A   1      44.675  27.467  34.675  1.00  0.00     0.023 A 
ATOM     77  C   UNL A   1      44.544  26.320  35.478  1.00  0.00     0.031 A 
ATOM     78  C   UNL A   1      45.929  28.102  34.620  1.00  0.00     0.131 A 
ATOM     79  C   UNL A   1      45.643  25.862  36.220  1.00  0.00     0.055 A 
ATOM     80  C   UNL A   1      47.030  27.614  35.324  1.00  0.00     0.041 A 
ATOM     81  F   UNL A   1      46.105  29.201  33.869  1.00  0.00    -0.206 F 
ATOM     82  C   UNL A   1      46.889  26.492  36.135  1.00  0.00     0.022 A 
BRANCH  79  83
ATOM     83  S   UNL A   1      45.416  24.453  37.340  1.00  0.00     0.124 S 
ATOM     84  O   UNL A   1      45.204  23.354  36.403  1.00  0.00    -0.237 OA
ATOM     85  O   UNL A   1      46.676  24.431  38.075  1.00  0.00    -0.237 OA
ATOM     86  O   UNL A   1      44.245  24.828  38.130  1.00  0.00    -0.744 OA
ENDBRANCH  79  83
ENDBRANCH  53  76
ENDBRANCH  27  28
ENDBRANCH  19  22
ENDBRANCH  17  18
ENDBRANCH  16  17
ENDBRANCH   1  16
TORSDOF 19
ENDMDL
MODEL 3
REMARK VINA RESULT:      -9.9      2.122      2.791
REMARK SMILES CCC(CC)[S@](=O)CCC(=O)NCCCCNC(=O)c1ccc(-c2c3nc(c(-c4cc(S(=O)(=O)[O-])ccc4F)c4ccc([nH]4)c(-c4cc(S(=O)(=O)[O-])ccc4F)c4nc(c(-c5cc(S(=O)(=O)[O-])ccc5F)c5ccc2[nH]5)C=C4)C=C3)cc1
REMARK SMILES IDX 14 1 13 2 12 3 10 4 11 5 9 7 8 8 6 9 7 10 3 11 2 12 1 13
REMARK SMILES IDX 4 14 5 15 15 16 16 17 17 18 18 19 19 21 20 22 21 23 82 24
REMARK SMILES IDX 22 25 81 26 23 27 24 28 25 29 75 30 26 31 80 32 74 33 76 34
REMARK SMILES IDX 27 35 79 36 73 37 72 38 28 40 60 41 40 42 59 43 41 44 44 45
REMARK SMILES IDX 58 46 77 47 42 48 43 49 57 51 78 52 45 53 29 54 30 55 38 56
REMARK SMILES IDX 31 57 37 58 39 59 36 60 32 61 33 62 34 63 35 64 61 65 62 66
REMARK SMILES IDX 70 67 63 68 69 69 71 70 68 71 64 72 65 73 66 74 67 75 46 76
REMARK SMILES IDX 47 77 55 78 48 79 54 80 56 81 53 82 49 83 50 84 51 85 52 86
REMARK H PARENT 12 6 17 20 76 39 44 50
REMARK Flexibility Score: inf
ROOT
ATOM      1  C   UNL A   1      32.876  30.057  25.814  1.00  0.00     0.023 C 
ENDROOT
BRANCH   1   2
ATOM      2  C   UNL A   1      31.368  30.210  25.597  1.00  0.00     0.116 C 
BRANCH   2   3
ATOM      3  N   UNL A   1      30.997  29.941  24.220  1.00  0.00    -0.356 N 
ATOM      4  C   UNL A   1      30.827  28.743  23.594  1.00  0.00     0.220 C 
ATOM      5  O   UNL A   1      30.657  28.722  22.373  1.00  0.00    -0.275 OA
ATOM      6  H   UNL A   1      30.847  30.737  23.660  1.00  0.00     0.163 HD
BRANCH   4   7
ATOM      7  C   UNL A   1      30.748  27.464  24.404  1.00  0.00     0.113 C 
BRANCH   7   8
ATOM      8  C   UNL A   1      32.041  26.670  24.498  1.00  0.00     0.115 C 
BRANCH   8   9
ATOM      9  S   UNL A   1      32.354  25.670  25.955  1.00  0.00     0.025 S 
ATOM     10  O   UNL A   1      31.091  25.305  26.648  1.00  0.00    -0.259 OA
BRANCH   9  11
ATOM     11  C   UNL A   1      33.292  24.187  25.429  1.00  0.00     0.079 C 
BRANCH  11  12
ATOM     12  C   UNL A   1      33.060  24.010  23.909  1.00  0.00     0.014 C 
ATOM     13  C   UNL A   1      32.191  22.812  23.552  1.00  0.00     0.005 C 
ENDBRANCH  11  12
BRANCH  11  14
ATOM     14  C   UNL A   1      34.772  24.087  25.828  1.00  0.00     0.014 C 
ATOM     15  C   UNL A   1      35.627  23.043  25.115  1.00  0.00     0.005 C 
ENDBRANCH  11  14
ENDBRANCH   9  11
ENDBRANCH   8   9
ENDBRANCH   7   8
ENDBRANCH   4   7
ENDBRANCH   2   3
ENDBRANCH   1   2
BRANCH   1  16
ATOM     16  C   UNL A   1      33.319  30.195  27.260  1.00  0.00     0.023 C 
BRANCH  16  17
ATOM     17  C   UNL A   1      34.087  31.479  27.541  1.00  0.00     0.116 C 
BRANCH  17  18
ATOM     18  N   UNL A   1      33.262  32.685  27.577  1.00  0.00    -0.352 N 
ATOM     19  C   UNL A   1      33.422  33.791  28.392  1.00  0.00     0.251 C 
ATOM     20  H   UNL A   1      32.504  32.712  26.949  1.00  0.00     0.163 HD
ATOM     21  O   UNL A   1      32.661  34.740  28.342  1.00  0.00    -0.269 OA
BRANCH  19  22
ATOM     22  C   UNL A   1      34.524  33.743  29.376  1.00  0.00     0.039 A 
ATOM     23  C   UNL A   1      34.341  33.009  30.550  1.00  0.00     0.014 A 
ATOM     24  C   UNL A   1      35.783  34.226  29.016  1.00  0.00     0.014 A 
ATOM     25  C   UNL A   1      35.456  32.648  31.308  1.00  0.00     0.010 A 
ATOM     26  C   UNL A   1      36.895  33.790  29.723  1.00  0.00     0.010 A 
ATOM     27  C   UNL A   1      36.746  32.973  30.858  1.00  0.00    -0.014 A 
BRANCH  27  28
ATOM     28  C   UNL A   1      37.968  32.447  31.521  1.00  0.00     0.031 A 
ATOM     29  C   UNL A   1      38.722  31.318  30.880  1.00  0.00     0.074 A 
ATOM     30  C   UNL A   1      38.309  32.879  32.752  1.00  0.00     0.049 A 
ATOM     31  N   UNL A   1      39.670  30.565  31.373  1.00  0.00    -0.248 NA
ATOM     32  C   UNL A   1      38.304  30.954  29.519  1.00  0.00     0.031 C 
ATOM     33  C   UNL A   1      37.617  33.925  33.508  1.00  0.00     0.029 A 
ATOM     34  N   UNL A   1      39.303  32.462  33.602  1.00  0.00    -0.354 N 
ATOM     35  C   UNL A   1      39.932  29.607  30.399  1.00  0.00     0.074 A 
ATOM     36  C   UNL A   1      38.999  29.846  29.317  1.00  0.00     0.031 C 
ATOM     37  C   UNL A   1      38.207  34.068  34.704  1.00  0.00     0.029 A 
ATOM     38  C   UNL A   1      39.287  33.094  34.825  1.00  0.00     0.049 A 
ATOM     39  H   UNL A   1      39.967  31.777  33.360  1.00  0.00     0.167 HD
ATOM     40  C   UNL A   1      40.876  28.633  30.400  1.00  0.00     0.034 A 
ATOM     41  C   UNL A   1      40.034  32.892  35.927  1.00  0.00     0.034 A 
ATOM     42  C   UNL A   1      41.814  28.435  31.477  1.00  0.00     0.049 A 
ATOM     43  C   UNL A   1      41.099  31.829  35.903  1.00  0.00     0.074 A 
ATOM     44  C   UNL A   1      42.866  27.539  31.551  1.00  0.00     0.029 A 
ATOM     45  N   UNL A   1      41.811  29.143  32.673  1.00  0.00    -0.354 N 
ATOM     46  N   UNL A   1      41.379  30.966  34.953  1.00  0.00    -0.248 NA
ATOM     47  C   UNL A   1      41.955  31.716  37.091  1.00  0.00     0.031 C 
ATOM     48  C   UNL A   1      43.462  27.667  32.813  1.00  0.00     0.029 A 
ATOM     49  C   UNL A   1      42.824  28.688  33.500  1.00  0.00     0.049 A 
ATOM     50  H   UNL A   1      41.178  29.864  32.899  1.00  0.00     0.167 HD
ATOM     51  C   UNL A   1      42.459  30.224  35.419  1.00  0.00     0.074 A 
ATOM     52  C   UNL A   1      42.783  30.743  36.734  1.00  0.00     0.031 C 
ATOM     53  C   UNL A   1      43.129  29.212  34.812  1.00  0.00     0.034 A 
BRANCH  40  54
ATOM     54  C   UNL A   1      40.899  27.700  29.212  1.00  0.00     0.023 A 
ATOM     55  C   UNL A   1      41.847  27.841  28.182  1.00  0.00     0.031 A 
ATOM     56  C   UNL A   1      39.911  26.712  29.061  1.00  0.00     0.131 A 
ATOM     57  C   UNL A   1      41.716  27.095  27.002  1.00  0.00     0.055 A 
ATOM     58  C   UNL A   1      39.847  25.901  27.926  1.00  0.00     0.041 A 
ATOM     59  F   UNL A   1      38.967  26.540  30.000  1.00  0.00    -0.206 F 
ATOM     60  C   UNL A   1      40.738  26.107  26.876  1.00  0.00     0.022 A 
BRANCH  57  61
ATOM     61  S   UNL A   1      42.711  27.580  25.565  1.00  0.00     0.124 S 
ATOM     62  O   UNL A   1      42.652  26.371  24.745  1.00  0.00    -0.237 OA
ATOM     63  O   UNL A   1      41.983  28.735  25.053  1.00  0.00    -0.237 OA
ATOM     64  O   UNL A   1      44.022  27.871  26.138  1.00  0.00    -0.744 OA
ENDBRANCH  57  61
ENDBRANCH  40  54
BRANCH  41  65
ATOM     65  C   UNL A   1      39.783  33.698  37.154  1.00  0.00     0.023 A 
ATOM     66  C   UNL A   1      39.030  33.183  38.220  1.00  0.00     0.031 A 
ATOM     67  C   UNL A   1      40.300  35.000  37.277  1.00  0.00     0.131 A 
ATOM     68  C   UNL A   1      38.790  33.978  39.354  1.00  0.00     0.055 A 
ATOM     69  C   UNL A   1      40.092  35.771  38.422  1.00  0.00     0.041 A 
ATOM     70  F   UNL A   1      41.039  35.531  36.290  1.00  0.00    -0.206 F 
ATOM     71  C   UNL A   1      39.326  35.263  39.467  1.00  0.00     0.022 A 
BRANCH  68  72
ATOM     72  S   UNL A   1      37.735  33.317  40.673  1.00  0.00     0.124 S 
ATOM     73  O   UNL A   1      38.524  32.184  41.145  1.00  0.00    -0.237 OA
ATOM     74  O   UNL A   1      37.637  34.455  41.583  1.00  0.00    -0.237 OA
ATOM     75  O   UNL A   1      36.497  32.971  39.978  1.00  0.00    -0.744 OA
ENDBRANCH  68  72
ENDBRANCH  41  65
BRANCH  53  76
ATOM     76  C   UNL A   1      44.314  28.635  35.542  1.00  0.00     0.023 A 
ATOM     77  C   UNL A   1      44.169  27.632  36.517  1.00  0.00     0.031 A 
ATOM     78  C   UNL A   1      45.610  29.087  35.239  1.00  0.00     0.131 A 
ATOM     79  C   UNL A   1      45.303  27.136  37.178  1.00  0.00     0.055 A 
ATOM     80  C   UNL A   1      46.738  28.557  35.866  1.00  0.00     0.041 A 
ATOM     81  F   UNL A   1      45.801  30.043  34.317  1.00  0.00    -0.206 F 
ATOM     82  C   UNL A   1      46.587  27.581  36.847  1.00  0.00     0.022 A 
BRANCH  79  83
ATOM     83  S   UNL A   1      45.079  25.931  38.515  1.00  0.00     0.124 S 
ATOM     84  O   UNL A   1      44.733  24.721  37.775  1.00  0.00    -0.237 OA
ATOM     85  O   UNL A   1      46.388  25.931  39.160  1.00  0.00    -0.237 OA
ATOM     86  O   UNL A   1      43.995  26.501  39.313  1.00  0.00    -0.744 OA
ENDBRANCH  79  83
ENDBRANCH  53  76
ENDBRANCH  27  28
ENDBRANCH  19  22
ENDBRANCH  17  18
ENDBRANCH  16  17
ENDBRANCH   1  16
TORSDOF 19
ENDMDL
