MODEL 1
REMARK VINA RESULT:     -11.0      0.000      0.000
REMARK SMILES O=C(NCCCCNC(=O)c1cccc(OCC(F)F)c1)c1ccc(-c2c3nc(c(-c4cc(S(=O)(=O)[O-])ccc4F)c4ccc([nH]4)c(-c4cc(S(=O)(=O)[O-])ccc4F)c4nc(c(-c5cc(S(=O)(=O)[O-])ccc5F)c5ccc2[nH]5)C=C4)C=C3)cc1
REMARK SMILES IDX 5 1 4 2 3 3 1 4 2 5 22 7 23 8 84 9 24 10 83 11 25 12 26 13
REMARK SMILES IDX 27 14 77 15 28 16 82 17 76 18 78 19 29 20 81 21 75 22 74 23
REMARK SMILES IDX 30 25 62 26 42 27 61 28 43 29 46 30 60 31 79 32 44 33 45 34
REMARK SMILES IDX 59 36 80 37 47 38 31 39 32 40 40 41 33 42 39 43 41 44 38 45
REMARK SMILES IDX 34 46 35 47 36 48 37 49 63 50 64 51 72 52 65 53 71 54 73 55
REMARK SMILES IDX 70 56 66 57 67 58 68 59 69 60 48 61 49 62 57 63 50 64 56 65
REMARK SMILES IDX 58 66 55 67 51 68 52 69 53 70 54 71 6 72 7 73 8 74 9 75
REMARK SMILES IDX 10 77 11 78 12 79 21 80 13 81 15 82 14 83 16 84 17 85 18 86
REMARK SMILES IDX 19 87 20 88
REMARK H PARENT 3 6 78 24 46 35 8 76
REMARK Flexibility Score: inf
ROOT
ATOM      1  C   UNL A   1      32.709  28.213  25.996  1.00  0.00     0.023 C 
ENDROOT
BRANCH   1   2
ATOM      2  C   UNL A   1      33.252  29.522  25.442  1.00  0.00     0.116 C 
BRANCH   2   3
ATOM      3  N   UNL A   1      32.677  30.703  26.074  1.00  0.00    -0.352 N 
ATOM      4  O   UNL A   1      32.486  32.345  27.616  1.00  0.00    -0.269 OA
ATOM      5  C   UNL A   1      33.165  31.444  27.127  1.00  0.00     0.251 C 
ATOM      6  H   UNL A   1      31.823  31.013  25.696  1.00  0.00     0.163 HD
BRANCH   5   7
ATOM      7  C   UNL A   1      34.499  31.128  27.686  1.00  0.00     0.039 A 
ATOM      8  C   UNL A   1      34.774  29.846  28.160  1.00  0.00     0.014 A 
ATOM      9  C   UNL A   1      35.468  32.132  27.776  1.00  0.00     0.014 A 
ATOM     10  C   UNL A   1      35.934  29.619  28.888  1.00  0.00     0.010 A 
ATOM     11  C   UNL A   1      36.685  31.869  28.418  1.00  0.00     0.010 A 
ATOM     12  C   UNL A   1      36.911  30.622  29.019  1.00  0.00    -0.014 A 
BRANCH  12  13
ATOM     13  C   UNL A   1      38.163  30.299  29.754  1.00  0.00     0.031 A 
ATOM     14  C   UNL A   1      38.392  30.767  31.167  1.00  0.00     0.074 A 
ATOM     15  C   UNL A   1      39.065  29.497  29.152  1.00  0.00     0.049 A 
ATOM     16  N   UNL A   1      39.390  30.499  31.971  1.00  0.00    -0.248 NA
ATOM     17  C   UNL A   1      37.378  31.659  31.750  1.00  0.00     0.031 C 
ATOM     18  C   UNL A   1      38.957  29.000  27.777  1.00  0.00     0.029 A 
ATOM     19  N   UNL A   1      40.219  28.925  29.619  1.00  0.00    -0.354 N 
ATOM     20  C   UNL A   1      39.134  31.195  33.148  1.00  0.00     0.074 A 
ATOM     21  C   UNL A   1      37.901  31.925  32.939  1.00  0.00     0.031 C 
ATOM     22  C   UNL A   1      39.958  28.142  27.538  1.00  0.00     0.029 A 
ATOM     23  C   UNL A   1      40.820  28.082  28.712  1.00  0.00     0.049 A 
ATOM     24  H   UNL A   1      40.584  29.100  30.517  1.00  0.00     0.167 HD
ATOM     25  C   UNL A   1      39.857  31.214  34.298  1.00  0.00     0.034 A 
ATOM     26  C   UNL A   1      41.943  27.346  28.806  1.00  0.00     0.034 A 
ATOM     27  C   UNL A   1      41.084  30.476  34.490  1.00  0.00     0.049 A 
ATOM     28  C   UNL A   1      42.716  27.378  30.095  1.00  0.00     0.074 A 
ATOM     29  C   UNL A   1      41.896  30.425  35.612  1.00  0.00     0.029 A 
ATOM     30  N   UNL A   1      41.679  29.656  33.539  1.00  0.00    -0.354 N 
ATOM     31  N   UNL A   1      42.458  28.047  31.195  1.00  0.00    -0.248 NA
ATOM     32  C   UNL A   1      43.929  26.555  30.156  1.00  0.00     0.031 C 
ATOM     33  C   UNL A   1      43.004  29.619  35.322  1.00  0.00     0.029 A 
ATOM     34  C   UNL A   1      42.853  29.112  34.041  1.00  0.00     0.049 A 
ATOM     35  H   UNL A   1      41.319  29.485  32.639  1.00  0.00     0.167 HD
ATOM     36  C   UNL A   1      43.481  27.726  32.079  1.00  0.00     0.074 A 
ATOM     37  C   UNL A   1      44.331  26.768  31.399  1.00  0.00     0.031 C 
ATOM     38  C   UNL A   1      43.707  28.187  33.336  1.00  0.00     0.034 A 
BRANCH  25  39
ATOM     39  C   UNL A   1      39.358  32.092  35.422  1.00  0.00     0.023 A 
ATOM     40  C   UNL A   1      39.768  33.430  35.555  1.00  0.00     0.031 A 
ATOM     41  C   UNL A   1      38.459  31.581  36.376  1.00  0.00     0.131 A 
ATOM     42  C   UNL A   1      39.325  34.193  36.647  1.00  0.00     0.055 A 
ATOM     43  C   UNL A   1      37.969  32.367  37.423  1.00  0.00     0.041 A 
ATOM     44  F   UNL A   1      38.046  30.305  36.313  1.00  0.00    -0.206 F 
ATOM     45  C   UNL A   1      38.410  33.678  37.568  1.00  0.00     0.022 A 
BRANCH  42  46
ATOM     46  S   UNL A   1      40.047  35.836  36.910  1.00  0.00     0.124 S 
ATOM     47  O   UNL A   1      39.360  36.271  38.124  1.00  0.00    -0.237 OA
ATOM     48  O   UNL A   1      41.468  35.540  37.052  1.00  0.00    -0.237 OA
ATOM     49  O   UNL A   1      39.682  36.570  35.699  1.00  0.00    -0.744 OA
ENDBRANCH  42  46
ENDBRANCH  25  39
BRANCH  26  50
ATOM     50  C   UNL A   1      42.418  26.553  27.639  1.00  0.00     0.023 A 
ATOM     51  C   UNL A   1      42.024  25.218  27.453  1.00  0.00     0.031 A 
ATOM     52  C   UNL A   1      43.299  27.119  26.699  1.00  0.00     0.131 A 
ATOM     53  C   UNL A   1      42.539  24.483  26.375  1.00  0.00     0.055 A 
ATOM     54  C   UNL A   1      43.765  26.401  25.598  1.00  0.00     0.041 A 
ATOM     55  F   UNL A   1      43.701  28.394  26.828  1.00  0.00    -0.206 F 
ATOM     56  C   UNL A   1      43.395  25.070  25.439  1.00  0.00     0.022 A 
BRANCH  53  57
ATOM     57  S   UNL A   1      42.142  22.718  26.256  1.00  0.00     0.124 S 
ATOM     58  O   UNL A   1      42.730  22.364  24.969  1.00  0.00    -0.237 OA
ATOM     59  O   UNL A   1      42.810  22.179  27.436  1.00  0.00    -0.237 OA
ATOM     60  O   UNL A   1      40.682  22.693  26.303  1.00  0.00    -0.744 OA
ENDBRANCH  53  57
ENDBRANCH  26  50
BRANCH  38  61
ATOM     61  C   UNL A   1      44.927  27.644  34.037  1.00  0.00     0.023 A 
ATOM     62  C   UNL A   1      44.852  26.496  34.846  1.00  0.00     0.031 A 
ATOM     63  C   UNL A   1      46.159  28.312  33.945  1.00  0.00     0.131 A 
ATOM     64  C   UNL A   1      45.971  26.091  35.587  1.00  0.00     0.055 A 
ATOM     65  C   UNL A   1      47.286  27.870  34.638  1.00  0.00     0.041 A 
ATOM     66  F   UNL A   1      46.283  29.414  33.188  1.00  0.00    -0.206 F 
ATOM     67  C   UNL A   1      47.191  26.762  35.479  1.00  0.00     0.022 A 
BRANCH  64  68
ATOM     68  S   UNL A   1      45.778  24.739  36.782  1.00  0.00     0.124 S 
ATOM     69  O   UNL A   1      44.486  25.050  37.386  1.00  0.00    -0.237 OA
ATOM     70  O   UNL A   1      45.813  23.559  35.926  1.00  0.00    -0.237 OA
ATOM     71  O   UNL A   1      46.930  24.898  37.667  1.00  0.00    -0.744 OA
ENDBRANCH  64  68
ENDBRANCH  38  61
ENDBRANCH  12  13
ENDBRANCH   5   7
ENDBRANCH   2   3
ENDBRANCH   1   2
BRANCH   1  72
ATOM     72  C   UNL A   1      33.693  27.049  26.000  1.00  0.00     0.023 C 
BRANCH  72  73
ATOM     73  C   UNL A   1      33.212  25.784  25.297  1.00  0.00     0.116 C 
BRANCH  73  74
ATOM     74  N   UNL A   1      33.663  25.679  23.918  1.00  0.00    -0.352 N 
ATOM     75  C   UNL A   1      33.002  26.044  22.772  1.00  0.00     0.251 C 
ATOM     76  H   UNL A   1      34.562  25.297  23.790  1.00  0.00     0.163 HD
ATOM     77  O   UNL A   1      33.483  25.839  21.663  1.00  0.00    -0.269 OA
BRANCH  75  78
ATOM     78  C   UNL A   1      31.668  26.663  22.884  1.00  0.00     0.043 A 
ATOM     79  C   UNL A   1      30.616  25.894  23.380  1.00  0.00     0.014 A 
ATOM     80  C   UNL A   1      31.483  28.009  22.540  1.00  0.00     0.060 A 
ATOM     81  C   UNL A   1      29.379  26.494  23.593  1.00  0.00     0.005 A 
ATOM     82  C   UNL A   1      30.258  28.620  22.788  1.00  0.00     0.120 A 
ATOM     83  C   UNL A   1      29.209  27.853  23.310  1.00  0.00     0.046 A 
BRANCH  82  84
ATOM     84  O   UNL A   1      29.959  29.938  22.590  1.00  0.00    -0.488 OA
BRANCH  84  85
ATOM     85  C   UNL A   1      28.699  30.279  21.997  1.00  0.00     0.302 C 
BRANCH  85  86
ATOM     86  C   UNL A   1      27.927  31.313  22.805  1.00  0.00     0.379 C 
ATOM     87  F   UNL A   1      27.329  30.730  23.876  1.00  0.00    -0.207 F 
ATOM     88  F   UNL A   1      28.792  32.231  23.310  1.00  0.00    -0.207 F 
ENDBRANCH  85  86
ENDBRANCH  84  85
ENDBRANCH  82  84
ENDBRANCH  75  78
ENDBRANCH  73  74
ENDBRANCH  72  73
ENDBRANCH   1  72
TORSDOF 17
ENDMDL
MODEL 2
REMARK VINA RESULT:     -10.8      6.548      9.591
REMARK SMILES O=C(NCCCCNC(=O)c1cccc(OCC(F)F)c1)c1ccc(-c2c3nc(c(-c4cc(S(=O)(=O)[O-])ccc4F)c4ccc([nH]4)c(-c4cc(S(=O)(=O)[O-])ccc4F)c4nc(c(-c5cc(S(=O)(=O)[O-])ccc5F)c5ccc2[nH]5)C=C4)C=C3)cc1
REMARK SMILES IDX 5 1 4 2 3 3 1 4 2 5 22 7 23 8 84 9 24 10 83 11 25 12 26 13
REMARK SMILES IDX 27 14 77 15 28 16 82 17 76 18 78 19 29 20 81 21 75 22 74 23
REMARK SMILES IDX 30 25 62 26 42 27 61 28 43 29 46 30 60 31 79 32 44 33 45 34
REMARK SMILES IDX 59 36 80 37 47 38 31 39 32 40 40 41 33 42 39 43 41 44 38 45
REMARK SMILES IDX 34 46 35 47 36 48 37 49 63 50 64 51 72 52 65 53 71 54 73 55
REMARK SMILES IDX 70 56 66 57 67 58 68 59 69 60 48 61 49 62 57 63 50 64 56 65
REMARK SMILES IDX 58 66 55 67 51 68 52 69 53 70 54 71 6 72 7 73 8 74 9 75
REMARK SMILES IDX 10 77 11 78 12 79 21 80 13 81 15 82 14 83 16 84 17 85 18 86
REMARK SMILES IDX 19 87 20 88
REMARK H PARENT 3 6 78 24 46 35 8 76
REMARK Flexibility Score: inf
ROOT
ATOM      1  C   UNL A   1      38.415  19.853  24.761  1.00  0.00     0.023 C 
ENDROOT
BRANCH   1   2
ATOM      2  C   UNL A   1      39.437  20.213  25.829  1.00  0.00     0.116 C 
BRANCH   2   3
ATOM      3  N   UNL A   1      40.428  19.170  26.060  1.00  0.00    -0.352 N 
ATOM      4  O   UNL A   1      42.495  18.297  26.337  1.00  0.00    -0.269 OA
ATOM      5  C   UNL A   1      41.782  19.297  26.281  1.00  0.00     0.251 C 
ATOM      6  H   UNL A   1      40.083  18.249  26.059  1.00  0.00     0.163 HD
BRANCH   5   7
ATOM      7  C   UNL A   1      42.377  20.645  26.418  1.00  0.00     0.039 A 
ATOM      8  C   UNL A   1      42.428  21.265  27.667  1.00  0.00     0.014 A 
ATOM      9  C   UNL A   1      42.848  21.314  25.284  1.00  0.00     0.014 A 
ATOM     10  C   UNL A   1      42.770  22.607  27.752  1.00  0.00     0.010 A 
ATOM     11  C   UNL A   1      43.296  22.637  25.391  1.00  0.00     0.010 A 
ATOM     12  C   UNL A   1      43.219  23.310  26.620  1.00  0.00    -0.014 A 
BRANCH  12  13
ATOM     13  C   UNL A   1      43.635  24.729  26.786  1.00  0.00     0.031 A 
ATOM     14  C   UNL A   1      42.705  25.761  27.366  1.00  0.00     0.074 A 
ATOM     15  C   UNL A   1      44.907  25.058  26.482  1.00  0.00     0.049 A 
ATOM     16  N   UNL A   1      42.945  27.016  27.652  1.00  0.00    -0.248 NA
ATOM     17  C   UNL A   1      41.326  25.337  27.650  1.00  0.00     0.031 C 
ATOM     18  C   UNL A   1      45.891  24.143  25.894  1.00  0.00     0.029 A 
ATOM     19  N   UNL A   1      45.605  26.224  26.657  1.00  0.00    -0.354 N 
ATOM     20  C   UNL A   1      41.750  27.536  28.139  1.00  0.00     0.074 A 
ATOM     21  C   UNL A   1      40.776  26.466  28.076  1.00  0.00     0.031 C 
ATOM     22  C   UNL A   1      47.079  24.757  25.827  1.00  0.00     0.029 A 
ATOM     23  C   UNL A   1      46.931  26.128  26.297  1.00  0.00     0.049 A 
ATOM     24  H   UNL A   1      45.199  27.049  27.007  1.00  0.00     0.167 HD
ATOM     25  C   UNL A   1      41.494  28.786  28.604  1.00  0.00     0.034 A 
ATOM     26  C   UNL A   1      47.918  27.043  26.331  1.00  0.00     0.034 A 
ATOM     27  C   UNL A   1      42.479  29.841  28.662  1.00  0.00     0.049 A 
ATOM     28  C   UNL A   1      47.608  28.415  26.861  1.00  0.00     0.074 A 
ATOM     29  C   UNL A   1      42.327  31.143  29.112  1.00  0.00     0.029 A 
ATOM     30  N   UNL A   1      43.804  29.719  28.261  1.00  0.00    -0.354 N 
ATOM     31  N   UNL A   1      46.469  28.886  27.313  1.00  0.00    -0.248 NA
ATOM     32  C   UNL A   1      48.716  29.376  26.889  1.00  0.00     0.031 C 
ATOM     33  C   UNL A   1      43.541  31.819  28.934  1.00  0.00     0.029 A 
ATOM     34  C   UNL A   1      44.472  30.922  28.435  1.00  0.00     0.049 A 
ATOM     35  H   UNL A   1      44.210  28.895  27.905  1.00  0.00     0.167 HD
ATOM     36  C   UNL A   1      46.724  30.203  27.676  1.00  0.00     0.074 A 
ATOM     37  C   UNL A   1      48.135  30.434  27.434  1.00  0.00     0.031 C 
ATOM     38  C   UNL A   1      45.870  31.144  28.155  1.00  0.00     0.034 A 
BRANCH  25  39
ATOM     39  C   UNL A   1      40.082  29.091  29.047  1.00  0.00     0.023 A 
ATOM     40  C   UNL A   1      39.721  29.117  30.405  1.00  0.00     0.031 A 
ATOM     41  C   UNL A   1      39.081  29.355  28.095  1.00  0.00     0.131 A 
ATOM     42  C   UNL A   1      38.384  29.347  30.771  1.00  0.00     0.055 A 
ATOM     43  C   UNL A   1      37.767  29.650  28.468  1.00  0.00     0.041 A 
ATOM     44  F   UNL A   1      39.360  29.325  26.782  1.00  0.00    -0.206 F 
ATOM     45  C   UNL A   1      37.410  29.637  29.813  1.00  0.00     0.022 A 
BRANCH  42  46
ATOM     46  S   UNL A   1      37.913  29.154  32.512  1.00  0.00     0.124 S 
ATOM     47  O   UNL A   1      36.535  29.638  32.501  1.00  0.00    -0.237 OA
ATOM     48  O   UNL A   1      38.085  27.722  32.730  1.00  0.00    -0.237 OA
ATOM     49  O   UNL A   1      38.861  30.010  33.222  1.00  0.00    -0.744 OA
ENDBRANCH  42  46
ENDBRANCH  25  39
BRANCH  26  50
ATOM     50  C   UNL A   1      49.273  26.700  25.819  1.00  0.00     0.023 A 
ATOM     51  C   UNL A   1      49.704  27.120  24.551  1.00  0.00     0.031 A 
ATOM     52  C   UNL A   1      50.153  25.917  26.590  1.00  0.00     0.131 A 
ATOM     53  C   UNL A   1      50.965  26.726  24.077  1.00  0.00     0.055 A 
ATOM     54  C   UNL A   1      51.427  25.575  26.137  1.00  0.00     0.041 A 
ATOM     55  F   UNL A   1      49.791  25.494  27.812  1.00  0.00    -0.206 F 
ATOM     56  C   UNL A   1      51.833  25.969  24.867  1.00  0.00     0.022 A 
BRANCH  53  57
ATOM     57  S   UNL A   1      51.424  27.147  22.374  1.00  0.00     0.124 S 
ATOM     58  O   UNL A   1      51.605  28.592  22.461  1.00  0.00    -0.237 OA
ATOM     59  O   UNL A   1      52.637  26.359  22.186  1.00  0.00    -0.237 OA
ATOM     60  O   UNL A   1      50.270  26.709  21.591  1.00  0.00    -0.744 OA
ENDBRANCH  53  57
ENDBRANCH  26  50
BRANCH  38  61
ATOM     61  C   UNL A   1      46.464  32.499  28.444  1.00  0.00     0.023 A 
ATOM     62  C   UNL A   1      46.612  33.462  27.428  1.00  0.00     0.031 A 
ATOM     63  C   UNL A   1      46.939  32.811  29.728  1.00  0.00     0.131 A 
ATOM     64  C   UNL A   1      47.284  34.662  27.698  1.00  0.00     0.055 A 
ATOM     65  C   UNL A   1      47.554  34.033  30.005  1.00  0.00     0.041 A 
ATOM     66  F   UNL A   1      46.824  31.927  30.732  1.00  0.00    -0.206 F 
ATOM     67  C   UNL A   1      47.745  34.959  28.982  1.00  0.00     0.022 A 
BRANCH  64  68
ATOM     68  S   UNL A   1      47.648  35.783  26.318  1.00  0.00     0.124 S 
ATOM     69  O   UNL A   1      46.505  36.691  26.356  1.00  0.00    -0.237 OA
ATOM     70  O   UNL A   1      48.930  36.357  26.712  1.00  0.00    -0.237 OA
ATOM     71  O   UNL A   1      47.696  34.894  25.159  1.00  0.00    -0.744 OA
ENDBRANCH  64  68
ENDBRANCH  38  61
ENDBRANCH  12  13
ENDBRANCH   5   7
ENDBRANCH   2   3
ENDBRANCH   1   2
BRANCH   1  72
ATOM     72  C   UNL A   1      36.982  20.275  25.062  1.00  0.00     0.023 C 
BRANCH  72  73
ATOM     73  C   UNL A   1      36.754  21.779  25.173  1.00  0.00     0.116 C 
BRANCH  73  74
ATOM     74  N   UNL A   1      36.016  22.167  26.366  1.00  0.00    -0.352 N 
ATOM     75  C   UNL A   1      34.659  22.166  26.570  1.00  0.00     0.251 C 
ATOM     76  H   UNL A   1      36.564  22.470  27.127  1.00  0.00     0.163 HD
ATOM     77  O   UNL A   1      34.168  22.581  27.614  1.00  0.00    -0.269 OA
BRANCH  75  78
ATOM     78  C   UNL A   1      33.775  21.686  25.491  1.00  0.00     0.043 A 
ATOM     79  C   UNL A   1      33.444  22.564  24.460  1.00  0.00     0.014 A 
ATOM     80  C   UNL A   1      33.322  20.359  25.488  1.00  0.00     0.060 A 
ATOM     81  C   UNL A   1      32.702  22.094  23.381  1.00  0.00     0.005 A 
ATOM     82  C   UNL A   1      32.612  19.878  24.392  1.00  0.00     0.120 A 
ATOM     83  C   UNL A   1      32.302  20.755  23.345  1.00  0.00     0.046 A 
BRANCH  82  84
ATOM     84  O   UNL A   1      32.185  18.593  24.208  1.00  0.00    -0.488 OA
BRANCH  84  85
ATOM     85  C   UNL A   1      32.761  17.819  23.148  1.00  0.00     0.302 C 
BRANCH  85  86
ATOM     86  C   UNL A   1      33.897  16.922  23.624  1.00  0.00     0.379 C 
ATOM     87  F   UNL A   1      34.403  16.206  22.587  1.00  0.00    -0.207 F 
ATOM     88  F   UNL A   1      34.918  17.691  24.084  1.00  0.00    -0.207 F 
ENDBRANCH  85  86
ENDBRANCH  84  85
ENDBRANCH  82  84
ENDBRANCH  75  78
ENDBRANCH  73  74
ENDBRANCH  72  73
ENDBRANCH   1  72
TORSDOF 17
ENDMDL
MODEL 3
REMARK VINA RESULT:     -10.8      2.289      3.207
REMARK SMILES O=C(NCCCCNC(=O)c1cccc(OCC(F)F)c1)c1ccc(-c2c3nc(c(-c4cc(S(=O)(=O)[O-])ccc4F)c4ccc([nH]4)c(-c4cc(S(=O)(=O)[O-])ccc4F)c4nc(c(-c5cc(S(=O)(=O)[O-])ccc5F)c5ccc2[nH]5)C=C4)C=C3)cc1
REMARK SMILES IDX 5 1 4 2 3 3 1 4 2 5 22 7 23 8 84 9 24 10 83 11 25 12 26 13
REMARK SMILES IDX 27 14 77 15 28 16 82 17 76 18 78 19 29 20 81 21 75 22 74 23
REMARK SMILES IDX 30 25 62 26 42 27 61 28 43 29 46 30 60 31 79 32 44 33 45 34
REMARK SMILES IDX 59 36 80 37 47 38 31 39 32 40 40 41 33 42 39 43 41 44 38 45
REMARK SMILES IDX 34 46 35 47 36 48 37 49 63 50 64 51 72 52 65 53 71 54 73 55
REMARK SMILES IDX 70 56 66 57 67 58 68 59 69 60 48 61 49 62 57 63 50 64 56 65
REMARK SMILES IDX 58 66 55 67 51 68 52 69 53 70 54 71 6 72 7 73 8 74 9 75
REMARK SMILES IDX 10 77 11 78 12 79 21 80 13 81 15 82 14 83 16 84 17 85 18 86
REMARK SMILES IDX 19 87 20 88
REMARK H PARENT 3 6 78 24 46 35 8 76
REMARK Flexibility Score: inf
ROOT
ATOM      1  C   UNL A   1      32.992  29.057  24.056  1.00  0.00     0.023 C 
ENDROOT
BRANCH   1   2
ATOM      2  C   UNL A   1      33.096  29.233  25.564  1.00  0.00     0.116 C 
BRANCH   2   3
ATOM      3  N   UNL A   1      32.606  30.522  26.034  1.00  0.00    -0.352 N 
ATOM      4  O   UNL A   1      32.548  32.370  27.335  1.00  0.00    -0.269 OA
ATOM      5  C   UNL A   1      33.161  31.370  26.966  1.00  0.00     0.251 C 
ATOM      6  H   UNL A   1      31.764  30.829  25.629  1.00  0.00     0.163 HD
BRANCH   5   7
ATOM      7  C   UNL A   1      34.486  31.054  27.545  1.00  0.00     0.039 A 
ATOM      8  C   UNL A   1      34.767  29.761  27.988  1.00  0.00     0.014 A 
ATOM      9  C   UNL A   1      35.442  32.065  27.684  1.00  0.00     0.014 A 
ATOM     10  C   UNL A   1      35.914  29.527  28.734  1.00  0.00     0.010 A 
ATOM     11  C   UNL A   1      36.648  31.798  28.343  1.00  0.00     0.010 A 
ATOM     12  C   UNL A   1      36.876  30.536  28.913  1.00  0.00    -0.014 A 
BRANCH  12  13
ATOM     13  C   UNL A   1      38.117  30.207  29.666  1.00  0.00     0.031 A 
ATOM     14  C   UNL A   1      38.332  30.680  31.078  1.00  0.00     0.074 A 
ATOM     15  C   UNL A   1      39.019  29.393  29.079  1.00  0.00     0.049 A 
ATOM     16  N   UNL A   1      39.318  30.407  31.896  1.00  0.00    -0.248 NA
ATOM     17  C   UNL A   1      37.319  31.583  31.645  1.00  0.00     0.031 C 
ATOM     18  C   UNL A   1      38.923  28.890  27.705  1.00  0.00     0.029 A 
ATOM     19  N   UNL A   1      40.162  28.814  29.563  1.00  0.00    -0.354 N 
ATOM     20  C   UNL A   1      39.054  31.111  33.067  1.00  0.00     0.074 A 
ATOM     21  C   UNL A   1      37.830  31.851  32.838  1.00  0.00     0.031 C 
ATOM     22  C   UNL A   1      39.920  28.023  27.482  1.00  0.00     0.029 A 
ATOM     23  C   UNL A   1      40.766  27.961  28.667  1.00  0.00     0.049 A 
ATOM     24  H   UNL A   1      40.517  28.990  30.464  1.00  0.00     0.167 HD
ATOM     25  C   UNL A   1      39.762  31.130  34.225  1.00  0.00     0.034 A 
ATOM     26  C   UNL A   1      41.883  27.217  28.779  1.00  0.00     0.034 A 
ATOM     27  C   UNL A   1      40.980  30.383  34.436  1.00  0.00     0.049 A 
ATOM     28  C   UNL A   1      42.640  27.248  30.077  1.00  0.00     0.074 A 
ATOM     29  C   UNL A   1      41.779  30.330  35.568  1.00  0.00     0.029 A 
ATOM     30  N   UNL A   1      41.580  29.553  33.497  1.00  0.00    -0.354 N 
ATOM     31  N   UNL A   1      42.374  27.925  31.170  1.00  0.00    -0.248 NA
ATOM     32  C   UNL A   1      43.844  26.415  30.157  1.00  0.00     0.031 C 
ATOM     33  C   UNL A   1      42.883  29.514  35.295  1.00  0.00     0.029 A 
ATOM     34  C   UNL A   1      42.743  29.002  34.015  1.00  0.00     0.049 A 
ATOM     35  H   UNL A   1      41.230  29.380  32.593  1.00  0.00     0.167 HD
ATOM     36  C   UNL A   1      43.383  27.600  32.069  1.00  0.00     0.074 A 
ATOM     37  C   UNL A   1      44.233  26.631  31.403  1.00  0.00     0.031 C 
ATOM     38  C   UNL A   1      43.598  28.065  33.325  1.00  0.00     0.034 A 
BRANCH  25  39
ATOM     39  C   UNL A   1      39.257  32.018  35.338  1.00  0.00     0.023 A 
ATOM     40  C   UNL A   1      39.700  33.344  35.488  1.00  0.00     0.031 A 
ATOM     41  C   UNL A   1      38.320  31.529  36.266  1.00  0.00     0.131 A 
ATOM     42  C   UNL A   1      39.249  34.116  36.570  1.00  0.00     0.055 A 
ATOM     43  C   UNL A   1      37.823  32.325  37.302  1.00  0.00     0.041 A 
ATOM     44  F   UNL A   1      37.874  30.266  36.187  1.00  0.00    -0.206 F 
ATOM     45  C   UNL A   1      38.295  33.624  37.464  1.00  0.00     0.022 A 
BRANCH  42  46
ATOM     46  S   UNL A   1      40.008  35.738  36.858  1.00  0.00     0.124 S 
ATOM     47  O   UNL A   1      39.650  36.454  35.636  1.00  0.00    -0.237 OA
ATOM     48  O   UNL A   1      39.345  36.187  38.077  1.00  0.00    -0.237 OA
ATOM     49  O   UNL A   1      41.430  35.432  36.999  1.00  0.00    -0.744 OA
ENDBRANCH  42  46
ENDBRANCH  25  39
BRANCH  26  50
ATOM     50  C   UNL A   1      42.364  26.413  27.621  1.00  0.00     0.023 A 
ATOM     51  C   UNL A   1      42.002  25.066  27.465  1.00  0.00     0.031 A 
ATOM     52  C   UNL A   1      43.221  26.983  26.661  1.00  0.00     0.131 A 
ATOM     53  C   UNL A   1      42.524  24.323  26.395  1.00  0.00     0.055 A 
ATOM     54  C   UNL A   1      43.693  26.255  25.569  1.00  0.00     0.041 A 
ATOM     55  F   UNL A   1      43.593  28.269  26.762  1.00  0.00    -0.206 F 
ATOM     56  C   UNL A   1      43.355  24.913  25.439  1.00  0.00     0.022 A 
BRANCH  53  57
ATOM     57  S   UNL A   1      42.170  22.547  26.314  1.00  0.00     0.124 S 
ATOM     58  O   UNL A   1      42.707  22.193  25.005  1.00  0.00    -0.237 OA
ATOM     59  O   UNL A   1      42.905  22.040  27.468  1.00  0.00    -0.237 OA
ATOM     60  O   UNL A   1      40.714  22.484  26.428  1.00  0.00    -0.744 OA
ENDBRANCH  53  57
ENDBRANCH  26  50
BRANCH  38  61
ATOM     61  C   UNL A   1      44.804  27.516  34.044  1.00  0.00     0.023 A 
ATOM     62  C   UNL A   1      44.707  26.380  34.869  1.00  0.00     0.031 A 
ATOM     63  C   UNL A   1      46.046  28.165  33.953  1.00  0.00     0.131 A 
ATOM     64  C   UNL A   1      45.814  25.970  35.625  1.00  0.00     0.055 A 
ATOM     65  C   UNL A   1      47.161  27.717  34.662  1.00  0.00     0.041 A 
ATOM     66  F   UNL A   1      46.192  29.255  33.181  1.00  0.00    -0.206 F 
ATOM     67  C   UNL A   1      47.044  26.623  35.517  1.00  0.00     0.022 A 
BRANCH  64  68
ATOM     68  S   UNL A   1      45.593  24.639  36.837  1.00  0.00     0.124 S 
ATOM     69  O   UNL A   1      45.060  25.362  37.988  1.00  0.00    -0.237 OA
ATOM     70  O   UNL A   1      44.658  23.749  36.156  1.00  0.00    -0.237 OA
ATOM     71  O   UNL A   1      46.943  24.106  37.010  1.00  0.00    -0.744 OA
ENDBRANCH  64  68
ENDBRANCH  38  61
ENDBRANCH  12  13
ENDBRANCH   5   7
ENDBRANCH   2   3
ENDBRANCH   1   2
BRANCH   1  72
ATOM     72  C   UNL A   1      31.574  28.961  23.507  1.00  0.00     0.023 C 
BRANCH  72  73
ATOM     73  C   UNL A   1      31.134  27.567  23.073  1.00  0.00     0.116 C 
BRANCH  73  74
ATOM     74  N   UNL A   1      31.835  27.079  21.895  1.00  0.00    -0.352 N 
ATOM     75  C   UNL A   1      32.709  26.025  21.796  1.00  0.00     0.251 C 
ATOM     76  H   UNL A   1      31.658  27.568  21.058  1.00  0.00     0.163 HD
ATOM     77  O   UNL A   1      33.278  25.762  20.742  1.00  0.00    -0.269 OA
BRANCH  75  78
ATOM     78  C   UNL A   1      32.993  25.217  22.997  1.00  0.00     0.043 A 
ATOM     79  C   UNL A   1      34.019  25.625  23.847  1.00  0.00     0.014 A 
ATOM     80  C   UNL A   1      32.210  24.093  23.293  1.00  0.00     0.060 A 
ATOM     81  C   UNL A   1      34.227  24.937  25.038  1.00  0.00     0.005 A 
ATOM     82  C   UNL A   1      32.391  23.427  24.500  1.00  0.00     0.120 A 
ATOM     83  C   UNL A   1      33.406  23.853  25.366  1.00  0.00     0.046 A 
BRANCH  82  84
ATOM     84  O   UNL A   1      31.649  22.377  24.963  1.00  0.00    -0.488 OA
BRANCH  84  85
ATOM     85  C   UNL A   1      32.326  21.195  25.409  1.00  0.00     0.302 C 
BRANCH  85  86
ATOM     86  C   UNL A   1      32.724  20.275  24.264  1.00  0.00     0.379 C 
ATOM     87  F   UNL A   1      34.067  20.066  24.265  1.00  0.00    -0.207 F 
ATOM     88  F   UNL A   1      32.154  19.056  24.443  1.00  0.00    -0.207 F 
ENDBRANCH  85  86
ENDBRANCH  84  85
ENDBRANCH  82  84
ENDBRANCH  75  78
ENDBRANCH  73  74
ENDBRANCH  72  73
ENDBRANCH   1  72
TORSDOF 17
ENDMDL
