MODEL 1
REMARK VINA RESULT:     -12.6      0.000      0.000
REMARK SMILES O=C(COc1ccccc1Br)Nc1cccc(C(=O)Nc2ccc(C(=O)NCCCCNC(=O)c3ccc(-c4c5nc(c(-c6cc(S(=O)(=O)[O-])ccc6F)c6ccc([nH]6)c(-c6cc(S(=O)(=O)[O-])ccc6F)c6nc(c(-c7cc(S(=O)(=O)[O-])ccc7F)c7ccc4[nH]7)C=C6)C=C5)cc3)cc2)c1
REMARK SMILES IDX 28 1 27 2 25 3 26 4 24 6 21 7 22 8 99 9 23 10 98 11 20 12
REMARK SMILES IDX 18 13 19 14 17 16 13 17 14 18 100 19 15 20 16 21 12 22 1 23
REMARK SMILES IDX 2 24 3 26 4 27 5 28 6 29 10 30 7 31 9 32 11 33 8 34 29 35
REMARK SMILES IDX 30 36 31 37 32 38 33 39 34 41 35 42 36 43 97 44 37 45 96 46
REMARK SMILES IDX 38 47 39 48 40 49 90 50 41 51 95 52 89 53 91 54 42 55 94 56
REMARK SMILES IDX 88 57 87 58 43 60 75 61 55 62 74 63 56 64 59 65 73 66 92 67
REMARK SMILES IDX 57 68 58 69 72 71 93 72 60 73 44 74 45 75 53 76 46 77 52 78
REMARK SMILES IDX 54 79 51 80 47 81 48 82 49 83 50 84 76 85 77 86 85 87 78 88
REMARK SMILES IDX 84 89 86 90 83 91 79 92 80 93 81 94 82 95 61 96 62 97 70 98
REMARK SMILES IDX 63 99 69 100 71 101 68 102 64 103 65 104 66 105 67 106
REMARK H PARENT 27 5 20 15 12 25 32 40 91 59 59 70
REMARK Flexibility Score: inf
ROOT
ATOM      1  C   UNL A   1      31.921  26.763  27.054  1.00  0.00     0.116 C 
ENDROOT
BRANCH   1   2
ATOM      2  N   UNL A   1      32.919  26.660  26.006  1.00  0.00    -0.352 N 
ATOM      3  C   UNL A   1      33.717  25.627  25.574  1.00  0.00     0.251 C 
ATOM      4  O   UNL A   1      34.470  25.847  24.625  1.00  0.00    -0.269 OA
ATOM      5  H   UNL A   1      33.052  27.496  25.504  1.00  0.00     0.163 HD
BRANCH   3   6
ATOM      6  C   UNL A   1      33.655  24.252  26.142  1.00  0.00     0.039 A 
ATOM      7  C   UNL A   1      33.570  21.514  26.719  1.00  0.00     0.041 A 
ATOM      8  C   UNL A   1      34.773  22.094  26.319  1.00  0.00     0.027 A 
ATOM      9  C   UNL A   1      32.473  22.328  27.015  1.00  0.00     0.027 A 
ATOM     10  C   UNL A   1      34.802  23.453  25.998  1.00  0.00     0.016 A 
ATOM     11  C   UNL A   1      32.530  23.703  26.762  1.00  0.00     0.016 A 
BRANCH   7  12
ATOM     12  N   UNL A   1      33.480  20.115  26.697  1.00  0.00    -0.322 N 
ATOM     13  C   UNL A   1      32.903  19.293  25.743  1.00  0.00     0.255 C 
ATOM     14  O   UNL A   1      32.739  18.100  26.001  1.00  0.00    -0.269 OA
ATOM     15  H   UNL A   1      33.883  19.652  27.467  1.00  0.00     0.170 HD
BRANCH  13  16
ATOM     16  C   UNL A   1      32.578  19.782  24.365  1.00  0.00     0.042 A 
ATOM     17  C   UNL A   1      32.113  21.583  22.788  1.00  0.00     0.042 A 
ATOM     18  C   UNL A   1      31.945  20.637  21.773  1.00  0.00     0.026 A 
ATOM     19  C   UNL A   1      32.488  21.146  24.056  1.00  0.00     0.040 A 
ATOM     20  C   UNL A   1      32.150  19.280  22.033  1.00  0.00     0.003 A 
ATOM     21  C   UNL A   1      32.453  18.852  23.328  1.00  0.00     0.014 A 
BRANCH  17  22
ATOM     22  N   UNL A   1      31.940  22.940  22.459  1.00  0.00    -0.323 N 
ATOM     23  O   UNL A   1      30.378  23.677  24.036  1.00  0.00    -0.271 OA
ATOM     24  C   UNL A   1      31.174  23.884  23.125  1.00  0.00     0.262 C 
ATOM     25  H   UNL A   1      32.421  23.257  21.661  1.00  0.00     0.170 HD
BRANCH  24  26
ATOM     26  C   UNL A   1      31.402  25.297  22.599  1.00  0.00     0.329 C 
BRANCH  26  27
ATOM     27  O   UNL A   1      31.322  26.230  23.684  1.00  0.00    -0.483 OA
BRANCH  27  28
ATOM     28  C   UNL A   1      30.555  27.308  23.332  1.00  0.00     0.134 A 
ATOM     29  C   UNL A   1      29.172  27.185  23.481  1.00  0.00     0.047 A 
ATOM     30  C   UNL A   1      31.103  28.474  22.786  1.00  0.00     0.060 A 
ATOM     31  C   UNL A   1      28.340  28.243  23.122  1.00  0.00     0.004 A 
ATOM     32  C   UNL A   1      30.265  29.536  22.444  1.00  0.00     0.019 A 
ATOM     33  Br  UNL A   1      32.952  28.697  22.445  1.00  0.00    -0.047 Br
ATOM     34  C   UNL A   1      28.886  29.420  22.611  1.00  0.00     0.001 A 
ENDBRANCH  27  28
ENDBRANCH  26  27
ENDBRANCH  24  26
ENDBRANCH  17  22
ENDBRANCH  13  16
ENDBRANCH   7  12
ENDBRANCH   3   6
ENDBRANCH   1   2
BRANCH   1  35
ATOM     35  C   UNL A   1      31.765  28.212  27.510  1.00  0.00     0.023 C 
BRANCH  35  36
ATOM     36  C   UNL A   1      31.495  29.196  26.365  1.00  0.00     0.023 C 
BRANCH  36  37
ATOM     37  C   UNL A   1      32.661  30.110  25.991  1.00  0.00     0.116 C 
BRANCH  37  38
ATOM     38  N   UNL A   1      32.462  31.488  26.410  1.00  0.00    -0.352 N 
ATOM     39  C   UNL A   1      33.193  32.243  27.301  1.00  0.00     0.251 C 
ATOM     40  H   UNL A   1      31.693  31.947  25.999  1.00  0.00     0.163 HD
ATOM     41  O   UNL A   1      32.795  33.346  27.631  1.00  0.00    -0.269 OA
BRANCH  39  42
ATOM     42  C   UNL A   1      34.440  31.685  27.873  1.00  0.00     0.039 A 
ATOM     43  C   UNL A   1      35.545  32.526  28.026  1.00  0.00     0.014 A 
ATOM     44  C   UNL A   1      34.510  30.348  28.273  1.00  0.00     0.014 A 
ATOM     45  C   UNL A   1      36.698  32.044  28.649  1.00  0.00     0.010 A 
ATOM     46  C   UNL A   1      35.637  29.888  28.952  1.00  0.00     0.010 A 
ATOM     47  C   UNL A   1      36.740  30.733  29.152  1.00  0.00    -0.014 A 
BRANCH  47  48
ATOM     48  C   UNL A   1      37.925  30.235  29.901  1.00  0.00     0.031 A 
ATOM     49  C   UNL A   1      38.180  30.698  31.309  1.00  0.00     0.074 A 
ATOM     50  C   UNL A   1      38.802  29.414  29.290  1.00  0.00     0.049 A 
ATOM     51  N   UNL A   1      39.191  30.436  32.097  1.00  0.00    -0.248 NA
ATOM     52  C   UNL A   1      37.179  31.600  31.896  1.00  0.00     0.031 C 
ATOM     53  C   UNL A   1      38.686  28.928  27.914  1.00  0.00     0.029 A 
ATOM     54  N   UNL A   1      39.970  28.850  29.740  1.00  0.00    -0.354 N 
ATOM     55  C   UNL A   1      38.953  31.145  33.270  1.00  0.00     0.074 A 
ATOM     56  C   UNL A   1      37.735  31.900  33.060  1.00  0.00     0.031 C 
ATOM     57  C   UNL A   1      39.726  28.122  27.641  1.00  0.00     0.029 A 
ATOM     58  C   UNL A   1      40.607  28.069  28.803  1.00  0.00     0.049 A 
ATOM     59  H   UNL A   1      40.320  28.990  30.650  1.00  0.00     0.167 HD
ATOM     60  C   UNL A   1      39.670  31.147  34.422  1.00  0.00     0.034 A 
ATOM     61  C   UNL A   1      41.775  27.398  28.866  1.00  0.00     0.034 A 
ATOM     62  C   UNL A   1      40.879  30.384  34.617  1.00  0.00     0.049 A 
ATOM     63  C   UNL A   1      42.569  27.439  30.148  1.00  0.00     0.074 A 
ATOM     64  C   UNL A   1      41.657  30.276  35.757  1.00  0.00     0.029 A 
ATOM     65  N   UNL A   1      41.494  29.603  33.645  1.00  0.00    -0.354 N 
ATOM     66  N   UNL A   1      42.303  28.074  31.266  1.00  0.00    -0.248 NA
ATOM     67  C   UNL A   1      43.814  26.660  30.180  1.00  0.00     0.031 C 
ATOM     68  C   UNL A   1      42.774  29.489  35.455  1.00  0.00     0.029 A 
ATOM     69  C   UNL A   1      42.655  29.037  34.151  1.00  0.00     0.049 A 
ATOM     70  H   UNL A   1      41.154  29.471  32.730  1.00  0.00     0.167 HD
ATOM     71  C   UNL A   1      43.332  27.744  32.143  1.00  0.00     0.074 A 
ATOM     72  C   UNL A   1      44.212  26.842  31.429  1.00  0.00     0.031 C 
ATOM     73  C   UNL A   1      43.531  28.146  33.425  1.00  0.00     0.034 A 
BRANCH  60  74
ATOM     74  C   UNL A   1      39.169  32.022  35.548  1.00  0.00     0.023 A 
ATOM     75  C   UNL A   1      39.577  33.362  35.679  1.00  0.00     0.031 A 
ATOM     76  C   UNL A   1      38.295  31.505  36.520  1.00  0.00     0.131 A 
ATOM     77  C   UNL A   1      39.181  34.111  36.797  1.00  0.00     0.055 A 
ATOM     78  C   UNL A   1      37.833  32.284  37.584  1.00  0.00     0.041 A 
ATOM     79  F   UNL A   1      37.886  30.228  36.463  1.00  0.00    -0.206 F 
ATOM     80  C   UNL A   1      38.290  33.590  37.737  1.00  0.00     0.022 A 
BRANCH  77  81
ATOM     81  S   UNL A   1      39.971  35.718  37.085  1.00  0.00     0.124 S 
ATOM     82  O   UNL A   1      39.284  36.170  38.293  1.00  0.00    -0.237 OA
ATOM     83  O   UNL A   1      41.374  35.356  37.244  1.00  0.00    -0.237 OA
ATOM     84  O   UNL A   1      39.653  36.477  35.876  1.00  0.00    -0.744 OA
ENDBRANCH  77  81
ENDBRANCH  60  74
BRANCH  61  85
ATOM     85  C   UNL A   1      42.275  26.637  27.685  1.00  0.00     0.023 A 
ATOM     86  C   UNL A   1      42.002  25.268  27.536  1.00  0.00     0.031 A 
ATOM     87  C   UNL A   1      43.077  27.258  26.710  1.00  0.00     0.131 A 
ATOM     88  C   UNL A   1      42.566  24.554  26.468  1.00  0.00     0.055 A 
ATOM     89  C   UNL A   1      43.589  26.556  25.619  1.00  0.00     0.041 A 
ATOM     90  F   UNL A   1      43.366  28.567  26.802  1.00  0.00    -0.206 F 
ATOM     91  C   UNL A   1      43.347  25.191  25.500  1.00  0.00     0.022 A 
BRANCH  88  92
ATOM     92  S   UNL A   1      42.339  22.755  26.411  1.00  0.00     0.124 S 
ATOM     93  O   UNL A   1      40.961  22.616  26.868  1.00  0.00    -0.237 OA
ATOM     94  O   UNL A   1      42.580  22.465  25.001  1.00  0.00    -0.237 OA
ATOM     95  O   UNL A   1      43.357  22.254  27.332  1.00  0.00    -0.744 OA
ENDBRANCH  88  92
ENDBRANCH  61  85
BRANCH  73  96
ATOM     96  C   UNL A   1      44.724  27.570  34.149  1.00  0.00     0.023 A 
ATOM     97  C   UNL A   1      44.633  26.389  34.907  1.00  0.00     0.031 A 
ATOM     98  C   UNL A   1      45.968  28.222  34.088  1.00  0.00     0.131 A 
ATOM     99  C   UNL A   1      45.749  25.931  35.622  1.00  0.00     0.055 A 
ATOM    100  C   UNL A   1      47.092  27.726  34.751  1.00  0.00     0.041 A 
ATOM    101  F   UNL A   1      46.113  29.355  33.382  1.00  0.00    -0.206 F 
ATOM    102  C   UNL A   1      46.983  26.582  35.534  1.00  0.00     0.022 A 
BRANCH  99 103
ATOM    103  S   UNL A   1      45.545  24.523  36.748  1.00  0.00     0.124 S 
ATOM    104  O   UNL A   1      44.329  24.886  37.470  1.00  0.00    -0.237 OA
ATOM    105  O   UNL A   1      45.427  23.399  35.824  1.00  0.00    -0.237 OA
ATOM    106  O   UNL A   1      46.769  24.541  37.547  1.00  0.00    -0.744 OA
ENDBRANCH  99 103
ENDBRANCH  73  96
ENDBRANCH  47  48
ENDBRANCH  39  42
ENDBRANCH  37  38
ENDBRANCH  36  37
ENDBRANCH  35  36
ENDBRANCH   1  35
TORSDOF 20
ENDMDL
MODEL 2
REMARK VINA RESULT:     -12.2      1.830      7.452
REMARK SMILES O=C(COc1ccccc1Br)Nc1cccc(C(=O)Nc2ccc(C(=O)NCCCCNC(=O)c3ccc(-c4c5nc(c(-c6cc(S(=O)(=O)[O-])ccc6F)c6ccc([nH]6)c(-c6cc(S(=O)(=O)[O-])ccc6F)c6nc(c(-c7cc(S(=O)(=O)[O-])ccc7F)c7ccc4[nH]7)C=C6)C=C5)cc3)cc2)c1
REMARK SMILES IDX 28 1 27 2 25 3 26 4 24 6 21 7 22 8 99 9 23 10 98 11 20 12
REMARK SMILES IDX 18 13 19 14 17 16 13 17 14 18 100 19 15 20 16 21 12 22 1 23
REMARK SMILES IDX 2 24 3 26 4 27 5 28 6 29 10 30 7 31 9 32 11 33 8 34 29 35
REMARK SMILES IDX 30 36 31 37 32 38 33 39 34 41 35 42 36 43 97 44 37 45 96 46
REMARK SMILES IDX 38 47 39 48 40 49 90 50 41 51 95 52 89 53 91 54 42 55 94 56
REMARK SMILES IDX 88 57 87 58 43 60 75 61 55 62 74 63 56 64 59 65 73 66 92 67
REMARK SMILES IDX 57 68 58 69 72 71 93 72 60 73 44 74 45 75 53 76 46 77 52 78
REMARK SMILES IDX 54 79 51 80 47 81 48 82 49 83 50 84 76 85 77 86 85 87 78 88
REMARK SMILES IDX 84 89 86 90 83 91 79 92 80 93 81 94 82 95 61 96 62 97 70 98
REMARK SMILES IDX 63 99 69 100 71 101 68 102 64 103 65 104 66 105 67 106
REMARK H PARENT 27 5 20 15 12 25 32 40 91 59 59 70
REMARK Flexibility Score: inf
ROOT
ATOM      1  C   UNL A   1      32.623  25.730  25.957  1.00  0.00     0.116 C 
ENDROOT
BRANCH   1   2
ATOM      2  N   UNL A   1      31.316  25.396  26.491  1.00  0.00    -0.352 N 
ATOM      3  C   UNL A   1      30.701  24.200  26.775  1.00  0.00     0.251 C 
ATOM      4  O   UNL A   1      29.565  24.242  27.251  1.00  0.00    -0.269 OA
ATOM      5  H   UNL A   1      30.759  26.182  26.691  1.00  0.00     0.163 HD
BRANCH   3   6
ATOM      6  C   UNL A   1      31.365  22.877  26.610  1.00  0.00     0.039 A 
ATOM      7  C   UNL A   1      33.024  20.668  26.163  1.00  0.00     0.041 A 
ATOM      8  C   UNL A   1      33.221  21.455  27.295  1.00  0.00     0.027 A 
ATOM      9  C   UNL A   1      31.891  20.866  25.369  1.00  0.00     0.027 A 
ATOM     10  C   UNL A   1      32.414  22.578  27.495  1.00  0.00     0.016 A 
ATOM     11  C   UNL A   1      31.040  21.950  25.617  1.00  0.00     0.016 A 
BRANCH   7  12
ATOM     12  N   UNL A   1      34.043  19.775  25.803  1.00  0.00    -0.322 N 
ATOM     13  C   UNL A   1      35.146  19.991  24.992  1.00  0.00     0.255 C 
ATOM     14  O   UNL A   1      35.818  19.026  24.625  1.00  0.00    -0.269 OA
ATOM     15  H   UNL A   1      33.964  18.868  26.177  1.00  0.00     0.170 HD
BRANCH  13  16
ATOM     16  C   UNL A   1      35.618  21.369  24.643  1.00  0.00     0.042 A 
ATOM     17  C   UNL A   1      35.237  23.586  23.700  1.00  0.00     0.042 A 
ATOM     18  C   UNL A   1      36.561  23.925  23.989  1.00  0.00     0.026 A 
ATOM     19  C   UNL A   1      34.766  22.333  24.088  1.00  0.00     0.040 A 
ATOM     20  C   UNL A   1      37.392  23.020  24.653  1.00  0.00     0.003 A 
ATOM     21  C   UNL A   1      36.926  21.741  24.968  1.00  0.00     0.014 A 
BRANCH  17  22
ATOM     22  N   UNL A   1      34.431  24.553  23.073  1.00  0.00    -0.323 N 
ATOM     23  O   UNL A   1      33.280  23.320  21.453  1.00  0.00    -0.271 OA
ATOM     24  C   UNL A   1      33.483  24.354  22.080  1.00  0.00     0.262 C 
ATOM     25  H   UNL A   1      34.554  25.481  23.374  1.00  0.00     0.170 HD
BRANCH  24  26
ATOM     26  C   UNL A   1      32.660  25.607  21.800  1.00  0.00     0.329 C 
BRANCH  26  27
ATOM     27  O   UNL A   1      31.580  25.689  22.738  1.00  0.00    -0.483 OA
BRANCH  27  28
ATOM     28  C   UNL A   1      31.098  26.968  22.802  1.00  0.00     0.134 A 
ATOM     29  C   UNL A   1      31.930  27.989  22.337  1.00  0.00     0.047 A 
ATOM     30  C   UNL A   1      29.852  27.277  23.360  1.00  0.00     0.060 A 
ATOM     31  C   UNL A   1      31.501  29.313  22.392  1.00  0.00     0.004 A 
ATOM     32  C   UNL A   1      29.422  28.604  23.398  1.00  0.00     0.019 A 
ATOM     33  Br  UNL A   1      28.698  25.980  24.115  1.00  0.00    -0.047 Br
ATOM     34  C   UNL A   1      30.245  29.619  22.915  1.00  0.00     0.001 A 
ENDBRANCH  27  28
ENDBRANCH  26  27
ENDBRANCH  24  26
ENDBRANCH  17  22
ENDBRANCH  13  16
ENDBRANCH   7  12
ENDBRANCH   3   6
ENDBRANCH   1   2
BRANCH   1  35
ATOM     35  C   UNL A   1      33.113  27.061  26.520  1.00  0.00     0.023 C 
BRANCH  35  36
ATOM     36  C   UNL A   1      32.333  28.277  26.002  1.00  0.00     0.023 C 
BRANCH  36  37
ATOM     37  C   UNL A   1      33.183  29.474  25.577  1.00  0.00     0.116 C 
BRANCH  37  38
ATOM     38  N   UNL A   1      32.733  30.728  26.159  1.00  0.00    -0.352 N 
ATOM     39  C   UNL A   1      33.295  31.467  27.177  1.00  0.00     0.251 C 
ATOM     40  H   UNL A   1      31.908  31.101  25.772  1.00  0.00     0.163 HD
ATOM     41  O   UNL A   1      32.701  32.431  27.626  1.00  0.00    -0.269 OA
BRANCH  39  42
ATOM     42  C   UNL A   1      34.604  31.056  27.736  1.00  0.00     0.039 A 
ATOM     43  C   UNL A   1      35.644  31.988  27.768  1.00  0.00     0.014 A 
ATOM     44  C   UNL A   1      34.795  29.768  28.242  1.00  0.00     0.014 A 
ATOM     45  C   UNL A   1      36.855  31.650  28.376  1.00  0.00     0.010 A 
ATOM     46  C   UNL A   1      35.980  29.455  28.905  1.00  0.00     0.010 A 
ATOM     47  C   UNL A   1      37.020  30.395  28.984  1.00  0.00    -0.014 A 
BRANCH  47  48
ATOM     48  C   UNL A   1      38.268  30.054  29.717  1.00  0.00     0.031 A 
ATOM     49  C   UNL A   1      39.234  29.053  29.143  1.00  0.00     0.074 A 
ATOM     50  C   UNL A   1      38.501  30.601  30.927  1.00  0.00     0.049 A 
ATOM     51  N   UNL A   1      40.334  28.572  29.662  1.00  0.00    -0.248 NA
ATOM     52  C   UNL A   1      38.899  28.499  27.823  1.00  0.00     0.031 C 
ATOM     53  C   UNL A   1      37.621  31.552  31.607  1.00  0.00     0.029 A 
ATOM     54  N   UNL A   1      39.542  30.429  31.806  1.00  0.00    -0.354 N 
ATOM     55  C   UNL A   1      40.820  27.653  28.736  1.00  0.00     0.074 A 
ATOM     56  C   UNL A   1      39.856  27.599  27.657  1.00  0.00     0.031 C 
ATOM     57  C   UNL A   1      38.169  31.896  32.784  1.00  0.00     0.029 A 
ATOM     58  C   UNL A   1      39.414  31.159  32.966  1.00  0.00     0.049 A 
ATOM     59  H   UNL A   1      40.309  29.840  31.623  1.00  0.00     0.167 HD
ATOM     60  C   UNL A   1      41.975  26.941  28.773  1.00  0.00     0.034 A 
ATOM     61  C   UNL A   1      40.204  31.218  34.057  1.00  0.00     0.034 A 
ATOM     62  C   UNL A   1      42.929  27.013  29.853  1.00  0.00     0.049 A 
ATOM     63  C   UNL A   1      41.467  30.394  34.088  1.00  0.00     0.074 A 
ATOM     64  C   UNL A   1      44.150  26.371  29.969  1.00  0.00     0.029 A 
ATOM     65  N   UNL A   1      42.766  27.764  31.012  1.00  0.00    -0.354 N 
ATOM     66  N   UNL A   1      41.938  29.569  33.181  1.00  0.00    -0.248 NA
ATOM     67  C   UNL A   1      42.313  30.522  35.282  1.00  0.00     0.031 C 
ATOM     68  C   UNL A   1      44.692  26.679  31.222  1.00  0.00     0.029 A 
ATOM     69  C   UNL A   1      43.849  27.577  31.858  1.00  0.00     0.049 A 
ATOM     70  H   UNL A   1      41.995  28.344  31.203  1.00  0.00     0.167 HD
ATOM     71  C   UNL A   1      43.150  29.105  33.685  1.00  0.00     0.074 A 
ATOM     72  C   UNL A   1      43.344  29.756  34.964  1.00  0.00     0.031 C 
ATOM     73  C   UNL A   1      44.027  28.224  33.137  1.00  0.00     0.034 A 
BRANCH  60  74
ATOM     74  C   UNL A   1      42.250  26.008  27.616  1.00  0.00     0.023 A 
ATOM     75  C   UNL A   1      41.731  24.701  27.582  1.00  0.00     0.031 A 
ATOM     76  C   UNL A   1      43.063  26.419  26.545  1.00  0.00     0.131 A 
ATOM     77  C   UNL A   1      42.098  23.827  26.549  1.00  0.00     0.055 A 
ATOM     78  C   UNL A   1      43.353  25.572  25.473  1.00  0.00     0.041 A 
ATOM     79  F   UNL A   1      43.605  27.647  26.529  1.00  0.00    -0.206 F 
ATOM     80  C   UNL A   1      42.883  24.261  25.479  1.00  0.00     0.022 A 
BRANCH  77  81
ATOM     81  S   UNL A   1      41.662  22.074  26.704  1.00  0.00     0.124 S 
ATOM     82  O   UNL A   1      42.293  21.726  27.975  1.00  0.00    -0.237 OA
ATOM     83  O   UNL A   1      40.204  22.110  26.703  1.00  0.00    -0.237 OA
ATOM     84  O   UNL A   1      42.273  21.463  25.525  1.00  0.00    -0.744 OA
ENDBRANCH  77  81
ENDBRANCH  60  74
BRANCH  61  85
ATOM     85  C   UNL A   1      39.826  32.075  35.219  1.00  0.00     0.023 A 
ATOM     86  C   UNL A   1      39.016  31.578  36.252  1.00  0.00     0.031 A 
ATOM     87  C   UNL A   1      40.232  33.420  35.288  1.00  0.00     0.131 A 
ATOM     88  C   UNL A   1      38.594  32.432  37.282  1.00  0.00     0.055 A 
ATOM     89  C   UNL A   1      39.856  34.250  36.345  1.00  0.00     0.041 A 
ATOM     90  F   UNL A   1      41.011  33.945  34.329  1.00  0.00    -0.206 F 
ATOM     91  C   UNL A   1      39.020  33.762  37.344  1.00  0.00     0.022 A 
BRANCH  88  92
ATOM     92  S   UNL A   1      37.404  31.804  38.498  1.00  0.00     0.124 S 
ATOM     93  O   UNL A   1      37.190  30.440  38.026  1.00  0.00    -0.237 OA
ATOM     94  O   UNL A   1      38.146  31.942  39.747  1.00  0.00    -0.237 OA
ATOM     95  O   UNL A   1      36.261  32.702  38.351  1.00  0.00    -0.744 OA
ENDBRANCH  88  92
ENDBRANCH  61  85
BRANCH  73  96
ATOM     96  C   UNL A   1      45.299  27.955  33.905  1.00  0.00     0.023 A 
ATOM     97  C   UNL A   1      45.369  26.963  34.899  1.00  0.00     0.031 A 
ATOM     98  C   UNL A   1      46.454  28.713  33.646  1.00  0.00     0.131 A 
ATOM     99  C   UNL A   1      46.550  26.798  35.639  1.00  0.00     0.055 A 
ATOM    100  C   UNL A   1      47.645  28.500  34.341  1.00  0.00     0.041 A 
ATOM    101  F   UNL A   1      46.444  29.676  32.709  1.00  0.00    -0.206 F 
ATOM    102  C   UNL A   1      47.694  27.548  35.353  1.00  0.00     0.022 A 
BRANCH  99 103
ATOM    103  S   UNL A   1      46.545  25.652  37.046  1.00  0.00     0.124 S 
ATOM    104  O   UNL A   1      45.138  25.658  37.436  1.00  0.00    -0.237 OA
ATOM    105  O   UNL A   1      47.034  24.416  36.443  1.00  0.00    -0.237 OA
ATOM    106  O   UNL A   1      47.457  26.278  38.001  1.00  0.00    -0.744 OA
ENDBRANCH  99 103
ENDBRANCH  73  96
ENDBRANCH  47  48
ENDBRANCH  39  42
ENDBRANCH  37  38
ENDBRANCH  36  37
ENDBRANCH  35  36
ENDBRANCH   1  35
TORSDOF 20
ENDMDL
MODEL 3
REMARK VINA RESULT:     -12.0      2.342      3.228
REMARK SMILES O=C(COc1ccccc1Br)Nc1cccc(C(=O)Nc2ccc(C(=O)NCCCCNC(=O)c3ccc(-c4c5nc(c(-c6cc(S(=O)(=O)[O-])ccc6F)c6ccc([nH]6)c(-c6cc(S(=O)(=O)[O-])ccc6F)c6nc(c(-c7cc(S(=O)(=O)[O-])ccc7F)c7ccc4[nH]7)C=C6)C=C5)cc3)cc2)c1
REMARK SMILES IDX 28 1 27 2 25 3 26 4 24 6 21 7 22 8 99 9 23 10 98 11 20 12
REMARK SMILES IDX 18 13 19 14 17 16 13 17 14 18 100 19 15 20 16 21 12 22 1 23
REMARK SMILES IDX 2 24 3 26 4 27 5 28 6 29 10 30 7 31 9 32 11 33 8 34 29 35
REMARK SMILES IDX 30 36 31 37 32 38 33 39 34 41 35 42 36 43 97 44 37 45 96 46
REMARK SMILES IDX 38 47 39 48 40 49 90 50 41 51 95 52 89 53 91 54 42 55 94 56
REMARK SMILES IDX 88 57 87 58 43 60 75 61 55 62 74 63 56 64 59 65 73 66 92 67
REMARK SMILES IDX 57 68 58 69 72 71 93 72 60 73 44 74 45 75 53 76 46 77 52 78
REMARK SMILES IDX 54 79 51 80 47 81 48 82 49 83 50 84 76 85 77 86 85 87 78 88
REMARK SMILES IDX 84 89 86 90 83 91 79 92 80 93 81 94 82 95 61 96 62 97 70 98
REMARK SMILES IDX 63 99 69 100 71 101 68 102 64 103 65 104 66 105 67 106
REMARK H PARENT 27 5 20 15 12 25 32 40 91 59 59 70
REMARK Flexibility Score: inf
ROOT
ATOM      1  C   UNL A   1      32.693  25.552  25.389  1.00  0.00     0.116 C 
ENDROOT
BRANCH   1   2
ATOM      2  N   UNL A   1      31.449  25.303  26.093  1.00  0.00    -0.352 N 
ATOM      3  C   UNL A   1      30.847  24.156  26.551  1.00  0.00     0.251 C 
ATOM      4  O   UNL A   1      29.773  24.271  27.143  1.00  0.00    -0.269 OA
ATOM      5  H   UNL A   1      30.932  26.120  26.281  1.00  0.00     0.163 HD
BRANCH   3   6
ATOM      6  C   UNL A   1      31.463  22.805  26.434  1.00  0.00     0.039 A 
ATOM      7  C   UNL A   1      33.049  20.524  26.089  1.00  0.00     0.041 A 
ATOM      8  C   UNL A   1      33.235  21.325  27.214  1.00  0.00     0.027 A 
ATOM      9  C   UNL A   1      31.955  20.752  25.249  1.00  0.00     0.027 A 
ATOM     10  C   UNL A   1      32.466  22.482  27.363  1.00  0.00     0.016 A 
ATOM     11  C   UNL A   1      31.139  21.872  25.446  1.00  0.00     0.016 A 
BRANCH   7  12
ATOM     12  N   UNL A   1      34.044  19.586  25.783  1.00  0.00    -0.322 N 
ATOM     13  C   UNL A   1      35.156  19.727  24.969  1.00  0.00     0.255 C 
ATOM     14  O   UNL A   1      35.803  18.726  24.658  1.00  0.00    -0.269 OA
ATOM     15  H   UNL A   1      33.938  18.702  26.205  1.00  0.00     0.170 HD
BRANCH  13  16
ATOM     16  C   UNL A   1      35.668  21.071  24.548  1.00  0.00     0.042 A 
ATOM     17  C   UNL A   1      35.388  23.201  23.394  1.00  0.00     0.042 A 
ATOM     18  C   UNL A   1      36.685  23.562  23.768  1.00  0.00     0.026 A 
ATOM     19  C   UNL A   1      34.875  21.986  23.842  1.00  0.00     0.040 A 
ATOM     20  C   UNL A   1      37.447  22.716  24.576  1.00  0.00     0.003 A 
ATOM     21  C   UNL A   1      36.945  21.468  24.955  1.00  0.00     0.014 A 
BRANCH  17  22
ATOM     22  N   UNL A   1      34.648  24.112  22.619  1.00  0.00    -0.323 N 
ATOM     23  O   UNL A   1      32.582  23.046  22.368  1.00  0.00    -0.271 OA
ATOM     24  C   UNL A   1      33.318  24.018  22.236  1.00  0.00     0.262 C 
ATOM     25  H   UNL A   1      35.131  24.913  22.312  1.00  0.00     0.170 HD
BRANCH  24  26
ATOM     26  C   UNL A   1      32.807  25.297  21.582  1.00  0.00     0.329 C 
BRANCH  26  27
ATOM     27  O   UNL A   1      31.514  25.618  22.109  1.00  0.00    -0.483 OA
BRANCH  27  28
ATOM     28  C   UNL A   1      31.509  26.885  22.625  1.00  0.00     0.134 A 
ATOM     29  C   UNL A   1      32.658  27.657  22.436  1.00  0.00     0.047 A 
ATOM     30  C   UNL A   1      30.437  27.392  23.368  1.00  0.00     0.060 A 
ATOM     31  C   UNL A   1      32.719  28.948  22.954  1.00  0.00     0.004 A 
ATOM     32  C   UNL A   1      30.498  28.692  23.871  1.00  0.00     0.019 A 
ATOM     33  Br  UNL A   1      28.883  26.389  23.772  1.00  0.00    -0.047 Br
ATOM     34  C   UNL A   1      31.637  29.468  23.664  1.00  0.00     0.001 A 
ENDBRANCH  27  28
ENDBRANCH  26  27
ENDBRANCH  24  26
ENDBRANCH  17  22
ENDBRANCH  13  16
ENDBRANCH   7  12
ENDBRANCH   3   6
ENDBRANCH   1   2
BRANCH   1  35
ATOM     35  C   UNL A   1      33.664  26.335  26.269  1.00  0.00     0.023 C 
BRANCH  35  36
ATOM     36  C   UNL A   1      33.220  27.776  26.551  1.00  0.00     0.023 C 
BRANCH  36  37
ATOM     37  C   UNL A   1      34.271  28.854  26.289  1.00  0.00     0.116 C 
BRANCH  37  38
ATOM     38  N   UNL A   1      33.865  30.170  26.754  1.00  0.00    -0.352 N 
ATOM     39  C   UNL A   1      34.455  30.981  27.699  1.00  0.00     0.251 C 
ATOM     40  H   UNL A   1      33.051  30.534  26.335  1.00  0.00     0.163 HD
ATOM     41  O   UNL A   1      33.894  32.002  28.057  1.00  0.00    -0.269 OA
BRANCH  39  42
ATOM     42  C   UNL A   1      35.751  30.581  28.292  1.00  0.00     0.039 A 
ATOM     43  C   UNL A   1      35.749  29.786  29.441  1.00  0.00     0.014 A 
ATOM     44  C   UNL A   1      36.959  30.970  27.706  1.00  0.00     0.014 A 
ATOM     45  C   UNL A   1      36.959  29.321  29.961  1.00  0.00     0.010 A 
ATOM     46  C   UNL A   1      38.159  30.452  28.188  1.00  0.00     0.010 A 
ATOM     47  C   UNL A   1      38.171  29.617  29.316  1.00  0.00    -0.014 A 
BRANCH  47  48
ATOM     48  C   UNL A   1      39.458  29.051  29.802  1.00  0.00     0.031 A 
ATOM     49  C   UNL A   1      40.198  29.715  30.931  1.00  0.00     0.074 A 
ATOM     50  C   UNL A   1      39.989  27.976  29.186  1.00  0.00     0.049 A 
ATOM     51  N   UNL A   1      41.364  29.419  31.445  1.00  0.00    -0.248 NA
ATOM     52  C   UNL A   1      39.553  30.888  31.540  1.00  0.00     0.031 C 
ATOM     53  C   UNL A   1      39.386  27.269  28.055  1.00  0.00     0.029 A 
ATOM     54  N   UNL A   1      41.158  27.294  29.416  1.00  0.00    -0.354 N 
ATOM     55  C   UNL A   1      41.596  30.370  32.434  1.00  0.00     0.074 A 
ATOM     56  C   UNL A   1      40.479  31.291  32.397  1.00  0.00     0.031 C 
ATOM     57  C   UNL A   1      40.178  26.242  27.705  1.00  0.00     0.029 A 
ATOM     58  C   UNL A   1      41.365  26.241  28.553  1.00  0.00     0.049 A 
ATOM     59  H   UNL A   1      41.789  27.535  30.132  1.00  0.00     0.167 HD
ATOM     60  C   UNL A   1      42.633  30.453  33.306  1.00  0.00     0.034 A 
ATOM     61  C   UNL A   1      42.399  25.383  28.449  1.00  0.00     0.034 A 
ATOM     62  C   UNL A   1      43.735  29.522  33.334  1.00  0.00     0.049 A 
ATOM     63  C   UNL A   1      43.554  25.512  29.411  1.00  0.00     0.074 A 
ATOM     64  C   UNL A   1      44.811  29.485  34.204  1.00  0.00     0.029 A 
ATOM     65  N   UNL A   1      43.910  28.467  32.445  1.00  0.00    -0.354 N 
ATOM     66  N   UNL A   1      43.733  26.387  30.373  1.00  0.00    -0.248 NA
ATOM     67  C   UNL A   1      44.637  24.529  29.281  1.00  0.00     0.031 C 
ATOM     68  C   UNL A   1      45.668  28.455  33.801  1.00  0.00     0.029 A 
ATOM     69  C   UNL A   1      45.090  27.796  32.729  1.00  0.00     0.049 A 
ATOM     70  H   UNL A   1      43.288  28.232  31.721  1.00  0.00     0.167 HD
ATOM     71  C   UNL A   1      44.936  26.039  30.982  1.00  0.00     0.074 A 
ATOM     72  C   UNL A   1      45.426  24.865  30.289  1.00  0.00     0.031 C 
ATOM     73  C   UNL A   1      45.575  26.631  32.024  1.00  0.00     0.034 A 
BRANCH  60  74
ATOM     74  C   UNL A   1      42.625  31.606  34.284  1.00  0.00     0.023 A 
ATOM     75  C   UNL A   1      41.906  31.544  35.491  1.00  0.00     0.031 A 
ATOM     76  C   UNL A   1      43.322  32.792  33.995  1.00  0.00     0.131 A 
ATOM     77  C   UNL A   1      41.830  32.672  36.321  1.00  0.00     0.055 A 
ATOM     78  C   UNL A   1      43.314  33.882  34.869  1.00  0.00     0.041 A 
ATOM     79  F   UNL A   1      44.009  32.921  32.849  1.00  0.00    -0.206 F 
ATOM     80  C   UNL A   1      42.552  33.832  36.032  1.00  0.00     0.022 A 
BRANCH  77  81
ATOM     81  S   UNL A   1      40.652  32.653  37.700  1.00  0.00     0.124 S 
ATOM     82  O   UNL A   1      39.594  31.795  37.170  1.00  0.00    -0.237 OA
ATOM     83  O   UNL A   1      41.447  32.092  38.786  1.00  0.00    -0.237 OA
ATOM     84  O   UNL A   1      40.283  34.059  37.855  1.00  0.00    -0.744 OA
ENDBRANCH  77  81
ENDBRANCH  60  74
BRANCH  61  85
ATOM     85  C   UNL A   1      42.403  24.329  27.392  1.00  0.00     0.023 A 
ATOM     86  C   UNL A   1      41.756  23.100  27.593  1.00  0.00     0.031 A 
ATOM     87  C   UNL A   1      43.098  24.519  26.184  1.00  0.00     0.131 A 
ATOM     88  C   UNL A   1      41.858  22.089  26.625  1.00  0.00     0.055 A 
ATOM     89  C   UNL A   1      43.150  23.531  25.200  1.00  0.00     0.041 A 
ATOM     90  F   UNL A   1      43.732  25.678  25.939  1.00  0.00    -0.206 F 
ATOM     91  C   UNL A   1      42.539  22.301  25.423  1.00  0.00     0.022 A 
BRANCH  88  92
ATOM     92  S   UNL A   1      41.162  20.457  26.997  1.00  0.00     0.124 S 
ATOM     93  O   UNL A   1      40.903  20.565  28.429  1.00  0.00    -0.237 OA
ATOM     94  O   UNL A   1      39.987  20.425  26.133  1.00  0.00    -0.237 OA
ATOM     95  O   UNL A   1      42.234  19.536  26.624  1.00  0.00    -0.744 OA
ENDBRANCH  88  92
ENDBRANCH  61  85
BRANCH  73  96
ATOM     96  C   UNL A   1      46.852  25.984  32.503  1.00  0.00     0.023 A 
ATOM     97  C   UNL A   1      46.853  24.998  33.505  1.00  0.00     0.031 A 
ATOM     98  C   UNL A   1      48.088  26.372  31.957  1.00  0.00     0.131 A 
ATOM     99  C   UNL A   1      48.070  24.477  33.972  1.00  0.00     0.055 A 
ATOM    100  C   UNL A   1      49.290  25.805  32.381  1.00  0.00     0.041 A 
ATOM    101  F   UNL A   1      48.147  27.312  30.999  1.00  0.00    -0.206 F 
ATOM    102  C   UNL A   1      49.287  24.861  33.402  1.00  0.00     0.022 A 
BRANCH  99 103
ATOM    103  S   UNL A   1      48.050  23.358  35.399  1.00  0.00     0.124 S 
ATOM    104  O   UNL A   1      49.406  23.505  35.918  1.00  0.00    -0.237 OA
ATOM    105  O   UNL A   1      46.987  23.924  36.224  1.00  0.00    -0.237 OA
ATOM    106  O   UNL A   1      47.748  22.055  34.810  1.00  0.00    -0.744 OA
ENDBRANCH  99 103
ENDBRANCH  73  96
ENDBRANCH  47  48
ENDBRANCH  39  42
ENDBRANCH  37  38
ENDBRANCH  36  37
ENDBRANCH  35  36
ENDBRANCH   1  35
TORSDOF 20
ENDMDL
