MODEL 1
REMARK VINA RESULT:     -11.4      0.000      0.000
REMARK SMILES CC(=O)c1cn(CC(=O)NCC(=O)NCC(=O)NCCCCNC(=O)c2ccc(-c3c4nc(c(-c5cc(S(=O)(=O)[O-])ccc5F)c5ccc([nH]5)c(-c5cc(S(=O)(=O)[O-])ccc5F)c5nc(c(-c6cc(S(=O)(=O)[O-])ccc6F)c6ccc3[nH]6)C=C5)C=C4)cc2)c2ccccc12
REMARK SMILES IDX 19 1 18 2 16 3 17 4 15 6 14 7 12 8 13 9 11 11 10 12 8 13
REMARK SMILES IDX 9 14 7 16 6 17 4 18 5 19 94 20 89 21 93 22 90 23 92 24 91 25
REMARK SMILES IDX 2 26 1 27 3 28 20 29 21 30 22 31 23 32 24 33 25 35 26 36
REMARK SMILES IDX 27 37 88 38 28 39 87 40 29 41 30 42 31 43 81 44 32 45 86 46
REMARK SMILES IDX 80 47 82 48 33 49 85 50 79 51 78 52 34 54 66 55 46 56 65 57
REMARK SMILES IDX 47 58 50 59 64 60 83 61 48 62 49 63 63 65 84 66 51 67 35 68
REMARK SMILES IDX 36 69 44 70 37 71 43 72 45 73 42 74 38 75 39 76 40 77 41 78
REMARK SMILES IDX 67 79 68 80 76 81 69 82 75 83 77 84 74 85 70 86 71 87 72 88
REMARK SMILES IDX 73 89 52 90 53 91 61 92 54 93 60 94 62 95 59 96 55 97 56 98
REMARK SMILES IDX 57 99 58 100
REMARK H PARENT 18 5 14 10 10 15 23 34 82 53 50 64
REMARK Flexibility Score: inf
ROOT
ATOM      1  C   UNL A   1      34.031  29.527  26.830  1.00  0.00     0.116 C 
ENDROOT
BRANCH   1   2
ATOM      2  N   UNL A   1      32.898  29.091  27.605  1.00  0.00    -0.355 N 
ATOM      3  C   UNL A   1      32.034  28.081  27.299  1.00  0.00     0.239 C 
ATOM      4  O   UNL A   1      31.021  27.944  27.987  1.00  0.00    -0.273 OA
ATOM      5  H   UNL A   1      32.730  29.574  28.446  1.00  0.00     0.163 HD
BRANCH   3   6
ATOM      6  C   UNL A   1      32.435  27.050  26.237  1.00  0.00     0.216 C 
BRANCH   6   7
ATOM      7  N   UNL A   1      31.628  26.918  25.040  1.00  0.00    -0.346 N 
ATOM      8  C   UNL A   1      30.408  26.326  24.876  1.00  0.00     0.239 C 
ATOM      9  O   UNL A   1      29.792  26.594  23.840  1.00  0.00    -0.273 OA
ATOM     10  H   UNL A   1      32.016  27.312  24.225  1.00  0.00     0.164 HD
BRANCH   8  11
ATOM     11  C   UNL A   1      29.724  25.474  25.979  1.00  0.00     0.216 C 
BRANCH  11  12
ATOM     12  N   UNL A   1      30.577  24.572  26.748  1.00  0.00    -0.345 N 
ATOM     13  C   UNL A   1      31.287  23.460  26.412  1.00  0.00     0.240 C 
ATOM     14  O   UNL A   1      31.795  22.820  27.340  1.00  0.00    -0.273 OA
ATOM     15  H   UNL A   1      30.652  24.817  27.699  1.00  0.00     0.164 HD
BRANCH  13  16
ATOM     16  C   UNL A   1      31.556  23.065  24.972  1.00  0.00     0.222 C 
BRANCH  16  17
ATOM     17  N   UNL A   1      32.510  21.982  24.798  1.00  0.00    -0.337 N 
ATOM     18  C   UNL A   1      33.241  19.877  24.761  1.00  0.00     0.043 A 
ATOM     19  C   UNL A   1      32.143  20.688  24.546  1.00  0.00     0.099 A 
ATOM     20  C   UNL A   1      34.368  20.748  24.910  1.00  0.00     0.010 A 
ATOM     21  C   UNL A   1      33.882  22.066  24.907  1.00  0.00     0.049 A 
ATOM     22  C   UNL A   1      35.754  20.549  25.099  1.00  0.00     0.011 A 
ATOM     23  C   UNL A   1      34.725  23.175  25.101  1.00  0.00     0.027 A 
ATOM     24  C   UNL A   1      36.595  21.645  25.309  1.00  0.00     0.001 A 
ATOM     25  C   UNL A   1      36.086  22.938  25.312  1.00  0.00     0.002 A 
BRANCH  18  26
ATOM     26  C   UNL A   1      33.137  18.423  24.853  1.00  0.00     0.161 C 
ATOM     27  C   UNL A   1      33.645  17.598  23.695  1.00  0.00     0.093 C 
ATOM     28  O   UNL A   1      32.776  17.877  25.896  1.00  0.00    -0.294 OA
ENDBRANCH  18  26
ENDBRANCH  16  17
ENDBRANCH  13  16
ENDBRANCH  11  12
ENDBRANCH   8  11
ENDBRANCH   6   7
ENDBRANCH   3   6
ENDBRANCH   1   2
BRANCH   1  29
ATOM     29  C   UNL A   1      34.799  30.614  27.555  1.00  0.00     0.023 C 
BRANCH  29  30
ATOM     30  C   UNL A   1      34.024  31.927  27.637  1.00  0.00     0.023 C 
BRANCH  30  31
ATOM     31  C   UNL A   1      34.662  32.960  28.573  1.00  0.00     0.116 C 
BRANCH  31  32
ATOM     32  N   UNL A   1      34.280  32.791  29.961  1.00  0.00    -0.352 N 
ATOM     33  C   UNL A   1      34.921  32.298  31.064  1.00  0.00     0.251 C 
ATOM     34  H   UNL A   1      33.363  33.097  30.149  1.00  0.00     0.163 HD
ATOM     35  O   UNL A   1      34.299  32.375  32.127  1.00  0.00    -0.269 OA
BRANCH  33  36
ATOM     36  C   UNL A   1      36.253  31.634  31.044  1.00  0.00     0.039 A 
ATOM     37  C   UNL A   1      37.479  32.291  31.137  1.00  0.00     0.014 A 
ATOM     38  C   UNL A   1      36.252  30.241  30.848  1.00  0.00     0.014 A 
ATOM     39  C   UNL A   1      38.663  31.610  30.907  1.00  0.00     0.010 A 
ATOM     40  C   UNL A   1      37.440  29.543  30.660  1.00  0.00     0.010 A 
ATOM     41  C   UNL A   1      38.639  30.244  30.630  1.00  0.00    -0.014 A 
BRANCH  41  42
ATOM     42  C   UNL A   1      39.928  29.599  30.414  1.00  0.00     0.031 A 
ATOM     43  C   UNL A   1      40.694  29.330  31.665  1.00  0.00     0.074 A 
ATOM     44  C   UNL A   1      40.371  29.215  29.202  1.00  0.00     0.049 A 
ATOM     45  N   UNL A   1      41.803  29.866  32.063  1.00  0.00    -0.248 NA
ATOM     46  C   UNL A   1      40.045  28.478  32.671  1.00  0.00     0.031 C 
ATOM     47  C   UNL A   1      39.621  29.137  27.946  1.00  0.00     0.029 A 
ATOM     48  N   UNL A   1      41.589  28.714  28.862  1.00  0.00    -0.354 N 
ATOM     49  C   UNL A   1      42.100  29.262  33.287  1.00  0.00     0.074 A 
ATOM     50  C   UNL A   1      40.907  28.560  33.684  1.00  0.00     0.031 C 
ATOM     51  C   UNL A   1      40.320  28.394  27.057  1.00  0.00     0.029 A 
ATOM     52  C   UNL A   1      41.625  28.097  27.621  1.00  0.00     0.049 A 
ATOM     53  H   UNL A   1      42.378  28.784  29.448  1.00  0.00     0.167 HD
ATOM     54  C   UNL A   1      43.372  29.207  33.776  1.00  0.00     0.034 A 
ATOM     55  C   UNL A   1      42.633  27.340  27.123  1.00  0.00     0.034 A 
ATOM     56  C   UNL A   1      44.224  30.156  33.114  1.00  0.00     0.049 A 
ATOM     57  C   UNL A   1      43.856  27.633  27.905  1.00  0.00     0.074 A 
ATOM     58  C   UNL A   1      44.295  31.531  33.044  1.00  0.00     0.029 A 
ATOM     59  N   UNL A   1      45.007  29.681  32.093  1.00  0.00    -0.354 N 
ATOM     60  N   UNL A   1      44.501  28.765  27.866  1.00  0.00    -0.248 NA
ATOM     61  C   UNL A   1      44.130  26.794  29.061  1.00  0.00     0.031 C 
ATOM     62  C   UNL A   1      44.747  31.810  31.723  1.00  0.00     0.029 A 
ATOM     63  C   UNL A   1      44.977  30.594  31.075  1.00  0.00     0.049 A 
ATOM     64  H   UNL A   1      45.504  28.832  32.093  1.00  0.00     0.167 HD
ATOM     65  C   UNL A   1      44.900  28.981  29.177  1.00  0.00     0.074 A 
ATOM     66  C   UNL A   1      44.744  27.688  29.839  1.00  0.00     0.031 C 
ATOM     67  C   UNL A   1      45.053  30.245  29.669  1.00  0.00     0.034 A 
BRANCH  54  68
ATOM     68  C   UNL A   1      43.926  28.033  34.562  1.00  0.00     0.023 A 
ATOM     69  C   UNL A   1      44.232  28.099  35.932  1.00  0.00     0.031 A 
ATOM     70  C   UNL A   1      43.921  26.736  34.004  1.00  0.00     0.131 A 
ATOM     71  C   UNL A   1      44.484  26.950  36.692  1.00  0.00     0.055 A 
ATOM     72  C   UNL A   1      44.111  25.580  34.773  1.00  0.00     0.041 A 
ATOM     73  F   UNL A   1      43.659  26.541  32.701  1.00  0.00    -0.206 F 
ATOM     74  C   UNL A   1      44.386  25.683  36.130  1.00  0.00     0.022 A 
BRANCH  71  75
ATOM     75  S   UNL A   1      44.916  27.094  38.448  1.00  0.00     0.124 S 
ATOM     76  O   UNL A   1      46.218  26.443  38.493  1.00  0.00    -0.237 OA
ATOM     77  O   UNL A   1      44.920  28.542  38.633  1.00  0.00    -0.237 OA
ATOM     78  O   UNL A   1      43.826  26.390  39.125  1.00  0.00    -0.744 OA
ENDBRANCH  71  75
ENDBRANCH  54  68
BRANCH  55  79
ATOM     79  C   UNL A   1      42.495  26.075  26.367  1.00  0.00     0.023 A 
ATOM     80  C   UNL A   1      41.638  25.068  26.851  1.00  0.00     0.031 A 
ATOM     81  C   UNL A   1      43.427  25.715  25.380  1.00  0.00     0.131 A 
ATOM     82  C   UNL A   1      41.762  23.749  26.393  1.00  0.00     0.055 A 
ATOM     83  C   UNL A   1      43.537  24.402  24.909  1.00  0.00     0.041 A 
ATOM     84  F   UNL A   1      44.299  26.619  24.907  1.00  0.00    -0.206 F 
ATOM     85  C   UNL A   1      42.711  23.408  25.428  1.00  0.00     0.022 A 
BRANCH  82  86
ATOM     86  S   UNL A   1      40.757  22.422  27.113  1.00  0.00     0.124 S 
ATOM     87  O   UNL A   1      41.018  21.311  26.200  1.00  0.00    -0.237 OA
ATOM     88  O   UNL A   1      41.342  22.294  28.442  1.00  0.00    -0.237 OA
ATOM     89  O   UNL A   1      39.399  22.956  27.061  1.00  0.00    -0.744 OA
ENDBRANCH  82  86
ENDBRANCH  55  79
BRANCH  67  90
ATOM     90  C   UNL A   1      45.065  31.411  28.708  1.00  0.00     0.023 A 
ATOM     91  C   UNL A   1      46.324  31.823  28.236  1.00  0.00     0.031 A 
ATOM     92  C   UNL A   1      43.966  32.251  28.451  1.00  0.00     0.131 A 
ATOM     93  C   UNL A   1      46.473  33.059  27.599  1.00  0.00     0.055 A 
ATOM     94  C   UNL A   1      44.106  33.449  27.742  1.00  0.00     0.041 A 
ATOM     95  F   UNL A   1      42.751  31.990  28.953  1.00  0.00    -0.206 F 
ATOM     96  C   UNL A   1      45.367  33.869  27.332  1.00  0.00     0.022 A 
BRANCH  93  97
ATOM     97  S   UNL A   1      48.128  33.717  27.275  1.00  0.00     0.124 S 
ATOM     98  O   UNL A   1      47.835  35.063  26.790  1.00  0.00    -0.237 OA
ATOM     99  O   UNL A   1      48.751  33.649  28.595  1.00  0.00    -0.237 OA
ATOM    100  O   UNL A   1      48.686  32.803  26.282  1.00  0.00    -0.744 OA
ENDBRANCH  93  97
ENDBRANCH  67  90
ENDBRANCH  41  42
ENDBRANCH  33  36
ENDBRANCH  31  32
ENDBRANCH  30  31
ENDBRANCH  29  30
ENDBRANCH   1  29
TORSDOF 20
ENDMDL
MODEL 2
REMARK VINA RESULT:     -11.4      1.842      2.291
REMARK SMILES CC(=O)c1cn(CC(=O)NCC(=O)NCC(=O)NCCCCNC(=O)c2ccc(-c3c4nc(c(-c5cc(S(=O)(=O)[O-])ccc5F)c5ccc([nH]5)c(-c5cc(S(=O)(=O)[O-])ccc5F)c5nc(c(-c6cc(S(=O)(=O)[O-])ccc6F)c6ccc3[nH]6)C=C5)C=C4)cc2)c2ccccc12
REMARK SMILES IDX 19 1 18 2 16 3 17 4 15 6 14 7 12 8 13 9 11 11 10 12 8 13
REMARK SMILES IDX 9 14 7 16 6 17 4 18 5 19 94 20 89 21 93 22 90 23 92 24 91 25
REMARK SMILES IDX 2 26 1 27 3 28 20 29 21 30 22 31 23 32 24 33 25 35 26 36
REMARK SMILES IDX 27 37 88 38 28 39 87 40 29 41 30 42 31 43 81 44 32 45 86 46
REMARK SMILES IDX 80 47 82 48 33 49 85 50 79 51 78 52 34 54 66 55 46 56 65 57
REMARK SMILES IDX 47 58 50 59 64 60 83 61 48 62 49 63 63 65 84 66 51 67 35 68
REMARK SMILES IDX 36 69 44 70 37 71 43 72 45 73 42 74 38 75 39 76 40 77 41 78
REMARK SMILES IDX 67 79 68 80 76 81 69 82 75 83 77 84 74 85 70 86 71 87 72 88
REMARK SMILES IDX 73 89 52 90 53 91 61 92 54 93 60 94 62 95 59 96 55 97 56 98
REMARK SMILES IDX 57 99 58 100
REMARK H PARENT 18 5 14 10 10 15 23 34 82 53 50 64
REMARK Flexibility Score: inf
ROOT
ATOM      1  C   UNL A   1      33.326  30.212  26.682  1.00  0.00     0.116 C 
ENDROOT
BRANCH   1   2
ATOM      2  N   UNL A   1      32.537  29.331  27.502  1.00  0.00    -0.355 N 
ATOM      3  C   UNL A   1      31.801  28.260  27.085  1.00  0.00     0.239 C 
ATOM      4  O   UNL A   1      31.052  27.710  27.894  1.00  0.00    -0.273 OA
ATOM      5  H   UNL A   1      32.528  29.520  28.468  1.00  0.00     0.163 HD
BRANCH   3   6
ATOM      6  C   UNL A   1      32.062  27.672  25.693  1.00  0.00     0.216 C 
BRANCH   6   7
ATOM      7  N   UNL A   1      31.309  28.175  24.560  1.00  0.00    -0.346 N 
ATOM      8  C   UNL A   1      31.643  28.197  23.237  1.00  0.00     0.239 C 
ATOM      9  O   UNL A   1      30.729  28.404  22.433  1.00  0.00    -0.273 OA
ATOM     10  H   UNL A   1      30.428  28.557  24.777  1.00  0.00     0.164 HD
BRANCH   8  11
ATOM     11  C   UNL A   1      33.060  27.836  22.713  1.00  0.00     0.216 C 
BRANCH  11  12
ATOM     12  N   UNL A   1      33.141  26.854  21.636  1.00  0.00    -0.345 N 
ATOM     13  C   UNL A   1      32.868  25.521  21.578  1.00  0.00     0.240 C 
ATOM     14  O   UNL A   1      33.191  24.930  20.542  1.00  0.00    -0.273 OA
ATOM     15  H   UNL A   1      33.456  27.230  20.783  1.00  0.00     0.164 HD
BRANCH  13  16
ATOM     16  C   UNL A   1      32.105  24.794  22.669  1.00  0.00     0.222 C 
BRANCH  16  17
ATOM     17  N   UNL A   1      32.725  23.567  23.144  1.00  0.00    -0.337 N 
ATOM     18  C   UNL A   1      32.840  21.424  23.744  1.00  0.00     0.043 A 
ATOM     19  C   UNL A   1      32.216  22.321  22.898  1.00  0.00     0.099 A 
ATOM     20  C   UNL A   1      33.935  22.124  24.345  1.00  0.00     0.010 A 
ATOM     21  C   UNL A   1      33.852  23.464  23.932  1.00  0.00     0.049 A 
ATOM     22  C   UNL A   1      34.965  21.766  25.242  1.00  0.00     0.011 A 
ATOM     23  C   UNL A   1      34.745  24.447  24.396  1.00  0.00     0.027 A 
ATOM     24  C   UNL A   1      35.847  22.740  25.720  1.00  0.00     0.001 A 
ATOM     25  C   UNL A   1      35.735  24.061  25.303  1.00  0.00     0.002 A 
BRANCH  18  26
ATOM     26  C   UNL A   1      32.349  20.063  23.945  1.00  0.00     0.161 C 
ATOM     27  C   UNL A   1      32.387  19.113  22.773  1.00  0.00     0.093 C 
ATOM     28  O   UNL A   1      32.043  19.658  25.067  1.00  0.00    -0.294 OA
ENDBRANCH  18  26
ENDBRANCH  16  17
ENDBRANCH  13  16
ENDBRANCH  11  12
ENDBRANCH   8  11
ENDBRANCH   6   7
ENDBRANCH   3   6
ENDBRANCH   1   2
BRANCH   1  29
ATOM     29  C   UNL A   1      33.571  31.533  27.385  1.00  0.00     0.023 C 
BRANCH  29  30
ATOM     30  C   UNL A   1      35.019  31.697  27.840  1.00  0.00     0.023 C 
BRANCH  30  31
ATOM     31  C   UNL A   1      35.238  32.891  28.776  1.00  0.00     0.116 C 
BRANCH  31  32
ATOM     32  N   UNL A   1      34.842  32.629  30.145  1.00  0.00    -0.352 N 
ATOM     33  C   UNL A   1      35.449  32.006  31.201  1.00  0.00     0.251 C 
ATOM     34  H   UNL A   1      33.946  32.973  30.360  1.00  0.00     0.163 HD
ATOM     35  O   UNL A   1      34.829  32.031  32.268  1.00  0.00    -0.269 OA
BRANCH  33  36
ATOM     36  C   UNL A   1      36.738  31.267  31.122  1.00  0.00     0.039 A 
ATOM     37  C   UNL A   1      38.002  31.840  31.249  1.00  0.00     0.014 A 
ATOM     38  C   UNL A   1      36.652  29.893  30.830  1.00  0.00     0.014 A 
ATOM     39  C   UNL A   1      39.141  31.107  30.961  1.00  0.00     0.010 A 
ATOM     40  C   UNL A   1      37.794  29.140  30.583  1.00  0.00     0.010 A 
ATOM     41  C   UNL A   1      39.034  29.767  30.591  1.00  0.00    -0.014 A 
BRANCH  41  42
ATOM     42  C   UNL A   1      40.279  29.063  30.317  1.00  0.00     0.031 A 
ATOM     43  C   UNL A   1      41.099  28.781  31.531  1.00  0.00     0.074 A 
ATOM     44  C   UNL A   1      40.640  28.641  29.091  1.00  0.00     0.049 A 
ATOM     45  N   UNL A   1      42.250  29.274  31.860  1.00  0.00    -0.248 NA
ATOM     46  C   UNL A   1      40.470  27.974  32.585  1.00  0.00     0.031 C 
ATOM     47  C   UNL A   1      39.820  28.576  27.878  1.00  0.00     0.029 A 
ATOM     48  N   UNL A   1      41.815  28.081  28.696  1.00  0.00    -0.354 N 
ATOM     49  C   UNL A   1      42.587  28.677  33.077  1.00  0.00     0.074 A 
ATOM     50  C   UNL A   1      41.388  28.034  33.549  1.00  0.00     0.031 C 
ATOM     51  C   UNL A   1      40.438  27.789  26.967  1.00  0.00     0.029 A 
ATOM     52  C   UNL A   1      41.757  27.444  27.466  1.00  0.00     0.049 A 
ATOM     53  H   UNL A   1      42.636  28.125  29.237  1.00  0.00     0.167 HD
ATOM     54  C   UNL A   1      43.880  28.574  33.498  1.00  0.00     0.034 A 
ATOM     55  C   UNL A   1      42.703  26.635  26.930  1.00  0.00     0.034 A 
ATOM     56  C   UNL A   1      44.735  29.473  32.775  1.00  0.00     0.049 A 
ATOM     57  C   UNL A   1      43.978  26.886  27.640  1.00  0.00     0.074 A 
ATOM     58  C   UNL A   1      44.861  30.843  32.676  1.00  0.00     0.029 A 
ATOM     59  N   UNL A   1      45.441  28.948  31.722  1.00  0.00    -0.354 N 
ATOM     60  N   UNL A   1      44.668  27.988  27.546  1.00  0.00    -0.248 NA
ATOM     61  C   UNL A   1      44.278  26.055  28.795  1.00  0.00     0.031 C 
ATOM     62  C   UNL A   1      45.253  31.081  31.328  1.00  0.00     0.029 A 
ATOM     63  C   UNL A   1      45.396  29.845  30.691  1.00  0.00     0.049 A 
ATOM     64  H   UNL A   1      45.900  28.078  31.711  1.00  0.00     0.167 HD
ATOM     65  C   UNL A   1      45.146  28.207  28.829  1.00  0.00     0.074 A 
ATOM     66  C   UNL A   1      44.971  26.933  29.523  1.00  0.00     0.031 C 
ATOM     67  C   UNL A   1      45.380  29.471  29.289  1.00  0.00     0.034 A 
BRANCH  54  68
ATOM     68  C   UNL A   1      44.425  27.389  34.274  1.00  0.00     0.023 A 
ATOM     69  C   UNL A   1      44.181  26.053  33.910  1.00  0.00     0.031 A 
ATOM     70  C   UNL A   1      45.418  27.577  35.260  1.00  0.00     0.131 A 
ATOM     71  C   UNL A   1      44.900  24.989  34.469  1.00  0.00     0.055 A 
ATOM     72  C   UNL A   1      46.183  26.521  35.775  1.00  0.00     0.041 A 
ATOM     73  F   UNL A   1      45.732  28.805  35.704  1.00  0.00    -0.206 F 
ATOM     74  C   UNL A   1      45.931  25.216  35.373  1.00  0.00     0.022 A 
BRANCH  71  75
ATOM     75  S   UNL A   1      44.518  23.280  33.995  1.00  0.00     0.124 S 
ATOM     76  O   UNL A   1      45.651  22.553  34.550  1.00  0.00    -0.237 OA
ATOM     77  O   UNL A   1      43.236  23.069  34.662  1.00  0.00    -0.237 OA
ATOM     78  O   UNL A   1      44.449  23.339  32.535  1.00  0.00    -0.744 OA
ENDBRANCH  71  75
ENDBRANCH  54  68
BRANCH  55  79
ATOM     79  C   UNL A   1      42.470  25.365  26.205  1.00  0.00     0.023 A 
ATOM     80  C   UNL A   1      41.490  24.470  26.674  1.00  0.00     0.031 A 
ATOM     81  C   UNL A   1      43.405  24.878  25.278  1.00  0.00     0.131 A 
ATOM     82  C   UNL A   1      41.498  23.130  26.262  1.00  0.00     0.055 A 
ATOM     83  C   UNL A   1      43.400  23.544  24.852  1.00  0.00     0.041 A 
ATOM     84  F   UNL A   1      44.388  25.670  24.824  1.00  0.00    -0.206 F 
ATOM     85  C   UNL A   1      42.451  22.659  25.357  1.00  0.00     0.022 A 
BRANCH  82  86
ATOM     86  S   UNL A   1      40.326  21.939  26.968  1.00  0.00     0.124 S 
ATOM     87  O   UNL A   1      39.053  22.645  26.831  1.00  0.00    -0.237 OA
ATOM     88  O   UNL A   1      40.504  20.790  26.089  1.00  0.00    -0.237 OA
ATOM     89  O   UNL A   1      40.793  21.773  28.341  1.00  0.00    -0.744 OA
ENDBRANCH  82  86
ENDBRANCH  55  79
BRANCH  67  90
ATOM     90  C   UNL A   1      45.391  30.620  28.308  1.00  0.00     0.023 A 
ATOM     91  C   UNL A   1      46.653  31.069  27.880  1.00  0.00     0.031 A 
ATOM     92  C   UNL A   1      44.274  31.414  27.991  1.00  0.00     0.131 A 
ATOM     93  C   UNL A   1      46.783  32.298  27.227  1.00  0.00     0.055 A 
ATOM     94  C   UNL A   1      44.400  32.604  27.265  1.00  0.00     0.041 A 
ATOM     95  F   UNL A   1      43.049  31.118  28.447  1.00  0.00    -0.206 F 
ATOM     96  C   UNL A   1      45.661  33.063  26.899  1.00  0.00     0.022 A 
BRANCH  93  97
ATOM     97  S   UNL A   1      48.426  33.011  26.958  1.00  0.00     0.124 S 
ATOM     98  O   UNL A   1      48.328  33.506  25.588  1.00  0.00    -0.237 OA
ATOM     99  O   UNL A   1      48.488  34.041  27.994  1.00  0.00    -0.237 OA
ATOM    100  O   UNL A   1      49.337  31.887  27.152  1.00  0.00    -0.744 OA
ENDBRANCH  93  97
ENDBRANCH  67  90
ENDBRANCH  41  42
ENDBRANCH  33  36
ENDBRANCH  31  32
ENDBRANCH  30  31
ENDBRANCH  29  30
ENDBRANCH   1  29
TORSDOF 20
ENDMDL
MODEL 3
REMARK VINA RESULT:     -11.3      4.536      8.287
REMARK SMILES CC(=O)c1cn(CC(=O)NCC(=O)NCC(=O)NCCCCNC(=O)c2ccc(-c3c4nc(c(-c5cc(S(=O)(=O)[O-])ccc5F)c5ccc([nH]5)c(-c5cc(S(=O)(=O)[O-])ccc5F)c5nc(c(-c6cc(S(=O)(=O)[O-])ccc6F)c6ccc3[nH]6)C=C5)C=C4)cc2)c2ccccc12
REMARK SMILES IDX 19 1 18 2 16 3 17 4 15 6 14 7 12 8 13 9 11 11 10 12 8 13
REMARK SMILES IDX 9 14 7 16 6 17 4 18 5 19 94 20 89 21 93 22 90 23 92 24 91 25
REMARK SMILES IDX 2 26 1 27 3 28 20 29 21 30 22 31 23 32 24 33 25 35 26 36
REMARK SMILES IDX 27 37 88 38 28 39 87 40 29 41 30 42 31 43 81 44 32 45 86 46
REMARK SMILES IDX 80 47 82 48 33 49 85 50 79 51 78 52 34 54 66 55 46 56 65 57
REMARK SMILES IDX 47 58 50 59 64 60 83 61 48 62 49 63 63 65 84 66 51 67 35 68
REMARK SMILES IDX 36 69 44 70 37 71 43 72 45 73 42 74 38 75 39 76 40 77 41 78
REMARK SMILES IDX 67 79 68 80 76 81 69 82 75 83 77 84 74 85 70 86 71 87 72 88
REMARK SMILES IDX 73 89 52 90 53 91 61 92 54 93 60 94 62 95 59 96 55 97 56 98
REMARK SMILES IDX 57 99 58 100
REMARK H PARENT 18 5 14 10 10 15 23 34 82 53 50 64
REMARK Flexibility Score: inf
ROOT
ATOM      1  C   UNL A   1      33.280  36.437  29.961  1.00  0.00     0.116 C 
ENDROOT
BRANCH   1   2
ATOM      2  N   UNL A   1      32.209  36.539  30.918  1.00  0.00    -0.355 N 
ATOM      3  C   UNL A   1      32.244  36.175  32.232  1.00  0.00     0.239 C 
ATOM      4  O   UNL A   1      31.192  36.175  32.871  1.00  0.00    -0.273 OA
ATOM      5  H   UNL A   1      31.361  36.914  30.588  1.00  0.00     0.163 HD
BRANCH   3   6
ATOM      6  C   UNL A   1      33.602  35.954  32.910  1.00  0.00     0.216 C 
BRANCH   6   7
ATOM      7  N   UNL A   1      33.979  34.614  33.317  1.00  0.00    -0.346 N 
ATOM      8  C   UNL A   1      35.222  34.085  33.517  1.00  0.00     0.239 C 
ATOM      9  O   UNL A   1      35.282  33.020  34.140  1.00  0.00    -0.273 OA
ATOM     10  H   UNL A   1      33.230  33.995  33.472  1.00  0.00     0.164 HD
BRANCH   8  11
ATOM     11  C   UNL A   1      36.531  34.825  33.132  1.00  0.00     0.216 C 
BRANCH  11  12
ATOM     12  N   UNL A   1      36.946  34.760  31.734  1.00  0.00    -0.345 N 
ATOM     13  C   UNL A   1      38.045  34.244  31.118  1.00  0.00     0.240 C 
ATOM     14  O   UNL A   1      38.177  34.488  29.913  1.00  0.00    -0.273 OA
ATOM     15  H   UNL A   1      36.302  35.171  31.113  1.00  0.00     0.164 HD
BRANCH  13  16
ATOM     16  C   UNL A   1      39.018  33.318  31.823  1.00  0.00     0.222 C 
BRANCH  16  17
ATOM     17  N   UNL A   1      40.305  33.910  32.153  1.00  0.00    -0.337 N 
ATOM     18  C   UNL A   1      41.753  35.177  33.278  1.00  0.00     0.043 A 
ATOM     19  C   UNL A   1      40.609  34.410  33.391  1.00  0.00     0.099 A 
ATOM     20  C   UNL A   1      42.286  34.926  31.973  1.00  0.00     0.010 A 
ATOM     21  C   UNL A   1      41.366  34.108  31.296  1.00  0.00     0.049 A 
ATOM     22  C   UNL A   1      43.438  35.353  31.276  1.00  0.00     0.011 A 
ATOM     23  C   UNL A   1      41.552  33.724  29.956  1.00  0.00     0.027 A 
ATOM     24  C   UNL A   1      43.622  34.988  29.939  1.00  0.00     0.001 A 
ATOM     25  C   UNL A   1      42.690  34.186  29.290  1.00  0.00     0.002 A 
BRANCH  18  26
ATOM     26  C   UNL A   1      42.201  36.077  34.337  1.00  0.00     0.161 C 
ATOM     27  C   UNL A   1      43.637  36.540  34.317  1.00  0.00     0.093 C 
ATOM     28  O   UNL A   1      41.403  36.557  35.143  1.00  0.00    -0.294 OA
ENDBRANCH  18  26
ENDBRANCH  16  17
ENDBRANCH  13  16
ENDBRANCH  11  12
ENDBRANCH   8  11
ENDBRANCH   6   7
ENDBRANCH   3   6
ENDBRANCH   1   2
BRANCH   1  29
ATOM     29  C   UNL A   1      33.227  35.113  29.225  1.00  0.00     0.023 C 
BRANCH  29  30
ATOM     30  C   UNL A   1      34.326  34.151  29.666  1.00  0.00     0.023 C 
BRANCH  30  31
ATOM     31  C   UNL A   1      35.202  33.646  28.514  1.00  0.00     0.116 C 
BRANCH  31  32
ATOM     32  N   UNL A   1      34.625  32.522  27.805  1.00  0.00    -0.352 N 
ATOM     33  C   UNL A   1      34.962  31.201  27.693  1.00  0.00     0.251 C 
ATOM     34  H   UNL A   1      33.817  32.760  27.295  1.00  0.00     0.163 HD
ATOM     35  O   UNL A   1      34.181  30.499  27.045  1.00  0.00    -0.269 OA
BRANCH  33  36
ATOM     36  C   UNL A   1      36.210  30.597  28.232  1.00  0.00     0.039 A 
ATOM     37  C   UNL A   1      37.307  31.312  28.713  1.00  0.00     0.014 A 
ATOM     38  C   UNL A   1      36.296  29.193  28.183  1.00  0.00     0.014 A 
ATOM     39  C   UNL A   1      38.496  30.667  29.005  1.00  0.00     0.010 A 
ATOM     40  C   UNL A   1      37.474  28.535  28.518  1.00  0.00     0.010 A 
ATOM     41  C   UNL A   1      38.591  29.282  28.871  1.00  0.00    -0.014 A 
BRANCH  41  42
ATOM     42  C   UNL A   1      39.872  28.678  29.211  1.00  0.00     0.031 A 
ATOM     43  C   UNL A   1      40.231  28.782  30.655  1.00  0.00     0.074 A 
ATOM     44  C   UNL A   1      40.644  28.024  28.323  1.00  0.00     0.049 A 
ATOM     45  N   UNL A   1      41.185  29.465  31.202  1.00  0.00    -0.248 NA
ATOM     46  C   UNL A   1      39.298  28.179  31.616  1.00  0.00     0.031 C 
ATOM     47  C   UNL A   1      40.294  27.585  26.969  1.00  0.00     0.029 A 
ATOM     48  N   UNL A   1      41.897  27.524  28.492  1.00  0.00    -0.354 N 
ATOM     49  C   UNL A   1      41.097  29.211  32.573  1.00  0.00     0.074 A 
ATOM     50  C   UNL A   1      39.826  28.566  32.777  1.00  0.00     0.031 C 
ATOM     51  C   UNL A   1      41.208  26.681  26.546  1.00  0.00     0.029 A 
ATOM     52  C   UNL A   1      42.283  26.613  27.520  1.00  0.00     0.049 A 
ATOM     53  H   UNL A   1      42.480  27.785  29.241  1.00  0.00     0.167 HD
ATOM     54  C   UNL A   1      42.169  29.356  33.405  1.00  0.00     0.034 A 
ATOM     55  C   UNL A   1      43.377  25.813  27.550  1.00  0.00     0.034 A 
ATOM     56  C   UNL A   1      43.197  30.151  32.794  1.00  0.00     0.049 A 
ATOM     57  C   UNL A   1      44.322  26.366  28.547  1.00  0.00     0.074 A 
ATOM     58  C   UNL A   1      43.314  31.465  32.391  1.00  0.00     0.029 A 
ATOM     59  N   UNL A   1      44.235  29.477  32.203  1.00  0.00    -0.354 N 
ATOM     60  N   UNL A   1      44.973  27.486  28.402  1.00  0.00    -0.248 NA
ATOM     61  C   UNL A   1      44.227  25.867  29.910  1.00  0.00     0.031 C 
ATOM     62  C   UNL A   1      44.139  31.423  31.232  1.00  0.00     0.029 A 
ATOM     63  C   UNL A   1      44.525  30.097  31.019  1.00  0.00     0.049 A 
ATOM     64  H   UNL A   1      44.693  28.686  32.567  1.00  0.00     0.167 HD
ATOM     65  C   UNL A   1      44.974  28.051  29.668  1.00  0.00     0.074 A 
ATOM     66  C   UNL A   1      44.604  26.963  30.570  1.00  0.00     0.031 C 
ATOM     67  C   UNL A   1      45.002  29.406  29.836  1.00  0.00     0.034 A 
BRANCH  54  68
ATOM     68  C   UNL A   1      42.443  28.455  34.595  1.00  0.00     0.023 A 
ATOM     69  C   UNL A   1      42.566  27.058  34.490  1.00  0.00     0.031 A 
ATOM     70  C   UNL A   1      42.842  29.007  35.832  1.00  0.00     0.131 A 
ATOM     71  C   UNL A   1      43.078  26.278  35.534  1.00  0.00     0.055 A 
ATOM     72  C   UNL A   1      43.413  28.238  36.855  1.00  0.00     0.041 A 
ATOM     73  F   UNL A   1      42.758  30.327  36.062  1.00  0.00    -0.206 F 
ATOM     74  C   UNL A   1      43.541  26.864  36.706  1.00  0.00     0.022 A 
BRANCH  71  75
ATOM     75  S   UNL A   1      43.176  24.475  35.363  1.00  0.00     0.124 S 
ATOM     76  O   UNL A   1      41.841  24.060  35.773  1.00  0.00    -0.237 OA
ATOM     77  O   UNL A   1      43.481  24.330  33.943  1.00  0.00    -0.237 OA
ATOM     78  O   UNL A   1      44.266  24.106  36.268  1.00  0.00    -0.744 OA
ENDBRANCH  71  75
ENDBRANCH  54  68
BRANCH  55  79
ATOM     79  C   UNL A   1      43.440  24.391  27.143  1.00  0.00     0.023 A 
ATOM     80  C   UNL A   1      44.407  23.982  26.205  1.00  0.00     0.031 A 
ATOM     81  C   UNL A   1      42.374  23.515  27.402  1.00  0.00     0.131 A 
ATOM     82  C   UNL A   1      44.264  22.765  25.524  1.00  0.00     0.055 A 
ATOM     83  C   UNL A   1      42.242  22.291  26.734  1.00  0.00     0.041 A 
ATOM     84  F   UNL A   1      41.398  23.865  28.255  1.00  0.00    -0.206 F 
ATOM     85  C   UNL A   1      43.183  21.919  25.778  1.00  0.00     0.022 A 
BRANCH  82  86
ATOM     86  S   UNL A   1      45.430  22.296  24.216  1.00  0.00     0.124 S 
ATOM     87  O   UNL A   1      44.544  21.711  23.212  1.00  0.00    -0.237 OA
ATOM     88  O   UNL A   1      46.014  23.584  23.863  1.00  0.00    -0.237 OA
ATOM     89  O   UNL A   1      46.323  21.349  24.877  1.00  0.00    -0.744 OA
ENDBRANCH  82  86
ENDBRANCH  55  79
BRANCH  67  90
ATOM     90  C   UNL A   1      45.321  30.286  28.650  1.00  0.00     0.023 A 
ATOM     91  C   UNL A   1      46.666  30.664  28.491  1.00  0.00     0.031 A 
ATOM     92  C   UNL A   1      44.361  30.944  27.858  1.00  0.00     0.131 A 
ATOM     93  C   UNL A   1      47.012  31.705  27.624  1.00  0.00     0.055 A 
ATOM     94  C   UNL A   1      44.721  31.929  26.933  1.00  0.00     0.041 A 
ATOM     95  F   UNL A   1      43.049  30.723  28.018  1.00  0.00    -0.206 F 
ATOM     96  C   UNL A   1      46.049  32.330  26.829  1.00  0.00     0.022 A 
BRANCH  93  97
ATOM     97  S   UNL A   1      48.688  32.389  27.655  1.00  0.00     0.124 S 
ATOM     98  O   UNL A   1      49.072  32.204  29.051  1.00  0.00    -0.237 OA
ATOM     99  O   UNL A   1      49.386  31.537  26.694  1.00  0.00    -0.237 OA
ATOM    100  O   UNL A   1      48.513  33.777  27.234  1.00  0.00    -0.744 OA
ENDBRANCH  93  97
ENDBRANCH  67  90
ENDBRANCH  41  42
ENDBRANCH  33  36
ENDBRANCH  31  32
ENDBRANCH  30  31
ENDBRANCH  29  30
ENDBRANCH   1  29
TORSDOF 20
ENDMDL
