MODEL 1
REMARK VINA RESULT:     -12.3      0.000      0.000
REMARK SMILES CCCC[C@@H](NS(=O)(=O)c1cc2c3c(c1)c(C)cc(=O)n3CC2)C(=O)NCCCCNC(=O)c1ccc(-c2c3nc(c(-c4cc(S(=O)(=O)[O-])ccc4F)c4ccc([nH]4)c(-c4cc(S(=O)(=O)[O-])ccc4F)c4nc(c(-c5cc(S(=O)(=O)[O-])ccc5F)c5ccc2[nH]5)C=C4)C=C3)cc1
REMARK SMILES IDX 28 1 27 2 26 3 24 4 25 5 5 7 4 8 3 9 2 10 1 11 6 12 7 14
REMARK SMILES IDX 8 15 9 16 10 17 11 18 15 19 12 20 14 21 13 22 23 23 16 24
REMARK SMILES IDX 21 25 22 26 17 27 18 28 19 29 20 30 29 31 30 32 31 33 32 34
REMARK SMILES IDX 33 36 34 37 35 38 96 39 36 40 95 41 37 42 38 43 39 44 89 45
REMARK SMILES IDX 40 46 94 47 88 48 90 49 41 50 93 51 87 52 86 53 42 55 74 56
REMARK SMILES IDX 54 57 73 58 55 59 58 60 72 61 91 62 56 63 57 64 71 66 92 67
REMARK SMILES IDX 59 68 43 69 44 70 52 71 45 72 51 73 53 74 50 75 46 76 47 77
REMARK SMILES IDX 48 78 49 79 75 80 76 81 84 82 77 83 83 84 85 85 82 86 78 87
REMARK SMILES IDX 79 88 80 89 81 90 60 91 61 92 69 93 62 94 68 95 70 96 67 97
REMARK SMILES IDX 63 98 64 99 65 100 66 101
REMARK H PARENT 26 6 6 13 31 35 90 54 58 65
REMARK Flexibility Score: inf
ROOT
ATOM      1  C   UNL A   1      31.941  29.330  25.981  1.00  0.00     0.023 C 
ENDROOT
BRANCH   1   2
ATOM      2  C   UNL A   1      32.552  29.375  24.585  1.00  0.00     0.116 C 
BRANCH   2   3
ATOM      3  N   UNL A   1      31.531  29.696  23.604  1.00  0.00    -0.355 N 
ATOM      4  C   UNL A   1      30.894  28.874  22.718  1.00  0.00     0.238 C 
ATOM      5  O   UNL A   1      30.209  29.379  21.827  1.00  0.00    -0.273 OA
ATOM      6  H   UNL A   1      31.260  30.642  23.572  1.00  0.00     0.163 HD
BRANCH   4   7
ATOM      7  C   UNL A   1      31.030  27.355  22.836  1.00  0.00     0.159 C 
BRANCH   7   8
ATOM      8  C   UNL A   1      29.702  26.796  23.374  1.00  0.00     0.030 C 
BRANCH   8   9
ATOM      9  C   UNL A   1      29.806  25.535  24.233  1.00  0.00     0.002 C 
BRANCH   9  10
ATOM     10  C   UNL A   1      30.554  25.700  25.553  1.00  0.00    -0.003 C 
ATOM     11  C   UNL A   1      30.630  24.419  26.370  1.00  0.00     0.004 C 
ENDBRANCH   9  10
ENDBRANCH   8   9
ENDBRANCH   7   8
BRANCH   7  12
ATOM     12  N   UNL A   1      31.412  26.753  21.538  1.00  0.00    -0.199 NA
ATOM     13  H   UNL A   1      31.227  27.455  20.822  1.00  0.00     0.142 HD
BRANCH  12  14
ATOM     14  S   UNL A   1      32.987  26.211  21.292  1.00  0.00     0.241 S 
ATOM     15  O   UNL A   1      33.030  25.579  19.994  1.00  0.00    -0.207 OA
ATOM     16  O   UNL A   1      33.832  27.348  21.593  1.00  0.00    -0.207 OA
BRANCH  14  17
ATOM     17  C   UNL A   1      33.272  24.984  22.548  1.00  0.00     0.083 A 
ATOM     18  C   UNL A   1      33.869  25.342  23.773  1.00  0.00     0.027 A 
ATOM     19  C   UNL A   1      32.874  23.651  22.275  1.00  0.00     0.032 A 
ATOM     20  C   UNL A   1      34.002  24.354  24.735  1.00  0.00    -0.020 A 
ATOM     21  C   UNL A   1      32.976  22.672  23.260  1.00  0.00     0.003 A 
ATOM     22  C   UNL A   1      33.548  23.072  24.455  1.00  0.00     0.055 A 
ATOM     23  C   UNL A   1      34.551  24.403  26.132  1.00  0.00     0.060 C 
ATOM     24  C   UNL A   1      32.496  21.281  23.180  1.00  0.00    -0.036 A 
ATOM     25  N   UNL A   1      33.729  22.223  25.533  1.00  0.00    -0.308 N 
ATOM     26  C   UNL A   1      34.369  22.945  26.626  1.00  0.00     0.131 C 
ATOM     27  C   UNL A   1      31.778  20.824  21.947  1.00  0.00     0.045 C 
ATOM     28  C   UNL A   1      32.683  20.468  24.242  1.00  0.00     0.075 A 
ATOM     29  C   UNL A   1      33.358  20.907  25.506  1.00  0.00     0.251 A 
ATOM     30  O   UNL A   1      33.542  20.113  26.419  1.00  0.00    -0.269 OA
ENDBRANCH  14  17
ENDBRANCH  12  14
ENDBRANCH   7  12
ENDBRANCH   4   7
ENDBRANCH   2   3
ENDBRANCH   1   2
BRANCH   1  31
ATOM     31  C   UNL A   1      31.666  30.716  26.557  1.00  0.00     0.023 C 
BRANCH  31  32
ATOM     32  C   UNL A   1      32.895  31.391  27.151  1.00  0.00     0.116 C 
BRANCH  32  33
ATOM     33  N   UNL A   1      32.703  32.823  27.329  1.00  0.00    -0.352 N 
ATOM     34  C   UNL A   1      33.398  33.660  28.167  1.00  0.00     0.251 C 
ATOM     35  H   UNL A   1      31.993  33.240  26.788  1.00  0.00     0.163 HD
ATOM     36  O   UNL A   1      33.034  34.813  28.359  1.00  0.00    -0.269 OA
BRANCH  34  37
ATOM     37  C   UNL A   1      34.589  33.114  28.841  1.00  0.00     0.039 A 
ATOM     38  C   UNL A   1      34.427  32.346  29.994  1.00  0.00     0.014 A 
ATOM     39  C   UNL A   1      35.845  33.282  28.250  1.00  0.00     0.014 A 
ATOM     40  C   UNL A   1      35.537  31.704  30.540  1.00  0.00     0.010 A 
ATOM     41  C   UNL A   1      36.933  32.585  28.757  1.00  0.00     0.010 A 
ATOM     42  C   UNL A   1      36.790  31.805  29.915  1.00  0.00    -0.014 A 
BRANCH  42  43
ATOM     43  C   UNL A   1      37.984  31.148  30.490  1.00  0.00     0.031 A 
ATOM     44  C   UNL A   1      38.472  31.572  31.845  1.00  0.00     0.074 A 
ATOM     45  C   UNL A   1      38.649  30.213  29.785  1.00  0.00     0.049 A 
ATOM     46  N   UNL A   1      39.506  31.143  32.516  1.00  0.00    -0.248 NA
ATOM     47  C   UNL A   1      37.708  32.632  32.526  1.00  0.00     0.031 C 
ATOM     48  C   UNL A   1      38.286  29.754  28.445  1.00  0.00     0.029 A 
ATOM     49  N   UNL A   1      39.773  29.490  30.094  1.00  0.00    -0.354 N 
ATOM     50  C   UNL A   1      39.517  31.877  33.695  1.00  0.00     0.074 A 
ATOM     51  C   UNL A   1      38.428  32.823  33.621  1.00  0.00     0.031 C 
ATOM     52  C   UNL A   1      39.162  28.815  28.053  1.00  0.00     0.029 A 
ATOM     53  C   UNL A   1      40.167  28.627  29.099  1.00  0.00     0.049 A 
ATOM     54  H   UNL A   1      40.252  29.580  30.950  1.00  0.00     0.167 HD
ATOM     55  C   UNL A   1      40.342  31.747  34.756  1.00  0.00     0.034 A 
ATOM     56  C   UNL A   1      41.218  27.783  29.036  1.00  0.00     0.034 A 
ATOM     57  C   UNL A   1      41.410  30.787  34.825  1.00  0.00     0.049 A 
ATOM     58  C   UNL A   1      42.136  27.668  30.225  1.00  0.00     0.074 A 
ATOM     59  C   UNL A   1      42.267  30.543  35.883  1.00  0.00     0.029 A 
ATOM     60  N   UNL A   1      41.770  29.919  33.806  1.00  0.00    -0.354 N 
ATOM     61  N   UNL A   1      42.077  28.299  31.375  1.00  0.00    -0.248 NA
ATOM     62  C   UNL A   1      43.256  26.721  30.123  1.00  0.00     0.031 C 
ATOM     63  C   UNL A   1      43.183  29.570  35.483  1.00  0.00     0.029 A 
ATOM     64  C   UNL A   1      42.854  29.155  34.202  1.00  0.00     0.049 A 
ATOM     65  H   UNL A   1      41.322  29.855  32.932  1.00  0.00     0.167 HD
ATOM     66  C   UNL A   1      43.129  27.804  32.141  1.00  0.00     0.074 A 
ATOM     67  C   UNL A   1      43.800  26.810  31.330  1.00  0.00     0.031 C 
ATOM     68  C   UNL A   1      43.500  28.145  33.400  1.00  0.00     0.034 A 
BRANCH  55  69
ATOM     69  C   UNL A   1      40.119  32.632  35.952  1.00  0.00     0.023 A 
ATOM     70  C   UNL A   1      39.194  32.254  36.940  1.00  0.00     0.031 A 
ATOM     71  C   UNL A   1      40.719  33.900  36.043  1.00  0.00     0.131 A 
ATOM     72  C   UNL A   1      38.860  33.158  37.955  1.00  0.00     0.055 A 
ATOM     73  C   UNL A   1      40.414  34.780  37.080  1.00  0.00     0.041 A 
ATOM     74  F   UNL A   1      41.616  34.298  35.125  1.00  0.00    -0.206 F 
ATOM     75  C   UNL A   1      39.469  34.415  38.035  1.00  0.00     0.022 A 
BRANCH  72  76
ATOM     76  S   UNL A   1      37.588  32.754  39.181  1.00  0.00     0.124 S 
ATOM     77  O   UNL A   1      37.747  33.836  40.150  1.00  0.00    -0.237 OA
ATOM     78  O   UNL A   1      36.368  32.807  38.380  1.00  0.00    -0.237 OA
ATOM     79  O   UNL A   1      37.973  31.432  39.663  1.00  0.00    -0.744 OA
ENDBRANCH  72  76
ENDBRANCH  55  69
BRANCH  56  80
ATOM     80  C   UNL A   1      41.396  26.939  27.820  1.00  0.00     0.023 A 
ATOM     81  C   UNL A   1      40.999  25.590  27.811  1.00  0.00     0.031 A 
ATOM     82  C   UNL A   1      42.058  27.444  26.689  1.00  0.00     0.131 A 
ATOM     83  C   UNL A   1      41.323  24.777  26.716  1.00  0.00     0.055 A 
ATOM     84  C   UNL A   1      42.323  26.646  25.574  1.00  0.00     0.041 A 
ATOM     85  F   UNL A   1      42.465  28.722  26.658  1.00  0.00    -0.206 F 
ATOM     86  C   UNL A   1      41.967  25.301  25.592  1.00  0.00     0.022 A 
BRANCH  83  87
ATOM     87  S   UNL A   1      41.007  22.992  26.759  1.00  0.00     0.124 S 
ATOM     88  O   UNL A   1      41.924  22.492  25.739  1.00  0.00    -0.237 OA
ATOM     89  O   UNL A   1      41.361  22.665  28.139  1.00  0.00    -0.237 OA
ATOM     90  O   UNL A   1      39.589  22.885  26.438  1.00  0.00    -0.744 OA
ENDBRANCH  83  87
ENDBRANCH  56  80
BRANCH  68  91
ATOM     91  C   UNL A   1      44.676  27.441  34.031  1.00  0.00     0.023 A 
ATOM     92  C   UNL A   1      44.466  26.260  34.769  1.00  0.00     0.031 A 
ATOM     93  C   UNL A   1      45.950  28.030  34.062  1.00  0.00     0.131 A 
ATOM     94  C   UNL A   1      45.500  25.735  35.552  1.00  0.00     0.055 A 
ATOM     95  C   UNL A   1      46.992  27.476  34.807  1.00  0.00     0.041 A 
ATOM     96  F   UNL A   1      46.194  29.162  33.384  1.00  0.00    -0.206 F 
ATOM     97  C   UNL A   1      46.765  26.333  35.569  1.00  0.00     0.022 A 
BRANCH  94  98
ATOM     98  S   UNL A   1      45.219  24.309  36.638  1.00  0.00     0.124 S 
ATOM     99  O   UNL A   1      46.578  23.810  36.841  1.00  0.00    -0.237 OA
ATOM    100  O   UNL A   1      44.602  24.932  37.805  1.00  0.00    -0.237 OA
ATOM    101  O   UNL A   1      44.350  23.436  35.855  1.00  0.00    -0.744 OA
ENDBRANCH  94  98
ENDBRANCH  68  91
ENDBRANCH  42  43
ENDBRANCH  34  37
ENDBRANCH  32  33
ENDBRANCH  31  32
ENDBRANCH   1  31
TORSDOF 20
ENDMDL
MODEL 2
REMARK VINA RESULT:     -12.0      5.125     10.544
REMARK SMILES CCCC[C@@H](NS(=O)(=O)c1cc2c3c(c1)c(C)cc(=O)n3CC2)C(=O)NCCCCNC(=O)c1ccc(-c2c3nc(c(-c4cc(S(=O)(=O)[O-])ccc4F)c4ccc([nH]4)c(-c4cc(S(=O)(=O)[O-])ccc4F)c4nc(c(-c5cc(S(=O)(=O)[O-])ccc5F)c5ccc2[nH]5)C=C4)C=C3)cc1
REMARK SMILES IDX 28 1 27 2 26 3 24 4 25 5 5 7 4 8 3 9 2 10 1 11 6 12 7 14
REMARK SMILES IDX 8 15 9 16 10 17 11 18 15 19 12 20 14 21 13 22 23 23 16 24
REMARK SMILES IDX 21 25 22 26 17 27 18 28 19 29 20 30 29 31 30 32 31 33 32 34
REMARK SMILES IDX 33 36 34 37 35 38 96 39 36 40 95 41 37 42 38 43 39 44 89 45
REMARK SMILES IDX 40 46 94 47 88 48 90 49 41 50 93 51 87 52 86 53 42 55 74 56
REMARK SMILES IDX 54 57 73 58 55 59 58 60 72 61 91 62 56 63 57 64 71 66 92 67
REMARK SMILES IDX 59 68 43 69 44 70 52 71 45 72 51 73 53 74 50 75 46 76 47 77
REMARK SMILES IDX 48 78 49 79 75 80 76 81 84 82 77 83 83 84 85 85 82 86 78 87
REMARK SMILES IDX 79 88 80 89 81 90 60 91 61 92 69 93 62 94 68 95 70 96 67 97
REMARK SMILES IDX 63 98 64 99 65 100 66 101
REMARK H PARENT 26 6 6 13 31 35 90 54 58 65
REMARK Flexibility Score: inf
ROOT
ATOM      1  C   UNL A   1      36.856  21.105  24.609  1.00  0.00     0.023 C 
ENDROOT
BRANCH   1   2
ATOM      2  C   UNL A   1      35.744  21.288  25.636  1.00  0.00     0.116 C 
BRANCH   2   3
ATOM      3  N   UNL A   1      34.732  20.261  25.464  1.00  0.00    -0.355 N 
ATOM      4  C   UNL A   1      33.376  20.391  25.368  1.00  0.00     0.238 C 
ATOM      5  O   UNL A   1      32.676  19.379  25.434  1.00  0.00    -0.273 OA
ATOM      6  H   UNL A   1      35.072  19.339  25.409  1.00  0.00     0.163 HD
BRANCH   4   7
ATOM      7  C   UNL A   1      32.742  21.770  25.179  1.00  0.00     0.159 C 
BRANCH   7   8
ATOM      8  C   UNL A   1      32.585  22.024  23.670  1.00  0.00     0.030 C 
BRANCH   8   9
ATOM      9  C   UNL A   1      33.336  23.233  23.114  1.00  0.00     0.002 C 
BRANCH   9  10
ATOM     10  C   UNL A   1      32.480  24.250  22.364  1.00  0.00    -0.003 C 
ATOM     11  C   UNL A   1      33.276  25.423  21.813  1.00  0.00     0.004 C 
ENDBRANCH   9  10
ENDBRANCH   8   9
ENDBRANCH   7   8
BRANCH   7  12
ATOM     12  N   UNL A   1      31.455  21.867  25.905  1.00  0.00    -0.199 NA
ATOM     13  H   UNL A   1      31.317  20.976  26.380  1.00  0.00     0.142 HD
BRANCH  12  14
ATOM     14  S   UNL A   1      31.226  23.073  27.059  1.00  0.00     0.241 S 
ATOM     15  O   UNL A   1      29.862  22.975  27.523  1.00  0.00    -0.207 OA
ATOM     16  O   UNL A   1      32.336  22.934  27.978  1.00  0.00    -0.207 OA
BRANCH  14  17
ATOM     17  C   UNL A   1      31.438  24.611  26.191  1.00  0.00     0.083 A 
ATOM     18  C   UNL A   1      32.701  25.234  26.141  1.00  0.00     0.027 A 
ATOM     19  C   UNL A   1      30.305  25.175  25.554  1.00  0.00     0.032 A 
ATOM     20  C   UNL A   1      32.815  26.394  25.393  1.00  0.00    -0.020 A 
ATOM     21  C   UNL A   1      30.435  26.321  24.774  1.00  0.00     0.003 A 
ATOM     22  C   UNL A   1      31.696  26.888  24.735  1.00  0.00     0.055 A 
ATOM     23  C   UNL A   1      34.000  27.272  25.107  1.00  0.00     0.060 C 
ATOM     24  C   UNL A   1      29.390  26.958  23.952  1.00  0.00    -0.036 A 
ATOM     25  N   UNL A   1      31.996  28.029  24.013  1.00  0.00    -0.308 N 
ATOM     26  C   UNL A   1      33.401  28.372  24.193  1.00  0.00     0.131 C 
ATOM     27  C   UNL A   1      28.032  26.327  23.878  1.00  0.00     0.045 C 
ATOM     28  C   UNL A   1      29.701  28.072  23.256  1.00  0.00     0.075 A 
ATOM     29  C   UNL A   1      31.061  28.702  23.274  1.00  0.00     0.251 A 
ATOM     30  O   UNL A   1      31.272  29.739  22.660  1.00  0.00    -0.269 OA
ENDBRANCH  14  17
ENDBRANCH  12  14
ENDBRANCH   7  12
ENDBRANCH   4   7
ENDBRANCH   2   3
ENDBRANCH   1   2
BRANCH   1  31
ATOM     31  C   UNL A   1      37.826  19.984  24.972  1.00  0.00     0.023 C 
BRANCH  31  32
ATOM     32  C   UNL A   1      38.980  20.432  25.857  1.00  0.00     0.116 C 
BRANCH  32  33
ATOM     33  N   UNL A   1      39.998  19.400  25.997  1.00  0.00    -0.352 N 
ATOM     34  C   UNL A   1      41.347  19.578  26.180  1.00  0.00     0.251 C 
ATOM     35  H   UNL A   1      39.684  18.467  25.955  1.00  0.00     0.163 HD
ATOM     36  O   UNL A   1      42.128  18.637  26.113  1.00  0.00    -0.269 OA
BRANCH  34  37
ATOM     37  C   UNL A   1      41.824  20.947  26.443  1.00  0.00     0.039 A 
ATOM     38  C   UNL A   1      41.998  21.825  25.374  1.00  0.00     0.014 A 
ATOM     39  C   UNL A   1      41.984  21.372  27.766  1.00  0.00     0.014 A 
ATOM     40  C   UNL A   1      42.300  23.160  25.637  1.00  0.00     0.010 A 
ATOM     41  C   UNL A   1      42.215  22.715  28.025  1.00  0.00     0.010 A 
ATOM     42  C   UNL A   1      42.391  23.615  26.963  1.00  0.00    -0.014 A 
BRANCH  42  43
ATOM     43  C   UNL A   1      42.729  25.024  27.263  1.00  0.00     0.031 A 
ATOM     44  C   UNL A   1      44.099  25.536  26.925  1.00  0.00     0.074 A 
ATOM     45  C   UNL A   1      41.832  25.821  27.875  1.00  0.00     0.049 A 
ATOM     46  N   UNL A   1      44.604  26.722  27.125  1.00  0.00    -0.248 NA
ATOM     47  C   UNL A   1      45.031  24.582  26.297  1.00  0.00     0.031 C 
ATOM     48  C   UNL A   1      40.488  25.415  28.284  1.00  0.00     0.029 A 
ATOM     49  N   UNL A   1      41.921  27.133  28.266  1.00  0.00    -0.354 N 
ATOM     50  C   UNL A   1      45.907  26.660  26.648  1.00  0.00     0.074 A 
ATOM     51  C   UNL A   1      46.138  25.303  26.210  1.00  0.00     0.031 C 
ATOM     52  C   UNL A   1      39.871  26.463  28.855  1.00  0.00     0.029 A 
ATOM     53  C   UNL A   1      40.786  27.604  28.882  1.00  0.00     0.049 A 
ATOM     54  H   UNL A   1      42.723  27.686  28.118  1.00  0.00     0.167 HD
ATOM     55  C   UNL A   1      46.815  27.655  26.555  1.00  0.00     0.034 A 
ATOM     56  C   UNL A   1      40.513  28.816  29.408  1.00  0.00     0.034 A 
ATOM     57  C   UNL A   1      46.565  29.007  26.976  1.00  0.00     0.049 A 
ATOM     58  C   UNL A   1      41.549  29.907  29.309  1.00  0.00     0.074 A 
ATOM     59  C   UNL A   1      47.407  30.100  26.871  1.00  0.00     0.029 A 
ATOM     60  N   UNL A   1      45.399  29.452  27.580  1.00  0.00    -0.354 N 
ATOM     61  N   UNL A   1      42.744  29.860  28.766  1.00  0.00    -0.248 NA
ATOM     62  C   UNL A   1      41.203  31.218  29.876  1.00  0.00     0.031 C 
ATOM     63  C   UNL A   1      46.774  31.191  27.465  1.00  0.00     0.029 A 
ATOM     64  C   UNL A   1      45.510  30.799  27.876  1.00  0.00     0.049 A 
ATOM     65  H   UNL A   1      44.611  28.894  27.769  1.00  0.00     0.167 HD
ATOM     66  C   UNL A   1      43.277  31.139  28.900  1.00  0.00     0.074 A 
ATOM     67  C   UNL A   1      42.270  31.942  29.561  1.00  0.00     0.031 C 
ATOM     68  C   UNL A   1      44.491  31.601  28.508  1.00  0.00     0.034 A 
BRANCH  55  69
ATOM     69  C   UNL A   1      48.157  27.349  25.947  1.00  0.00     0.023 A 
ATOM     70  C   UNL A   1      48.363  27.542  24.570  1.00  0.00     0.031 A 
ATOM     71  C   UNL A   1      49.178  26.745  26.701  1.00  0.00     0.131 A 
ATOM     72  C   UNL A   1      49.548  27.091  23.980  1.00  0.00     0.055 A 
ATOM     73  C   UNL A   1      50.375  26.336  26.115  1.00  0.00     0.041 A 
ATOM     74  F   UNL A   1      49.027  26.550  28.022  1.00  0.00    -0.206 F 
ATOM     75  C   UNL A   1      50.558  26.496  24.744  1.00  0.00     0.022 A 
BRANCH  72  76
ATOM     76  S   UNL A   1      49.805  27.218  22.190  1.00  0.00     0.124 S 
ATOM     77  O   UNL A   1      51.237  26.954  22.070  1.00  0.00    -0.237 OA
ATOM     78  O   UNL A   1      48.931  26.163  21.685  1.00  0.00    -0.237 OA
ATOM     79  O   UNL A   1      49.401  28.583  21.873  1.00  0.00    -0.744 OA
ENDBRANCH  72  76
ENDBRANCH  55  69
BRANCH  56  80
ATOM     80  C   UNL A   1      39.171  29.060  30.008  1.00  0.00     0.023 A 
ATOM     81  C   UNL A   1      38.194  29.801  29.321  1.00  0.00     0.031 A 
ATOM     82  C   UNL A   1      38.886  28.640  31.318  1.00  0.00     0.131 A 
ATOM     83  C   UNL A   1      37.002  30.152  29.970  1.00  0.00     0.055 A 
ATOM     84  C   UNL A   1      37.671  28.938  31.939  1.00  0.00     0.041 A 
ATOM     85  F   UNL A   1      39.792  27.939  32.016  1.00  0.00    -0.206 F 
ATOM     86  C   UNL A   1      36.728  29.711  31.267  1.00  0.00     0.022 A 
BRANCH  83  87
ATOM     87  S   UNL A   1      35.813  31.276  29.186  1.00  0.00     0.124 S 
ATOM     88  O   UNL A   1      34.975  30.355  28.425  1.00  0.00    -0.237 OA
ATOM     89  O   UNL A   1      35.180  31.890  30.351  1.00  0.00    -0.237 OA
ATOM     90  O   UNL A   1      36.652  32.166  28.393  1.00  0.00    -0.744 OA
ENDBRANCH  83  87
ENDBRANCH  56  80
BRANCH  68  91
ATOM     91  C   UNL A   1      44.832  33.051  28.747  1.00  0.00     0.023 A 
ATOM     92  C   UNL A   1      45.373  33.443  29.988  1.00  0.00     0.031 A 
ATOM     93  C   UNL A   1      44.453  34.052  27.838  1.00  0.00     0.131 A 
ATOM     94  C   UNL A   1      45.469  34.802  30.307  1.00  0.00     0.055 A 
ATOM     95  C   UNL A   1      44.595  35.406  28.143  1.00  0.00     0.041 A 
ATOM     96  F   UNL A   1      43.923  33.726  26.649  1.00  0.00    -0.206 F 
ATOM     97  C   UNL A   1      45.089  35.786  29.388  1.00  0.00     0.022 A 
BRANCH  94  98
ATOM     98  S   UNL A   1      46.009  35.340  31.953  1.00  0.00     0.124 S 
ATOM     99  O   UNL A   1      44.738  35.463  32.665  1.00  0.00    -0.237 OA
ATOM    100  O   UNL A   1      46.855  34.227  32.375  1.00  0.00    -0.237 OA
ATOM    101  O   UNL A   1      46.702  36.599  31.702  1.00  0.00    -0.744 OA
ENDBRANCH  94  98
ENDBRANCH  68  91
ENDBRANCH  42  43
ENDBRANCH  34  37
ENDBRANCH  32  33
ENDBRANCH  31  32
ENDBRANCH   1  31
TORSDOF 20
ENDMDL
MODEL 3
REMARK VINA RESULT:     -11.7      1.789      7.489
REMARK SMILES CCCC[C@@H](NS(=O)(=O)c1cc2c3c(c1)c(C)cc(=O)n3CC2)C(=O)NCCCCNC(=O)c1ccc(-c2c3nc(c(-c4cc(S(=O)(=O)[O-])ccc4F)c4ccc([nH]4)c(-c4cc(S(=O)(=O)[O-])ccc4F)c4nc(c(-c5cc(S(=O)(=O)[O-])ccc5F)c5ccc2[nH]5)C=C4)C=C3)cc1
REMARK SMILES IDX 28 1 27 2 26 3 24 4 25 5 5 7 4 8 3 9 2 10 1 11 6 12 7 14
REMARK SMILES IDX 8 15 9 16 10 17 11 18 15 19 12 20 14 21 13 22 23 23 16 24
REMARK SMILES IDX 21 25 22 26 17 27 18 28 19 29 20 30 29 31 30 32 31 33 32 34
REMARK SMILES IDX 33 36 34 37 35 38 96 39 36 40 95 41 37 42 38 43 39 44 89 45
REMARK SMILES IDX 40 46 94 47 88 48 90 49 41 50 93 51 87 52 86 53 42 55 74 56
REMARK SMILES IDX 54 57 73 58 55 59 58 60 72 61 91 62 56 63 57 64 71 66 92 67
REMARK SMILES IDX 59 68 43 69 44 70 52 71 45 72 51 73 53 74 50 75 46 76 47 77
REMARK SMILES IDX 48 78 49 79 75 80 76 81 84 82 77 83 83 84 85 85 82 86 78 87
REMARK SMILES IDX 79 88 80 89 81 90 60 91 61 92 69 93 62 94 68 95 70 96 67 97
REMARK SMILES IDX 63 98 64 99 65 100 66 101
REMARK H PARENT 26 6 6 13 31 35 90 54 58 65
REMARK Flexibility Score: inf
ROOT
ATOM      1  C   UNL A   1      32.225  30.246  27.002  1.00  0.00     0.023 C 
ENDROOT
BRANCH   1   2
ATOM      2  C   UNL A   1      32.581  29.560  25.688  1.00  0.00     0.116 C 
BRANCH   2   3
ATOM      3  N   UNL A   1      31.484  29.688  24.745  1.00  0.00    -0.355 N 
ATOM      4  C   UNL A   1      31.083  28.827  23.763  1.00  0.00     0.238 C 
ATOM      5  O   UNL A   1      30.258  29.215  22.935  1.00  0.00    -0.273 OA
ATOM      6  H   UNL A   1      30.954  30.513  24.825  1.00  0.00     0.163 HD
BRANCH   4   7
ATOM      7  C   UNL A   1      31.649  27.407  23.700  1.00  0.00     0.159 C 
BRANCH   7   8
ATOM      8  C   UNL A   1      30.717  26.484  24.502  1.00  0.00     0.030 C 
BRANCH   8   9
ATOM      9  C   UNL A   1      31.143  26.191  25.941  1.00  0.00     0.002 C 
BRANCH   9  10
ATOM     10  C   UNL A   1      31.034  24.731  26.374  1.00  0.00    -0.003 C 
ATOM     11  C   UNL A   1      30.462  23.821  25.297  1.00  0.00     0.004 C 
ENDBRANCH   9  10
ENDBRANCH   8   9
ENDBRANCH   7   8
BRANCH   7  12
ATOM     12  N   UNL A   1      31.813  26.963  22.297  1.00  0.00    -0.199 NA
ATOM     13  H   UNL A   1      31.667  27.783  21.709  1.00  0.00     0.142 HD
BRANCH  12  14
ATOM     14  S   UNL A   1      33.261  26.260  21.799  1.00  0.00     0.241 S 
ATOM     15  O   UNL A   1      33.087  25.834  20.430  1.00  0.00    -0.207 OA
ATOM     16  O   UNL A   1      34.289  27.217  22.155  1.00  0.00    -0.207 OA
BRANCH  14  17
ATOM     17  C   UNL A   1      33.478  24.830  22.833  1.00  0.00     0.083 A 
ATOM     18  C   UNL A   1      34.136  24.940  24.074  1.00  0.00     0.027 A 
ATOM     19  C   UNL A   1      32.964  23.593  22.370  1.00  0.00     0.032 A 
ATOM     20  C   UNL A   1      34.213  23.803  24.862  1.00  0.00    -0.020 A 
ATOM     21  C   UNL A   1      33.012  22.463  23.183  1.00  0.00     0.003 A 
ATOM     22  C   UNL A   1      33.648  22.621  24.402  1.00  0.00     0.055 A 
ATOM     23  C   UNL A   1      34.803  23.585  26.226  1.00  0.00     0.060 C 
ATOM     24  C   UNL A   1      32.417  21.144  22.904  1.00  0.00    -0.036 A 
ATOM     25  N   UNL A   1      33.788  21.599  25.325  1.00  0.00    -0.308 N 
ATOM     26  C   UNL A   1      34.515  22.085  26.491  1.00  0.00     0.131 C 
ATOM     27  C   UNL A   1      31.629  20.948  21.644  1.00  0.00     0.045 C 
ATOM     28  C   UNL A   1      32.565  20.160  23.817  1.00  0.00     0.075 A 
ATOM     29  C   UNL A   1      33.309  20.337  25.106  1.00  0.00     0.251 A 
ATOM     30  O   UNL A   1      33.451  19.394  25.874  1.00  0.00    -0.269 OA
ENDBRANCH  14  17
ENDBRANCH  12  14
ENDBRANCH   7  12
ENDBRANCH   4   7
ENDBRANCH   2   3
ENDBRANCH   1   2
BRANCH   1  31
ATOM     31  C   UNL A   1      32.077  31.759  26.865  1.00  0.00     0.023 C 
BRANCH  31  32
ATOM     32  C   UNL A   1      33.228  32.548  27.472  1.00  0.00     0.116 C 
BRANCH  32  33
ATOM     33  N   UNL A   1      32.860  33.927  27.756  1.00  0.00    -0.352 N 
ATOM     34  C   UNL A   1      33.311  34.716  28.786  1.00  0.00     0.251 C 
ATOM     35  H   UNL A   1      32.213  34.343  27.140  1.00  0.00     0.163 HD
ATOM     36  O   UNL A   1      32.800  35.803  29.024  1.00  0.00    -0.269 OA
BRANCH  34  37
ATOM     37  C   UNL A   1      34.419  34.197  29.606  1.00  0.00     0.039 A 
ATOM     38  C   UNL A   1      34.138  33.341  30.669  1.00  0.00     0.014 A 
ATOM     39  C   UNL A   1      35.736  34.485  29.233  1.00  0.00     0.014 A 
ATOM     40  C   UNL A   1      35.193  32.732  31.345  1.00  0.00     0.010 A 
ATOM     41  C   UNL A   1      36.781  33.823  29.862  1.00  0.00     0.010 A 
ATOM     42  C   UNL A   1      36.517  32.955  30.933  1.00  0.00    -0.014 A 
BRANCH  42  43
ATOM     43  C   UNL A   1      37.653  32.333  31.650  1.00  0.00     0.031 A 
ATOM     44  C   UNL A   1      38.413  31.220  30.990  1.00  0.00     0.074 A 
ATOM     45  C   UNL A   1      37.969  32.733  32.896  1.00  0.00     0.049 A 
ATOM     46  N   UNL A   1      39.420  30.528  31.450  1.00  0.00    -0.248 NA
ATOM     47  C   UNL A   1      37.971  30.818  29.643  1.00  0.00     0.031 C 
ATOM     48  C   UNL A   1      37.273  33.778  33.646  1.00  0.00     0.029 A 
ATOM     49  N   UNL A   1      38.950  32.302  33.753  1.00  0.00    -0.354 N 
ATOM     50  C   UNL A   1      39.732  29.613  30.454  1.00  0.00     0.074 A 
ATOM     51  C   UNL A   1      38.769  29.791  29.392  1.00  0.00     0.031 C 
ATOM     52  C   UNL A   1      37.859  33.918  34.846  1.00  0.00     0.029 A 
ATOM     53  C   UNL A   1      38.951  32.952  34.964  1.00  0.00     0.049 A 
ATOM     54  H   UNL A   1      39.594  31.594  33.521  1.00  0.00     0.167 HD
ATOM     55  C   UNL A   1      40.751  28.728  30.416  1.00  0.00     0.034 A 
ATOM     56  C   UNL A   1      39.741  32.788  36.046  1.00  0.00     0.034 A 
ATOM     57  C   UNL A   1      41.715  28.574  31.472  1.00  0.00     0.049 A 
ATOM     58  C   UNL A   1      40.861  31.782  35.988  1.00  0.00     0.074 A 
ATOM     59  C   UNL A   1      42.818  27.740  31.501  1.00  0.00     0.029 A 
ATOM     60  N   UNL A   1      41.695  29.260  32.676  1.00  0.00    -0.354 N 
ATOM     61  N   UNL A   1      41.206  30.990  35.000  1.00  0.00    -0.248 NA
ATOM     62  C   UNL A   1      41.711  31.651  37.181  1.00  0.00     0.031 C 
ATOM     63  C   UNL A   1      43.431  27.878  32.747  1.00  0.00     0.029 A 
ATOM     64  C   UNL A   1      42.754  28.849  33.467  1.00  0.00     0.049 A 
ATOM     65  H   UNL A   1      41.029  29.938  32.931  1.00  0.00     0.167 HD
ATOM     66  C   UNL A   1      42.328  30.291  35.439  1.00  0.00     0.074 A 
ATOM     67  C   UNL A   1      42.612  30.764  36.777  1.00  0.00     0.031 C 
ATOM     68  C   UNL A   1      43.051  29.346  34.789  1.00  0.00     0.034 A 
BRANCH  55  69
ATOM     69  C   UNL A   1      40.914  27.871  29.191  1.00  0.00     0.023 A 
ATOM     70  C   UNL A   1      41.909  28.180  28.247  1.00  0.00     0.031 A 
ATOM     71  C   UNL A   1      40.006  26.840  28.896  1.00  0.00     0.131 A 
ATOM     72  C   UNL A   1      41.943  27.493  27.029  1.00  0.00     0.055 A 
ATOM     73  C   UNL A   1      40.070  26.129  27.698  1.00  0.00     0.041 A 
ATOM     74  F   UNL A   1      39.045  26.505  29.773  1.00  0.00    -0.206 F 
ATOM     75  C   UNL A   1      41.034  26.466  26.752  1.00  0.00     0.022 A 
BRANCH  72  76
ATOM     76  S   UNL A   1      43.137  27.939  25.740  1.00  0.00     0.124 S 
ATOM     77  O   UNL A   1      42.341  27.782  24.524  1.00  0.00    -0.237 OA
ATOM     78  O   UNL A   1      43.467  29.315  26.098  1.00  0.00    -0.237 OA
ATOM     79  O   UNL A   1      44.210  26.965  25.905  1.00  0.00    -0.744 OA
ENDBRANCH  72  76
ENDBRANCH  55  69
BRANCH  56  80
ATOM     80  C   UNL A   1      39.526  33.658  37.238  1.00  0.00     0.023 A 
ATOM     81  C   UNL A   1      38.904  33.158  38.395  1.00  0.00     0.031 A 
ATOM     82  C   UNL A   1      39.849  35.024  37.194  1.00  0.00     0.131 A 
ATOM     83  C   UNL A   1      38.569  34.034  39.437  1.00  0.00     0.055 A 
ATOM     84  C   UNL A   1      39.571  35.881  38.261  1.00  0.00     0.041 A 
ATOM     85  F   UNL A   1      40.435  35.546  36.106  1.00  0.00    -0.206 F 
ATOM     86  C   UNL A   1      38.913  35.387  39.384  1.00  0.00     0.022 A 
BRANCH  83  87
ATOM     87  S   UNL A   1      37.586  33.463  40.851  1.00  0.00     0.124 S 
ATOM     88  O   UNL A   1      38.320  32.275  41.276  1.00  0.00    -0.237 OA
ATOM     89  O   UNL A   1      37.671  34.613  41.749  1.00  0.00    -0.237 OA
ATOM     90  O   UNL A   1      36.268  33.217  40.278  1.00  0.00    -0.744 OA
ENDBRANCH  83  87
ENDBRANCH  56  80
BRANCH  68  91
ATOM     91  C   UNL A   1      44.252  28.745  35.476  1.00  0.00     0.023 A 
ATOM     92  C   UNL A   1      44.082  27.643  36.337  1.00  0.00     0.031 A 
ATOM     93  C   UNL A   1      45.509  29.368  35.430  1.00  0.00     0.131 A 
ATOM     94  C   UNL A   1      45.138  27.231  37.158  1.00  0.00     0.055 A 
ATOM     95  C   UNL A   1      46.573  28.924  36.216  1.00  0.00     0.041 A 
ATOM     96  F   UNL A   1      45.715  30.428  34.633  1.00  0.00    -0.206 F 
ATOM     97  C   UNL A   1      46.385  27.862  37.098  1.00  0.00     0.022 A 
BRANCH  94  98
ATOM     98  S   UNL A   1      44.906  25.922  38.392  1.00  0.00     0.124 S 
ATOM     99  O   UNL A   1      46.286  25.574  38.728  1.00  0.00    -0.237 OA
ATOM    100  O   UNL A   1      44.165  26.616  39.440  1.00  0.00    -0.237 OA
ATOM    101  O   UNL A   1      44.166  24.889  37.674  1.00  0.00    -0.744 OA
ENDBRANCH  94  98
ENDBRANCH  68  91
ENDBRANCH  42  43
ENDBRANCH  34  37
ENDBRANCH  32  33
ENDBRANCH  31  32
ENDBRANCH   1  31
TORSDOF 20
ENDMDL
