MODEL 1
REMARK VINA RESULT:     -13.0      0.000      0.000
REMARK SMILES Cc1[nH]c2c(C(=O)N3CC[C@H](O)C[C@@H]3C(=O)NCCCCNC(=O)c3ccc(-c4c5nc(c(-c6cc(S(=O)(=O)[O-])ccc6F)c6ccc([nH]6)c(-c6cc(S(=O)(=O)[O-])ccc6F)c6nc(c(-c7cc(S(=O)(=O)[O-])ccc7F)c7ccc4[nH]7)C=C6)C=C5)cc3)cccc2c1C
REMARK SMILES IDX 20 1 19 2 18 3 17 4 15 5 16 6 14 8 8 9 9 10 10 11 13 12
REMARK SMILES IDX 11 13 6 14 7 15 5 16 1 17 2 18 3 19 92 20 4 21 91 23 93 24
REMARK SMILES IDX 90 25 88 26 89 27 12 28 21 30 22 31 23 32 24 34 25 35 26 36
REMARK SMILES IDX 87 37 27 38 86 39 28 40 29 41 30 42 80 43 31 44 85 45 79 46
REMARK SMILES IDX 81 47 32 48 84 49 78 50 77 51 33 53 65 54 45 55 64 56 46 57
REMARK SMILES IDX 49 58 63 59 82 60 47 61 48 62 62 64 83 65 50 66 34 67 35 68
REMARK SMILES IDX 43 69 36 70 42 71 44 72 41 73 37 74 38 75 39 76 40 77 66 78
REMARK SMILES IDX 67 79 75 80 68 81 74 82 76 83 73 84 69 85 70 86 71 87 72 88
REMARK SMILES IDX 51 89 52 90 60 91 53 92 59 93 61 94 58 95 54 96 55 97 56 98
REMARK SMILES IDX 57 99
REMARK H PARENT 17 7 3 22 12 29 22 33 81 52 49 63
REMARK Flexibility Score: inf
ROOT
ATOM      1  C   UNL A   1      31.761  29.412  26.329  1.00  0.00     0.023 C 
ENDROOT
BRANCH   1   2
ATOM      2  C   UNL A   1      31.812  28.174  27.212  1.00  0.00     0.023 C 
BRANCH   2   3
ATOM      3  C   UNL A   1      32.130  26.860  26.501  1.00  0.00     0.116 C 
BRANCH   3   4
ATOM      4  N   UNL A   1      31.399  25.728  27.025  1.00  0.00    -0.354 N 
ATOM      5  C   UNL A   1      31.405  24.412  26.676  1.00  0.00     0.242 C 
ATOM      6  O   UNL A   1      30.432  23.759  27.086  1.00  0.00    -0.273 OA
ATOM      7  H   UNL A   1      30.790  25.947  27.766  1.00  0.00     0.163 HD
BRANCH   5   8
ATOM      8  C   UNL A   1      32.438  23.712  25.736  1.00  0.00     0.177 C 
ATOM      9  N   UNL A   1      32.014  22.685  24.774  1.00  0.00    -0.326 N 
ATOM     10  C   UNL A   1      32.114  21.265  25.107  1.00  0.00     0.123 C 
ATOM     11  C   UNL A   1      33.065  20.879  26.257  1.00  0.00     0.053 C 
ATOM     12  C   UNL A   1      33.729  23.325  26.443  1.00  0.00     0.067 C 
ATOM     13  C   UNL A   1      33.602  21.994  27.153  1.00  0.00     0.118 C 
BRANCH   9  14
ATOM     14  C   UNL A   1      32.055  23.027  23.417  1.00  0.00     0.256 C 
ATOM     15  O   UNL A   1      32.003  22.191  22.518  1.00  0.00    -0.269 OA
BRANCH  14  16
ATOM     16  C   UNL A   1      32.210  24.455  23.065  1.00  0.00     0.064 A 
ATOM     17  C   UNL A   1      27.767  26.462  24.121  1.00  0.00     0.064 C 
ATOM     18  C   UNL A   1      29.188  26.384  23.697  1.00  0.00     0.016 A 
ATOM     19  N   UNL A   1      29.858  25.189  23.640  1.00  0.00    -0.358 N 
ATOM     20  C   UNL A   1      30.075  27.381  23.329  1.00  0.00    -0.023 A 
ATOM     21  C   UNL A   1      31.157  25.372  23.228  1.00  0.00     0.059 A 
ATOM     22  H   UNL A   1      29.461  24.316  23.864  1.00  0.00     0.166 HD
ATOM     23  C   UNL A   1      31.329  26.745  23.047  1.00  0.00     0.003 A 
ATOM     24  C   UNL A   1      29.801  28.844  23.278  1.00  0.00     0.047 C 
ATOM     25  C   UNL A   1      32.605  27.223  22.683  1.00  0.00     0.010 A 
ATOM     26  C   UNL A   1      33.475  24.960  22.733  1.00  0.00     0.016 A 
ATOM     27  C   UNL A   1      33.668  26.324  22.533  1.00  0.00     0.002 A 
ENDBRANCH  14  16
ENDBRANCH   9  14
BRANCH  13  28
ATOM     28  O   UNL A   1      32.782  22.128  28.306  1.00  0.00    -0.393 OA
ATOM     29  H   UNL A   1      31.877  22.344  28.035  1.00  0.00     0.210 HD
ENDBRANCH  13  28
ENDBRANCH   5   8
ENDBRANCH   3   4
ENDBRANCH   2   3
ENDBRANCH   1   2
BRANCH   1  30
ATOM     30  C   UNL A   1      33.020  30.268  26.310  1.00  0.00     0.116 C 
BRANCH  30  31
ATOM     31  N   UNL A   1      32.879  31.573  26.944  1.00  0.00    -0.352 N 
ATOM     32  C   UNL A   1      33.795  32.228  27.737  1.00  0.00     0.251 C 
ATOM     33  H   UNL A   1      32.027  32.041  26.788  1.00  0.00     0.163 HD
ATOM     34  O   UNL A   1      33.527  33.315  28.239  1.00  0.00    -0.269 OA
BRANCH  32  35
ATOM     35  C   UNL A   1      35.081  31.557  28.019  1.00  0.00     0.039 A 
ATOM     36  C   UNL A   1      36.244  32.327  28.063  1.00  0.00     0.014 A 
ATOM     37  C   UNL A   1      35.100  30.209  28.385  1.00  0.00     0.014 A 
ATOM     38  C   UNL A   1      37.414  31.766  28.577  1.00  0.00     0.010 A 
ATOM     39  C   UNL A   1      36.244  29.680  28.973  1.00  0.00     0.010 A 
ATOM     40  C   UNL A   1      37.407  30.458  29.090  1.00  0.00    -0.014 A 
BRANCH  40  41
ATOM     41  C   UNL A   1      38.599  29.892  29.773  1.00  0.00     0.031 A 
ATOM     42  C   UNL A   1      38.981  30.382  31.141  1.00  0.00     0.074 A 
ATOM     43  C   UNL A   1      39.378  28.998  29.129  1.00  0.00     0.049 A 
ATOM     44  N   UNL A   1      40.028  30.084  31.866  1.00  0.00    -0.248 NA
ATOM     45  C   UNL A   1      38.084  31.371  31.756  1.00  0.00     0.031 C 
ATOM     46  C   UNL A   1      39.148  28.495  27.772  1.00  0.00     0.029 A 
ATOM     47  N   UNL A   1      40.529  28.364  29.523  1.00  0.00    -0.354 N 
ATOM     48  C   UNL A   1      39.924  30.861  33.015  1.00  0.00     0.074 A 
ATOM     49  C   UNL A   1      38.750  31.691  32.854  1.00  0.00     0.031 C 
ATOM     50  C   UNL A   1      40.111  27.612  27.460  1.00  0.00     0.029 A 
ATOM     51  C   UNL A   1      41.047  27.513  28.573  1.00  0.00     0.049 A 
ATOM     52  H   UNL A   1      40.946  28.505  30.404  1.00  0.00     0.167 HD
ATOM     53  C   UNL A   1      40.720  30.860  34.114  1.00  0.00     0.034 A 
ATOM     54  C   UNL A   1      42.154  26.745  28.597  1.00  0.00     0.034 A 
ATOM     55  C   UNL A   1      41.873  30.010  34.266  1.00  0.00     0.049 A 
ATOM     56  C   UNL A   1      43.013  26.746  29.836  1.00  0.00     0.074 A 
ATOM     57  C   UNL A   1      42.718  29.888  35.355  1.00  0.00     0.029 A 
ATOM     58  N   UNL A   1      42.347  29.133  33.298  1.00  0.00    -0.354 N 
ATOM     59  N   UNL A   1      42.874  27.448  30.936  1.00  0.00    -0.248 NA
ATOM     60  C   UNL A   1      44.169  25.840  29.842  1.00  0.00     0.031 C 
ATOM     61  C   UNL A   1      43.729  28.977  35.028  1.00  0.00     0.029 A 
ATOM     62  C   UNL A   1      43.480  28.482  33.758  1.00  0.00     0.049 A 
ATOM     63  H   UNL A   1      41.936  28.995  32.413  1.00  0.00     0.167 HD
ATOM     64  C   UNL A   1      43.909  27.049  31.775  1.00  0.00     0.074 A 
ATOM     65  C   UNL A   1      44.656  26.035  31.059  1.00  0.00     0.031 C 
ATOM     66  C   UNL A   1      44.216  27.478  33.025  1.00  0.00     0.034 A 
BRANCH  53  67
ATOM     67  C   UNL A   1      40.363  31.823  35.219  1.00  0.00     0.023 A 
ATOM     68  C   UNL A   1      39.437  31.481  36.221  1.00  0.00     0.031 A 
ATOM     69  C   UNL A   1      40.916  33.115  35.249  1.00  0.00     0.131 A 
ATOM     70  C   UNL A   1      39.024  32.443  37.153  1.00  0.00     0.055 A 
ATOM     71  C   UNL A   1      40.566  34.042  36.234  1.00  0.00     0.041 A 
ATOM     72  F   UNL A   1      41.790  33.507  34.309  1.00  0.00    -0.206 F 
ATOM     73  C   UNL A   1      39.602  33.715  37.182  1.00  0.00     0.022 A 
BRANCH  70  74
ATOM     74  S   UNL A   1      37.615  32.057  38.228  1.00  0.00     0.124 S 
ATOM     75  O   UNL A   1      38.196  32.256  39.553  1.00  0.00    -0.237 OA
ATOM     76  O   UNL A   1      36.622  33.040  37.811  1.00  0.00    -0.237 OA
ATOM     77  O   UNL A   1      37.300  30.670  37.895  1.00  0.00    -0.744 OA
ENDBRANCH  70  74
ENDBRANCH  53  67
BRANCH  54  78
ATOM     78  C   UNL A   1      42.521  25.909  27.419  1.00  0.00     0.023 A 
ATOM     79  C   UNL A   1      42.133  24.562  27.339  1.00  0.00     0.031 A 
ATOM     80  C   UNL A   1      43.297  26.436  26.372  1.00  0.00     0.131 A 
ATOM     81  C   UNL A   1      42.559  23.774  26.258  1.00  0.00     0.055 A 
ATOM     82  C   UNL A   1      43.680  25.660  25.276  1.00  0.00     0.041 A 
ATOM     83  F   UNL A   1      43.683  27.722  26.394  1.00  0.00    -0.206 F 
ATOM     84  C   UNL A   1      43.322  24.316  25.221  1.00  0.00     0.022 A 
BRANCH  81  85
ATOM     85  S   UNL A   1      42.163  22.004  26.264  1.00  0.00     0.124 S 
ATOM     86  O   UNL A   1      43.064  21.493  25.238  1.00  0.00    -0.237 OA
ATOM     87  O   UNL A   1      42.477  21.629  27.639  1.00  0.00    -0.237 OA
ATOM     88  O   UNL A   1      40.743  21.972  25.921  1.00  0.00    -0.744 OA
ENDBRANCH  81  85
ENDBRANCH  54  78
BRANCH  66  89
ATOM     89  C   UNL A   1      45.384  26.814  33.707  1.00  0.00     0.023 A 
ATOM     90  C   UNL A   1      45.227  25.645  34.471  1.00  0.00     0.031 A 
ATOM     91  C   UNL A   1      46.673  27.366  33.594  1.00  0.00     0.131 A 
ATOM     92  C   UNL A   1      46.332  25.092  35.136  1.00  0.00     0.055 A 
ATOM     93  C   UNL A   1      47.777  26.783  34.214  1.00  0.00     0.041 A 
ATOM     94  F   UNL A   1      46.876  28.483  32.877  1.00  0.00    -0.206 F 
ATOM     95  C   UNL A   1      47.609  25.646  35.000  1.00  0.00     0.022 A 
BRANCH  92  96
ATOM     96  S   UNL A   1      46.066  23.684  36.246  1.00  0.00     0.124 S 
ATOM     97  O   UNL A   1      44.877  24.099  36.983  1.00  0.00    -0.237 OA
ATOM     98  O   UNL A   1      45.883  22.580  35.310  1.00  0.00    -0.237 OA
ATOM     99  O   UNL A   1      47.297  23.630  37.033  1.00  0.00    -0.744 OA
ENDBRANCH  92  96
ENDBRANCH  66  89
ENDBRANCH  40  41
ENDBRANCH  32  35
ENDBRANCH  30  31
ENDBRANCH   1  30
TORSDOF 17
ENDMDL
MODEL 2
REMARK VINA RESULT:     -12.7      4.710      9.927
REMARK SMILES Cc1[nH]c2c(C(=O)N3CC[C@H](O)C[C@@H]3C(=O)NCCCCNC(=O)c3ccc(-c4c5nc(c(-c6cc(S(=O)(=O)[O-])ccc6F)c6ccc([nH]6)c(-c6cc(S(=O)(=O)[O-])ccc6F)c6nc(c(-c7cc(S(=O)(=O)[O-])ccc7F)c7ccc4[nH]7)C=C6)C=C5)cc3)cccc2c1C
REMARK SMILES IDX 20 1 19 2 18 3 17 4 15 5 16 6 14 8 8 9 9 10 10 11 13 12
REMARK SMILES IDX 11 13 6 14 7 15 5 16 1 17 2 18 3 19 92 20 4 21 91 23 93 24
REMARK SMILES IDX 90 25 88 26 89 27 12 28 21 30 22 31 23 32 24 34 25 35 26 36
REMARK SMILES IDX 87 37 27 38 86 39 28 40 29 41 30 42 80 43 31 44 85 45 79 46
REMARK SMILES IDX 81 47 32 48 84 49 78 50 77 51 33 53 65 54 45 55 64 56 46 57
REMARK SMILES IDX 49 58 63 59 82 60 47 61 48 62 62 64 83 65 50 66 34 67 35 68
REMARK SMILES IDX 43 69 36 70 42 71 44 72 41 73 37 74 38 75 39 76 40 77 66 78
REMARK SMILES IDX 67 79 75 80 68 81 74 82 76 83 73 84 69 85 70 86 71 87 72 88
REMARK SMILES IDX 51 89 52 90 60 91 53 92 59 93 61 94 58 95 54 96 55 97 56 98
REMARK SMILES IDX 57 99
REMARK H PARENT 17 7 3 22 12 29 22 33 81 52 49 63
REMARK Flexibility Score: inf
ROOT
ATOM      1  C   UNL A   1      36.596  22.182  24.115  1.00  0.00     0.023 C 
ENDROOT
BRANCH   1   2
ATOM      2  C   UNL A   1      35.775  23.448  23.920  1.00  0.00     0.023 C 
BRANCH   2   3
ATOM      3  C   UNL A   1      34.573  23.326  22.985  1.00  0.00     0.116 C 
BRANCH   3   4
ATOM      4  N   UNL A   1      33.922  24.588  22.714  1.00  0.00    -0.354 N 
ATOM      5  C   UNL A   1      33.172  25.404  23.504  1.00  0.00     0.242 C 
ATOM      6  O   UNL A   1      32.485  26.237  22.892  1.00  0.00    -0.273 OA
ATOM      7  H   UNL A   1      34.042  24.916  21.793  1.00  0.00     0.163 HD
BRANCH   5   8
ATOM      8  C   UNL A   1      33.023  25.302  25.056  1.00  0.00     0.177 C 
ATOM      9  N   UNL A   1      31.708  25.423  25.701  1.00  0.00    -0.326 N 
ATOM     10  C   UNL A   1      31.262  26.702  26.249  1.00  0.00     0.123 C 
ATOM     11  C   UNL A   1      32.346  27.760  26.534  1.00  0.00     0.053 C 
ATOM     12  C   UNL A   1      34.098  26.065  25.816  1.00  0.00     0.067 C 
ATOM     13  C   UNL A   1      33.746  27.530  25.965  1.00  0.00     0.118 C 
BRANCH   9  14
ATOM     14  C   UNL A   1      31.166  24.263  26.267  1.00  0.00     0.256 C 
ATOM     15  O   UNL A   1      29.975  24.153  26.548  1.00  0.00    -0.269 OA
BRANCH  14  16
ATOM     16  C   UNL A   1      32.085  23.146  26.575  1.00  0.00     0.064 A 
ATOM     17  C   UNL A   1      32.006  20.333  22.456  1.00  0.00     0.064 C 
ATOM     18  C   UNL A   1      32.393  20.793  23.814  1.00  0.00     0.016 A 
ATOM     19  N   UNL A   1      31.815  21.893  24.393  1.00  0.00    -0.358 N 
ATOM     20  C   UNL A   1      33.334  20.296  24.701  1.00  0.00    -0.023 A 
ATOM     21  C   UNL A   1      32.339  22.123  25.643  1.00  0.00     0.059 A 
ATOM     22  H   UNL A   1      31.118  22.444  23.970  1.00  0.00     0.166 HD
ATOM     23  C   UNL A   1      33.314  21.147  25.854  1.00  0.00     0.003 A 
ATOM     24  C   UNL A   1      34.233  19.129  24.485  1.00  0.00     0.047 C 
ATOM     25  C   UNL A   1      34.064  21.190  27.048  1.00  0.00     0.010 A 
ATOM     26  C   UNL A   1      32.866  23.182  27.739  1.00  0.00     0.016 A 
ATOM     27  C   UNL A   1      33.835  22.211  27.978  1.00  0.00     0.002 A 
ENDBRANCH  14  16
ENDBRANCH   9  14
BRANCH  13  28
ATOM     28  O   UNL A   1      33.878  28.197  24.717  1.00  0.00    -0.393 OA
ATOM     29  H   UNL A   1      34.774  28.559  24.637  1.00  0.00     0.210 HD
ENDBRANCH  13  28
ENDBRANCH   5   8
ENDBRANCH   3   4
ENDBRANCH   2   3
ENDBRANCH   1   2
BRANCH   1  30
ATOM     30  C   UNL A   1      37.163  21.965  25.511  1.00  0.00     0.116 C 
BRANCH  30  31
ATOM     31  N   UNL A   1      38.302  21.058  25.572  1.00  0.00    -0.352 N 
ATOM     32  C   UNL A   1      39.534  21.290  26.143  1.00  0.00     0.251 C 
ATOM     33  H   UNL A   1      38.176  20.175  25.155  1.00  0.00     0.163 HD
ATOM     34  O   UNL A   1      40.420  20.443  26.089  1.00  0.00    -0.269 OA
BRANCH  32  35
ATOM     35  C   UNL A   1      39.780  22.608  26.764  1.00  0.00     0.039 A 
ATOM     36  C   UNL A   1      40.719  22.701  27.792  1.00  0.00     0.014 A 
ATOM     37  C   UNL A   1      39.194  23.755  26.223  1.00  0.00     0.014 A 
ATOM     38  C   UNL A   1      41.151  23.961  28.209  1.00  0.00     0.010 A 
ATOM     39  C   UNL A   1      39.687  25.004  26.582  1.00  0.00     0.010 A 
ATOM     40  C   UNL A   1      40.682  25.120  27.566  1.00  0.00    -0.014 A 
BRANCH  40  41
ATOM     41  C   UNL A   1      41.234  26.459  27.894  1.00  0.00     0.031 A 
ATOM     42  C   UNL A   1      42.651  26.794  27.526  1.00  0.00     0.074 A 
ATOM     43  C   UNL A   1      40.486  27.340  28.591  1.00  0.00     0.049 A 
ATOM     44  N   UNL A   1      43.347  27.867  27.800  1.00  0.00    -0.248 NA
ATOM     45  C   UNL A   1      43.397  25.766  26.786  1.00  0.00     0.031 C 
ATOM     46  C   UNL A   1      39.119  27.105  29.063  1.00  0.00     0.029 A 
ATOM     47  N   UNL A   1      40.774  28.605  29.036  1.00  0.00    -0.354 N 
ATOM     48  C   UNL A   1      44.616  27.636  27.280  1.00  0.00     0.074 A 
ATOM     49  C   UNL A   1      44.609  26.294  26.739  1.00  0.00     0.031 C 
ATOM     50  C   UNL A   1      38.680  28.199  29.707  1.00  0.00     0.029 A 
ATOM     51  C   UNL A   1      39.742  29.198  29.729  1.00  0.00     0.049 A 
ATOM     52  H   UNL A   1      41.638  29.049  28.876  1.00  0.00     0.167 HD
ATOM     53  C   UNL A   1      45.680  28.477  27.235  1.00  0.00     0.034 A 
ATOM     54  C   UNL A   1      39.665  30.407  30.319  1.00  0.00     0.034 A 
ATOM     55  C   UNL A   1      45.663  29.819  27.759  1.00  0.00     0.049 A 
ATOM     56  C   UNL A   1      40.852  31.332  30.239  1.00  0.00     0.074 A 
ATOM     57  C   UNL A   1      46.663  30.774  27.720  1.00  0.00     0.029 A 
ATOM     58  N   UNL A   1      44.588  30.399  28.421  1.00  0.00    -0.354 N 
ATOM     59  N   UNL A   1      42.030  31.118  29.699  1.00  0.00    -0.248 NA
ATOM     60  C   UNL A   1      40.696  32.665  30.835  1.00  0.00     0.031 C 
ATOM     61  C   UNL A   1      46.213  31.911  28.401  1.00  0.00     0.029 A 
ATOM     62  C   UNL A   1      44.907  31.690  28.810  1.00  0.00     0.049 A 
ATOM     63  H   UNL A   1      43.724  29.956  28.589  1.00  0.00     0.167 HD
ATOM     64  C   UNL A   1      42.744  32.300  29.867  1.00  0.00     0.074 A 
ATOM     65  C   UNL A   1      41.860  33.226  30.546  1.00  0.00     0.031 C 
ATOM     66  C   UNL A   1      44.015  32.597  29.493  1.00  0.00     0.034 A 
BRANCH  53  67
ATOM     67  C   UNL A   1      46.946  27.948  26.605  1.00  0.00     0.023 A 
ATOM     68  C   UNL A   1      47.210  28.115  25.234  1.00  0.00     0.031 A 
ATOM     69  C   UNL A   1      47.878  27.227  27.371  1.00  0.00     0.131 A 
ATOM     70  C   UNL A   1      48.325  27.495  24.654  1.00  0.00     0.055 A 
ATOM     71  C   UNL A   1      49.034  26.685  26.804  1.00  0.00     0.041 A 
ATOM     72  F   UNL A   1      47.672  27.017  28.680  1.00  0.00    -0.206 F 
ATOM     73  C   UNL A   1      49.254  26.803  25.434  1.00  0.00     0.022 A 
BRANCH  70  74
ATOM     74  S   UNL A   1      48.463  27.480  22.846  1.00  0.00     0.124 S 
ATOM     75  O   UNL A   1      49.754  28.132  22.645  1.00  0.00    -0.237 OA
ATOM     76  O   UNL A   1      48.411  26.056  22.537  1.00  0.00    -0.237 OA
ATOM     77  O   UNL A   1      47.305  28.257  22.407  1.00  0.00    -0.744 OA
ENDBRANCH  70  74
ENDBRANCH  53  67
BRANCH  54  78
ATOM     78  C   UNL A   1      38.425  30.821  31.036  1.00  0.00     0.023 A 
ATOM     79  C   UNL A   1      37.392  31.494  30.365  1.00  0.00     0.031 A 
ATOM     80  C   UNL A   1      38.273  30.583  32.413  1.00  0.00     0.131 A 
ATOM     81  C   UNL A   1      36.271  31.945  31.079  1.00  0.00     0.055 A 
ATOM     82  C   UNL A   1      37.136  30.995  33.110  1.00  0.00     0.041 A 
ATOM     83  F   UNL A   1      39.227  29.934  33.099  1.00  0.00    -0.206 F 
ATOM     84  C   UNL A   1      36.131  31.692  32.445  1.00  0.00     0.022 A 
BRANCH  81  85
ATOM     85  S   UNL A   1      35.027  32.937  30.207  1.00  0.00     0.124 S 
ATOM     86  O   UNL A   1      34.126  33.306  31.292  1.00  0.00    -0.237 OA
ATOM     87  O   UNL A   1      35.837  34.016  29.651  1.00  0.00    -0.237 OA
ATOM     88  O   UNL A   1      34.476  32.005  29.226  1.00  0.00    -0.744 OA
ENDBRANCH  81  85
ENDBRANCH  54  78
BRANCH  66  89
ATOM     89  C   UNL A   1      44.500  33.995  29.774  1.00  0.00     0.023 A 
ATOM     90  C   UNL A   1      44.323  35.039  28.850  1.00  0.00     0.031 A 
ATOM     91  C   UNL A   1      45.156  34.283  30.985  1.00  0.00     0.131 A 
ATOM     92  C   UNL A   1      44.841  36.312  29.128  1.00  0.00     0.055 A 
ATOM     93  C   UNL A   1      45.622  35.564  31.278  1.00  0.00     0.041 A 
ATOM     94  F   UNL A   1      45.351  33.322  31.901  1.00  0.00    -0.206 F 
ATOM     95  C   UNL A   1      45.477  36.585  30.342  1.00  0.00     0.022 A 
BRANCH  92  96
ATOM     96  S   UNL A   1      44.743  37.591  27.846  1.00  0.00     0.124 S 
ATOM     97  O   UNL A   1      43.305  37.688  27.623  1.00  0.00    -0.237 OA
ATOM     98  O   UNL A   1      45.365  38.737  28.501  1.00  0.00    -0.237 OA
ATOM     99  O   UNL A   1      45.506  37.024  26.736  1.00  0.00    -0.744 OA
ENDBRANCH  92  96
ENDBRANCH  66  89
ENDBRANCH  40  41
ENDBRANCH  32  35
ENDBRANCH  30  31
ENDBRANCH   1  30
TORSDOF 17
ENDMDL
MODEL 3
REMARK VINA RESULT:     -12.7      4.672      9.549
REMARK SMILES Cc1[nH]c2c(C(=O)N3CC[C@H](O)C[C@@H]3C(=O)NCCCCNC(=O)c3ccc(-c4c5nc(c(-c6cc(S(=O)(=O)[O-])ccc6F)c6ccc([nH]6)c(-c6cc(S(=O)(=O)[O-])ccc6F)c6nc(c(-c7cc(S(=O)(=O)[O-])ccc7F)c7ccc4[nH]7)C=C6)C=C5)cc3)cccc2c1C
REMARK SMILES IDX 20 1 19 2 18 3 17 4 15 5 16 6 14 8 8 9 9 10 10 11 13 12
REMARK SMILES IDX 11 13 6 14 7 15 5 16 1 17 2 18 3 19 92 20 4 21 91 23 93 24
REMARK SMILES IDX 90 25 88 26 89 27 12 28 21 30 22 31 23 32 24 34 25 35 26 36
REMARK SMILES IDX 87 37 27 38 86 39 28 40 29 41 30 42 80 43 31 44 85 45 79 46
REMARK SMILES IDX 81 47 32 48 84 49 78 50 77 51 33 53 65 54 45 55 64 56 46 57
REMARK SMILES IDX 49 58 63 59 82 60 47 61 48 62 62 64 83 65 50 66 34 67 35 68
REMARK SMILES IDX 43 69 36 70 42 71 44 72 41 73 37 74 38 75 39 76 40 77 66 78
REMARK SMILES IDX 67 79 75 80 68 81 74 82 76 83 73 84 69 85 70 86 71 87 72 88
REMARK SMILES IDX 51 89 52 90 60 91 53 92 59 93 61 94 58 95 54 96 55 97 56 98
REMARK SMILES IDX 57 99
REMARK H PARENT 17 7 3 22 12 29 22 33 81 52 49 63
REMARK Flexibility Score: inf
ROOT
ATOM      1  C   UNL A   1      36.789  21.725  23.964  1.00  0.00     0.023 C 
ENDROOT
BRANCH   1   2
ATOM      2  C   UNL A   1      36.621  23.179  23.545  1.00  0.00     0.023 C 
BRANCH   2   3
ATOM      3  C   UNL A   1      35.247  23.793  23.803  1.00  0.00     0.116 C 
BRANCH   3   4
ATOM      4  N   UNL A   1      34.195  23.218  22.994  1.00  0.00    -0.354 N 
ATOM      5  C   UNL A   1      33.043  22.579  23.334  1.00  0.00     0.242 C 
ATOM      6  O   UNL A   1      32.524  21.917  22.423  1.00  0.00    -0.273 OA
ATOM      7  H   UNL A   1      34.338  23.305  22.024  1.00  0.00     0.163 HD
BRANCH   5   8
ATOM      8  C   UNL A   1      32.409  22.520  24.761  1.00  0.00     0.177 C 
ATOM      9  N   UNL A   1      32.998  23.262  25.884  1.00  0.00    -0.326 N 
ATOM     10  C   UNL A   1      33.914  22.603  26.814  1.00  0.00     0.123 C 
ATOM     11  C   UNL A   1      33.883  21.063  26.857  1.00  0.00     0.053 C 
ATOM     12  C   UNL A   1      31.981  21.118  25.172  1.00  0.00     0.067 C 
ATOM     13  C   UNL A   1      33.136  20.325  25.745  1.00  0.00     0.118 C 
BRANCH   9  14
ATOM     14  C   UNL A   1      32.281  24.363  26.368  1.00  0.00     0.256 C 
ATOM     15  O   UNL A   1      31.467  24.278  27.283  1.00  0.00    -0.269 OA
BRANCH  14  16
ATOM     16  C   UNL A   1      32.492  25.671  25.709  1.00  0.00     0.064 A 
ATOM     17  C   UNL A   1      28.043  26.779  23.744  1.00  0.00     0.064 C 
ATOM     18  C   UNL A   1      29.470  26.938  24.125  1.00  0.00     0.016 A 
ATOM     19  N   UNL A   1      30.154  25.950  24.785  1.00  0.00    -0.358 N 
ATOM     20  C   UNL A   1      30.336  28.004  23.950  1.00  0.00    -0.023 A 
ATOM     21  C   UNL A   1      31.451  26.332  25.034  1.00  0.00     0.059 A 
ATOM     22  H   UNL A   1      29.767  25.083  25.045  1.00  0.00     0.166 HD
ATOM     23  C   UNL A   1      31.588  27.629  24.539  1.00  0.00     0.003 A 
ATOM     24  C   UNL A   1      30.022  29.313  23.313  1.00  0.00     0.047 C 
ATOM     25  C   UNL A   1      32.818  28.295  24.723  1.00  0.00     0.010 A 
ATOM     26  C   UNL A   1      33.694  26.367  25.905  1.00  0.00     0.016 A 
ATOM     27  C   UNL A   1      33.859  27.657  25.408  1.00  0.00     0.002 A 
ENDBRANCH  14  16
ENDBRANCH   9  14
BRANCH  13  28
ATOM     28  O   UNL A   1      34.041  19.958  24.714  1.00  0.00    -0.393 OA
ATOM     29  H   UNL A   1      34.799  20.562  24.718  1.00  0.00     0.210 HD
ENDBRANCH  13  28
ENDBRANCH   5   8
ENDBRANCH   3   4
ENDBRANCH   2   3
ENDBRANCH   1   2
BRANCH   1  30
ATOM     30  C   UNL A   1      37.246  21.495  25.397  1.00  0.00     0.116 C 
BRANCH  30  31
ATOM     31  N   UNL A   1      38.323  20.524  25.545  1.00  0.00    -0.352 N 
ATOM     32  C   UNL A   1      39.537  20.700  26.171  1.00  0.00     0.251 C 
ATOM     33  H   UNL A   1      38.164  19.637  25.149  1.00  0.00     0.163 HD
ATOM     34  O   UNL A   1      40.371  19.801  26.188  1.00  0.00    -0.269 OA
BRANCH  32  35
ATOM     35  C   UNL A   1      39.833  22.022  26.763  1.00  0.00     0.039 A 
ATOM     36  C   UNL A   1      40.825  22.113  27.739  1.00  0.00     0.014 A 
ATOM     37  C   UNL A   1      39.235  23.171  26.239  1.00  0.00     0.014 A 
ATOM     38  C   UNL A   1      41.295  23.371  28.118  1.00  0.00     0.010 A 
ATOM     39  C   UNL A   1      39.763  24.417  26.558  1.00  0.00     0.010 A 
ATOM     40  C   UNL A   1      40.809  24.529  27.487  1.00  0.00    -0.014 A 
BRANCH  40  41
ATOM     41  C   UNL A   1      41.395  25.864  27.770  1.00  0.00     0.031 A 
ATOM     42  C   UNL A   1      42.794  26.177  27.320  1.00  0.00     0.074 A 
ATOM     43  C   UNL A   1      40.699  26.761  28.499  1.00  0.00     0.049 A 
ATOM     44  N   UNL A   1      43.518  27.243  27.545  1.00  0.00    -0.248 NA
ATOM     45  C   UNL A   1      43.484  25.132  26.550  1.00  0.00     0.031 C 
ATOM     46  C   UNL A   1      39.357  26.549  29.048  1.00  0.00     0.029 A 
ATOM     47  N   UNL A   1      41.027  28.027  28.915  1.00  0.00    -0.354 N 
ATOM     48  C   UNL A   1      44.753  26.990  26.957  1.00  0.00     0.074 A 
ATOM     49  C   UNL A   1      44.699  25.643  26.431  1.00  0.00     0.031 C 
ATOM     50  C   UNL A   1      38.969  27.654  29.705  1.00  0.00     0.029 A 
ATOM     51  C   UNL A   1      40.044  28.640  29.658  1.00  0.00     0.049 A 
ATOM     52  H   UNL A   1      41.887  28.457  28.702  1.00  0.00     0.167 HD
ATOM     53  C   UNL A   1      45.824  27.816  26.844  1.00  0.00     0.034 A 
ATOM     54  C   UNL A   1      40.015  29.856  30.238  1.00  0.00     0.034 A 
ATOM     55  C   UNL A   1      45.853  29.164  27.355  1.00  0.00     0.049 A 
ATOM     56  C   UNL A   1      41.208  30.763  30.083  1.00  0.00     0.074 A 
ATOM     57  C   UNL A   1      46.861  30.105  27.251  1.00  0.00     0.029 A 
ATOM     58  N   UNL A   1      44.824  29.764  28.070  1.00  0.00    -0.354 N 
ATOM     59  N   UNL A   1      42.350  30.529  29.481  1.00  0.00    -0.248 NA
ATOM     60  C   UNL A   1      41.102  32.104  30.673  1.00  0.00     0.031 C 
ATOM     61  C   UNL A   1      46.464  31.254  27.944  1.00  0.00     0.029 A 
ATOM     62  C   UNL A   1      45.180  31.054  28.427  1.00  0.00     0.049 A 
ATOM     63  H   UNL A   1      43.965  29.334  28.290  1.00  0.00     0.167 HD
ATOM     64  C   UNL A   1      43.088  31.703  29.597  1.00  0.00     0.074 A 
ATOM     65  C   UNL A   1      42.255  32.647  30.314  1.00  0.00     0.031 C 
ATOM     66  C   UNL A   1      44.339  31.979  29.150  1.00  0.00     0.034 A 
BRANCH  53  67
ATOM     67  C   UNL A   1      47.045  27.265  26.151  1.00  0.00     0.023 A 
ATOM     68  C   UNL A   1      47.996  26.493  26.841  1.00  0.00     0.031 A 
ATOM     69  C   UNL A   1      47.289  27.551  24.796  1.00  0.00     0.131 A 
ATOM     70  C   UNL A   1      49.186  26.111  26.205  1.00  0.00     0.055 A 
ATOM     71  C   UNL A   1      48.436  27.093  24.143  1.00  0.00     0.041 A 
ATOM     72  F   UNL A   1      46.429  28.299  24.090  1.00  0.00    -0.206 F 
ATOM     73  C   UNL A   1      49.401  26.384  24.852  1.00  0.00     0.022 A 
BRANCH  70  74
ATOM     74  S   UNL A   1      50.510  25.386  27.211  1.00  0.00     0.124 S 
ATOM     75  O   UNL A   1      51.483  25.013  26.187  1.00  0.00    -0.237 OA
ATOM     76  O   UNL A   1      50.889  26.494  28.080  1.00  0.00    -0.237 OA
ATOM     77  O   UNL A   1      49.857  24.263  27.880  1.00  0.00    -0.744 OA
ENDBRANCH  70  74
ENDBRANCH  53  67
BRANCH  54  78
ATOM     78  C   UNL A   1      38.822  30.293  31.019  1.00  0.00     0.023 A 
ATOM     79  C   UNL A   1      37.766  30.980  30.401  1.00  0.00     0.031 A 
ATOM     80  C   UNL A   1      38.740  30.062  32.403  1.00  0.00     0.131 A 
ATOM     81  C   UNL A   1      36.692  31.452  31.172  1.00  0.00     0.055 A 
ATOM     82  C   UNL A   1      37.649  30.495  33.159  1.00  0.00     0.041 A 
ATOM     83  F   UNL A   1      39.719  29.400  33.040  1.00  0.00    -0.206 F 
ATOM     84  C   UNL A   1      36.622  31.206  32.545  1.00  0.00     0.022 A 
BRANCH  81  85
ATOM     85  S   UNL A   1      35.420  32.462  30.364  1.00  0.00     0.124 S 
ATOM     86  O   UNL A   1      34.395  32.535  31.399  1.00  0.00    -0.237 OA
ATOM     87  O   UNL A   1      36.145  33.698  30.089  1.00  0.00    -0.237 OA
ATOM     88  O   UNL A   1      35.062  31.677  29.184  1.00  0.00    -0.744 OA
ENDBRANCH  81  85
ENDBRANCH  54  78
BRANCH  66  89
ATOM     89  C   UNL A   1      44.857  33.374  29.389  1.00  0.00     0.023 A 
ATOM     90  C   UNL A   1      44.506  34.446  28.551  1.00  0.00     0.031 A 
ATOM     91  C   UNL A   1      45.720  33.629  30.470  1.00  0.00     0.131 A 
ATOM     92  C   UNL A   1      45.057  35.716  28.777  1.00  0.00     0.055 A 
ATOM     93  C   UNL A   1      46.223  34.905  30.721  1.00  0.00     0.041 A 
ATOM     94  F   UNL A   1      46.086  32.638  31.299  1.00  0.00    -0.206 F 
ATOM     95  C   UNL A   1      45.902  35.956  29.865  1.00  0.00     0.022 A 
BRANCH  92  96
ATOM     96  S   UNL A   1      44.718  37.038  27.583  1.00  0.00     0.124 S 
ATOM     97  O   UNL A   1      44.088  38.051  28.421  1.00  0.00    -0.237 OA
ATOM     98  O   UNL A   1      46.052  37.359  27.087  1.00  0.00    -0.237 OA
ATOM     99  O   UNL A   1      43.833  36.401  26.608  1.00  0.00    -0.744 OA
ENDBRANCH  92  96
ENDBRANCH  66  89
ENDBRANCH  40  41
ENDBRANCH  32  35
ENDBRANCH  30  31
ENDBRANCH   1  30
TORSDOF 17
ENDMDL
