MODEL 1
REMARK VINA RESULT:     -12.6      0.000      0.000
REMARK SMILES CCc1cc(C)c2c(c1)C=C(C(=O)NCCCCNC(=O)c1ccc(-c3c4nc(c(-c5cc(S(=O)(=O)[O-])ccc5F)c5ccc([nH]5)c(-c5cc(S(=O)(=O)[O-])ccc5F)c5nc(c(-c6cc(S(=O)(=O)[O-])ccc6F)c6ccc3[nH]6)C=C5)C=C4)cc1)[C@@H](C(F)(F)F)O2
REMARK SMILES IDX 17 1 16 2 15 3 14 4 12 5 13 6 11 8 3 9 4 10 9 11 5 12 8 13
REMARK SMILES IDX 6 14 7 15 10 16 90 17 85 18 2 19 1 20 86 21 87 22 88 23
REMARK SMILES IDX 89 24 18 25 19 26 20 27 21 29 22 30 23 31 84 32 24 33 83 34
REMARK SMILES IDX 25 35 26 36 27 37 77 38 28 39 82 40 76 41 78 42 29 43 81 44
REMARK SMILES IDX 75 45 74 46 30 48 62 49 42 50 61 51 43 52 46 53 60 54 79 55
REMARK SMILES IDX 44 56 45 57 59 59 80 60 47 61 31 62 32 63 40 64 33 65 39 66
REMARK SMILES IDX 41 67 38 68 34 69 35 70 36 71 37 72 63 73 64 74 72 75 65 76
REMARK SMILES IDX 71 77 73 78 70 79 66 80 67 81 68 82 69 83 48 84 49 85 57 86
REMARK SMILES IDX 50 87 56 88 58 89 55 90 51 91 52 92 53 93 54 94
REMARK H PARENT 14 7 19 28 78 47 46 58
REMARK Flexibility Score: inf
ROOT
ATOM      1  C   UNL A   1      31.798  28.353  25.561  1.00  0.00     0.023 C 
ENDROOT
BRANCH   1   2
ATOM      2  C   UNL A   1      31.367  28.109  24.111  1.00  0.00     0.023 C 
BRANCH   2   3
ATOM      3  C   UNL A   1      31.297  26.635  23.721  1.00  0.00     0.116 C 
BRANCH   3   4
ATOM      4  N   UNL A   1      31.953  26.377  22.452  1.00  0.00    -0.352 N 
ATOM      5  C   UNL A   1      32.844  25.483  21.966  1.00  0.00     0.251 C 
ATOM      6  O   UNL A   1      33.152  25.636  20.779  1.00  0.00    -0.270 OA
ATOM      7  H   UNL A   1      31.676  27.023  21.764  1.00  0.00     0.163 HD
BRANCH   5   8
ATOM      8  C   UNL A   1      33.454  24.361  22.741  1.00  0.00     0.067 C 
ATOM      9  C   UNL A   1      33.037  19.786  24.282  1.00  0.00    -0.047 A 
ATOM     10  C   UNL A   1      34.314  19.883  24.863  1.00  0.00     0.011 A 
ATOM     11  C   UNL A   1      32.546  20.882  23.563  1.00  0.00     0.015 A 
ATOM     12  C   UNL A   1      35.095  21.039  24.725  1.00  0.00    -0.008 A 
ATOM     13  C   UNL A   1      33.308  22.049  23.425  1.00  0.00     0.018 A 
ATOM     14  C   UNL A   1      36.454  21.119  25.358  1.00  0.00     0.048 C 
ATOM     15  C   UNL A   1      34.573  22.121  24.010  1.00  0.00     0.130 A 
ATOM     16  C   UNL A   1      32.810  23.183  22.656  1.00  0.00     0.025 C 
ATOM     17  O   UNL A   1      35.364  23.229  23.873  1.00  0.00    -0.475 OA
ATOM     18  C   UNL A   1      34.668  24.483  23.616  1.00  0.00     0.314 C 
BRANCH   9  19
ATOM     19  C   UNL A   1      32.260  18.505  24.488  1.00  0.00     0.032 C 
ATOM     20  C   UNL A   1      33.044  17.201  24.412  1.00  0.00     0.009 C 
ENDBRANCH   9  19
BRANCH  18  21
ATOM     21  C   UNL A   1      34.371  25.180  24.958  1.00  0.00     0.429 C 
ATOM     22  F   UNL A   1      35.327  24.870  25.872  1.00  0.00    -0.167 F 
ATOM     23  F   UNL A   1      34.364  26.528  24.854  1.00  0.00    -0.167 F 
ATOM     24  F   UNL A   1      33.180  24.819  25.485  1.00  0.00    -0.167 F 
ENDBRANCH  18  21
ENDBRANCH   5   8
ENDBRANCH   3   4
ENDBRANCH   2   3
ENDBRANCH   1   2
BRANCH   1  25
ATOM     25  C   UNL A   1      32.891  29.405  25.751  1.00  0.00     0.116 C 
BRANCH  25  26
ATOM     26  N   UNL A   1      32.386  30.700  26.183  1.00  0.00    -0.352 N 
ATOM     27  C   UNL A   1      32.976  31.573  27.067  1.00  0.00     0.251 C 
ATOM     28  H   UNL A   1      31.524  30.983  25.800  1.00  0.00     0.163 HD
ATOM     29  O   UNL A   1      32.413  32.608  27.404  1.00  0.00    -0.269 OA
BRANCH  27  30
ATOM     30  C   UNL A   1      34.290  31.210  27.626  1.00  0.00     0.039 A 
ATOM     31  C   UNL A   1      35.253  32.207  27.785  1.00  0.00     0.014 A 
ATOM     32  C   UNL A   1      34.520  29.905  28.070  1.00  0.00     0.014 A 
ATOM     33  C   UNL A   1      36.441  31.908  28.451  1.00  0.00     0.010 A 
ATOM     34  C   UNL A   1      35.688  29.619  28.766  1.00  0.00     0.010 A 
ATOM     35  C   UNL A   1      36.652  30.620  28.967  1.00  0.00    -0.014 A 
BRANCH  35  36
ATOM     36  C   UNL A   1      37.881  30.287  29.723  1.00  0.00     0.031 A 
ATOM     37  C   UNL A   1      38.893  29.363  29.114  1.00  0.00     0.074 A 
ATOM     38  C   UNL A   1      38.040  30.753  30.975  1.00  0.00     0.049 A 
ATOM     39  N   UNL A   1      39.983  28.877  29.643  1.00  0.00    -0.248 NA
ATOM     40  C   UNL A   1      38.634  28.911  27.738  1.00  0.00     0.031 C 
ATOM     41  C   UNL A   1      37.101  31.635  31.671  1.00  0.00     0.029 A 
ATOM     42  N   UNL A   1      39.036  30.536  31.894  1.00  0.00    -0.354 N 
ATOM     43  C   UNL A   1      40.538  28.057  28.670  1.00  0.00     0.074 A 
ATOM     44  C   UNL A   1      39.643  28.076  27.535  1.00  0.00     0.031 C 
ATOM     45  C   UNL A   1      37.568  31.886  32.905  1.00  0.00     0.029 A 
ATOM     46  C   UNL A   1      38.820  31.158  33.101  1.00  0.00     0.049 A 
ATOM     47  H   UNL A   1      39.830  29.986  31.706  1.00  0.00     0.167 HD
ATOM     48  C   UNL A   1      41.702  27.369  28.714  1.00  0.00     0.034 A 
ATOM     49  C   UNL A   1      39.544  31.137  34.238  1.00  0.00     0.034 A 
ATOM     50  C   UNL A   1      42.592  27.376  29.842  1.00  0.00     0.049 A 
ATOM     51  C   UNL A   1      40.829  30.347  34.270  1.00  0.00     0.074 A 
ATOM     52  C   UNL A   1      43.823  26.757  29.962  1.00  0.00     0.029 A 
ATOM     53  N   UNL A   1      42.353  28.034  31.038  1.00  0.00    -0.354 N 
ATOM     54  N   UNL A   1      41.383  29.641  33.312  1.00  0.00    -0.248 NA
ATOM     55  C   UNL A   1      41.590  30.349  35.528  1.00  0.00     0.031 C 
ATOM     56  C   UNL A   1      44.313  27.013  31.243  1.00  0.00     0.029 A 
ATOM     57  C   UNL A   1      43.406  27.823  31.910  1.00  0.00     0.049 A 
ATOM     58  H   UNL A   1      41.553  28.572  31.238  1.00  0.00     0.167 HD
ATOM     59  C   UNL A   1      42.566  29.138  33.842  1.00  0.00     0.074 A 
ATOM     60  C   UNL A   1      42.655  29.627  35.202  1.00  0.00     0.031 C 
ATOM     61  C   UNL A   1      43.493  28.341  33.254  1.00  0.00     0.034 A 
BRANCH  48  62
ATOM     62  C   UNL A   1      42.103  26.574  27.503  1.00  0.00     0.023 A 
ATOM     63  C   UNL A   1      41.855  25.192  27.448  1.00  0.00     0.031 A 
ATOM     64  C   UNL A   1      42.813  27.173  26.448  1.00  0.00     0.131 A 
ATOM     65  C   UNL A   1      42.334  24.447  26.363  1.00  0.00     0.055 A 
ATOM     66  C   UNL A   1      43.264  26.431  25.356  1.00  0.00     0.041 A 
ATOM     67  F   UNL A   1      43.065  28.492  26.458  1.00  0.00    -0.206 F 
ATOM     68  C   UNL A   1      43.030  25.060  25.314  1.00  0.00     0.022 A 
BRANCH  65  69
ATOM     69  S   UNL A   1      42.085  22.654  26.276  1.00  0.00     0.124 S 
ATOM     70  O   UNL A   1      42.800  22.189  27.464  1.00  0.00    -0.237 OA
ATOM     71  O   UNL A   1      40.631  22.547  26.342  1.00  0.00    -0.237 OA
ATOM     72  O   UNL A   1      42.692  22.277  25.004  1.00  0.00    -0.744 OA
ENDBRANCH  65  69
ENDBRANCH  48  62
BRANCH  49  73
ATOM     73  C   UNL A   1      39.090  31.936  35.410  1.00  0.00     0.023 A 
ATOM     74  C   UNL A   1      38.458  31.328  36.509  1.00  0.00     0.031 A 
ATOM     75  C   UNL A   1      39.202  33.337  35.401  1.00  0.00     0.131 A 
ATOM     76  C   UNL A   1      37.922  32.123  37.531  1.00  0.00     0.055 A 
ATOM     77  C   UNL A   1      38.713  34.122  36.447  1.00  0.00     0.041 A 
ATOM     78  F   UNL A   1      39.787  33.960  34.366  1.00  0.00    -0.206 F 
ATOM     79  C   UNL A   1      38.059  33.515  37.514  1.00  0.00     0.022 A 
BRANCH  76  80
ATOM     80  S   UNL A   1      36.950  31.386  38.874  1.00  0.00     0.124 S 
ATOM     81  O   UNL A   1      37.854  31.514  40.013  1.00  0.00    -0.237 OA
ATOM     82  O   UNL A   1      35.776  32.254  38.899  1.00  0.00    -0.237 OA
ATOM     83  O   UNL A   1      36.706  30.023  38.414  1.00  0.00    -0.744 OA
ENDBRANCH  76  80
ENDBRANCH  49  73
BRANCH  61  84
ATOM     84  C   UNL A   1      44.707  27.938  34.047  1.00  0.00     0.023 A 
ATOM     85  C   UNL A   1      44.646  26.817  34.897  1.00  0.00     0.031 A 
ATOM     86  C   UNL A   1      45.843  28.761  34.101  1.00  0.00     0.131 A 
ATOM     87  C   UNL A   1      45.684  26.580  35.805  1.00  0.00     0.055 A 
ATOM     88  C   UNL A   1      46.893  28.498  34.981  1.00  0.00     0.041 A 
ATOM     89  F   UNL A   1      45.935  29.845  33.313  1.00  0.00    -0.206 F 
ATOM     90  C   UNL A   1      46.810  27.411  35.847  1.00  0.00     0.022 A 
BRANCH  87  91
ATOM     91  S   UNL A   1      45.581  25.226  37.007  1.00  0.00     0.124 S 
ATOM     92  O   UNL A   1      46.576  25.620  38.000  1.00  0.00    -0.237 OA
ATOM     93  O   UNL A   1      44.191  25.312  37.446  1.00  0.00    -0.237 OA
ATOM     94  O   UNL A   1      45.923  24.039  36.228  1.00  0.00    -0.744 OA
ENDBRANCH  87  91
ENDBRANCH  61  84
ENDBRANCH  35  36
ENDBRANCH  27  30
ENDBRANCH  25  26
ENDBRANCH   1  25
TORSDOF 16
ENDMDL
MODEL 2
REMARK VINA RESULT:     -12.5      5.055     10.299
REMARK SMILES CCc1cc(C)c2c(c1)C=C(C(=O)NCCCCNC(=O)c1ccc(-c3c4nc(c(-c5cc(S(=O)(=O)[O-])ccc5F)c5ccc([nH]5)c(-c5cc(S(=O)(=O)[O-])ccc5F)c5nc(c(-c6cc(S(=O)(=O)[O-])ccc6F)c6ccc3[nH]6)C=C5)C=C4)cc1)[C@@H](C(F)(F)F)O2
REMARK SMILES IDX 17 1 16 2 15 3 14 4 12 5 13 6 11 8 3 9 4 10 9 11 5 12 8 13
REMARK SMILES IDX 6 14 7 15 10 16 90 17 85 18 2 19 1 20 86 21 87 22 88 23
REMARK SMILES IDX 89 24 18 25 19 26 20 27 21 29 22 30 23 31 84 32 24 33 83 34
REMARK SMILES IDX 25 35 26 36 27 37 77 38 28 39 82 40 76 41 78 42 29 43 81 44
REMARK SMILES IDX 75 45 74 46 30 48 62 49 42 50 61 51 43 52 46 53 60 54 79 55
REMARK SMILES IDX 44 56 45 57 59 59 80 60 47 61 31 62 32 63 40 64 33 65 39 66
REMARK SMILES IDX 41 67 38 68 34 69 35 70 36 71 37 72 63 73 64 74 72 75 65 76
REMARK SMILES IDX 71 77 73 78 70 79 66 80 67 81 68 82 69 83 48 84 49 85 57 86
REMARK SMILES IDX 50 87 56 88 58 89 55 90 51 91 52 92 53 93 54 94
REMARK H PARENT 14 7 19 28 78 47 46 58
REMARK Flexibility Score: inf
ROOT
ATOM      1  C   UNL A   1      35.481  22.316  24.883  1.00  0.00     0.023 C 
ENDROOT
BRANCH   1   2
ATOM      2  C   UNL A   1      34.110  21.665  25.094  1.00  0.00     0.023 C 
BRANCH   2   3
ATOM      3  C   UNL A   1      32.951  22.435  24.467  1.00  0.00     0.116 C 
BRANCH   3   4
ATOM      4  N   UNL A   1      33.256  22.868  23.115  1.00  0.00    -0.352 N 
ATOM      5  C   UNL A   1      33.157  24.012  22.400  1.00  0.00     0.251 C 
ATOM      6  O   UNL A   1      33.540  23.938  21.228  1.00  0.00    -0.270 OA
ATOM      7  H   UNL A   1      33.634  22.137  22.577  1.00  0.00     0.163 HD
BRANCH   5   8
ATOM      8  C   UNL A   1      32.639  25.314  22.919  1.00  0.00     0.067 C 
ATOM      9  C   UNL A   1      33.392  29.124  25.818  1.00  0.00    -0.047 A 
ATOM     10  C   UNL A   1      32.194  29.695  25.350  1.00  0.00     0.011 A 
ATOM     11  C   UNL A   1      33.809  27.905  25.269  1.00  0.00     0.015 A 
ATOM     12  C   UNL A   1      31.430  29.077  24.350  1.00  0.00    -0.008 A 
ATOM     13  C   UNL A   1      33.052  27.269  24.277  1.00  0.00     0.018 A 
ATOM     14  C   UNL A   1      30.153  29.704  23.870  1.00  0.00     0.048 C 
ATOM     15  C   UNL A   1      31.868  27.855  23.829  1.00  0.00     0.130 A 
ATOM     16  C   UNL A   1      33.496  26.013  23.686  1.00  0.00     0.025 C 
ATOM     17  O   UNL A   1      31.115  27.284  22.839  1.00  0.00    -0.475 OA
ATOM     18  C   UNL A   1      31.254  25.842  22.683  1.00  0.00     0.314 C 
BRANCH   9  19
ATOM     19  C   UNL A   1      34.148  29.855  26.904  1.00  0.00     0.032 C 
ATOM     20  C   UNL A   1      35.348  29.138  27.511  1.00  0.00     0.009 C 
ENDBRANCH   9  19
BRANCH  18  21
ATOM     21  C   UNL A   1      30.190  25.135  23.544  1.00  0.00     0.429 C 
ATOM     22  F   UNL A   1      30.649  24.962  24.811  1.00  0.00    -0.167 F 
ATOM     23  F   UNL A   1      29.044  25.846  23.646  1.00  0.00    -0.167 F 
ATOM     24  F   UNL A   1      29.856  23.914  23.069  1.00  0.00    -0.167 F 
ENDBRANCH  18  21
ENDBRANCH   5   8
ENDBRANCH   3   4
ENDBRANCH   2   3
ENDBRANCH   1   2
BRANCH   1  25
ATOM     25  C   UNL A   1      36.472  22.143  26.034  1.00  0.00     0.116 C 
BRANCH  25  26
ATOM     26  N   UNL A   1      37.439  21.077  25.816  1.00  0.00    -0.352 N 
ATOM     27  C   UNL A   1      38.801  21.137  25.994  1.00  0.00     0.251 C 
ATOM     28  H   UNL A   1      37.077  20.215  25.505  1.00  0.00     0.163 HD
ATOM     29  O   UNL A   1      39.519  20.185  25.708  1.00  0.00    -0.269 OA
BRANCH  27  30
ATOM     30  C   UNL A   1      39.378  22.392  26.505  1.00  0.00     0.039 A 
ATOM     31  C   UNL A   1      40.414  22.327  27.438  1.00  0.00     0.014 A 
ATOM     32  C   UNL A   1      38.948  23.616  25.987  1.00  0.00     0.014 A 
ATOM     33  C   UNL A   1      41.069  23.499  27.814  1.00  0.00     0.010 A 
ATOM     34  C   UNL A   1      39.626  24.778  26.334  1.00  0.00     0.010 A 
ATOM     35  C   UNL A   1      40.696  24.727  27.243  1.00  0.00    -0.014 A 
BRANCH  35  36
ATOM     36  C   UNL A   1      41.406  25.980  27.584  1.00  0.00     0.031 A 
ATOM     37  C   UNL A   1      40.708  27.023  28.405  1.00  0.00     0.074 A 
ATOM     38  C   UNL A   1      42.638  26.203  27.090  1.00  0.00     0.049 A 
ATOM     39  N   UNL A   1      41.118  28.218  28.733  1.00  0.00    -0.248 NA
ATOM     40  C   UNL A   1      39.367  26.683  28.905  1.00  0.00     0.031 C 
ATOM     41  C   UNL A   1      43.393  25.267  26.256  1.00  0.00     0.029 A 
ATOM     42  N   UNL A   1      43.463  27.294  27.197  1.00  0.00    -0.354 N 
ATOM     43  C   UNL A   1      40.084  28.779  29.472  1.00  0.00     0.074 A 
ATOM     44  C   UNL A   1      39.011  27.809  29.507  1.00  0.00     0.031 C 
ATOM     45  C   UNL A   1      44.572  25.821  25.932  1.00  0.00     0.029 A 
ATOM     46  C   UNL A   1      44.644  27.164  26.504  1.00  0.00     0.049 A 
ATOM     47  H   UNL A   1      43.231  28.095  27.721  1.00  0.00     0.167 HD
ATOM     48  C   UNL A   1      40.046  29.983  30.084  1.00  0.00     0.034 A 
ATOM     49  C   UNL A   1      45.663  28.032  26.342  1.00  0.00     0.034 A 
ATOM     50  C   UNL A   1      41.128  30.929  30.057  1.00  0.00     0.049 A 
ATOM     51  C   UNL A   1      45.589  29.378  27.018  1.00  0.00     0.074 A 
ATOM     52  C   UNL A   1      41.208  32.154  30.694  1.00  0.00     0.029 A 
ATOM     53  N   UNL A   1      42.316  30.755  29.365  1.00  0.00    -0.354 N 
ATOM     54  N   UNL A   1      44.639  29.862  27.782  1.00  0.00    -0.248 NA
ATOM     55  C   UNL A   1      46.720  30.296  26.816  1.00  0.00     0.031 C 
ATOM     56  C   UNL A   1      42.431  32.736  30.359  1.00  0.00     0.029 A 
ATOM     57  C   UNL A   1      43.131  31.859  29.545  1.00  0.00     0.049 A 
ATOM     58  H   UNL A   1      42.547  29.964  28.826  1.00  0.00     0.167 HD
ATOM     59  C   UNL A   1      45.067  31.126  28.173  1.00  0.00     0.074 A 
ATOM     60  C   UNL A   1      46.367  31.331  27.570  1.00  0.00     0.031 C 
ATOM     61  C   UNL A   1      44.437  32.035  28.958  1.00  0.00     0.034 A 
BRANCH  48  62
ATOM     62  C   UNL A   1      38.811  30.346  30.861  1.00  0.00     0.023 A 
ATOM     63  C   UNL A   1      37.857  31.220  30.310  1.00  0.00     0.031 A 
ATOM     64  C   UNL A   1      38.631  29.899  32.182  1.00  0.00     0.131 A 
ATOM     65  C   UNL A   1      36.771  31.635  31.090  1.00  0.00     0.055 A 
ATOM     66  C   UNL A   1      37.531  30.293  32.944  1.00  0.00     0.041 A 
ATOM     67  F   UNL A   1      39.515  29.058  32.743  1.00  0.00    -0.206 F 
ATOM     68  C   UNL A   1      36.598  31.171  32.399  1.00  0.00     0.022 A 
BRANCH  65  69
ATOM     69  S   UNL A   1      35.545  32.802  30.440  1.00  0.00     0.124 S 
ATOM     70  O   UNL A   1      36.201  34.089  30.666  1.00  0.00    -0.237 OA
ATOM     71  O   UNL A   1      35.444  32.389  29.044  1.00  0.00    -0.237 OA
ATOM     72  O   UNL A   1      34.362  32.560  31.260  1.00  0.00    -0.744 OA
ENDBRANCH  65  69
ENDBRANCH  48  62
BRANCH  49  73
ATOM     73  C   UNL A   1      46.856  27.620  25.550  1.00  0.00     0.023 A 
ATOM     74  C   UNL A   1      47.006  27.997  24.204  1.00  0.00     0.031 A 
ATOM     75  C   UNL A   1      47.818  26.762  26.110  1.00  0.00     0.131 A 
ATOM     76  C   UNL A   1      48.069  27.480  23.451  1.00  0.00     0.055 A 
ATOM     77  C   UNL A   1      48.905  26.293  25.371  1.00  0.00     0.041 A 
ATOM     78  F   UNL A   1      47.707  26.367  27.388  1.00  0.00    -0.206 F 
ATOM     79  C   UNL A   1      49.027  26.643  24.031  1.00  0.00     0.022 A 
BRANCH  76  80
ATOM     80  S   UNL A   1      48.196  27.806  21.671  1.00  0.00     0.124 S 
ATOM     81  O   UNL A   1      49.272  28.791  21.615  1.00  0.00    -0.237 OA
ATOM     82  O   UNL A   1      48.525  26.481  21.152  1.00  0.00    -0.237 OA
ATOM     83  O   UNL A   1      46.870  28.301  21.317  1.00  0.00    -0.744 OA
ENDBRANCH  76  80
ENDBRANCH  49  73
BRANCH  61  84
ATOM     84  C   UNL A   1      45.125  33.343  29.243  1.00  0.00     0.023 A 
ATOM     85  C   UNL A   1      44.928  34.439  28.382  1.00  0.00     0.031 A 
ATOM     86  C   UNL A   1      46.104  33.443  30.244  1.00  0.00     0.131 A 
ATOM     87  C   UNL A   1      45.740  35.572  28.507  1.00  0.00     0.055 A 
ATOM     88  C   UNL A   1      46.884  34.591  30.389  1.00  0.00     0.041 A 
ATOM     89  F   UNL A   1      46.329  32.417  31.081  1.00  0.00    -0.206 F 
ATOM     90  C   UNL A   1      46.713  35.657  29.510  1.00  0.00     0.022 A 
BRANCH  87  91
ATOM     91  S   UNL A   1      45.607  36.948  27.332  1.00  0.00     0.124 S 
ATOM     92  O   UNL A   1      44.173  36.978  27.056  1.00  0.00    -0.237 OA
ATOM     93  O   UNL A   1      46.117  38.069  28.116  1.00  0.00    -0.237 OA
ATOM     94  O   UNL A   1      46.443  36.533  26.210  1.00  0.00    -0.744 OA
ENDBRANCH  87  91
ENDBRANCH  61  84
ENDBRANCH  35  36
ENDBRANCH  27  30
ENDBRANCH  25  26
ENDBRANCH   1  25
TORSDOF 16
ENDMDL
MODEL 3
REMARK VINA RESULT:     -12.4      5.824      8.797
REMARK SMILES CCc1cc(C)c2c(c1)C=C(C(=O)NCCCCNC(=O)c1ccc(-c3c4nc(c(-c5cc(S(=O)(=O)[O-])ccc5F)c5ccc([nH]5)c(-c5cc(S(=O)(=O)[O-])ccc5F)c5nc(c(-c6cc(S(=O)(=O)[O-])ccc6F)c6ccc3[nH]6)C=C5)C=C4)cc1)[C@@H](C(F)(F)F)O2
REMARK SMILES IDX 17 1 16 2 15 3 14 4 12 5 13 6 11 8 3 9 4 10 9 11 5 12 8 13
REMARK SMILES IDX 6 14 7 15 10 16 90 17 85 18 2 19 1 20 86 21 87 22 88 23
REMARK SMILES IDX 89 24 18 25 19 26 20 27 21 29 22 30 23 31 84 32 24 33 83 34
REMARK SMILES IDX 25 35 26 36 27 37 77 38 28 39 82 40 76 41 78 42 29 43 81 44
REMARK SMILES IDX 75 45 74 46 30 48 62 49 42 50 61 51 43 52 46 53 60 54 79 55
REMARK SMILES IDX 44 56 45 57 59 59 80 60 47 61 31 62 32 63 40 64 33 65 39 66
REMARK SMILES IDX 41 67 38 68 34 69 35 70 36 71 37 72 63 73 64 74 72 75 65 76
REMARK SMILES IDX 71 77 73 78 70 79 66 80 67 81 68 82 69 83 48 84 49 85 57 86
REMARK SMILES IDX 50 87 56 88 58 89 55 90 51 91 52 92 53 93 54 94
REMARK H PARENT 14 7 19 28 78 47 46 58
REMARK Flexibility Score: inf
ROOT
ATOM      1  C   UNL A   1      39.456  21.394  26.085  1.00  0.00     0.023 C 
ENDROOT
BRANCH   1   2
ATOM      2  C   UNL A   1      39.457  22.864  26.517  1.00  0.00     0.023 C 
BRANCH   2   3
ATOM      3  C   UNL A   1      38.176  23.617  26.169  1.00  0.00     0.116 C 
BRANCH   3   4
ATOM      4  N   UNL A   1      37.735  23.340  24.814  1.00  0.00    -0.352 N 
ATOM      5  C   UNL A   1      36.558  23.308  24.147  1.00  0.00     0.251 C 
ATOM      6  O   UNL A   1      36.637  23.005  22.952  1.00  0.00    -0.270 OA
ATOM      7  H   UNL A   1      38.491  23.117  24.226  1.00  0.00     0.163 HD
BRANCH   5   8
ATOM      8  C   UNL A   1      35.220  23.610  24.738  1.00  0.00     0.067 C 
ATOM      9  C   UNL A   1      32.233  26.980  26.528  1.00  0.00    -0.047 A 
ATOM     10  C   UNL A   1      31.237  25.997  26.672  1.00  0.00     0.011 A 
ATOM     11  C   UNL A   1      33.456  26.613  25.953  1.00  0.00     0.015 A 
ATOM     12  C   UNL A   1      31.444  24.678  26.245  1.00  0.00    -0.008 A 
ATOM     13  C   UNL A   1      33.683  25.297  25.532  1.00  0.00     0.018 A 
ATOM     14  C   UNL A   1      30.367  23.645  26.413  1.00  0.00     0.048 C 
ATOM     15  C   UNL A   1      32.680  24.339  25.685  1.00  0.00     0.130 A 
ATOM     16  C   UNL A   1      34.946  24.916  24.911  1.00  0.00     0.025 C 
ATOM     17  O   UNL A   1      32.848  23.050  25.257  1.00  0.00    -0.475 OA
ATOM     18  C   UNL A   1      34.224  22.577  25.180  1.00  0.00     0.314 C 
BRANCH   9  19
ATOM     19  C   UNL A   1      31.928  28.376  27.023  1.00  0.00     0.032 C 
ATOM     20  C   UNL A   1      31.750  29.460  25.968  1.00  0.00     0.009 C 
ENDBRANCH   9  19
BRANCH  18  21
ATOM     21  C   UNL A   1      34.606  21.911  26.515  1.00  0.00     0.429 C 
ATOM     22  F   UNL A   1      34.708  22.845  27.496  1.00  0.00    -0.167 F 
ATOM     23  F   UNL A   1      33.684  21.015  26.933  1.00  0.00    -0.167 F 
ATOM     24  F   UNL A   1      35.790  21.260  26.457  1.00  0.00    -0.167 F 
ENDBRANCH  18  21
ENDBRANCH   5   8
ENDBRANCH   3   4
ENDBRANCH   2   3
ENDBRANCH   1   2
BRANCH   1  25
ATOM     25  C   UNL A   1      40.260  20.449  26.978  1.00  0.00     0.116 C 
BRANCH  25  26
ATOM     26  N   UNL A   1      41.177  19.591  26.243  1.00  0.00    -0.352 N 
ATOM     27  C   UNL A   1      42.413  19.927  25.741  1.00  0.00     0.251 C 
ATOM     28  H   UNL A   1      40.879  18.666  26.086  1.00  0.00     0.163 HD
ATOM     29  O   UNL A   1      43.064  19.129  25.076  1.00  0.00    -0.269 OA
BRANCH  27  30
ATOM     30  C   UNL A   1      42.918  21.287  25.997  1.00  0.00     0.039 A 
ATOM     31  C   UNL A   1      42.964  22.198  24.941  1.00  0.00     0.014 A 
ATOM     32  C   UNL A   1      43.255  21.670  27.298  1.00  0.00     0.014 A 
ATOM     33  C   UNL A   1      43.294  23.528  25.201  1.00  0.00     0.010 A 
ATOM     34  C   UNL A   1      43.548  23.003  27.560  1.00  0.00     0.010 A 
ATOM     35  C   UNL A   1      43.562  23.941  26.516  1.00  0.00    -0.014 A 
BRANCH  35  36
ATOM     36  C   UNL A   1      43.866  25.356  26.829  1.00  0.00     0.031 A 
ATOM     37  C   UNL A   1      45.268  25.862  26.668  1.00  0.00     0.074 A 
ATOM     38  C   UNL A   1      42.901  26.150  27.329  1.00  0.00     0.049 A 
ATOM     39  N   UNL A   1      45.758  27.033  26.974  1.00  0.00    -0.248 NA
ATOM     40  C   UNL A   1      46.252  24.921  26.109  1.00  0.00     0.031 C 
ATOM     41  C   UNL A   1      41.511  25.747  27.552  1.00  0.00     0.029 A 
ATOM     42  N   UNL A   1      42.943  27.452  27.758  1.00  0.00    -0.354 N 
ATOM     43  C   UNL A   1      47.107  26.970  26.652  1.00  0.00     0.074 A 
ATOM     44  C   UNL A   1      47.368  25.632  26.169  1.00  0.00     0.031 C 
ATOM     45  C   UNL A   1      40.833  26.782  28.073  1.00  0.00     0.029 A 
ATOM     46  C   UNL A   1      41.745  27.911  28.253  1.00  0.00     0.049 A 
ATOM     47  H   UNL A   1      43.756  28.006  27.716  1.00  0.00     0.167 HD
ATOM     48  C   UNL A   1      48.037  27.948  26.731  1.00  0.00     0.034 A 
ATOM     49  C   UNL A   1      41.421  29.101  28.797  1.00  0.00     0.034 A 
ATOM     50  C   UNL A   1      47.759  29.280  27.194  1.00  0.00     0.049 A 
ATOM     51  C   UNL A   1      42.480  30.171  28.893  1.00  0.00     0.074 A 
ATOM     52  C   UNL A   1      48.620  30.360  27.259  1.00  0.00     0.029 A 
ATOM     53  N   UNL A   1      46.530  29.716  27.666  1.00  0.00    -0.354 N 
ATOM     54  N   UNL A   1      43.733  30.123  28.508  1.00  0.00    -0.248 NA
ATOM     55  C   UNL A   1      42.087  31.455  29.493  1.00  0.00     0.031 C 
ATOM     56  C   UNL A   1      47.922  31.439  27.801  1.00  0.00     0.029 A 
ATOM     57  C   UNL A   1      46.614  31.045  28.041  1.00  0.00     0.049 A 
ATOM     58  H   UNL A   1      45.718  29.162  27.726  1.00  0.00     0.167 HD
ATOM     59  C   UNL A   1      44.270  31.374  28.793  1.00  0.00     0.074 A 
ATOM     60  C   UNL A   1      43.205  32.163  29.375  1.00  0.00     0.031 C 
ATOM     61  C   UNL A   1      45.534  31.825  28.593  1.00  0.00     0.034 A 
BRANCH  48  62
ATOM     62  C   UNL A   1      49.437  27.636  26.283  1.00  0.00     0.023 A 
ATOM     63  C   UNL A   1      49.848  27.941  24.973  1.00  0.00     0.031 A 
ATOM     64  C   UNL A   1      50.330  26.951  27.125  1.00  0.00     0.131 A 
ATOM     65  C   UNL A   1      51.117  27.542  24.537  1.00  0.00     0.055 A 
ATOM     66  C   UNL A   1      51.605  26.582  26.695  1.00  0.00     0.041 A 
ATOM     67  F   UNL A   1      49.980  26.647  28.386  1.00  0.00    -0.206 F 
ATOM     68  C   UNL A   1      52.000  26.873  25.392  1.00  0.00     0.022 A 
BRANCH  65  69
ATOM     69  S   UNL A   1      51.668  27.867  22.842  1.00  0.00     0.124 S 
ATOM     70  O   UNL A   1      53.112  27.657  22.945  1.00  0.00    -0.237 OA
ATOM     71  O   UNL A   1      50.942  26.850  22.087  1.00  0.00    -0.237 OA
ATOM     72  O   UNL A   1      51.262  29.248  22.599  1.00  0.00    -0.744 OA
ENDBRANCH  65  69
ENDBRANCH  48  62
BRANCH  49  73
ATOM     73  C   UNL A   1      40.018  29.349  29.234  1.00  0.00     0.023 A 
ATOM     74  C   UNL A   1      39.660  29.316  30.593  1.00  0.00     0.031 A 
ATOM     75  C   UNL A   1      39.000  29.531  28.283  1.00  0.00     0.131 A 
ATOM     76  C   UNL A   1      38.311  29.417  30.959  1.00  0.00     0.055 A 
ATOM     77  C   UNL A   1      37.664  29.685  28.656  1.00  0.00     0.041 A 
ATOM     78  F   UNL A   1      39.296  29.558  26.974  1.00  0.00    -0.206 F 
ATOM     79  C   UNL A   1      37.313  29.617  30.000  1.00  0.00     0.022 A 
BRANCH  76  80
ATOM     80  S   UNL A   1      37.794  29.204  32.685  1.00  0.00     0.124 S 
ATOM     81  O   UNL A   1      38.849  29.906  33.410  1.00  0.00    -0.237 OA
ATOM     82  O   UNL A   1      36.487  29.855  32.684  1.00  0.00    -0.237 OA
ATOM     83  O   UNL A   1      37.768  27.756  32.860  1.00  0.00    -0.744 OA
ENDBRANCH  76  80
ENDBRANCH  49  73
BRANCH  61  84
ATOM     84  C   UNL A   1      45.865  33.241  28.983  1.00  0.00     0.023 A 
ATOM     85  C   UNL A   1      45.711  34.279  28.045  1.00  0.00     0.031 A 
ATOM     86  C   UNL A   1      46.500  33.526  30.202  1.00  0.00     0.131 A 
ATOM     87  C   UNL A   1      46.235  35.547  28.323  1.00  0.00     0.055 A 
ATOM     88  C   UNL A   1      46.986  34.801  30.490  1.00  0.00     0.041 A 
ATOM     89  F   UNL A   1      46.675  32.560  31.120  1.00  0.00    -0.206 F 
ATOM     90  C   UNL A   1      46.866  35.815  29.544  1.00  0.00     0.022 A 
BRANCH  87  91
ATOM     91  S   UNL A   1      46.174  36.873  27.087  1.00  0.00     0.124 S 
ATOM     92  O   UNL A   1      44.737  37.063  26.912  1.00  0.00    -0.237 OA
ATOM     93  O   UNL A   1      46.870  37.959  27.770  1.00  0.00    -0.237 OA
ATOM     94  O   UNL A   1      46.866  36.307  25.933  1.00  0.00    -0.744 OA
ENDBRANCH  87  91
ENDBRANCH  61  84
ENDBRANCH  35  36
ENDBRANCH  27  30
ENDBRANCH  25  26
ENDBRANCH   1  25
TORSDOF 16
ENDMDL
