MODEL 1
REMARK VINA RESULT:     -11.4      0.000      0.000
REMARK SMILES O=C1NC[C@@H](CSc2ccnc(C(=O)NCCCCNC(=O)c3ccc(-c4c5nc(c(-c6cc(S(=O)(=O)[O-])ccc6F)c6ccc([nH]6)c(-c6cc(S(=O)(=O)[O-])ccc6F)c6nc(c(-c7cc(S(=O)(=O)[O-])ccc7F)c7ccc4[nH]7)C=C6)C=C5)cc3)c2)O1
REMARK SMILES IDX 17 1 16 2 15 3 13 4 14 5 12 7 8 8 9 9 86 10 10 11 11 12 7 13
REMARK SMILES IDX 6 14 5 15 1 16 2 17 3 18 87 19 4 20 18 22 19 23 20 24 21 25
REMARK SMILES IDX 22 27 23 28 24 29 85 30 25 31 84 32 26 33 27 34 28 35 78 36
REMARK SMILES IDX 29 37 83 38 77 39 79 40 30 41 82 42 76 43 75 44 31 46 63 47
REMARK SMILES IDX 43 48 62 49 44 50 47 51 61 52 80 53 45 54 46 55 60 57 81 58
REMARK SMILES IDX 48 59 32 60 33 61 41 62 34 63 40 64 42 65 39 66 35 67 36 68
REMARK SMILES IDX 37 69 38 70 64 71 65 72 73 73 66 74 72 75 74 76 71 77 67 78
REMARK SMILES IDX 68 79 69 80 70 81 49 82 50 83 58 84 51 85 57 86 59 87 56 88
REMARK SMILES IDX 52 89 53 90 54 91 55 92
REMARK H PARENT 15 6 3 21 20 26 79 45 47 56
REMARK Flexibility Score: inf
ROOT
ATOM      1  C   UNL A   1      34.750  30.811  27.969  1.00  0.00     0.023 C 
ENDROOT
BRANCH   1   2
ATOM      2  C   UNL A   1      34.500  29.475  27.267  1.00  0.00     0.116 C 
BRANCH   2   3
ATOM      3  N   UNL A   1      33.317  28.855  27.830  1.00  0.00    -0.351 N 
ATOM      4  C   UNL A   1      32.214  28.268  27.254  1.00  0.00     0.269 C 
ATOM      5  O   UNL A   1      31.301  27.934  28.010  1.00  0.00    -0.268 OA
ATOM      6  H   UNL A   1      33.300  28.852  28.814  1.00  0.00     0.163 HD
BRANCH   4   7
ATOM      7  C   UNL A   1      32.127  27.949  25.786  1.00  0.00     0.129 A 
ATOM      8  C   UNL A   1      31.467  28.399  23.537  1.00  0.00     0.011 A 
ATOM      9  C   UNL A   1      32.499  27.575  23.102  1.00  0.00     0.035 A 
ATOM     10  C   UNL A   1      31.247  28.557  24.903  1.00  0.00     0.049 A 
ATOM     11  C   UNL A   1      33.227  26.883  24.047  1.00  0.00     0.113 A 
ATOM     12  N   UNL A   1      33.068  27.058  25.369  1.00  0.00    -0.251 NA
BRANCH   8  13
ATOM     13  S   UNL A   1      30.579  29.393  22.357  1.00  0.00    -0.122 SA
BRANCH  13  14
ATOM     14  C   UNL A   1      28.857  29.291  22.975  1.00  0.00     0.122 C 
BRANCH  14  15
ATOM     15  C   UNL A   1      27.864  30.343  22.460  1.00  0.00     0.208 C 
ATOM     16  O   UNL A   1      28.721  33.667  22.852  1.00  0.00    -0.225 OA
ATOM     17  C   UNL A   1      28.418  32.550  22.460  1.00  0.00     0.407 C 
ATOM     18  N   UNL A   1      28.523  32.125  21.172  1.00  0.00    -0.318 N 
ATOM     19  O   UNL A   1      27.916  31.552  23.242  1.00  0.00    -0.443 OA
ATOM     20  C   UNL A   1      28.064  30.790  21.026  1.00  0.00     0.165 C 
ATOM     21  H   UNL A   1      28.873  32.674  20.433  1.00  0.00     0.167 HD
ENDBRANCH  14  15
ENDBRANCH  13  14
ENDBRANCH   8  13
ENDBRANCH   4   7
ENDBRANCH   2   3
ENDBRANCH   1   2
BRANCH   1  22
ATOM     22  C   UNL A   1      34.103  32.002  27.255  1.00  0.00     0.023 C 
BRANCH  22  23
ATOM     23  C   UNL A   1      32.801  32.484  27.887  1.00  0.00     0.116 C 
BRANCH  23  24
ATOM     24  N   UNL A   1      32.676  33.933  27.887  1.00  0.00    -0.352 N 
ATOM     25  C   UNL A   1      33.376  34.847  28.637  1.00  0.00     0.251 C 
ATOM     26  H   UNL A   1      32.003  34.307  27.272  1.00  0.00     0.163 HD
ATOM     27  O   UNL A   1      33.045  36.027  28.633  1.00  0.00    -0.269 OA
BRANCH  25  28
ATOM     28  C   UNL A   1      34.496  34.371  29.470  1.00  0.00     0.039 A 
ATOM     29  C   UNL A   1      34.213  33.685  30.651  1.00  0.00     0.014 A 
ATOM     30  C   UNL A   1      35.817  34.554  29.051  1.00  0.00     0.014 A 
ATOM     31  C   UNL A   1      35.259  33.128  31.383  1.00  0.00     0.010 A 
ATOM     32  C   UNL A   1      36.848  33.922  29.735  1.00  0.00     0.010 A 
ATOM     33  C   UNL A   1      36.581  33.207  30.911  1.00  0.00    -0.014 A 
BRANCH  33  34
ATOM     34  C   UNL A   1      37.690  32.548  31.648  1.00  0.00     0.031 A 
ATOM     35  C   UNL A   1      38.430  31.396  31.025  1.00  0.00     0.074 A 
ATOM     36  C   UNL A   1      38.005  32.971  32.889  1.00  0.00     0.049 A 
ATOM     37  N   UNL A   1      39.419  30.691  31.511  1.00  0.00    -0.248 NA
ATOM     38  C   UNL A   1      37.982  30.961  29.693  1.00  0.00     0.031 C 
ATOM     39  C   UNL A   1      37.320  34.046  33.613  1.00  0.00     0.029 A 
ATOM     40  N   UNL A   1      38.979  32.555  33.760  1.00  0.00    -0.354 N 
ATOM     41  C   UNL A   1      39.709  29.730  30.548  1.00  0.00     0.074 A 
ATOM     42  C   UNL A   1      38.740  29.896  29.487  1.00  0.00     0.031 C 
ATOM     43  C   UNL A   1      37.926  34.234  34.796  1.00  0.00     0.029 A 
ATOM     44  C   UNL A   1      39.005  33.263  34.940  1.00  0.00     0.049 A 
ATOM     45  H   UNL A   1      39.603  31.820  33.560  1.00  0.00     0.167 HD
ATOM     46  C   UNL A   1      40.709  28.814  30.538  1.00  0.00     0.034 A 
ATOM     47  C   UNL A   1      39.805  33.141  36.018  1.00  0.00     0.034 A 
ATOM     48  C   UNL A   1      41.667  28.668  31.607  1.00  0.00     0.049 A 
ATOM     49  C   UNL A   1      40.889  32.092  35.996  1.00  0.00     0.074 A 
ATOM     50  C   UNL A   1      42.749  27.808  31.681  1.00  0.00     0.029 A 
ATOM     51  N   UNL A   1      41.652  29.390  32.795  1.00  0.00    -0.354 N 
ATOM     52  N   UNL A   1      41.190  31.232  35.049  1.00  0.00    -0.248 NA
ATOM     53  C   UNL A   1      41.751  32.010  37.181  1.00  0.00     0.031 C 
ATOM     54  C   UNL A   1      43.335  27.950  32.943  1.00  0.00     0.029 A 
ATOM     55  C   UNL A   1      42.682  28.967  33.622  1.00  0.00     0.049 A 
ATOM     56  H   UNL A   1      41.005  30.097  33.017  1.00  0.00     0.167 HD
ATOM     57  C   UNL A   1      42.297  30.528  35.514  1.00  0.00     0.074 A 
ATOM     58  C   UNL A   1      42.622  31.081  36.814  1.00  0.00     0.031 C 
ATOM     59  C   UNL A   1      42.986  29.518  34.923  1.00  0.00     0.034 A 
BRANCH  46  60
ATOM     60  C   UNL A   1      40.794  27.890  29.346  1.00  0.00     0.023 A 
ATOM     61  C   UNL A   1      41.759  28.068  28.338  1.00  0.00     0.031 A 
ATOM     62  C   UNL A   1      39.885  26.827  29.201  1.00  0.00     0.131 A 
ATOM     63  C   UNL A   1      41.743  27.250  27.198  1.00  0.00     0.055 A 
ATOM     64  C   UNL A   1      39.932  25.960  28.108  1.00  0.00     0.041 A 
ATOM     65  F   UNL A   1      38.925  26.619  30.116  1.00  0.00    -0.206 F 
ATOM     66  C   UNL A   1      40.855  26.178  27.090  1.00  0.00     0.022 A 
BRANCH  63  67
ATOM     67  S   UNL A   1      42.797  27.703  25.793  1.00  0.00     0.124 S 
ATOM     68  O   UNL A   1      42.543  29.138  25.685  1.00  0.00    -0.237 OA
ATOM     69  O   UNL A   1      44.125  27.324  26.260  1.00  0.00    -0.237 OA
ATOM     70  O   UNL A   1      42.267  26.900  24.694  1.00  0.00    -0.744 OA
ENDBRANCH  63  67
ENDBRANCH  46  60
BRANCH  47  71
ATOM     71  C   UNL A   1      39.616  34.020  37.209  1.00  0.00     0.023 A 
ATOM     72  C   UNL A   1      39.008  33.537  38.378  1.00  0.00     0.031 A 
ATOM     73  C   UNL A   1      39.997  35.374  37.178  1.00  0.00     0.131 A 
ATOM     74  C   UNL A   1      38.748  34.412  39.445  1.00  0.00     0.055 A 
ATOM     75  C   UNL A   1      39.794  36.224  38.266  1.00  0.00     0.041 A 
ATOM     76  F   UNL A   1      40.585  35.890  36.087  1.00  0.00    -0.206 F 
ATOM     77  C   UNL A   1      39.151  35.748  39.403  1.00  0.00     0.022 A 
BRANCH  74  78
ATOM     78  S   UNL A   1      37.778  33.801  40.853  1.00  0.00     0.124 S 
ATOM     79  O   UNL A   1      37.491  35.035  41.573  1.00  0.00    -0.237 OA
ATOM     80  O   UNL A   1      36.645  33.167  40.186  1.00  0.00    -0.237 OA
ATOM     81  O   UNL A   1      38.696  32.884  41.524  1.00  0.00    -0.744 OA
ENDBRANCH  74  78
ENDBRANCH  47  71
BRANCH  59  82
ATOM     82  C   UNL A   1      44.188  28.981  35.664  1.00  0.00     0.023 A 
ATOM     83  C   UNL A   1      44.078  27.935  36.598  1.00  0.00     0.031 A 
ATOM     84  C   UNL A   1      45.460  29.542  35.449  1.00  0.00     0.131 A 
ATOM     85  C   UNL A   1      45.203  27.535  37.334  1.00  0.00     0.055 A 
ATOM     86  C   UNL A   1      46.590  29.086  36.129  1.00  0.00     0.041 A 
ATOM     87  F   UNL A   1      45.626  30.546  34.573  1.00  0.00    -0.206 F 
ATOM     88  C   UNL A   1      46.462  28.088  37.090  1.00  0.00     0.022 A 
BRANCH  85  89
ATOM     89  S   UNL A   1      44.974  26.367  38.703  1.00  0.00     0.124 S 
ATOM     90  O   UNL A   1      43.525  26.394  38.883  1.00  0.00    -0.237 OA
ATOM     91  O   UNL A   1      45.525  25.132  38.156  1.00  0.00    -0.237 OA
ATOM     92  O   UNL A   1      45.745  26.961  39.794  1.00  0.00    -0.744 OA
ENDBRANCH  85  89
ENDBRANCH  59  82
ENDBRANCH  33  34
ENDBRANCH  25  28
ENDBRANCH  23  24
ENDBRANCH  22  23
ENDBRANCH   1  22
TORSDOF 17
ENDMDL
MODEL 2
REMARK VINA RESULT:     -11.4      4.826     10.066
REMARK SMILES O=C1NC[C@@H](CSc2ccnc(C(=O)NCCCCNC(=O)c3ccc(-c4c5nc(c(-c6cc(S(=O)(=O)[O-])ccc6F)c6ccc([nH]6)c(-c6cc(S(=O)(=O)[O-])ccc6F)c6nc(c(-c7cc(S(=O)(=O)[O-])ccc7F)c7ccc4[nH]7)C=C6)C=C5)cc3)c2)O1
REMARK SMILES IDX 17 1 16 2 15 3 13 4 14 5 12 7 8 8 9 9 86 10 10 11 11 12 7 13
REMARK SMILES IDX 6 14 5 15 1 16 2 17 3 18 87 19 4 20 18 22 19 23 20 24 21 25
REMARK SMILES IDX 22 27 23 28 24 29 85 30 25 31 84 32 26 33 27 34 28 35 78 36
REMARK SMILES IDX 29 37 83 38 77 39 79 40 30 41 82 42 76 43 75 44 31 46 63 47
REMARK SMILES IDX 43 48 62 49 44 50 47 51 61 52 80 53 45 54 46 55 60 57 81 58
REMARK SMILES IDX 48 59 32 60 33 61 41 62 34 63 40 64 42 65 39 66 35 67 36 68
REMARK SMILES IDX 37 69 38 70 64 71 65 72 73 73 66 74 72 75 74 76 71 77 67 78
REMARK SMILES IDX 68 79 69 80 70 81 49 82 50 83 58 84 51 85 57 86 59 87 56 88
REMARK SMILES IDX 52 89 53 90 54 91 55 92
REMARK H PARENT 15 6 3 21 20 26 79 45 47 56
REMARK Flexibility Score: inf
ROOT
ATOM      1  C   UNL A   1      31.875  27.775  26.455  1.00  0.00     0.023 C 
ENDROOT
BRANCH   1   2
ATOM      2  C   UNL A   1      31.038  26.791  25.635  1.00  0.00     0.116 C 
BRANCH   2   3
ATOM      3  N   UNL A   1      30.606  25.705  26.492  1.00  0.00    -0.351 N 
ATOM      4  C   UNL A   1      30.701  24.337  26.375  1.00  0.00     0.269 C 
ATOM      5  O   UNL A   1      30.120  23.662  27.226  1.00  0.00    -0.268 OA
ATOM      6  H   UNL A   1      30.161  26.003  27.318  1.00  0.00     0.163 HD
BRANCH   4   7
ATOM      7  C   UNL A   1      31.539  23.659  25.325  1.00  0.00     0.129 A 
ATOM      8  C   UNL A   1      33.248  22.162  24.595  1.00  0.00     0.011 A 
ATOM      9  C   UNL A   1      32.612  22.086  23.361  1.00  0.00     0.035 A 
ATOM     10  C   UNL A   1      32.729  22.995  25.584  1.00  0.00     0.049 A 
ATOM     11  C   UNL A   1      31.523  22.902  23.136  1.00  0.00     0.113 A 
ATOM     12  N   UNL A   1      30.975  23.674  24.087  1.00  0.00    -0.251 NA
BRANCH   8  13
ATOM     13  S   UNL A   1      34.586  21.046  24.964  1.00  0.00    -0.122 SA
BRANCH  13  14
ATOM     14  C   UNL A   1      33.718  19.447  25.173  1.00  0.00     0.122 C 
BRANCH  14  15
ATOM     15  C   UNL A   1      34.019  18.346  24.146  1.00  0.00     0.208 C 
ATOM     16  O   UNL A   1      34.143  15.090  25.293  1.00  0.00    -0.225 OA
ATOM     17  C   UNL A   1      33.905  16.152  24.739  1.00  0.00     0.407 C 
ATOM     18  N   UNL A   1      32.782  16.417  24.018  1.00  0.00    -0.318 N 
ATOM     19  O   UNL A   1      34.726  17.241  24.741  1.00  0.00    -0.443 OA
ATOM     20  C   UNL A   1      32.810  17.727  23.472  1.00  0.00     0.165 C 
ATOM     21  H   UNL A   1      32.042  15.779  23.889  1.00  0.00     0.167 HD
ENDBRANCH  14  15
ENDBRANCH  13  14
ENDBRANCH   8  13
ENDBRANCH   4   7
ENDBRANCH   2   3
ENDBRANCH   1   2
BRANCH   1  22
ATOM     22  C   UNL A   1      33.371  27.444  26.457  1.00  0.00     0.023 C 
BRANCH  22  23
ATOM     23  C   UNL A   1      34.270  28.589  26.003  1.00  0.00     0.116 C 
BRANCH  23  24
ATOM     24  N   UNL A   1      33.777  29.893  26.418  1.00  0.00    -0.352 N 
ATOM     25  C   UNL A   1      34.286  30.726  27.383  1.00  0.00     0.251 C 
ATOM     26  H   UNL A   1      32.976  30.220  25.946  1.00  0.00     0.163 HD
ATOM     27  O   UNL A   1      33.664  31.727  27.722  1.00  0.00    -0.269 OA
BRANCH  25  28
ATOM     28  C   UNL A   1      35.564  30.369  28.027  1.00  0.00     0.039 A 
ATOM     29  C   UNL A   1      35.538  29.681  29.240  1.00  0.00     0.014 A 
ATOM     30  C   UNL A   1      36.778  30.662  27.400  1.00  0.00     0.014 A 
ATOM     31  C   UNL A   1      36.735  29.234  29.796  1.00  0.00     0.010 A 
ATOM     32  C   UNL A   1      37.960  30.139  27.911  1.00  0.00     0.010 A 
ATOM     33  C   UNL A   1      37.952  29.424  29.116  1.00  0.00    -0.014 A 
BRANCH  33  34
ATOM     34  C   UNL A   1      39.220  28.880  29.666  1.00  0.00     0.031 A 
ATOM     35  C   UNL A   1      39.803  29.455  30.928  1.00  0.00     0.074 A 
ATOM     36  C   UNL A   1      39.858  27.891  29.007  1.00  0.00     0.049 A 
ATOM     37  N   UNL A   1      40.900  29.119  31.558  1.00  0.00    -0.248 NA
ATOM     38  C   UNL A   1      39.074  30.571  31.549  1.00  0.00     0.031 C 
ATOM     39  C   UNL A   1      39.411  27.293  27.746  1.00  0.00     0.029 A 
ATOM     40  N   UNL A   1      41.011  27.212  29.305  1.00  0.00    -0.354 N 
ATOM     41  C   UNL A   1      40.992  29.983  32.644  1.00  0.00     0.074 A 
ATOM     42  C   UNL A   1      39.882  30.905  32.541  1.00  0.00     0.031 C 
ATOM     43  C   UNL A   1      40.255  26.306  27.405  1.00  0.00     0.029 A 
ATOM     44  C   UNL A   1      41.329  26.234  28.389  1.00  0.00     0.049 A 
ATOM     45  H   UNL A   1      41.560  27.404  30.099  1.00  0.00     0.167 HD
ATOM     46  C   UNL A   1      41.902  29.987  33.649  1.00  0.00     0.034 A 
ATOM     47  C   UNL A   1      42.371  25.380  28.345  1.00  0.00     0.034 A 
ATOM     48  C   UNL A   1      43.001  29.055  33.733  1.00  0.00     0.049 A 
ATOM     49  C   UNL A   1      43.389  25.426  29.458  1.00  0.00     0.074 A 
ATOM     50  C   UNL A   1      43.954  28.936  34.730  1.00  0.00     0.029 A 
ATOM     51  N   UNL A   1      43.303  28.090  32.779  1.00  0.00    -0.354 N 
ATOM     52  N   UNL A   1      43.426  26.209  30.513  1.00  0.00    -0.248 NA
ATOM     53  C   UNL A   1      44.493  24.464  29.382  1.00  0.00     0.031 C 
ATOM     54  C   UNL A   1      44.876  27.959  34.340  1.00  0.00     0.029 A 
ATOM     55  C   UNL A   1      44.448  27.399  33.147  1.00  0.00     0.049 A 
ATOM     56  H   UNL A   1      42.780  27.922  31.963  1.00  0.00     0.167 HD
ATOM     57  C   UNL A   1      44.543  25.809  31.242  1.00  0.00     0.074 A 
ATOM     58  C   UNL A   1      45.134  24.702  30.517  1.00  0.00     0.031 C 
ATOM     59  C   UNL A   1      45.035  26.306  32.406  1.00  0.00     0.034 A 
BRANCH  46  60
ATOM     60  C   UNL A   1      41.756  31.046  34.717  1.00  0.00     0.023 A 
ATOM     61  C   UNL A   1      40.651  31.073  35.586  1.00  0.00     0.031 A 
ATOM     62  C   UNL A   1      42.724  32.057  34.855  1.00  0.00     0.131 A 
ATOM     63  C   UNL A   1      40.501  32.129  36.498  1.00  0.00     0.055 A 
ATOM     64  C   UNL A   1      42.614  33.054  35.826  1.00  0.00     0.041 A 
ATOM     65  F   UNL A   1      43.789  32.100  34.039  1.00  0.00    -0.206 F 
ATOM     66  C   UNL A   1      41.489  33.104  36.644  1.00  0.00     0.022 A 
BRANCH  63  67
ATOM     67  S   UNL A   1      38.925  32.294  37.380  1.00  0.00     0.124 S 
ATOM     68  O   UNL A   1      39.377  32.558  38.744  1.00  0.00    -0.237 OA
ATOM     69  O   UNL A   1      38.291  33.410  36.690  1.00  0.00    -0.237 OA
ATOM     70  O   UNL A   1      38.285  30.994  37.185  1.00  0.00    -0.744 OA
ENDBRANCH  63  67
ENDBRANCH  46  60
BRANCH  47  71
ATOM     71  C   UNL A   1      42.518  24.416  27.215  1.00  0.00     0.023 A 
ATOM     72  C   UNL A   1      41.930  23.143  27.267  1.00  0.00     0.031 A 
ATOM     73  C   UNL A   1      43.291  24.738  26.085  1.00  0.00     0.131 A 
ATOM     74  C   UNL A   1      42.170  22.218  26.237  1.00  0.00     0.055 A 
ATOM     75  C   UNL A   1      43.474  23.838  25.035  1.00  0.00     0.041 A 
ATOM     76  F   UNL A   1      43.875  25.943  25.981  1.00  0.00    -0.206 F 
ATOM     77  C   UNL A   1      42.925  22.563  25.114  1.00  0.00     0.022 A 
BRANCH  74  78
ATOM     78  S   UNL A   1      41.565  20.519  26.437  1.00  0.00     0.124 S 
ATOM     79  O   UNL A   1      40.143  20.675  26.160  1.00  0.00    -0.237 OA
ATOM     80  O   UNL A   1      42.343  19.802  25.432  1.00  0.00    -0.237 OA
ATOM     81  O   UNL A   1      41.901  20.201  27.824  1.00  0.00    -0.744 OA
ENDBRANCH  74  78
ENDBRANCH  47  71
BRANCH  59  82
ATOM     82  C   UNL A   1      46.252  25.622  32.985  1.00  0.00     0.023 A 
ATOM     83  C   UNL A   1      47.554  25.933  32.555  1.00  0.00     0.031 A 
ATOM     84  C   UNL A   1      46.102  24.625  33.966  1.00  0.00     0.131 A 
ATOM     85  C   UNL A   1      48.646  25.204  33.049  1.00  0.00     0.055 A 
ATOM     86  C   UNL A   1      47.199  23.958  34.510  1.00  0.00     0.041 A 
ATOM     87  F   UNL A   1      44.883  24.282  34.412  1.00  0.00    -0.206 F 
ATOM     88  C   UNL A   1      48.479  24.233  34.040  1.00  0.00     0.022 A 
BRANCH  85  89
ATOM     89  S   UNL A   1      50.273  25.455  32.288  1.00  0.00     0.124 S 
ATOM     90  O   UNL A   1      50.563  24.129  31.751  1.00  0.00    -0.237 OA
ATOM     91  O   UNL A   1      50.000  26.496  31.303  1.00  0.00    -0.237 OA
ATOM     92  O   UNL A   1      51.116  25.868  33.409  1.00  0.00    -0.744 OA
ENDBRANCH  85  89
ENDBRANCH  59  82
ENDBRANCH  33  34
ENDBRANCH  25  28
ENDBRANCH  23  24
ENDBRANCH  22  23
ENDBRANCH   1  22
TORSDOF 17
ENDMDL
MODEL 3
REMARK VINA RESULT:     -11.3      3.413      9.057
REMARK SMILES O=C1NC[C@@H](CSc2ccnc(C(=O)NCCCCNC(=O)c3ccc(-c4c5nc(c(-c6cc(S(=O)(=O)[O-])ccc6F)c6ccc([nH]6)c(-c6cc(S(=O)(=O)[O-])ccc6F)c6nc(c(-c7cc(S(=O)(=O)[O-])ccc7F)c7ccc4[nH]7)C=C6)C=C5)cc3)c2)O1
REMARK SMILES IDX 17 1 16 2 15 3 13 4 14 5 12 7 8 8 9 9 86 10 10 11 11 12 7 13
REMARK SMILES IDX 6 14 5 15 1 16 2 17 3 18 87 19 4 20 18 22 19 23 20 24 21 25
REMARK SMILES IDX 22 27 23 28 24 29 85 30 25 31 84 32 26 33 27 34 28 35 78 36
REMARK SMILES IDX 29 37 83 38 77 39 79 40 30 41 82 42 76 43 75 44 31 46 63 47
REMARK SMILES IDX 43 48 62 49 44 50 47 51 61 52 80 53 45 54 46 55 60 57 81 58
REMARK SMILES IDX 48 59 32 60 33 61 41 62 34 63 40 64 42 65 39 66 35 67 36 68
REMARK SMILES IDX 37 69 38 70 64 71 65 72 73 73 66 74 72 75 74 76 71 77 67 78
REMARK SMILES IDX 68 79 69 80 70 81 49 82 50 83 58 84 51 85 57 86 59 87 56 88
REMARK SMILES IDX 52 89 53 90 54 91 55 92
REMARK H PARENT 15 6 3 21 20 26 79 45 47 56
REMARK Flexibility Score: inf
ROOT
ATOM      1  C   UNL A   1      31.516  27.633  26.691  1.00  0.00     0.023 C 
ENDROOT
BRANCH   1   2
ATOM      2  C   UNL A   1      31.128  26.460  25.789  1.00  0.00     0.116 C 
BRANCH   2   3
ATOM      3  N   UNL A   1      30.645  25.367  26.609  1.00  0.00    -0.351 N 
ATOM      4  C   UNL A   1      30.719  24.000  26.471  1.00  0.00     0.269 C 
ATOM      5  O   UNL A   1      30.095  23.322  27.288  1.00  0.00    -0.268 OA
ATOM      6  H   UNL A   1      30.174  25.659  27.423  1.00  0.00     0.163 HD
BRANCH   4   7
ATOM      7  C   UNL A   1      31.584  23.325  25.441  1.00  0.00     0.129 A 
ATOM      8  C   UNL A   1      33.202  21.721  24.730  1.00  0.00     0.011 A 
ATOM      9  C   UNL A   1      32.682  21.813  23.443  1.00  0.00     0.035 A 
ATOM     10  C   UNL A   1      32.674  22.521  25.741  1.00  0.00     0.049 A 
ATOM     11  C   UNL A   1      31.704  22.753  23.199  1.00  0.00     0.113 A 
ATOM     12  N   UNL A   1      31.144  23.499  24.165  1.00  0.00    -0.251 NA
BRANCH   8  13
ATOM     13  S   UNL A   1      34.384  20.445  25.111  1.00  0.00    -0.122 SA
BRANCH  13  14
ATOM     14  C   UNL A   1      35.683  21.371  26.012  1.00  0.00     0.122 C 
BRANCH  14  15
ATOM     15  C   UNL A   1      36.674  22.187  25.170  1.00  0.00     0.208 C 
ATOM     16  O   UNL A   1      38.461  24.669  26.777  1.00  0.00    -0.225 OA
ATOM     17  C   UNL A   1      38.064  23.692  26.161  1.00  0.00     0.407 C 
ATOM     18  N   UNL A   1      38.823  22.601  25.864  1.00  0.00    -0.318 N 
ATOM     19  O   UNL A   1      36.805  23.535  25.660  1.00  0.00    -0.443 OA
ATOM     20  C   UNL A   1      38.089  21.646  25.113  1.00  0.00     0.165 C 
ATOM     21  H   UNL A   1      39.763  22.488  26.136  1.00  0.00     0.167 HD
ENDBRANCH  14  15
ENDBRANCH  13  14
ENDBRANCH   8  13
ENDBRANCH   4   7
ENDBRANCH   2   3
ENDBRANCH   1   2
BRANCH   1  22
ATOM     22  C   UNL A   1      31.547  28.978  25.957  1.00  0.00     0.023 C 
BRANCH  22  23
ATOM     23  C   UNL A   1      32.835  29.770  26.149  1.00  0.00     0.116 C 
BRANCH  23  24
ATOM     24  N   UNL A   1      32.595  31.171  26.461  1.00  0.00    -0.352 N 
ATOM     25  C   UNL A   1      33.335  32.001  27.267  1.00  0.00     0.251 C 
ATOM     26  H   UNL A   1      31.802  31.575  26.040  1.00  0.00     0.163 HD
ATOM     27  O   UNL A   1      32.914  33.117  27.550  1.00  0.00    -0.269 OA
BRANCH  25  28
ATOM     28  C   UNL A   1      34.613  31.507  27.812  1.00  0.00     0.039 A 
ATOM     29  C   UNL A   1      35.648  32.415  28.031  1.00  0.00     0.014 A 
ATOM     30  C   UNL A   1      34.761  30.161  28.159  1.00  0.00     0.014 A 
ATOM     31  C   UNL A   1      36.815  31.981  28.657  1.00  0.00     0.010 A 
ATOM     32  C   UNL A   1      35.888  29.751  28.861  1.00  0.00     0.010 A 
ATOM     33  C   UNL A   1      36.930  30.656  29.113  1.00  0.00    -0.014 A 
BRANCH  33  34
ATOM     34  C   UNL A   1      38.140  30.209  29.849  1.00  0.00     0.031 A 
ATOM     35  C   UNL A   1      38.400  30.704  31.245  1.00  0.00     0.074 A 
ATOM     36  C   UNL A   1      39.016  29.382  29.243  1.00  0.00     0.049 A 
ATOM     37  N   UNL A   1      39.400  30.433  32.043  1.00  0.00    -0.248 NA
ATOM     38  C   UNL A   1      37.425  31.651  31.806  1.00  0.00     0.031 C 
ATOM     39  C   UNL A   1      38.892  28.879  27.872  1.00  0.00     0.029 A 
ATOM     40  N   UNL A   1      40.178  28.814  29.698  1.00  0.00    -0.354 N 
ATOM     41  C   UNL A   1      39.175  31.175  33.198  1.00  0.00     0.074 A 
ATOM     42  C   UNL A   1      37.986  31.966  32.962  1.00  0.00     0.031 C 
ATOM     43  C   UNL A   1      39.910  28.043  27.617  1.00  0.00     0.029 A 
ATOM     44  C   UNL A   1      40.788  27.989  28.781  1.00  0.00     0.049 A 
ATOM     45  H   UNL A   1      40.543  28.981  30.597  1.00  0.00     0.167 HD
ATOM     46  C   UNL A   1      39.878  31.175  34.357  1.00  0.00     0.034 A 
ATOM     47  C   UNL A   1      41.928  27.274  28.866  1.00  0.00     0.034 A 
ATOM     48  C   UNL A   1      41.061  30.376  34.572  1.00  0.00     0.049 A 
ATOM     49  C   UNL A   1      42.711  27.317  30.154  1.00  0.00     0.074 A 
ATOM     50  C   UNL A   1      41.824  30.261  35.720  1.00  0.00     0.029 A 
ATOM     51  N   UNL A   1      41.660  29.566  33.614  1.00  0.00    -0.354 N 
ATOM     52  N   UNL A   1      42.449  27.976  31.261  1.00  0.00    -0.248 NA
ATOM     53  C   UNL A   1      43.932  26.506  30.211  1.00  0.00     0.031 C 
ATOM     54  C   UNL A   1      42.927  29.450  35.433  1.00  0.00     0.029 A 
ATOM     55  C   UNL A   1      42.803  28.979  34.136  1.00  0.00     0.049 A 
ATOM     56  H   UNL A   1      41.322  29.429  32.700  1.00  0.00     0.167 HD
ATOM     57  C   UNL A   1      43.459  27.632  32.155  1.00  0.00     0.074 A 
ATOM     58  C   UNL A   1      44.318  26.691  31.465  1.00  0.00     0.031 C 
ATOM     59  C   UNL A   1      43.660  28.053  33.431  1.00  0.00     0.034 A 
BRANCH  46  60
ATOM     60  C   UNL A   1      39.398  32.084  35.464  1.00  0.00     0.023 A 
ATOM     61  C   UNL A   1      39.842  33.414  35.575  1.00  0.00     0.031 A 
ATOM     62  C   UNL A   1      38.498  31.611  36.436  1.00  0.00     0.131 A 
ATOM     63  C   UNL A   1      39.451  34.196  36.673  1.00  0.00     0.055 A 
ATOM     64  C   UNL A   1      38.042  32.423  37.475  1.00  0.00     0.041 A 
ATOM     65  F   UNL A   1      38.057  30.344  36.399  1.00  0.00    -0.206 F 
ATOM     66  C   UNL A   1      38.530  33.720  37.608  1.00  0.00     0.022 A 
BRANCH  63  67
ATOM     67  S   UNL A   1      40.280  35.786  36.942  1.00  0.00     0.124 S 
ATOM     68  O   UNL A   1      39.756  36.583  35.834  1.00  0.00    -0.237 OA
ATOM     69  O   UNL A   1      39.818  36.162  38.272  1.00  0.00    -0.237 OA
ATOM     70  O   UNL A   1      41.699  35.455  36.843  1.00  0.00    -0.744 OA
ENDBRANCH  63  67
ENDBRANCH  46  60
BRANCH  47  71
ATOM     71  C   UNL A   1      42.407  26.466  27.706  1.00  0.00     0.023 A 
ATOM     72  C   UNL A   1      42.193  25.080  27.650  1.00  0.00     0.031 A 
ATOM     73  C   UNL A   1      43.132  27.063  26.658  1.00  0.00     0.131 A 
ATOM     74  C   UNL A   1      42.745  24.329  26.600  1.00  0.00     0.055 A 
ATOM     75  C   UNL A   1      43.624  26.320  25.584  1.00  0.00     0.041 A 
ATOM     76  F   UNL A   1      43.365  28.385  26.659  1.00  0.00    -0.206 F 
ATOM     77  C   UNL A   1      43.445  24.942  25.559  1.00  0.00     0.022 A 
BRANCH  74  78
ATOM     78  S   UNL A   1      42.624  22.519  26.669  1.00  0.00     0.124 S 
ATOM     79  O   UNL A   1      41.844  22.228  25.472  1.00  0.00    -0.237 OA
ATOM     80  O   UNL A   1      44.027  22.121  26.636  1.00  0.00    -0.237 OA
ATOM     81  O   UNL A   1      41.938  22.274  27.937  1.00  0.00    -0.744 OA
ENDBRANCH  74  78
ENDBRANCH  47  71
BRANCH  59  82
ATOM     82  C   UNL A   1      44.833  27.456  34.173  1.00  0.00     0.023 A 
ATOM     83  C   UNL A   1      44.749  26.209  34.817  1.00  0.00     0.031 A 
ATOM     84  C   UNL A   1      46.048  28.161  34.256  1.00  0.00     0.131 A 
ATOM     85  C   UNL A   1      45.831  25.739  35.575  1.00  0.00     0.055 A 
ATOM     86  C   UNL A   1      47.147  27.651  34.948  1.00  0.00     0.041 A 
ATOM     87  F   UNL A   1      46.187  29.358  33.666  1.00  0.00    -0.206 F 
ATOM     88  C   UNL A   1      47.037  26.442  35.628  1.00  0.00     0.022 A 
BRANCH  85  89
ATOM     89  S   UNL A   1      45.598  24.258  36.595  1.00  0.00     0.124 S 
ATOM     90  O   UNL A   1      44.323  23.748  36.100  1.00  0.00    -0.237 OA
ATOM     91  O   UNL A   1      46.775  23.462  36.264  1.00  0.00    -0.237 OA
ATOM     92  O   UNL A   1      45.568  24.782  37.960  1.00  0.00    -0.744 OA
ENDBRANCH  85  89
ENDBRANCH  59  82
ENDBRANCH  33  34
ENDBRANCH  25  28
ENDBRANCH  23  24
ENDBRANCH  22  23
ENDBRANCH   1  22
TORSDOF 17
ENDMDL
