MODEL 1
REMARK VINA RESULT:     -12.2      0.000      0.000
REMARK SMILES Cc1nn(C)c(=O)c(C(=O)N2CCCC[C@H]2C(=O)NCCCCNC(=O)c2ccc(-c3c4nc(c(-c5cc(S(=O)(=O)[O-])ccc5F)c5ccc([nH]5)c(-c5cc(S(=O)(=O)[O-])ccc5F)c5nc(c(-c6cc(S(=O)(=O)[O-])ccc6F)c6ccc3[nH]6)C=C5)C=C4)cc2)c1C
REMARK SMILES IDX 22 1 21 2 20 3 19 4 17 5 18 6 16 8 11 9 12 10 13 11 15 12
REMARK SMILES IDX 14 13 9 14 10 15 8 16 1 17 2 18 3 19 90 20 4 21 91 22 5 23
REMARK SMILES IDX 6 24 7 25 23 26 24 27 25 28 26 30 27 31 28 32 89 33 29 34
REMARK SMILES IDX 88 35 30 36 31 37 32 38 82 39 33 40 87 41 81 42 83 43 34 44
REMARK SMILES IDX 86 45 80 46 79 47 35 49 67 50 47 51 66 52 48 53 51 54 65 55
REMARK SMILES IDX 84 56 49 57 50 58 64 60 85 61 52 62 36 63 37 64 45 65 38 66
REMARK SMILES IDX 44 67 46 68 43 69 39 70 40 71 41 72 42 73 68 74 69 75 77 76
REMARK SMILES IDX 70 77 76 78 78 79 75 80 71 81 72 82 73 83 74 84 53 85 54 86
REMARK SMILES IDX 62 87 55 88 61 89 63 90 60 91 56 92 57 93 58 94 59 95
REMARK H PARENT 19 7 24 29 83 48 51 59
REMARK Flexibility Score: inf
ROOT
ATOM      1  C   UNL A   1      36.715  21.817  24.073  1.00  0.00     0.023 C 
ENDROOT
BRANCH   1   2
ATOM      2  C   UNL A   1      36.508  23.268  23.674  1.00  0.00     0.023 C 
BRANCH   2   3
ATOM      3  C   UNL A   1      35.225  23.565  22.902  1.00  0.00     0.116 C 
BRANCH   3   4
ATOM      4  N   UNL A   1      34.032  22.865  23.355  1.00  0.00    -0.354 N 
ATOM      5  C   UNL A   1      33.115  23.070  24.346  1.00  0.00     0.242 C 
ATOM      6  O   UNL A   1      32.156  22.285  24.340  1.00  0.00    -0.273 OA
ATOM      7  H   UNL A   1      33.842  22.058  22.824  1.00  0.00     0.163 HD
BRANCH   5   8
ATOM      8  C   UNL A   1      33.291  24.057  25.562  1.00  0.00     0.174 C 
ATOM      9  N   UNL A   1      32.093  24.392  26.320  1.00  0.00    -0.326 N 
ATOM     10  C   UNL A   1      31.605  23.309  27.222  1.00  0.00     0.120 C 
ATOM     11  C   UNL A   1      32.672  22.540  28.002  1.00  0.00     0.022 C 
ATOM     12  C   UNL A   1      34.386  23.486  26.486  1.00  0.00     0.035 C 
ATOM     13  C   UNL A   1      33.899  22.214  27.168  1.00  0.00     0.004 C 
BRANCH   9  14
ATOM     14  C   UNL A   1      31.234  25.474  26.096  1.00  0.00     0.260 C 
ATOM     15  O   UNL A   1      30.079  25.377  26.550  1.00  0.00    -0.269 OA
BRANCH  14  16
ATOM     16  C   UNL A   1      31.484  26.776  25.310  1.00  0.00     0.111 A 
ATOM     17  C   UNL A   1      30.380  29.060  22.452  1.00  0.00     0.069 C 
ATOM     18  C   UNL A   1      31.002  28.603  23.764  1.00  0.00     0.062 A 
ATOM     19  N   UNL A   1      31.181  29.545  24.623  1.00  0.00    -0.175 NA
ATOM     20  C   UNL A   1      31.226  27.132  24.024  1.00  0.00    -0.010 A 
ATOM     21  N   UNL A   1      31.654  29.205  25.843  1.00  0.00    -0.232 N 
ATOM     22  C   UNL A   1      30.907  26.295  22.833  1.00  0.00     0.047 C 
ATOM     23  C   UNL A   1      31.882  30.332  26.731  1.00  0.00     0.178 C 
ATOM     24  C   UNL A   1      31.939  27.906  26.229  1.00  0.00     0.279 A 
ATOM     25  O   UNL A   1      32.574  27.654  27.254  1.00  0.00    -0.267 OA
ENDBRANCH  14  16
ENDBRANCH   9  14
ENDBRANCH   5   8
ENDBRANCH   3   4
ENDBRANCH   2   3
ENDBRANCH   1   2
BRANCH   1  26
ATOM     26  C   UNL A   1      37.144  21.628  25.516  1.00  0.00     0.116 C 
BRANCH  26  27
ATOM     27  N   UNL A   1      38.193  20.628  25.678  1.00  0.00    -0.352 N 
ATOM     28  C   UNL A   1      39.463  20.784  26.172  1.00  0.00     0.251 C 
ATOM     29  H   UNL A   1      37.958  19.716  25.392  1.00  0.00     0.163 HD
ATOM     30  O   UNL A   1      40.253  19.846  26.164  1.00  0.00    -0.269 OA
BRANCH  28  31
ATOM     31  C   UNL A   1      39.866  22.114  26.658  1.00  0.00     0.039 A 
ATOM     32  C   UNL A   1      40.872  22.198  27.620  1.00  0.00     0.014 A 
ATOM     33  C   UNL A   1      39.317  23.264  26.085  1.00  0.00     0.014 A 
ATOM     34  C   UNL A   1      41.381  23.449  27.960  1.00  0.00     0.010 A 
ATOM     35  C   UNL A   1      39.893  24.497  26.353  1.00  0.00     0.010 A 
ATOM     36  C   UNL A   1      40.922  24.600  27.302  1.00  0.00    -0.014 A 
BRANCH  36  37
ATOM     37  C   UNL A   1      41.464  25.939  27.628  1.00  0.00     0.031 A 
ATOM     38  C   UNL A   1      42.844  26.300  27.155  1.00  0.00     0.074 A 
ATOM     39  C   UNL A   1      40.742  26.794  28.377  1.00  0.00     0.049 A 
ATOM     40  N   UNL A   1      43.548  27.370  27.406  1.00  0.00    -0.248 NA
ATOM     41  C   UNL A   1      43.538  25.308  26.313  1.00  0.00     0.031 C 
ATOM     42  C   UNL A   1      39.405  26.532  28.916  1.00  0.00     0.029 A 
ATOM     43  N   UNL A   1      41.031  28.062  28.814  1.00  0.00    -0.354 N 
ATOM     44  C   UNL A   1      44.768  27.174  26.770  1.00  0.00     0.074 A 
ATOM     45  C   UNL A   1      44.734  25.857  26.176  1.00  0.00     0.031 C 
ATOM     46  C   UNL A   1      38.976  27.621  29.576  1.00  0.00     0.029 A 
ATOM     47  C   UNL A   1      40.021  28.639  29.546  1.00  0.00     0.049 A 
ATOM     48  H   UNL A   1      41.883  28.516  28.621  1.00  0.00     0.167 HD
ATOM     49  C   UNL A   1      45.810  28.031  26.664  1.00  0.00     0.034 A 
ATOM     50  C   UNL A   1      39.951  29.851  30.130  1.00  0.00     0.034 A 
ATOM     51  C   UNL A   1      45.810  29.356  27.220  1.00  0.00     0.049 A 
ATOM     52  C   UNL A   1      41.129  30.782  30.006  1.00  0.00     0.074 A 
ATOM     53  C   UNL A   1      46.790  30.328  27.126  1.00  0.00     0.029 A 
ATOM     54  N   UNL A   1      44.774  29.900  27.966  1.00  0.00    -0.354 N 
ATOM     55  N   UNL A   1      42.272  30.585  29.391  1.00  0.00    -0.248 NA
ATOM     56  C   UNL A   1      41.009  32.096  30.651  1.00  0.00     0.031 C 
ATOM     57  C   UNL A   1      46.367  31.442  27.857  1.00  0.00     0.029 A 
ATOM     58  C   UNL A   1      45.100  31.187  28.358  1.00  0.00     0.049 A 
ATOM     59  H   UNL A   1      43.932  29.440  28.185  1.00  0.00     0.167 HD
ATOM     60  C   UNL A   1      43.002  31.755  29.566  1.00  0.00     0.074 A 
ATOM     61  C   UNL A   1      42.166  32.659  30.330  1.00  0.00     0.031 C 
ATOM     62  C   UNL A   1      44.252  32.059  29.133  1.00  0.00     0.034 A 
BRANCH  49  63
ATOM     63  C   UNL A   1      47.027  27.557  25.919  1.00  0.00     0.023 A 
ATOM     64  C   UNL A   1      47.218  27.857  24.560  1.00  0.00     0.031 A 
ATOM     65  C   UNL A   1      48.013  26.800  26.576  1.00  0.00     0.131 A 
ATOM     66  C   UNL A   1      48.344  27.362  23.887  1.00  0.00     0.055 A 
ATOM     67  C   UNL A   1      49.164  26.366  25.918  1.00  0.00     0.041 A 
ATOM     68  F   UNL A   1      47.867  26.466  27.869  1.00  0.00    -0.206 F 
ATOM     69  C   UNL A   1      49.331  26.641  24.564  1.00  0.00     0.022 A 
BRANCH  66  70
ATOM     70  S   UNL A   1      48.466  27.612  22.096  1.00  0.00     0.124 S 
ATOM     71  O   UNL A   1      47.160  28.194  21.794  1.00  0.00    -0.237 OA
ATOM     72  O   UNL A   1      49.607  28.512  21.976  1.00  0.00    -0.237 OA
ATOM     73  O   UNL A   1      48.678  26.263  21.577  1.00  0.00    -0.744 OA
ENDBRANCH  66  70
ENDBRANCH  49  63
BRANCH  50  74
ATOM     74  C   UNL A   1      38.734  30.253  30.887  1.00  0.00     0.023 A 
ATOM     75  C   UNL A   1      37.714  30.998  30.271  1.00  0.00     0.031 A 
ATOM     76  C   UNL A   1      38.577  29.912  32.242  1.00  0.00     0.131 A 
ATOM     77  C   UNL A   1      36.596  31.403  31.018  1.00  0.00     0.055 A 
ATOM     78  C   UNL A   1      37.445  30.284  32.970  1.00  0.00     0.041 A 
ATOM     79  F   UNL A   1      39.518  29.193  32.874  1.00  0.00    -0.206 F 
ATOM     80  C   UNL A   1      36.450  31.042  32.359  1.00  0.00     0.022 A 
BRANCH  77  81
ATOM     81  S   UNL A   1      35.347  32.446  30.217  1.00  0.00     0.124 S 
ATOM     82  O   UNL A   1      34.983  31.637  29.060  1.00  0.00    -0.237 OA
ATOM     83  O   UNL A   1      34.336  32.567  31.261  1.00  0.00    -0.237 OA
ATOM     84  O   UNL A   1      36.076  33.677  29.914  1.00  0.00    -0.744 OA
ENDBRANCH  77  81
ENDBRANCH  50  74
BRANCH  62  85
ATOM     85  C   UNL A   1      44.782  33.426  29.465  1.00  0.00     0.023 A 
ATOM     86  C   UNL A   1      44.598  34.510  28.591  1.00  0.00     0.031 A 
ATOM     87  C   UNL A   1      45.434  33.656  30.689  1.00  0.00     0.131 A 
ATOM     88  C   UNL A   1      45.088  35.774  28.941  1.00  0.00     0.055 A 
ATOM     89  C   UNL A   1      45.878  34.926  31.053  1.00  0.00     0.041 A 
ATOM     90  F   UNL A   1      45.627  32.652  31.558  1.00  0.00    -0.206 F 
ATOM     91  C   UNL A   1      45.712  35.994  30.174  1.00  0.00     0.022 A 
BRANCH  88  92
ATOM     92  S   UNL A   1      44.932  37.129  27.746  1.00  0.00     0.124 S 
ATOM     93  O   UNL A   1      45.492  36.533  26.539  1.00  0.00    -0.237 OA
ATOM     94  O   UNL A   1      43.492  37.369  27.729  1.00  0.00    -0.237 OA
ATOM     95  O   UNL A   1      45.730  38.201  28.337  1.00  0.00    -0.744 OA
ENDBRANCH  88  92
ENDBRANCH  62  85
ENDBRANCH  36  37
ENDBRANCH  28  31
ENDBRANCH  26  27
ENDBRANCH   1  26
TORSDOF 16
ENDMDL
MODEL 2
REMARK VINA RESULT:     -12.2      0.907      7.609
REMARK SMILES Cc1nn(C)c(=O)c(C(=O)N2CCCC[C@H]2C(=O)NCCCCNC(=O)c2ccc(-c3c4nc(c(-c5cc(S(=O)(=O)[O-])ccc5F)c5ccc([nH]5)c(-c5cc(S(=O)(=O)[O-])ccc5F)c5nc(c(-c6cc(S(=O)(=O)[O-])ccc6F)c6ccc3[nH]6)C=C5)C=C4)cc2)c1C
REMARK SMILES IDX 22 1 21 2 20 3 19 4 17 5 18 6 16 8 11 9 12 10 13 11 15 12
REMARK SMILES IDX 14 13 9 14 10 15 8 16 1 17 2 18 3 19 90 20 4 21 91 22 5 23
REMARK SMILES IDX 6 24 7 25 23 26 24 27 25 28 26 30 27 31 28 32 89 33 29 34
REMARK SMILES IDX 88 35 30 36 31 37 32 38 82 39 33 40 87 41 81 42 83 43 34 44
REMARK SMILES IDX 86 45 80 46 79 47 35 49 67 50 47 51 66 52 48 53 51 54 65 55
REMARK SMILES IDX 84 56 49 57 50 58 64 60 85 61 52 62 36 63 37 64 45 65 38 66
REMARK SMILES IDX 44 67 46 68 43 69 39 70 40 71 41 72 42 73 68 74 69 75 77 76
REMARK SMILES IDX 70 77 76 78 78 79 75 80 71 81 72 82 73 83 74 84 53 85 54 86
REMARK SMILES IDX 62 87 55 88 61 89 63 90 60 91 56 92 57 93 58 94 59 95
REMARK H PARENT 19 7 24 29 83 48 51 59
REMARK Flexibility Score: inf
ROOT
ATOM      1  C   UNL A   1      35.657  21.889  25.665  1.00  0.00     0.023 C 
ENDROOT
BRANCH   1   2
ATOM      2  C   UNL A   1      35.243  23.100  26.482  1.00  0.00     0.023 C 
BRANCH   2   3
ATOM      3  C   UNL A   1      33.772  23.154  26.889  1.00  0.00     0.116 C 
BRANCH   3   4
ATOM      4  N   UNL A   1      32.941  22.056  26.416  1.00  0.00    -0.354 N 
ATOM      5  C   UNL A   1      32.074  21.887  25.374  1.00  0.00     0.242 C 
ATOM      6  O   UNL A   1      31.632  20.736  25.245  1.00  0.00    -0.273 OA
ATOM      7  H   UNL A   1      33.023  21.250  26.975  1.00  0.00     0.163 HD
BRANCH   5   8
ATOM      8  C   UNL A   1      31.467  23.044  24.494  1.00  0.00     0.174 C 
ATOM      9  N   UNL A   1      31.855  24.407  24.834  1.00  0.00    -0.326 N 
ATOM     10  C   UNL A   1      33.242  24.776  24.429  1.00  0.00     0.120 C 
ATOM     11  C   UNL A   1      33.700  24.296  23.052  1.00  0.00     0.022 C 
ATOM     12  C   UNL A   1      31.779  22.735  23.016  1.00  0.00     0.035 C 
ATOM     13  C   UNL A   1      33.272  22.872  22.746  1.00  0.00     0.004 C 
BRANCH   9  14
ATOM     14  C   UNL A   1      31.189  25.276  25.706  1.00  0.00     0.260 C 
ATOM     15  O   UNL A   1      30.680  24.770  26.722  1.00  0.00    -0.269 OA
BRANCH  14  16
ATOM     16  C   UNL A   1      30.935  26.791  25.574  1.00  0.00     0.111 A 
ATOM     17  C   UNL A   1      32.261  30.328  26.151  1.00  0.00     0.069 C 
ATOM     18  C   UNL A   1      31.472  29.172  25.551  1.00  0.00     0.062 A 
ATOM     19  N   UNL A   1      31.037  29.388  24.360  1.00  0.00    -0.175 NA
ATOM     20  C   UNL A   1      31.376  27.858  26.291  1.00  0.00    -0.010 A 
ATOM     21  N   UNL A   1      30.396  28.378  23.729  1.00  0.00    -0.232 N 
ATOM     22  C   UNL A   1      31.995  27.927  27.644  1.00  0.00     0.047 C 
ATOM     23  C   UNL A   1      29.886  28.723  22.413  1.00  0.00     0.178 C 
ATOM     24  C   UNL A   1      30.198  27.123  24.280  1.00  0.00     0.279 A 
ATOM     25  O   UNL A   1      29.424  26.306  23.779  1.00  0.00    -0.267 OA
ENDBRANCH  14  16
ENDBRANCH   9  14
ENDBRANCH   5   8
ENDBRANCH   3   4
ENDBRANCH   2   3
ENDBRANCH   1   2
BRANCH   1  26
ATOM     26  C   UNL A   1      37.037  22.003  25.045  1.00  0.00     0.116 C 
BRANCH  26  27
ATOM     27  N   UNL A   1      37.899  20.865  25.347  1.00  0.00    -0.352 N 
ATOM     28  C   UNL A   1      39.118  20.852  25.973  1.00  0.00     0.251 C 
ATOM     29  H   UNL A   1      37.559  19.988  25.060  1.00  0.00     0.163 HD
ATOM     30  O   UNL A   1      39.752  19.807  26.076  1.00  0.00    -0.269 OA
BRANCH  28  31
ATOM     31  C   UNL A   1      39.666  22.126  26.467  1.00  0.00     0.039 A 
ATOM     32  C   UNL A   1      40.836  22.102  27.224  1.00  0.00     0.014 A 
ATOM     33  C   UNL A   1      39.074  23.334  26.090  1.00  0.00     0.014 A 
ATOM     34  C   UNL A   1      41.458  23.305  27.549  1.00  0.00     0.010 A 
ATOM     35  C   UNL A   1      39.746  24.523  26.331  1.00  0.00     0.010 A 
ATOM     36  C   UNL A   1      40.937  24.519  27.072  1.00  0.00    -0.014 A 
BRANCH  36  37
ATOM     37  C   UNL A   1      41.593  25.810  27.384  1.00  0.00     0.031 A 
ATOM     38  C   UNL A   1      40.848  26.823  28.207  1.00  0.00     0.074 A 
ATOM     39  C   UNL A   1      42.818  26.079  26.895  1.00  0.00     0.049 A 
ATOM     40  N   UNL A   1      41.189  28.045  28.515  1.00  0.00    -0.248 NA
ATOM     41  C   UNL A   1      39.528  26.419  28.723  1.00  0.00     0.031 C 
ATOM     42  C   UNL A   1      43.616  25.178  26.059  1.00  0.00     0.029 A 
ATOM     43  N   UNL A   1      43.611  27.190  27.033  1.00  0.00    -0.354 N 
ATOM     44  C   UNL A   1      40.123  28.559  29.245  1.00  0.00     0.074 A 
ATOM     45  C   UNL A   1      39.098  27.541  29.278  1.00  0.00     0.031 C 
ATOM     46  C   UNL A   1      44.799  25.758  25.792  1.00  0.00     0.029 A 
ATOM     47  C   UNL A   1      44.827  27.084  26.399  1.00  0.00     0.049 A 
ATOM     48  H   UNL A   1      43.334  27.988  27.538  1.00  0.00     0.167 HD
ATOM     49  C   UNL A   1      40.024  29.760  29.859  1.00  0.00     0.034 A 
ATOM     50  C   UNL A   1      45.844  27.964  26.316  1.00  0.00     0.034 A 
ATOM     51  C   UNL A   1      41.072  30.744  29.857  1.00  0.00     0.049 A 
ATOM     52  C   UNL A   1      45.705  29.298  27.001  1.00  0.00     0.074 A 
ATOM     53  C   UNL A   1      41.100  31.972  30.492  1.00  0.00     0.029 A 
ATOM     54  N   UNL A   1      42.284  30.607  29.194  1.00  0.00    -0.354 N 
ATOM     55  N   UNL A   1      44.693  29.764  27.696  1.00  0.00    -0.248 NA
ATOM     56  C   UNL A   1      46.839  30.224  26.891  1.00  0.00     0.031 C 
ATOM     57  C   UNL A   1      42.308  32.598  30.173  1.00  0.00     0.029 A 
ATOM     58  C   UNL A   1      43.058  31.738  29.387  1.00  0.00     0.049 A 
ATOM     59  H   UNL A   1      42.553  29.822  28.665  1.00  0.00     0.167 HD
ATOM     60  C   UNL A   1      45.076  31.033  28.117  1.00  0.00     0.074 A 
ATOM     61  C   UNL A   1      46.416  31.254  27.610  1.00  0.00     0.031 C 
ATOM     62  C   UNL A   1      44.384  31.936  28.857  1.00  0.00     0.034 A 
BRANCH  49  63
ATOM     63  C   UNL A   1      38.741  30.068  30.581  1.00  0.00     0.023 A 
ATOM     64  C   UNL A   1      37.722  30.822  29.974  1.00  0.00     0.031 A 
ATOM     65  C   UNL A   1      38.531  29.600  31.889  1.00  0.00     0.131 A 
ATOM     66  C   UNL A   1      36.557  31.126  30.692  1.00  0.00     0.055 A 
ATOM     67  C   UNL A   1      37.343  29.850  32.575  1.00  0.00     0.041 A 
ATOM     68  F   UNL A   1      39.483  28.895  32.522  1.00  0.00    -0.206 F 
ATOM     69  C   UNL A   1      36.349  30.623  31.979  1.00  0.00     0.022 A 
BRANCH  66  70
ATOM     70  S   UNL A   1      35.346  32.250  29.949  1.00  0.00     0.124 S 
ATOM     71  O   UNL A   1      36.193  33.377  29.565  1.00  0.00    -0.237 OA
ATOM     72  O   UNL A   1      34.805  31.457  28.851  1.00  0.00    -0.237 OA
ATOM     73  O   UNL A   1      34.415  32.520  31.041  1.00  0.00    -0.744 OA
ENDBRANCH  66  70
ENDBRANCH  49  63
BRANCH  50  74
ATOM     74  C   UNL A   1      47.077  27.618  25.555  1.00  0.00     0.023 A 
ATOM     75  C   UNL A   1      47.165  27.863  24.175  1.00  0.00     0.031 A 
ATOM     76  C   UNL A   1      48.181  27.025  26.194  1.00  0.00     0.131 A 
ATOM     77  C   UNL A   1      48.321  27.488  23.472  1.00  0.00     0.055 A 
ATOM     78  C   UNL A   1      49.343  26.691  25.497  1.00  0.00     0.041 A 
ATOM     79  F   UNL A   1      48.150  26.781  27.514  1.00  0.00    -0.206 F 
ATOM     80  C   UNL A   1      49.414  26.914  24.126  1.00  0.00     0.022 A 
BRANCH  77  81
ATOM     81  S   UNL A   1      48.362  27.728  21.674  1.00  0.00     0.124 S 
ATOM     82  O   UNL A   1      49.463  28.674  21.527  1.00  0.00    -0.237 OA
ATOM     83  O   UNL A   1      48.609  26.374  21.192  1.00  0.00    -0.237 OA
ATOM     84  O   UNL A   1      47.035  28.261  21.373  1.00  0.00    -0.744 OA
ENDBRANCH  77  81
ENDBRANCH  50  74
BRANCH  62  85
ATOM     85  C   UNL A   1      45.069  33.237  29.172  1.00  0.00     0.023 A 
ATOM     86  C   UNL A   1      44.895  34.366  28.356  1.00  0.00     0.031 A 
ATOM     87  C   UNL A   1      45.864  33.359  30.325  1.00  0.00     0.131 A 
ATOM     88  C   UNL A   1      45.533  35.568  28.690  1.00  0.00     0.055 A 
ATOM     89  C   UNL A   1      46.458  34.570  30.677  1.00  0.00     0.041 A 
ATOM     90  F   UNL A   1      46.053  32.307  31.137  1.00  0.00    -0.206 F 
ATOM     91  C   UNL A   1      46.299  35.682  29.855  1.00  0.00     0.022 A 
BRANCH  88  92
ATOM     92  S   UNL A   1      45.378  36.978  27.561  1.00  0.00     0.124 S 
ATOM     93  O   UNL A   1      46.482  36.747  26.636  1.00  0.00    -0.237 OA
ATOM     94  O   UNL A   1      44.038  36.795  27.011  1.00  0.00    -0.237 OA
ATOM     95  O   UNL A   1      45.533  38.137  28.436  1.00  0.00    -0.744 OA
ENDBRANCH  88  92
ENDBRANCH  62  85
ENDBRANCH  36  37
ENDBRANCH  28  31
ENDBRANCH  26  27
ENDBRANCH   1  26
TORSDOF 16
ENDMDL
MODEL 3
REMARK VINA RESULT:     -12.1      4.807     10.286
REMARK SMILES Cc1nn(C)c(=O)c(C(=O)N2CCCC[C@H]2C(=O)NCCCCNC(=O)c2ccc(-c3c4nc(c(-c5cc(S(=O)(=O)[O-])ccc5F)c5ccc([nH]5)c(-c5cc(S(=O)(=O)[O-])ccc5F)c5nc(c(-c6cc(S(=O)(=O)[O-])ccc6F)c6ccc3[nH]6)C=C5)C=C4)cc2)c1C
REMARK SMILES IDX 22 1 21 2 20 3 19 4 17 5 18 6 16 8 11 9 12 10 13 11 15 12
REMARK SMILES IDX 14 13 9 14 10 15 8 16 1 17 2 18 3 19 90 20 4 21 91 22 5 23
REMARK SMILES IDX 6 24 7 25 23 26 24 27 25 28 26 30 27 31 28 32 89 33 29 34
REMARK SMILES IDX 88 35 30 36 31 37 32 38 82 39 33 40 87 41 81 42 83 43 34 44
REMARK SMILES IDX 86 45 80 46 79 47 35 49 67 50 47 51 66 52 48 53 51 54 65 55
REMARK SMILES IDX 84 56 49 57 50 58 64 60 85 61 52 62 36 63 37 64 45 65 38 66
REMARK SMILES IDX 44 67 46 68 43 69 39 70 40 71 41 72 42 73 68 74 69 75 77 76
REMARK SMILES IDX 70 77 76 78 78 79 75 80 71 81 72 82 73 83 74 84 53 85 54 86
REMARK SMILES IDX 62 87 55 88 61 89 63 90 60 91 56 92 57 93 58 94 59 95
REMARK H PARENT 19 7 24 29 83 48 51 59
REMARK Flexibility Score: inf
ROOT
ATOM      1  C   UNL A   1      31.543  29.728  26.499  1.00  0.00     0.023 C 
ENDROOT
BRANCH   1   2
ATOM      2  C   UNL A   1      31.515  28.641  27.559  1.00  0.00     0.023 C 
BRANCH   2   3
ATOM      3  C   UNL A   1      32.145  27.309  27.157  1.00  0.00     0.116 C 
BRANCH   3   4
ATOM      4  N   UNL A   1      31.499  26.605  26.059  1.00  0.00    -0.354 N 
ATOM      5  C   UNL A   1      31.942  25.869  24.997  1.00  0.00     0.242 C 
ATOM      6  O   UNL A   1      31.048  25.330  24.328  1.00  0.00    -0.273 OA
ATOM      7  H   UNL A   1      30.518  26.674  26.089  1.00  0.00     0.163 HD
BRANCH   5   8
ATOM      8  C   UNL A   1      33.425  25.830  24.468  1.00  0.00     0.174 C 
ATOM      9  N   UNL A   1      33.651  25.198  23.175  1.00  0.00    -0.326 N 
ATOM     10  C   UNL A   1      33.215  26.009  22.002  1.00  0.00     0.120 C 
ATOM     11  C   UNL A   1      33.526  27.505  22.055  1.00  0.00     0.022 C 
ATOM     12  C   UNL A   1      33.974  27.272  24.478  1.00  0.00     0.035 C 
ATOM     13  C   UNL A   1      33.275  28.117  23.421  1.00  0.00     0.004 C 
BRANCH   9  14
ATOM     14  C   UNL A   1      33.967  23.854  22.942  1.00  0.00     0.260 C 
ATOM     15  O   UNL A   1      34.038  23.492  21.754  1.00  0.00    -0.269 OA
BRANCH  14  16
ATOM     16  C   UNL A   1      34.194  22.713  23.953  1.00  0.00     0.111 A 
ATOM     17  C   UNL A   1      33.153  19.238  25.156  1.00  0.00     0.069 C 
ATOM     18  C   UNL A   1      34.011  20.469  24.897  1.00  0.00     0.062 A 
ATOM     19  N   UNL A   1      35.279  20.255  24.961  1.00  0.00    -0.175 NA
ATOM     20  C   UNL A   1      33.366  21.764  24.462  1.00  0.00    -0.010 A 
ATOM     21  N   UNL A   1      36.108  21.281  24.663  1.00  0.00    -0.232 N 
ATOM     22  C   UNL A   1      31.878  21.683  24.476  1.00  0.00     0.047 C 
ATOM     23  C   UNL A   1      37.519  20.973  24.815  1.00  0.00     0.178 C 
ATOM     24  C   UNL A   1      35.675  22.539  24.277  1.00  0.00     0.279 A 
ATOM     25  O   UNL A   1      36.438  23.505  24.233  1.00  0.00    -0.267 OA
ENDBRANCH  14  16
ENDBRANCH   9  14
ENDBRANCH   5   8
ENDBRANCH   3   4
ENDBRANCH   2   3
ENDBRANCH   1   2
BRANCH   1  26
ATOM     26  C   UNL A   1      32.858  30.482  26.421  1.00  0.00     0.116 C 
BRANCH  26  27
ATOM     27  N   UNL A   1      32.747  31.875  26.841  1.00  0.00    -0.352 N 
ATOM     28  C   UNL A   1      33.613  32.615  27.604  1.00  0.00     0.251 C 
ATOM     29  H   UNL A   1      31.940  32.347  26.535  1.00  0.00     0.163 HD
ATOM     30  O   UNL A   1      33.327  33.761  27.934  1.00  0.00    -0.269 OA
BRANCH  28  31
ATOM     31  C   UNL A   1      34.862  31.982  28.058  1.00  0.00     0.039 A 
ATOM     32  C   UNL A   1      36.028  32.746  28.088  1.00  0.00     0.014 A 
ATOM     33  C   UNL A   1      34.845  30.672  28.546  1.00  0.00     0.014 A 
ATOM     34  C   UNL A   1      37.173  32.214  28.675  1.00  0.00     0.010 A 
ATOM     35  C   UNL A   1      35.956  30.183  29.216  1.00  0.00     0.010 A 
ATOM     36  C   UNL A   1      37.133  30.946  29.276  1.00  0.00    -0.014 A 
BRANCH  36  37
ATOM     37  C   UNL A   1      38.330  30.368  29.929  1.00  0.00     0.031 A 
ATOM     38  C   UNL A   1      38.673  30.795  31.328  1.00  0.00     0.074 A 
ATOM     39  C   UNL A   1      39.116  29.509  29.254  1.00  0.00     0.049 A 
ATOM     40  N   UNL A   1      39.718  30.494  32.050  1.00  0.00    -0.248 NA
ATOM     41  C   UNL A   1      37.730  31.713  31.992  1.00  0.00     0.031 C 
ATOM     42  C   UNL A   1      38.892  29.052  27.880  1.00  0.00     0.029 A 
ATOM     43  N   UNL A   1      40.265  28.862  29.633  1.00  0.00    -0.354 N 
ATOM     44  C   UNL A   1      39.567  31.194  33.240  1.00  0.00     0.074 A 
ATOM     45  C   UNL A   1      38.364  31.985  33.121  1.00  0.00     0.031 C 
ATOM     46  C   UNL A   1      39.851  28.170  27.548  1.00  0.00     0.029 A 
ATOM     47  C   UNL A   1      40.779  28.032  28.665  1.00  0.00     0.049 A 
ATOM     48  H   UNL A   1      40.682  28.982  30.517  1.00  0.00     0.167 HD
ATOM     49  C   UNL A   1      40.346  31.152  34.346  1.00  0.00     0.034 A 
ATOM     50  C   UNL A   1      41.878  27.253  28.680  1.00  0.00     0.034 A 
ATOM     51  C   UNL A   1      41.514  30.323  34.467  1.00  0.00     0.049 A 
ATOM     52  C   UNL A   1      42.733  27.232  29.920  1.00  0.00     0.074 A 
ATOM     53  C   UNL A   1      42.345  30.162  35.560  1.00  0.00     0.029 A 
ATOM     54  N   UNL A   1      42.010  29.506  33.461  1.00  0.00    -0.354 N 
ATOM     55  N   UNL A   1      42.570  27.894  31.043  1.00  0.00    -0.248 NA
ATOM     56  C   UNL A   1      43.918  26.365  29.897  1.00  0.00     0.031 C 
ATOM     57  C   UNL A   1      43.372  29.285  35.199  1.00  0.00     0.029 A 
ATOM     58  C   UNL A   1      43.149  28.854  33.901  1.00  0.00     0.049 A 
ATOM     59  H   UNL A   1      41.612  29.403  32.567  1.00  0.00     0.167 HD
ATOM     60  C   UNL A   1      43.625  27.511  31.864  1.00  0.00     0.074 A 
ATOM     61  C   UNL A   1      44.410  26.551  31.114  1.00  0.00     0.031 C 
ATOM     62  C   UNL A   1      43.920  27.914  33.126  1.00  0.00     0.034 A 
BRANCH  49  63
ATOM     63  C   UNL A   1      39.955  32.027  35.505  1.00  0.00     0.023 A 
ATOM     64  C   UNL A   1      39.056  31.582  36.489  1.00  0.00     0.031 A 
ATOM     65  C   UNL A   1      40.490  33.320  35.632  1.00  0.00     0.131 A 
ATOM     66  C   UNL A   1      38.682  32.440  37.532  1.00  0.00     0.055 A 
ATOM     67  C   UNL A   1      40.165  34.146  36.708  1.00  0.00     0.041 A 
ATOM     68  F   UNL A   1      41.336  33.802  34.706  1.00  0.00    -0.206 F 
ATOM     69  C   UNL A   1      39.250  33.710  37.663  1.00  0.00     0.022 A 
BRANCH  66  70
ATOM     70  S   UNL A   1      37.385  31.902  38.677  1.00  0.00     0.124 S 
ATOM     71  O   UNL A   1      36.357  32.916  38.451  1.00  0.00    -0.237 OA
ATOM     72  O   UNL A   1      37.072  30.560  38.199  1.00  0.00    -0.237 OA
ATOM     73  O   UNL A   1      38.036  31.962  39.984  1.00  0.00    -0.744 OA
ENDBRANCH  66  70
ENDBRANCH  49  63
BRANCH  50  74
ATOM     74  C   UNL A   1      42.237  26.435  27.489  1.00  0.00     0.023 A 
ATOM     75  C   UNL A   1      41.913  25.070  27.427  1.00  0.00     0.031 A 
ATOM     76  C   UNL A   1      42.923  27.002  26.400  1.00  0.00     0.131 A 
ATOM     77  C   UNL A   1      42.301  24.309  26.312  1.00  0.00     0.055 A 
ATOM     78  C   UNL A   1      43.272  26.251  25.277  1.00  0.00     0.041 A 
ATOM     79  F   UNL A   1      43.247  28.305  26.407  1.00  0.00    -0.206 F 
ATOM     80  C   UNL A   1      42.968  24.893  25.233  1.00  0.00     0.022 A 
BRANCH  77  81
ATOM     81  S   UNL A   1      41.952  22.529  26.309  1.00  0.00     0.124 S 
ATOM     82  O   UNL A   1      42.703  22.083  25.140  1.00  0.00    -0.237 OA
ATOM     83  O   UNL A   1      42.474  22.114  27.605  1.00  0.00    -0.237 OA
ATOM     84  O   UNL A   1      40.498  22.468  26.177  1.00  0.00    -0.744 OA
ENDBRANCH  77  81
ENDBRANCH  50  74
BRANCH  62  85
ATOM     85  C   UNL A   1      45.133  27.309  33.776  1.00  0.00     0.023 A 
ATOM     86  C   UNL A   1      45.042  26.124  34.524  1.00  0.00     0.031 A 
ATOM     87  C   UNL A   1      46.398  27.897  33.604  1.00  0.00     0.131 A 
ATOM     88  C   UNL A   1      46.196  25.577  35.100  1.00  0.00     0.055 A 
ATOM     89  C   UNL A   1      47.550  27.323  34.139  1.00  0.00     0.041 A 
ATOM     90  F   UNL A   1      46.533  29.027  32.892  1.00  0.00    -0.206 F 
ATOM     91  C   UNL A   1      47.452  26.159  34.898  1.00  0.00     0.022 A 
BRANCH  88  92
ATOM     92  S   UNL A   1      46.032  24.108  36.149  1.00  0.00     0.124 S 
ATOM     93  O   UNL A   1      45.553  24.683  37.401  1.00  0.00    -0.237 OA
ATOM     94  O   UNL A   1      45.068  23.299  35.410  1.00  0.00    -0.237 OA
ATOM     95  O   UNL A   1      47.388  23.565  36.194  1.00  0.00    -0.744 OA
ENDBRANCH  88  92
ENDBRANCH  62  85
ENDBRANCH  36  37
ENDBRANCH  28  31
ENDBRANCH  26  27
ENDBRANCH   1  26
TORSDOF 16
ENDMDL
