MODEL 1
REMARK VINA RESULT:     -12.6      0.000      0.000
REMARK SMILES O=C(/C=C/c1ccc(O)cc1)NC[C@@H]1CC[C@H](C(=O)NCCCCNC(=O)c2ccc(-c3c4nc(c(-c5cc(S(=O)(=O)[O-])ccc5F)c5ccc([nH]5)c(-c5cc(S(=O)(=O)[O-])ccc5F)c5nc(c(-c6cc(S(=O)(=O)[O-])ccc6F)c6ccc3[nH]6)C=C5)C=C4)cc2)O1
REMARK SMILES IDX 21 1 20 2 18 3 19 4 17 6 14 7 15 8 91 9 16 10 13 11 12 12
REMARK SMILES IDX 1 13 2 14 3 16 4 17 5 18 6 19 11 20 7 21 10 22 8 23 9 24
REMARK SMILES IDX 22 26 23 27 24 28 25 29 26 30 27 32 28 33 29 34 90 35 30 36
REMARK SMILES IDX 89 37 31 38 32 39 33 40 83 41 34 42 88 43 82 44 84 45 35 46
REMARK SMILES IDX 87 47 81 48 80 49 36 51 68 52 48 53 67 54 49 55 52 56 66 57
REMARK SMILES IDX 85 58 50 59 51 60 65 62 86 63 53 64 37 65 38 66 46 67 39 68
REMARK SMILES IDX 45 69 47 70 44 71 40 72 41 73 42 74 43 75 69 76 70 77 78 78
REMARK SMILES IDX 71 79 77 80 79 81 76 82 72 83 73 84 74 85 75 86 54 87 55 88
REMARK SMILES IDX 63 89 56 90 62 91 64 92 61 93 57 94 58 95 59 96 60 97
REMARK H PARENT 20 5 12 15 9 25 25 31 84 50 52 61
REMARK Flexibility Score: inf
ROOT
ATOM      1  C   UNL A   1      33.758  24.345  23.315  1.00  0.00     0.116 C 
ENDROOT
BRANCH   1   2
ATOM      2  N   UNL A   1      33.983  25.480  22.439  1.00  0.00    -0.354 N 
ATOM      3  C   UNL A   1      33.438  26.729  22.490  1.00  0.00     0.249 C 
ATOM      4  O   UNL A   1      33.845  27.569  21.679  1.00  0.00    -0.272 OA
ATOM      5  H   UNL A   1      34.619  25.327  21.704  1.00  0.00     0.163 HD
BRANCH   3   6
ATOM      6  C   UNL A   1      32.281  27.083  23.454  1.00  0.00     0.207 C 
ATOM      7  C   UNL A   1      30.756  26.262  24.992  1.00  0.00     0.138 C 
ATOM      8  C   UNL A   1      30.093  26.105  23.636  1.00  0.00     0.037 C 
ATOM      9  O   UNL A   1      32.159  26.383  24.693  1.00  0.00    -0.363 OA
ATOM     10  C   UNL A   1      30.932  26.986  22.741  1.00  0.00     0.045 C 
BRANCH   7  11
ATOM     11  C   UNL A   1      30.456  25.143  26.013  1.00  0.00     0.148 C 
BRANCH  11  12
ATOM     12  N   UNL A   1      30.583  23.795  25.470  1.00  0.00    -0.350 N 
ATOM     13  O   UNL A   1      31.457  22.876  27.374  1.00  0.00    -0.270 OA
ATOM     14  C   UNL A   1      31.155  22.789  26.185  1.00  0.00     0.244 C 
ATOM     15  H   UNL A   1      30.245  23.610  24.564  1.00  0.00     0.163 HD
BRANCH  14  16
ATOM     16  C   UNL A   1      31.606  21.599  25.424  1.00  0.00     0.072 C 
ATOM     17  C   UNL A   1      32.252  21.390  24.265  1.00  0.00     0.014 C 
BRANCH  17  18
ATOM     18  C   UNL A   1      32.780  20.037  23.926  1.00  0.00    -0.025 A 
ATOM     19  C   UNL A   1      32.222  19.244  22.908  1.00  0.00     0.012 A 
ATOM     20  C   UNL A   1      33.824  19.473  24.665  1.00  0.00     0.012 A 
ATOM     21  C   UNL A   1      32.624  17.926  22.674  1.00  0.00     0.047 A 
ATOM     22  C   UNL A   1      34.257  18.159  24.416  1.00  0.00     0.047 A 
ATOM     23  C   UNL A   1      33.648  17.393  23.429  1.00  0.00     0.115 A 
BRANCH  23  24
ATOM     24  O   UNL A   1      34.089  16.121  23.229  1.00  0.00    -0.508 OA
ATOM     25  H   UNL A   1      34.760  15.766  23.778  1.00  0.00     0.293 HD
ENDBRANCH  23  24
ENDBRANCH  17  18
ENDBRANCH  14  16
ENDBRANCH  11  12
ENDBRANCH   7  11
ENDBRANCH   3   6
ENDBRANCH   1   2
BRANCH   1  26
ATOM     26  C   UNL A   1      34.948  24.097  24.244  1.00  0.00     0.023 C 
BRANCH  26  27
ATOM     27  C   UNL A   1      34.685  23.953  25.751  1.00  0.00     0.023 C 
BRANCH  27  28
ATOM     28  C   UNL A   1      35.316  22.801  26.544  1.00  0.00     0.116 C 
BRANCH  28  29
ATOM     29  N   UNL A   1      36.162  21.871  25.806  1.00  0.00    -0.352 N 
ATOM     30  C   UNL A   1      37.527  21.764  25.627  1.00  0.00     0.251 C 
ATOM     31  H   UNL A   1      35.653  21.171  25.338  1.00  0.00     0.163 HD
ATOM     32  O   UNL A   1      37.963  20.905  24.863  1.00  0.00    -0.269 OA
BRANCH  30  33
ATOM     33  C   UNL A   1      38.481  22.728  26.227  1.00  0.00     0.039 A 
ATOM     34  C   UNL A   1      39.586  22.246  26.955  1.00  0.00     0.014 A 
ATOM     35  C   UNL A   1      38.299  24.098  26.106  1.00  0.00     0.014 A 
ATOM     36  C   UNL A   1      40.562  23.124  27.444  1.00  0.00     0.010 A 
ATOM     37  C   UNL A   1      39.291  24.969  26.531  1.00  0.00     0.010 A 
ATOM     38  C   UNL A   1      40.430  24.493  27.203  1.00  0.00    -0.014 A 
BRANCH  38  39
ATOM     39  C   UNL A   1      41.321  25.522  27.783  1.00  0.00     0.031 A 
ATOM     40  C   UNL A   1      40.666  26.568  28.634  1.00  0.00     0.074 A 
ATOM     41  C   UNL A   1      42.604  25.640  27.398  1.00  0.00     0.049 A 
ATOM     42  N   UNL A   1      41.042  27.789  28.891  1.00  0.00    -0.248 NA
ATOM     43  C   UNL A   1      39.349  26.202  29.177  1.00  0.00     0.031 C 
ATOM     44  C   UNL A   1      43.330  24.689  26.561  1.00  0.00     0.029 A 
ATOM     45  N   UNL A   1      43.507  26.647  27.622  1.00  0.00    -0.354 N 
ATOM     46  C   UNL A   1      39.968  28.371  29.555  1.00  0.00     0.074 A 
ATOM     47  C   UNL A   1      38.922  27.372  29.621  1.00  0.00     0.031 C 
ATOM     48  C   UNL A   1      44.571  25.158  26.339  1.00  0.00     0.029 A 
ATOM     49  C   UNL A   1      44.702  26.473  26.964  1.00  0.00     0.049 A 
ATOM     50  H   UNL A   1      43.318  27.421  28.200  1.00  0.00     0.167 HD
ATOM     51  C   UNL A   1      39.870  29.627  30.054  1.00  0.00     0.034 A 
ATOM     52  C   UNL A   1      45.755  27.306  26.850  1.00  0.00     0.034 A 
ATOM     53  C   UNL A   1      40.951  30.578  29.995  1.00  0.00     0.049 A 
ATOM     54  C   UNL A   1      45.655  28.680  27.475  1.00  0.00     0.074 A 
ATOM     55  C   UNL A   1      41.001  31.870  30.485  1.00  0.00     0.029 A 
ATOM     56  N   UNL A   1      42.192  30.321  29.420  1.00  0.00    -0.354 N 
ATOM     57  N   UNL A   1      44.632  29.239  28.086  1.00  0.00    -0.248 NA
ATOM     58  C   UNL A   1      46.843  29.539  27.388  1.00  0.00     0.031 C 
ATOM     59  C   UNL A   1      42.260  32.403  30.179  1.00  0.00     0.029 A 
ATOM     60  C   UNL A   1      43.015  31.425  29.549  1.00  0.00     0.049 A 
ATOM     61  H   UNL A   1      42.445  29.476  28.984  1.00  0.00     0.167 HD
ATOM     62  C   UNL A   1      45.065  30.505  28.473  1.00  0.00     0.074 A 
ATOM     63  C   UNL A   1      46.446  30.617  28.046  1.00  0.00     0.031 C 
ATOM     64  C   UNL A   1      44.391  31.493  29.115  1.00  0.00     0.034 A 
BRANCH  51  65
ATOM     65  C   UNL A   1      38.541  30.021  30.652  1.00  0.00     0.023 A 
ATOM     66  C   UNL A   1      37.563  30.682  29.889  1.00  0.00     0.031 A 
ATOM     67  C   UNL A   1      38.289  29.837  32.023  1.00  0.00     0.131 A 
ATOM     68  C   UNL A   1      36.449  31.252  30.521  1.00  0.00     0.055 A 
ATOM     69  C   UNL A   1      37.122  30.313  32.626  1.00  0.00     0.041 A 
ATOM     70  F   UNL A   1      39.192  29.230  32.810  1.00  0.00    -0.206 F 
ATOM     71  C   UNL A   1      36.205  31.048  31.880  1.00  0.00     0.022 A 
BRANCH  68  72
ATOM     72  S   UNL A   1      35.437  32.426  29.580  1.00  0.00     0.124 S 
ATOM     73  O   UNL A   1      35.068  31.623  28.415  1.00  0.00    -0.237 OA
ATOM     74  O   UNL A   1      34.358  32.733  30.510  1.00  0.00    -0.237 OA
ATOM     75  O   UNL A   1      36.357  33.526  29.303  1.00  0.00    -0.744 OA
ENDBRANCH  68  72
ENDBRANCH  51  65
BRANCH  52  76
ATOM     76  C   UNL A   1      46.987  26.899  26.113  1.00  0.00     0.023 A 
ATOM     77  C   UNL A   1      48.044  26.272  26.791  1.00  0.00     0.031 A 
ATOM     78  C   UNL A   1      47.154  27.171  24.744  1.00  0.00     0.131 A 
ATOM     79  C   UNL A   1      49.242  25.985  26.116  1.00  0.00     0.055 A 
ATOM     80  C   UNL A   1      48.329  26.836  24.065  1.00  0.00     0.041 A 
ATOM     81  F   UNL A   1      46.174  27.762  24.044  1.00  0.00    -0.206 F 
ATOM     82  C   UNL A   1      49.387  26.253  24.755  1.00  0.00     0.022 A 
BRANCH  79  83
ATOM     83  S   UNL A   1      50.640  25.338  27.074  1.00  0.00     0.124 S 
ATOM     84  O   UNL A   1      51.572  24.956  26.018  1.00  0.00    -0.237 OA
ATOM     85  O   UNL A   1      51.020  26.497  27.875  1.00  0.00    -0.237 OA
ATOM     86  O   UNL A   1      50.055  24.228  27.823  1.00  0.00    -0.744 OA
ENDBRANCH  79  83
ENDBRANCH  52  76
BRANCH  64  87
ATOM     87  C   UNL A   1      45.164  32.745  29.438  1.00  0.00     0.023 A 
ATOM     88  C   UNL A   1      45.199  33.840  28.558  1.00  0.00     0.031 A 
ATOM     89  C   UNL A   1      45.875  32.838  30.647  1.00  0.00     0.131 A 
ATOM     90  C   UNL A   1      45.974  34.964  28.879  1.00  0.00     0.055 A 
ATOM     91  C   UNL A   1      46.601  33.980  30.984  1.00  0.00     0.041 A 
ATOM     92  F   UNL A   1      45.871  31.819  31.522  1.00  0.00    -0.206 F 
ATOM     93  C   UNL A   1      46.663  35.048  30.092  1.00  0.00     0.022 A 
BRANCH  90  94
ATOM     94  S   UNL A   1      46.130  36.291  27.653  1.00  0.00     0.124 S 
ATOM     95  O   UNL A   1      46.646  37.391  28.461  1.00  0.00    -0.237 OA
ATOM     96  O   UNL A   1      47.062  35.717  26.688  1.00  0.00    -0.237 OA
ATOM     97  O   UNL A   1      44.764  36.469  27.164  1.00  0.00    -0.744 OA
ENDBRANCH  90  94
ENDBRANCH  64  87
ENDBRANCH  38  39
ENDBRANCH  30  33
ENDBRANCH  28  29
ENDBRANCH  27  28
ENDBRANCH  26  27
ENDBRANCH   1  26
TORSDOF 19
ENDMDL
MODEL 2
REMARK VINA RESULT:     -11.9      1.882      2.175
REMARK SMILES O=C(/C=C/c1ccc(O)cc1)NC[C@@H]1CC[C@H](C(=O)NCCCCNC(=O)c2ccc(-c3c4nc(c(-c5cc(S(=O)(=O)[O-])ccc5F)c5ccc([nH]5)c(-c5cc(S(=O)(=O)[O-])ccc5F)c5nc(c(-c6cc(S(=O)(=O)[O-])ccc6F)c6ccc3[nH]6)C=C5)C=C4)cc2)O1
REMARK SMILES IDX 21 1 20 2 18 3 19 4 17 6 14 7 15 8 91 9 16 10 13 11 12 12
REMARK SMILES IDX 1 13 2 14 3 16 4 17 5 18 6 19 11 20 7 21 10 22 8 23 9 24
REMARK SMILES IDX 22 26 23 27 24 28 25 29 26 30 27 32 28 33 29 34 90 35 30 36
REMARK SMILES IDX 89 37 31 38 32 39 33 40 83 41 34 42 88 43 82 44 84 45 35 46
REMARK SMILES IDX 87 47 81 48 80 49 36 51 68 52 48 53 67 54 49 55 52 56 66 57
REMARK SMILES IDX 85 58 50 59 51 60 65 62 86 63 53 64 37 65 38 66 46 67 39 68
REMARK SMILES IDX 45 69 47 70 44 71 40 72 41 73 42 74 43 75 69 76 70 77 78 78
REMARK SMILES IDX 71 79 77 80 79 81 76 82 72 83 73 84 74 85 75 86 54 87 55 88
REMARK SMILES IDX 63 89 56 90 62 91 64 92 61 93 57 94 58 95 59 96 60 97
REMARK H PARENT 20 5 12 15 9 25 25 31 84 50 52 61
REMARK Flexibility Score: inf
ROOT
ATOM      1  C   UNL A   1      33.638  25.041  23.317  1.00  0.00     0.116 C 
ENDROOT
BRANCH   1   2
ATOM      2  N   UNL A   1      33.903  26.336  22.717  1.00  0.00    -0.354 N 
ATOM      3  C   UNL A   1      33.249  27.519  22.896  1.00  0.00     0.249 C 
ATOM      4  O   UNL A   1      33.709  28.521  22.338  1.00  0.00    -0.272 OA
ATOM      5  H   UNL A   1      34.664  26.365  22.093  1.00  0.00     0.163 HD
BRANCH   3   6
ATOM      6  C   UNL A   1      31.921  27.613  23.684  1.00  0.00     0.207 C 
ATOM      7  C   UNL A   1      30.433  26.495  25.063  1.00  0.00     0.138 C 
ATOM      8  C   UNL A   1      30.016  26.148  23.646  1.00  0.00     0.037 C 
ATOM      9  O   UNL A   1      31.797  26.938  24.937  1.00  0.00    -0.363 OA
ATOM     10  C   UNL A   1      30.742  27.178  22.813  1.00  0.00     0.045 C 
BRANCH   7  11
ATOM     11  C   UNL A   1      30.265  25.365  26.103  1.00  0.00     0.148 C 
BRANCH  11  12
ATOM     12  N   UNL A   1      30.396  24.023  25.545  1.00  0.00    -0.350 N 
ATOM     13  O   UNL A   1      31.396  23.119  27.395  1.00  0.00    -0.270 OA
ATOM     14  C   UNL A   1      31.032  23.029  26.223  1.00  0.00     0.244 C 
ATOM     15  H   UNL A   1      30.015  23.833  24.658  1.00  0.00     0.163 HD
BRANCH  14  16
ATOM     16  C   UNL A   1      31.471  21.854  25.432  1.00  0.00     0.072 C 
ATOM     17  C   UNL A   1      32.100  21.668  24.260  1.00  0.00     0.014 C 
BRANCH  17  18
ATOM     18  C   UNL A   1      32.621  20.321  23.887  1.00  0.00    -0.025 A 
ATOM     19  C   UNL A   1      32.160  19.621  22.759  1.00  0.00     0.012 A 
ATOM     20  C   UNL A   1      33.557  19.670  24.696  1.00  0.00     0.012 A 
ATOM     21  C   UNL A   1      32.545  18.308  22.478  1.00  0.00     0.047 A 
ATOM     22  C   UNL A   1      33.975  18.360  24.404  1.00  0.00     0.047 A 
ATOM     23  C   UNL A   1      33.460  17.686  23.304  1.00  0.00     0.115 A 
BRANCH  23  24
ATOM     24  O   UNL A   1      33.882  16.414  23.064  1.00  0.00    -0.508 OA
ATOM     25  H   UNL A   1      33.490  15.913  22.376  1.00  0.00     0.293 HD
ENDBRANCH  23  24
ENDBRANCH  17  18
ENDBRANCH  14  16
ENDBRANCH  11  12
ENDBRANCH   7  11
ENDBRANCH   3   6
ENDBRANCH   1   2
BRANCH   1  26
ATOM     26  C   UNL A   1      34.624  24.720  24.441  1.00  0.00     0.023 C 
BRANCH  26  27
ATOM     27  C   UNL A   1      35.390  23.388  24.388  1.00  0.00     0.023 C 
BRANCH  27  28
ATOM     28  C   UNL A   1      35.899  22.732  25.677  1.00  0.00     0.116 C 
BRANCH  28  29
ATOM     29  N   UNL A   1      36.827  21.617  25.534  1.00  0.00    -0.352 N 
ATOM     30  C   UNL A   1      38.174  21.461  25.798  1.00  0.00     0.251 C 
ATOM     31  H   UNL A   1      36.406  20.804  25.174  1.00  0.00     0.163 HD
ATOM     32  O   UNL A   1      38.724  20.405  25.492  1.00  0.00    -0.269 OA
BRANCH  30  33
ATOM     33  C   UNL A   1      39.010  22.567  26.325  1.00  0.00     0.039 A 
ATOM     34  C   UNL A   1      38.687  23.898  25.992  1.00  0.00     0.014 A 
ATOM     35  C   UNL A   1      40.118  22.321  27.121  1.00  0.00     0.014 A 
ATOM     36  C   UNL A   1      39.392  24.969  26.556  1.00  0.00     0.010 A 
ATOM     37  C   UNL A   1      40.779  23.376  27.734  1.00  0.00     0.010 A 
ATOM     38  C   UNL A   1      40.425  24.707  27.458  1.00  0.00    -0.014 A 
BRANCH  38  39
ATOM     39  C   UNL A   1      41.321  25.748  28.009  1.00  0.00     0.031 A 
ATOM     40  C   UNL A   1      40.672  26.814  28.840  1.00  0.00     0.074 A 
ATOM     41  C   UNL A   1      42.601  25.855  27.614  1.00  0.00     0.049 A 
ATOM     42  N   UNL A   1      41.051  28.040  29.066  1.00  0.00    -0.248 NA
ATOM     43  C   UNL A   1      39.358  26.462  29.399  1.00  0.00     0.031 C 
ATOM     44  C   UNL A   1      43.321  24.884  26.795  1.00  0.00     0.029 A 
ATOM     45  N   UNL A   1      43.506  26.867  27.810  1.00  0.00    -0.354 N 
ATOM     46  C   UNL A   1      39.982  28.638  29.723  1.00  0.00     0.074 A 
ATOM     47  C   UNL A   1      38.935  27.642  29.819  1.00  0.00     0.031 C 
ATOM     48  C   UNL A   1      44.561  25.346  26.554  1.00  0.00     0.029 A 
ATOM     49  C   UNL A   1      44.697  26.676  27.148  1.00  0.00     0.049 A 
ATOM     50  H   UNL A   1      43.322  27.654  28.370  1.00  0.00     0.167 HD
ATOM     51  C   UNL A   1      39.888  29.906  30.193  1.00  0.00     0.034 A 
ATOM     52  C   UNL A   1      45.751  27.505  27.009  1.00  0.00     0.034 A 
ATOM     53  C   UNL A   1      40.969  30.854  30.106  1.00  0.00     0.049 A 
ATOM     54  C   UNL A   1      45.656  28.893  27.602  1.00  0.00     0.074 A 
ATOM     55  C   UNL A   1      41.024  32.157  30.565  1.00  0.00     0.029 A 
ATOM     56  N   UNL A   1      42.206  30.583  29.529  1.00  0.00    -0.354 N 
ATOM     57  N   UNL A   1      44.638  29.467  28.206  1.00  0.00    -0.248 NA
ATOM     58  C   UNL A   1      46.845  29.748  27.488  1.00  0.00     0.031 C 
ATOM     59  C   UNL A   1      42.281  32.681  30.240  1.00  0.00     0.029 A 
ATOM     60  C   UNL A   1      43.032  31.688  29.628  1.00  0.00     0.049 A 
ATOM     61  H   UNL A   1      42.456  29.727  29.111  1.00  0.00     0.167 HD
ATOM     62  C   UNL A   1      45.075  30.741  28.561  1.00  0.00     0.074 A 
ATOM     63  C   UNL A   1      46.453  30.841  28.124  1.00  0.00     0.031 C 
ATOM     64  C   UNL A   1      44.405  31.744  29.184  1.00  0.00     0.034 A 
BRANCH  51  65
ATOM     65  C   UNL A   1      38.563  30.315  30.790  1.00  0.00     0.023 A 
ATOM     66  C   UNL A   1      37.579  30.956  30.016  1.00  0.00     0.031 A 
ATOM     67  C   UNL A   1      38.321  30.167  32.167  1.00  0.00     0.131 A 
ATOM     68  C   UNL A   1      36.469  31.542  30.641  1.00  0.00     0.055 A 
ATOM     69  C   UNL A   1      37.158  30.658  32.766  1.00  0.00     0.041 A 
ATOM     70  F   UNL A   1      39.229  29.581  32.964  1.00  0.00    -0.206 F 
ATOM     71  C   UNL A   1      36.235  31.374  32.007  1.00  0.00     0.022 A 
BRANCH  68  72
ATOM     72  S   UNL A   1      35.451  32.691  29.677  1.00  0.00     0.124 S 
ATOM     73  O   UNL A   1      35.404  32.018  28.380  1.00  0.00    -0.237 OA
ATOM     74  O   UNL A   1      34.202  32.716  30.428  1.00  0.00    -0.237 OA
ATOM     75  O   UNL A   1      36.220  33.933  29.699  1.00  0.00    -0.744 OA
ENDBRANCH  68  72
ENDBRANCH  51  65
BRANCH  52  76
ATOM     76  C   UNL A   1      46.978  27.079  26.273  1.00  0.00     0.023 A 
ATOM     77  C   UNL A   1      47.218  27.540  24.969  1.00  0.00     0.031 A 
ATOM     78  C   UNL A   1      47.897  26.172  26.829  1.00  0.00     0.131 A 
ATOM     79  C   UNL A   1      48.317  27.056  24.242  1.00  0.00     0.055 A 
ATOM     80  C   UNL A   1      49.019  25.734  26.121  1.00  0.00     0.041 A 
ATOM     81  F   UNL A   1      47.722  25.705  28.075  1.00  0.00    -0.206 F 
ATOM     82  C   UNL A   1      49.226  26.164  24.813  1.00  0.00     0.022 A 
BRANCH  79  83
ATOM     83  S   UNL A   1      48.487  27.544  22.503  1.00  0.00     0.124 S 
ATOM     84  O   UNL A   1      48.564  26.248  21.837  1.00  0.00    -0.237 OA
ATOM     85  O   UNL A   1      47.263  28.307  22.283  1.00  0.00    -0.237 OA
ATOM     86  O   UNL A   1      49.720  28.328  22.489  1.00  0.00    -0.744 OA
ENDBRANCH  79  83
ENDBRANCH  52  76
BRANCH  64  87
ATOM     87  C   UNL A   1      45.181  33.002  29.474  1.00  0.00     0.023 A 
ATOM     88  C   UNL A   1      45.876  33.180  30.683  1.00  0.00     0.031 A 
ATOM     89  C   UNL A   1      45.221  34.037  28.524  1.00  0.00     0.131 A 
ATOM     90  C   UNL A   1      46.543  34.388  30.930  1.00  0.00     0.055 A 
ATOM     91  C   UNL A   1      45.930  35.216  28.755  1.00  0.00     0.041 A 
ATOM     92  F   UNL A   1      44.575  33.915  27.354  1.00  0.00    -0.206 F 
ATOM     93  C   UNL A   1      46.587  35.402  29.968  1.00  0.00     0.022 A 
BRANCH  90  94
ATOM     94  S   UNL A   1      47.293  34.650  32.560  1.00  0.00     0.124 S 
ATOM     95  O   UNL A   1      46.609  35.856  33.018  1.00  0.00    -0.237 OA
ATOM     96  O   UNL A   1      46.953  33.418  33.263  1.00  0.00    -0.237 OA
ATOM     97  O   UNL A   1      48.714  34.820  32.261  1.00  0.00    -0.744 OA
ENDBRANCH  90  94
ENDBRANCH  64  87
ENDBRANCH  38  39
ENDBRANCH  30  33
ENDBRANCH  28  29
ENDBRANCH  27  28
ENDBRANCH  26  27
ENDBRANCH   1  26
TORSDOF 19
ENDMDL
MODEL 3
REMARK VINA RESULT:     -11.6      5.614      9.983
REMARK SMILES O=C(/C=C/c1ccc(O)cc1)NC[C@@H]1CC[C@H](C(=O)NCCCCNC(=O)c2ccc(-c3c4nc(c(-c5cc(S(=O)(=O)[O-])ccc5F)c5ccc([nH]5)c(-c5cc(S(=O)(=O)[O-])ccc5F)c5nc(c(-c6cc(S(=O)(=O)[O-])ccc6F)c6ccc3[nH]6)C=C5)C=C4)cc2)O1
REMARK SMILES IDX 21 1 20 2 18 3 19 4 17 6 14 7 15 8 91 9 16 10 13 11 12 12
REMARK SMILES IDX 1 13 2 14 3 16 4 17 5 18 6 19 11 20 7 21 10 22 8 23 9 24
REMARK SMILES IDX 22 26 23 27 24 28 25 29 26 30 27 32 28 33 29 34 90 35 30 36
REMARK SMILES IDX 89 37 31 38 32 39 33 40 83 41 34 42 88 43 82 44 84 45 35 46
REMARK SMILES IDX 87 47 81 48 80 49 36 51 68 52 48 53 67 54 49 55 52 56 66 57
REMARK SMILES IDX 85 58 50 59 51 60 65 62 86 63 53 64 37 65 38 66 46 67 39 68
REMARK SMILES IDX 45 69 47 70 44 71 40 72 41 73 42 74 43 75 69 76 70 77 78 78
REMARK SMILES IDX 71 79 77 80 79 81 76 82 72 83 73 84 74 85 75 86 54 87 55 88
REMARK SMILES IDX 63 89 56 90 62 91 64 92 61 93 57 94 58 95 59 96 60 97
REMARK H PARENT 20 5 12 15 9 25 25 31 84 50 52 61
REMARK Flexibility Score: inf
ROOT
ATOM      1  C   UNL A   1      31.264  28.710  25.212  1.00  0.00     0.116 C 
ENDROOT
BRANCH   1   2
ATOM      2  N   UNL A   1      30.633  29.115  23.969  1.00  0.00    -0.354 N 
ATOM      3  C   UNL A   1      30.584  28.458  22.775  1.00  0.00     0.249 C 
ATOM      4  O   UNL A   1      29.912  28.964  21.868  1.00  0.00    -0.272 OA
ATOM      5  H   UNL A   1      30.177  29.986  23.991  1.00  0.00     0.163 HD
BRANCH   3   6
ATOM      6  C   UNL A   1      31.407  27.178  22.506  1.00  0.00     0.207 C 
ATOM      7  C   UNL A   1      32.574  25.418  23.461  1.00  0.00     0.138 C 
ATOM      8  C   UNL A   1      33.575  26.553  23.336  1.00  0.00     0.037 C 
ATOM      9  O   UNL A   1      31.289  26.065  23.395  1.00  0.00    -0.363 OA
ATOM     10  C   UNL A   1      32.895  27.505  22.381  1.00  0.00     0.045 C 
BRANCH   7  11
ATOM     11  C   UNL A   1      32.731  24.526  24.712  1.00  0.00     0.148 C 
BRANCH  11  12
ATOM     12  N   UNL A   1      32.727  23.096  24.424  1.00  0.00    -0.350 N 
ATOM     13  O   UNL A   1      30.860  22.633  25.665  1.00  0.00    -0.270 OA
ATOM     14  C   UNL A   1      31.825  22.256  25.001  1.00  0.00     0.244 C 
ATOM     15  H   UNL A   1      33.391  22.731  23.796  1.00  0.00     0.163 HD
BRANCH  14  16
ATOM     16  C   UNL A   1      32.148  20.809  24.977  1.00  0.00     0.072 C 
ATOM     17  C   UNL A   1      32.664  19.956  24.077  1.00  0.00     0.014 C 
BRANCH  17  18
ATOM     18  C   UNL A   1      33.099  18.591  24.490  1.00  0.00    -0.025 A 
ATOM     19  C   UNL A   1      34.405  18.119  24.275  1.00  0.00     0.012 A 
ATOM     20  C   UNL A   1      32.188  17.694  25.057  1.00  0.00     0.012 A 
ATOM     21  C   UNL A   1      34.783  16.800  24.539  1.00  0.00     0.047 A 
ATOM     22  C   UNL A   1      32.567  16.373  25.355  1.00  0.00     0.047 A 
ATOM     23  C   UNL A   1      33.858  15.934  25.086  1.00  0.00     0.115 A 
BRANCH  23  24
ATOM     24  O   UNL A   1      34.180  14.644  25.377  1.00  0.00    -0.508 OA
ATOM     25  H   UNL A   1      34.870  14.216  24.909  1.00  0.00     0.293 HD
ENDBRANCH  23  24
ENDBRANCH  17  18
ENDBRANCH  14  16
ENDBRANCH  11  12
ENDBRANCH   7  11
ENDBRANCH   3   6
ENDBRANCH   1   2
BRANCH   1  26
ATOM     26  C   UNL A   1      32.383  29.667  25.623  1.00  0.00     0.023 C 
BRANCH  26  27
ATOM     27  C   UNL A   1      32.020  30.914  26.445  1.00  0.00     0.023 C 
BRANCH  27  28
ATOM     28  C   UNL A   1      33.111  31.719  27.163  1.00  0.00     0.116 C 
BRANCH  28  29
ATOM     29  N   UNL A   1      32.735  33.024  27.692  1.00  0.00    -0.352 N 
ATOM     30  C   UNL A   1      33.305  33.873  28.619  1.00  0.00     0.251 C 
ATOM     31  H   UNL A   1      31.900  33.374  27.307  1.00  0.00     0.163 HD
ATOM     32  O   UNL A   1      32.706  34.899  28.937  1.00  0.00    -0.269 OA
BRANCH  30  33
ATOM     33  C   UNL A   1      34.557  33.534  29.339  1.00  0.00     0.039 A 
ATOM     34  C   UNL A   1      34.514  32.615  30.406  1.00  0.00     0.014 A 
ATOM     35  C   UNL A   1      35.768  34.118  29.000  1.00  0.00     0.014 A 
ATOM     36  C   UNL A   1      35.692  32.194  31.037  1.00  0.00     0.010 A 
ATOM     37  C   UNL A   1      36.944  33.659  29.576  1.00  0.00     0.010 A 
ATOM     38  C   UNL A   1      36.918  32.696  30.598  1.00  0.00    -0.014 A 
BRANCH  38  39
ATOM     39  C   UNL A   1      38.208  32.428  31.274  1.00  0.00     0.031 A 
ATOM     40  C   UNL A   1      39.069  31.361  30.667  1.00  0.00     0.074 A 
ATOM     41  C   UNL A   1      38.494  32.953  32.477  1.00  0.00     0.049 A 
ATOM     42  N   UNL A   1      39.970  30.601  31.223  1.00  0.00    -0.248 NA
ATOM     43  C   UNL A   1      38.784  31.049  29.258  1.00  0.00     0.031 C 
ATOM     44  C   UNL A   1      37.716  33.983  33.161  1.00  0.00     0.029 A 
ATOM     45  N   UNL A   1      39.496  32.647  33.362  1.00  0.00    -0.354 N 
ATOM     46  C   UNL A   1      40.302  29.659  30.255  1.00  0.00     0.074 A 
ATOM     47  C   UNL A   1      39.473  29.932  29.099  1.00  0.00     0.031 C 
ATOM     48  C   UNL A   1      38.268  34.224  34.364  1.00  0.00     0.029 A 
ATOM     49  C   UNL A   1      39.399  33.319  34.559  1.00  0.00     0.049 A 
ATOM     50  H   UNL A   1      40.217  32.008  33.160  1.00  0.00     0.167 HD
ATOM     51  C   UNL A   1      41.210  28.657  30.336  1.00  0.00     0.034 A 
ATOM     52  C   UNL A   1      40.120  33.178  35.689  1.00  0.00     0.034 A 
ATOM     53  C   UNL A   1      42.038  28.444  31.495  1.00  0.00     0.049 A 
ATOM     54  C   UNL A   1      41.180  32.100  35.735  1.00  0.00     0.074 A 
ATOM     55  C   UNL A   1      43.018  27.491  31.702  1.00  0.00     0.029 A 
ATOM     56  N   UNL A   1      41.990  29.223  32.648  1.00  0.00    -0.354 N 
ATOM     57  N   UNL A   1      41.481  31.195  34.829  1.00  0.00    -0.248 NA
ATOM     58  C   UNL A   1      41.990  32.016  36.958  1.00  0.00     0.031 C 
ATOM     59  C   UNL A   1      43.540  27.675  32.989  1.00  0.00     0.029 A 
ATOM     60  C   UNL A   1      42.926  28.778  33.564  1.00  0.00     0.049 A 
ATOM     61  H   UNL A   1      41.378  29.980  32.789  1.00  0.00     0.167 HD
ATOM     62  C   UNL A   1      42.529  30.452  35.366  1.00  0.00     0.074 A 
ATOM     63  C   UNL A   1      42.820  31.027  36.664  1.00  0.00     0.031 C 
ATOM     64  C   UNL A   1      43.190  29.386  34.847  1.00  0.00     0.034 A 
BRANCH  51  65
ATOM     65  C   UNL A   1      41.299  27.722  29.154  1.00  0.00     0.023 A 
ATOM     66  C   UNL A   1      42.297  27.872  28.176  1.00  0.00     0.031 A 
ATOM     67  C   UNL A   1      40.313  26.743  28.940  1.00  0.00     0.131 A 
ATOM     68  C   UNL A   1      42.212  27.157  26.973  1.00  0.00     0.055 A 
ATOM     69  C   UNL A   1      40.297  25.955  27.786  1.00  0.00     0.041 A 
ATOM     70  F   UNL A   1      39.321  26.562  29.827  1.00  0.00    -0.206 F 
ATOM     71  C   UNL A   1      41.236  26.177  26.782  1.00  0.00     0.022 A 
BRANCH  68  72
ATOM     72  S   UNL A   1      43.271  27.670  25.594  1.00  0.00     0.124 S 
ATOM     73  O   UNL A   1      42.280  28.138  24.626  1.00  0.00    -0.237 OA
ATOM     74  O   UNL A   1      44.106  28.699  26.200  1.00  0.00    -0.237 OA
ATOM     75  O   UNL A   1      43.966  26.440  25.219  1.00  0.00    -0.744 OA
ENDBRANCH  68  72
ENDBRANCH  51  65
BRANCH  52  76
ATOM     76  C   UNL A   1      39.874  34.048  36.876  1.00  0.00     0.023 A 
ATOM     77  C   UNL A   1      39.256  33.524  38.023  1.00  0.00     0.031 A 
ATOM     78  C   UNL A   1      40.197  35.416  36.871  1.00  0.00     0.131 A 
ATOM     79  C   UNL A   1      38.931  34.369  39.096  1.00  0.00     0.055 A 
ATOM     80  C   UNL A   1      39.919  36.242  37.964  1.00  0.00     0.041 A 
ATOM     81  F   UNL A   1      40.795  35.970  35.806  1.00  0.00    -0.206 F 
ATOM     82  C   UNL A   1      39.268  35.722  39.079  1.00  0.00     0.022 A 
BRANCH  79  83
ATOM     83  S   UNL A   1      37.977  33.682  40.479  1.00  0.00     0.124 S 
ATOM     84  O   UNL A   1      37.660  34.883  41.245  1.00  0.00    -0.237 OA
ATOM     85  O   UNL A   1      36.858  33.048  39.788  1.00  0.00    -0.237 OA
ATOM     86  O   UNL A   1      38.916  32.763  41.116  1.00  0.00    -0.744 OA
ENDBRANCH  79  83
ENDBRANCH  52  76
BRANCH  64  87
ATOM     87  C   UNL A   1      44.325  28.825  35.664  1.00  0.00     0.023 A 
ATOM     88  C   UNL A   1      44.111  27.851  36.655  1.00  0.00     0.031 A 
ATOM     89  C   UNL A   1      45.638  29.277  35.446  1.00  0.00     0.131 A 
ATOM     90  C   UNL A   1      45.190  27.396  37.426  1.00  0.00     0.055 A 
ATOM     91  C   UNL A   1      46.715  28.782  36.181  1.00  0.00     0.041 A 
ATOM     92  F   UNL A   1      45.893  30.206  34.510  1.00  0.00    -0.206 F 
ATOM     93  C   UNL A   1      46.493  27.844  37.185  1.00  0.00     0.022 A 
BRANCH  90  94
ATOM     94  S   UNL A   1      44.860  26.262  38.802  1.00  0.00     0.124 S 
ATOM     95  O   UNL A   1      45.367  24.997  38.280  1.00  0.00    -0.237 OA
ATOM     96  O   UNL A   1      45.628  26.858  39.889  1.00  0.00    -0.237 OA
ATOM     97  O   UNL A   1      43.408  26.329  38.960  1.00  0.00    -0.744 OA
ENDBRANCH  90  94
ENDBRANCH  64  87
ENDBRANCH  38  39
ENDBRANCH  30  33
ENDBRANCH  28  29
ENDBRANCH  27  28
ENDBRANCH  26  27
ENDBRANCH   1  26
TORSDOF 19
ENDMDL
