MODEL 1
REMARK VINA RESULT:     -12.4      0.000      0.000
REMARK SMILES Cc1cc(=O)cc(C)n1C[C@H]1CCCC[C@@H]1C(=O)NCCCCNC(=O)c1ccc(-c2c3nc(c(-c4cc(S(=O)(=O)[O-])ccc4F)c4ccc([nH]4)c(-c4cc(S(=O)(=O)[O-])ccc4F)c4nc(c(-c5cc(S(=O)(=O)[O-])ccc5F)c5ccc2[nH]5)C=C4)C=C3)cc1
REMARK SMILES IDX 22 1 21 2 20 3 19 4 17 5 18 6 16 8 11 9 12 10 13 11 15 12
REMARK SMILES IDX 14 13 10 14 9 15 1 16 2 17 3 18 4 19 7 20 5 21 6 22 8 23
REMARK SMILES IDX 23 24 24 25 25 26 26 28 27 29 28 30 89 31 29 32 88 33 30 34
REMARK SMILES IDX 31 35 32 36 82 37 33 38 87 39 81 40 83 41 34 42 86 43 80 44
REMARK SMILES IDX 79 45 35 47 67 48 47 49 66 50 48 51 51 52 65 53 84 54 49 55
REMARK SMILES IDX 50 56 64 58 85 59 52 60 36 61 37 62 45 63 38 64 44 65 46 66
REMARK SMILES IDX 43 67 39 68 40 69 41 70 42 71 68 72 69 73 77 74 70 75 76 76
REMARK SMILES IDX 78 77 75 78 71 79 72 80 73 81 74 82 53 83 54 84 62 85 55 86
REMARK SMILES IDX 61 87 63 88 60 89 56 90 57 91 58 92 59 93
REMARK H PARENT 19 7 24 27 83 46 51 57
REMARK Flexibility Score: inf
ROOT
ATOM      1  C   UNL A   1      31.715  29.524  25.317  1.00  0.00     0.023 C 
ENDROOT
BRANCH   1   2
ATOM      2  C   UNL A   1      32.645  29.336  24.122  1.00  0.00     0.023 C 
BRANCH   2   3
ATOM      3  C   UNL A   1      32.005  28.785  22.853  1.00  0.00     0.116 C 
BRANCH   3   4
ATOM      4  N   UNL A   1      32.795  27.796  22.141  1.00  0.00    -0.356 N 
ATOM      5  C   UNL A   1      33.116  26.496  22.392  1.00  0.00     0.223 C 
ATOM      6  O   UNL A   1      33.661  25.906  21.448  1.00  0.00    -0.275 OA
ATOM      7  H   UNL A   1      33.181  28.138  21.302  1.00  0.00     0.163 HD
BRANCH   5   8
ATOM      8  C   UNL A   1      32.961  25.746  23.748  1.00  0.00     0.083 C 
ATOM      9  C   UNL A   1      33.247  24.202  23.566  1.00  0.00     0.021 C 
ATOM     10  C   UNL A   1      32.073  23.620  22.756  1.00  0.00     0.006 C 
ATOM     11  C   UNL A   1      30.711  23.835  23.427  1.00  0.00     0.000 C 
ATOM     12  C   UNL A   1      31.674  25.902  24.559  1.00  0.00     0.014 C 
ATOM     13  C   UNL A   1      30.466  25.269  23.875  1.00  0.00     0.001 C 
BRANCH   9  14
ATOM     14  C   UNL A   1      33.447  23.500  24.948  1.00  0.00     0.126 C 
BRANCH  14  15
ATOM     15  N   UNL A   1      34.404  22.348  24.967  1.00  0.00    -0.349 N 
ATOM     16  C   UNL A   1      36.287  23.947  25.591  1.00  0.00     0.064 C 
ATOM     17  C   UNL A   1      35.785  22.567  25.239  1.00  0.00     0.018 A 
ATOM     18  C   UNL A   1      36.688  21.568  25.260  1.00  0.00     0.073 A 
ATOM     19  C   UNL A   1      36.259  20.184  25.013  1.00  0.00     0.182 A 
ATOM     20  C   UNL A   1      33.965  20.998  24.849  1.00  0.00     0.018 A 
ATOM     21  O   UNL A   1      37.058  19.255  25.005  1.00  0.00    -0.290 OA
ATOM     22  C   UNL A   1      34.819  19.957  24.842  1.00  0.00     0.073 A 
ATOM     23  C   UNL A   1      32.504  20.629  24.809  1.00  0.00     0.064 C 
ENDBRANCH  14  15
ENDBRANCH   9  14
ENDBRANCH   5   8
ENDBRANCH   3   4
ENDBRANCH   2   3
ENDBRANCH   1   2
BRANCH   1  24
ATOM     24  C   UNL A   1      32.361  29.974  26.627  1.00  0.00     0.116 C 
BRANCH  24  25
ATOM     25  N   UNL A   1      32.307  31.410  26.866  1.00  0.00    -0.352 N 
ATOM     26  C   UNL A   1      33.263  32.244  27.412  1.00  0.00     0.251 C 
ATOM     27  H   UNL A   1      31.467  31.850  26.600  1.00  0.00     0.163 HD
ATOM     28  O   UNL A   1      33.030  33.426  27.573  1.00  0.00    -0.269 OA
BRANCH  26  29
ATOM     29  C   UNL A   1      34.553  31.659  27.844  1.00  0.00     0.039 A 
ATOM     30  C   UNL A   1      35.640  32.512  28.047  1.00  0.00     0.014 A 
ATOM     31  C   UNL A   1      34.654  30.296  28.131  1.00  0.00     0.014 A 
ATOM     32  C   UNL A   1      36.800  32.013  28.641  1.00  0.00     0.010 A 
ATOM     33  C   UNL A   1      35.783  29.818  28.786  1.00  0.00     0.010 A 
ATOM     34  C   UNL A   1      36.859  30.675  29.065  1.00  0.00    -0.014 A 
BRANCH  34  35
ATOM     35  C   UNL A   1      38.032  30.159  29.817  1.00  0.00     0.031 A 
ATOM     36  C   UNL A   1      38.292  30.634  31.218  1.00  0.00     0.074 A 
ATOM     37  C   UNL A   1      38.890  29.308  29.217  1.00  0.00     0.049 A 
ATOM     38  N   UNL A   1      39.304  30.373  32.003  1.00  0.00    -0.248 NA
ATOM     39  C   UNL A   1      37.296  31.546  31.801  1.00  0.00     0.031 C 
ATOM     40  C   UNL A   1      38.761  28.799  27.849  1.00  0.00     0.029 A 
ATOM     41  N   UNL A   1      40.039  28.719  29.680  1.00  0.00    -0.354 N 
ATOM     42  C   UNL A   1      39.072  31.093  33.169  1.00  0.00     0.074 A 
ATOM     43  C   UNL A   1      37.853  31.848  32.963  1.00  0.00     0.031 C 
ATOM     44  C   UNL A   1      39.768  27.947  27.600  1.00  0.00     0.029 A 
ATOM     45  C   UNL A   1      40.636  27.878  28.771  1.00  0.00     0.049 A 
ATOM     46  H   UNL A   1      40.402  28.884  30.580  1.00  0.00     0.167 HD
ATOM     47  C   UNL A   1      39.794  31.106  34.315  1.00  0.00     0.034 A 
ATOM     48  C   UNL A   1      41.759  27.138  28.868  1.00  0.00     0.034 A 
ATOM     49  C   UNL A   1      40.992  30.333  34.519  1.00  0.00     0.049 A 
ATOM     50  C   UNL A   1      42.557  27.186  30.143  1.00  0.00     0.074 A 
ATOM     51  C   UNL A   1      41.777  30.246  35.656  1.00  0.00     0.029 A 
ATOM     52  N   UNL A   1      41.576  29.510  33.566  1.00  0.00    -0.354 N 
ATOM     53  N   UNL A   1      42.323  27.874  31.235  1.00  0.00    -0.248 NA
ATOM     54  C   UNL A   1      43.771  26.359  30.197  1.00  0.00     0.031 C 
ATOM     55  C   UNL A   1      42.860  29.405  35.375  1.00  0.00     0.029 A 
ATOM     56  C   UNL A   1      42.721  28.925  34.082  1.00  0.00     0.049 A 
ATOM     57  H   UNL A   1      41.228  29.363  32.658  1.00  0.00     0.167 HD
ATOM     58  C   UNL A   1      43.352  27.551  32.114  1.00  0.00     0.074 A 
ATOM     59  C   UNL A   1      44.205  26.601  31.428  1.00  0.00     0.031 C 
ATOM     60  C   UNL A   1      43.568  27.995  33.377  1.00  0.00     0.034 A 
BRANCH  47  61
ATOM     61  C   UNL A   1      39.301  31.990  35.430  1.00  0.00     0.023 A 
ATOM     62  C   UNL A   1      39.734  33.321  35.550  1.00  0.00     0.031 A 
ATOM     63  C   UNL A   1      38.403  31.494  36.390  1.00  0.00     0.131 A 
ATOM     64  C   UNL A   1      39.317  34.094  36.643  1.00  0.00     0.055 A 
ATOM     65  C   UNL A   1      37.937  32.291  37.437  1.00  0.00     0.041 A 
ATOM     66  F   UNL A   1      37.973  30.224  36.332  1.00  0.00    -0.206 F 
ATOM     67  C   UNL A   1      38.403  33.596  37.574  1.00  0.00     0.022 A 
BRANCH  64  68
ATOM     68  S   UNL A   1      40.064  35.727  36.885  1.00  0.00     0.124 S 
ATOM     69  O   UNL A   1      41.484  35.389  36.971  1.00  0.00    -0.237 OA
ATOM     70  O   UNL A   1      39.653  36.448  35.684  1.00  0.00    -0.237 OA
ATOM     71  O   UNL A   1      39.463  36.198  38.130  1.00  0.00    -0.744 OA
ENDBRANCH  64  68
ENDBRANCH  47  61
BRANCH  48  72
ATOM     72  C   UNL A   1      42.196  26.288  27.728  1.00  0.00     0.023 A 
ATOM     73  C   UNL A   1      41.819  24.938  27.654  1.00  0.00     0.031 A 
ATOM     74  C   UNL A   1      42.998  26.811  26.698  1.00  0.00     0.131 A 
ATOM     75  C   UNL A   1      42.265  24.147  26.584  1.00  0.00     0.055 A 
ATOM     76  C   UNL A   1      43.412  26.028  25.619  1.00  0.00     0.041 A 
ATOM     77  F   UNL A   1      43.373  28.099  26.720  1.00  0.00    -0.206 F 
ATOM     78  C   UNL A   1      43.050  24.685  25.561  1.00  0.00     0.022 A 
BRANCH  75  79
ATOM     79  S   UNL A   1      41.821  22.389  26.556  1.00  0.00     0.124 S 
ATOM     80  O   UNL A   1      42.349  21.929  27.836  1.00  0.00    -0.237 OA
ATOM     81  O   UNL A   1      40.367  22.442  26.442  1.00  0.00    -0.237 OA
ATOM     82  O   UNL A   1      42.516  21.881  25.374  1.00  0.00    -0.744 OA
ENDBRANCH  75  79
ENDBRANCH  48  72
BRANCH  60  83
ATOM     83  C   UNL A   1      44.761  27.442  34.107  1.00  0.00     0.023 A 
ATOM     84  C   UNL A   1      44.668  26.275  34.880  1.00  0.00     0.031 A 
ATOM     85  C   UNL A   1      46.013  28.070  33.989  1.00  0.00     0.131 A 
ATOM     86  C   UNL A   1      45.808  25.782  35.533  1.00  0.00     0.055 A 
ATOM     87  C   UNL A   1      47.151  27.552  34.606  1.00  0.00     0.041 A 
ATOM     88  F   UNL A   1      46.150  29.188  33.257  1.00  0.00    -0.206 F 
ATOM     89  C   UNL A   1      47.052  26.404  35.387  1.00  0.00     0.022 A 
BRANCH  86  90
ATOM     90  S   UNL A   1      45.642  24.326  36.600  1.00  0.00     0.124 S 
ATOM     91  O   UNL A   1      44.457  23.678  36.046  1.00  0.00    -0.237 OA
ATOM     92  O   UNL A   1      46.907  23.630  36.385  1.00  0.00    -0.237 OA
ATOM     93  O   UNL A   1      45.471  24.895  37.935  1.00  0.00    -0.744 OA
ENDBRANCH  86  90
ENDBRANCH  60  83
ENDBRANCH  34  35
ENDBRANCH  26  29
ENDBRANCH  24  25
ENDBRANCH   1  24
TORSDOF 16
ENDMDL
MODEL 2
REMARK VINA RESULT:     -12.3      1.849      7.776
REMARK SMILES Cc1cc(=O)cc(C)n1C[C@H]1CCCC[C@@H]1C(=O)NCCCCNC(=O)c1ccc(-c2c3nc(c(-c4cc(S(=O)(=O)[O-])ccc4F)c4ccc([nH]4)c(-c4cc(S(=O)(=O)[O-])ccc4F)c4nc(c(-c5cc(S(=O)(=O)[O-])ccc5F)c5ccc2[nH]5)C=C4)C=C3)cc1
REMARK SMILES IDX 22 1 21 2 20 3 19 4 17 5 18 6 16 8 11 9 12 10 13 11 15 12
REMARK SMILES IDX 14 13 10 14 9 15 1 16 2 17 3 18 4 19 7 20 5 21 6 22 8 23
REMARK SMILES IDX 23 24 24 25 25 26 26 28 27 29 28 30 89 31 29 32 88 33 30 34
REMARK SMILES IDX 31 35 32 36 82 37 33 38 87 39 81 40 83 41 34 42 86 43 80 44
REMARK SMILES IDX 79 45 35 47 67 48 47 49 66 50 48 51 51 52 65 53 84 54 49 55
REMARK SMILES IDX 50 56 64 58 85 59 52 60 36 61 37 62 45 63 38 64 44 65 46 66
REMARK SMILES IDX 43 67 39 68 40 69 41 70 42 71 68 72 69 73 77 74 70 75 76 76
REMARK SMILES IDX 78 77 75 78 71 79 72 80 73 81 74 82 53 83 54 84 62 85 55 86
REMARK SMILES IDX 61 87 63 88 60 89 56 90 57 91 58 92 59 93
REMARK H PARENT 19 7 24 27 83 46 51 57
REMARK Flexibility Score: inf
ROOT
ATOM      1  C   UNL A   1      31.420  28.831  25.390  1.00  0.00     0.023 C 
ENDROOT
BRANCH   1   2
ATOM      2  C   UNL A   1      30.986  28.847  23.926  1.00  0.00     0.023 C 
BRANCH   2   3
ATOM      3  C   UNL A   1      30.191  27.637  23.449  1.00  0.00     0.116 C 
BRANCH   3   4
ATOM      4  N   UNL A   1      30.003  26.591  24.439  1.00  0.00    -0.356 N 
ATOM      5  C   UNL A   1      30.720  25.484  24.780  1.00  0.00     0.223 C 
ATOM      6  O   UNL A   1      30.343  24.923  25.819  1.00  0.00    -0.275 OA
ATOM      7  H   UNL A   1      29.186  26.707  24.975  1.00  0.00     0.163 HD
BRANCH   5   8
ATOM      8  C   UNL A   1      31.860  24.823  23.949  1.00  0.00     0.083 C 
ATOM      9  C   UNL A   1      32.588  23.704  24.795  1.00  0.00     0.021 C 
ATOM     10  C   UNL A   1      33.387  24.423  25.899  1.00  0.00     0.006 C 
ATOM     11  C   UNL A   1      34.409  25.424  25.349  1.00  0.00     0.000 C 
ATOM     12  C   UNL A   1      32.929  25.700  23.296  1.00  0.00     0.014 C 
ATOM     13  C   UNL A   1      33.835  26.383  24.315  1.00  0.00     0.001 C 
BRANCH   9  14
ATOM     14  C   UNL A   1      33.478  22.799  23.883  1.00  0.00     0.126 C 
BRANCH  14  15
ATOM     15  N   UNL A   1      33.286  21.321  24.036  1.00  0.00    -0.349 N 
ATOM     16  C   UNL A   1      31.799  21.319  21.967  1.00  0.00     0.064 C 
ATOM     17  C   UNL A   1      32.443  20.610  23.135  1.00  0.00     0.018 A 
ATOM     18  C   UNL A   1      32.230  19.284  23.233  1.00  0.00     0.073 A 
ATOM     19  C   UNL A   1      32.892  18.510  24.292  1.00  0.00     0.182 A 
ATOM     20  C   UNL A   1      34.024  20.556  24.986  1.00  0.00     0.018 A 
ATOM     21  O   UNL A   1      32.705  17.306  24.421  1.00  0.00    -0.290 OA
ATOM     22  C   UNL A   1      33.842  19.233  25.146  1.00  0.00     0.073 A 
ATOM     23  C   UNL A   1      35.125  21.160  25.820  1.00  0.00     0.064 C 
ENDBRANCH  14  15
ENDBRANCH   9  14
ENDBRANCH   5   8
ENDBRANCH   3   4
ENDBRANCH   2   3
ENDBRANCH   1   2
BRANCH   1  24
ATOM     24  C   UNL A   1      32.606  29.719  25.765  1.00  0.00     0.116 C 
BRANCH  24  25
ATOM     25  N   UNL A   1      32.238  31.027  26.291  1.00  0.00    -0.352 N 
ATOM     26  C   UNL A   1      32.942  31.861  27.138  1.00  0.00     0.251 C 
ATOM     27  H   UNL A   1      31.360  31.366  26.000  1.00  0.00     0.163 HD
ATOM     28  O   UNL A   1      32.459  32.914  27.508  1.00  0.00    -0.269 OA
BRANCH  26  29
ATOM     29  C   UNL A   1      34.269  31.422  27.626  1.00  0.00     0.039 A 
ATOM     30  C   UNL A   1      35.260  32.385  27.828  1.00  0.00     0.014 A 
ATOM     31  C   UNL A   1      34.495  30.086  27.963  1.00  0.00     0.014 A 
ATOM     32  C   UNL A   1      36.444  32.023  28.471  1.00  0.00     0.010 A 
ATOM     33  C   UNL A   1      35.645  29.744  28.665  1.00  0.00     0.010 A 
ATOM     34  C   UNL A   1      36.622  30.713  28.944  1.00  0.00    -0.014 A 
BRANCH  34  35
ATOM     35  C   UNL A   1      37.816  30.340  29.746  1.00  0.00     0.031 A 
ATOM     36  C   UNL A   1      38.872  29.454  29.150  1.00  0.00     0.074 A 
ATOM     37  C   UNL A   1      37.918  30.754  31.026  1.00  0.00     0.049 A 
ATOM     38  N   UNL A   1      39.937  28.946  29.713  1.00  0.00    -0.248 NA
ATOM     39  C   UNL A   1      38.690  29.066  27.743  1.00  0.00     0.031 C 
ATOM     40  C   UNL A   1      36.940  31.592  31.726  1.00  0.00     0.029 A 
ATOM     41  N   UNL A   1      38.891  30.528  31.966  1.00  0.00    -0.354 N 
ATOM     42  C   UNL A   1      40.548  28.172  28.734  1.00  0.00     0.074 A 
ATOM     43  C   UNL A   1      39.701  28.232  27.560  1.00  0.00     0.031 C 
ATOM     44  C   UNL A   1      37.384  31.839  32.969  1.00  0.00     0.029 A 
ATOM     45  C   UNL A   1      38.653  31.147  33.170  1.00  0.00     0.049 A 
ATOM     46  H   UNL A   1      39.686  29.973  31.794  1.00  0.00     0.167 HD
ATOM     47  C   UNL A   1      41.720  27.495  28.798  1.00  0.00     0.034 A 
ATOM     48  C   UNL A   1      39.373  31.154  34.310  1.00  0.00     0.034 A 
ATOM     49  C   UNL A   1      42.567  27.461  29.962  1.00  0.00     0.049 A 
ATOM     50  C   UNL A   1      40.660  30.375  34.364  1.00  0.00     0.074 A 
ATOM     51  C   UNL A   1      43.791  26.836  30.118  1.00  0.00     0.029 A 
ATOM     52  N   UNL A   1      42.279  28.084  31.169  1.00  0.00    -0.354 N 
ATOM     53  N   UNL A   1      41.222  29.647  33.428  1.00  0.00    -0.248 NA
ATOM     54  C   UNL A   1      41.408  30.417  35.629  1.00  0.00     0.031 C 
ATOM     55  C   UNL A   1      44.223  27.043  31.433  1.00  0.00     0.029 A 
ATOM     56  C   UNL A   1      43.295  27.844  32.080  1.00  0.00     0.049 A 
ATOM     57  H   UNL A   1      41.473  28.619  31.350  1.00  0.00     0.167 HD
ATOM     58  C   UNL A   1      42.399  29.158  33.986  1.00  0.00     0.074 A 
ATOM     59  C   UNL A   1      42.470  29.677  35.337  1.00  0.00     0.031 C 
ATOM     60  C   UNL A   1      43.339  28.355  33.427  1.00  0.00     0.034 A 
BRANCH  47  61
ATOM     61  C   UNL A   1      42.143  26.733  27.569  1.00  0.00     0.023 A 
ATOM     62  C   UNL A   1      41.878  25.360  27.436  1.00  0.00     0.031 A 
ATOM     63  C   UNL A   1      42.830  27.382  26.529  1.00  0.00     0.131 A 
ATOM     64  C   UNL A   1      42.352  24.664  26.315  1.00  0.00     0.055 A 
ATOM     65  C   UNL A   1      43.240  26.697  25.384  1.00  0.00     0.041 A 
ATOM     66  F   UNL A   1      43.126  28.688  26.616  1.00  0.00    -0.206 F 
ATOM     67  C   UNL A   1      43.011  25.327  25.277  1.00  0.00     0.022 A 
BRANCH  64  68
ATOM     68  S   UNL A   1      42.184  22.860  26.281  1.00  0.00     0.124 S 
ATOM     69  O   UNL A   1      43.023  22.466  27.411  1.00  0.00    -0.237 OA
ATOM     70  O   UNL A   1      40.749  22.669  26.457  1.00  0.00    -0.237 OA
ATOM     71  O   UNL A   1      42.705  22.493  24.966  1.00  0.00    -0.744 OA
ENDBRANCH  64  68
ENDBRANCH  47  61
BRANCH  48  72
ATOM     72  C   UNL A   1      38.898  31.923  35.492  1.00  0.00     0.023 A 
ATOM     73  C   UNL A   1      38.247  31.277  36.554  1.00  0.00     0.031 A 
ATOM     74  C   UNL A   1      39.085  33.313  35.574  1.00  0.00     0.131 A 
ATOM     75  C   UNL A   1      37.783  32.024  37.646  1.00  0.00     0.055 A 
ATOM     76  C   UNL A   1      38.651  34.049  36.679  1.00  0.00     0.041 A 
ATOM     77  F   UNL A   1      39.713  33.972  34.588  1.00  0.00    -0.206 F 
ATOM     78  C   UNL A   1      37.989  33.405  37.721  1.00  0.00     0.022 A 
BRANCH  75  79
ATOM     79  S   UNL A   1      36.882  31.171  38.968  1.00  0.00     0.124 S 
ATOM     80  O   UNL A   1      37.821  31.270  40.080  1.00  0.00    -0.237 OA
ATOM     81  O   UNL A   1      35.667  31.973  39.078  1.00  0.00    -0.237 OA
ATOM     82  O   UNL A   1      36.686  29.825  38.433  1.00  0.00    -0.744 OA
ENDBRANCH  75  79
ENDBRANCH  48  72
BRANCH  60  83
ATOM     83  C   UNL A   1      44.536  28.008  34.269  1.00  0.00     0.023 A 
ATOM     84  C   UNL A   1      44.576  26.832  35.033  1.00  0.00     0.031 A 
ATOM     85  C   UNL A   1      45.665  28.846  34.269  1.00  0.00     0.131 A 
ATOM     86  C   UNL A   1      45.717  26.536  35.794  1.00  0.00     0.055 A 
ATOM     87  C   UNL A   1      46.813  28.525  34.994  1.00  0.00     0.041 A 
ATOM     88  F   UNL A   1      45.673  29.980  33.551  1.00  0.00    -0.206 F 
ATOM     89  C   UNL A   1      46.841  27.367  35.766  1.00  0.00     0.022 A 
BRANCH  86  90
ATOM     90  S   UNL A   1      45.707  25.058  36.845  1.00  0.00     0.124 S 
ATOM     91  O   UNL A   1      44.301  24.670  36.807  1.00  0.00    -0.237 OA
ATOM     92  O   UNL A   1      46.633  24.169  36.149  1.00  0.00    -0.237 OA
ATOM     93  O   UNL A   1      46.181  25.552  38.136  1.00  0.00    -0.744 OA
ENDBRANCH  86  90
ENDBRANCH  60  83
ENDBRANCH  34  35
ENDBRANCH  26  29
ENDBRANCH  24  25
ENDBRANCH   1  24
TORSDOF 16
ENDMDL
MODEL 3
REMARK VINA RESULT:     -12.2      0.517      7.770
REMARK SMILES Cc1cc(=O)cc(C)n1C[C@H]1CCCC[C@@H]1C(=O)NCCCCNC(=O)c1ccc(-c2c3nc(c(-c4cc(S(=O)(=O)[O-])ccc4F)c4ccc([nH]4)c(-c4cc(S(=O)(=O)[O-])ccc4F)c4nc(c(-c5cc(S(=O)(=O)[O-])ccc5F)c5ccc2[nH]5)C=C4)C=C3)cc1
REMARK SMILES IDX 22 1 21 2 20 3 19 4 17 5 18 6 16 8 11 9 12 10 13 11 15 12
REMARK SMILES IDX 14 13 10 14 9 15 1 16 2 17 3 18 4 19 7 20 5 21 6 22 8 23
REMARK SMILES IDX 23 24 24 25 25 26 26 28 27 29 28 30 89 31 29 32 88 33 30 34
REMARK SMILES IDX 31 35 32 36 82 37 33 38 87 39 81 40 83 41 34 42 86 43 80 44
REMARK SMILES IDX 79 45 35 47 67 48 47 49 66 50 48 51 51 52 65 53 84 54 49 55
REMARK SMILES IDX 50 56 64 58 85 59 52 60 36 61 37 62 45 63 38 64 44 65 46 66
REMARK SMILES IDX 43 67 39 68 40 69 41 70 42 71 68 72 69 73 77 74 70 75 76 76
REMARK SMILES IDX 78 77 75 78 71 79 72 80 73 81 74 82 53 83 54 84 62 85 55 86
REMARK SMILES IDX 61 87 63 88 60 89 56 90 57 91 58 92 59 93
REMARK H PARENT 19 7 24 27 83 46 51 57
REMARK Flexibility Score: inf
ROOT
ATOM      1  C   UNL A   1      31.655  28.898  25.254  1.00  0.00     0.023 C 
ENDROOT
BRANCH   1   2
ATOM      2  C   UNL A   1      31.202  29.258  23.842  1.00  0.00     0.023 C 
BRANCH   2   3
ATOM      3  C   UNL A   1      30.933  28.087  22.903  1.00  0.00     0.116 C 
BRANCH   3   4
ATOM      4  N   UNL A   1      32.113  27.505  22.289  1.00  0.00    -0.356 N 
ATOM      5  C   UNL A   1      32.847  26.386  22.545  1.00  0.00     0.223 C 
ATOM      6  O   UNL A   1      33.687  26.108  21.677  1.00  0.00    -0.275 OA
ATOM      7  H   UNL A   1      32.454  28.029  21.528  1.00  0.00     0.163 HD
BRANCH   5   8
ATOM      8  C   UNL A   1      32.801  25.521  23.839  1.00  0.00     0.083 C 
ATOM      9  C   UNL A   1      33.646  24.198  23.655  1.00  0.00     0.021 C 
ATOM     10  C   UNL A   1      32.877  23.308  22.660  1.00  0.00     0.006 C 
ATOM     11  C   UNL A   1      31.455  22.971  23.126  1.00  0.00     0.000 C 
ATOM     12  C   UNL A   1      31.451  25.144  24.452  1.00  0.00     0.014 C 
ATOM     13  C   UNL A   1      30.653  24.184  23.576  1.00  0.00     0.001 C 
BRANCH   9  14
ATOM     14  C   UNL A   1      33.906  23.500  25.029  1.00  0.00     0.126 C 
BRANCH  14  15
ATOM     15  N   UNL A   1      34.904  22.383  25.020  1.00  0.00    -0.349 N 
ATOM     16  C   UNL A   1      36.778  24.078  25.344  1.00  0.00     0.064 C 
ATOM     17  C   UNL A   1      36.296  22.662  25.133  1.00  0.00     0.018 A 
ATOM     18  C   UNL A   1      37.234  21.697  25.121  1.00  0.00     0.073 A 
ATOM     19  C   UNL A   1      36.836  20.287  25.006  1.00  0.00     0.182 A 
ATOM     20  C   UNL A   1      34.508  21.014  25.031  1.00  0.00     0.018 A 
ATOM     21  O   UNL A   1      37.665  19.385  24.973  1.00  0.00    -0.290 OA
ATOM     22  C   UNL A   1      35.396  20.003  25.001  1.00  0.00     0.073 A 
ATOM     23  C   UNL A   1      33.065  20.598  25.167  1.00  0.00     0.064 C 
ENDBRANCH  14  15
ENDBRANCH   9  14
ENDBRANCH   5   8
ENDBRANCH   3   4
ENDBRANCH   2   3
ENDBRANCH   1   2
BRANCH   1  24
ATOM     24  C   UNL A   1      32.820  29.703  25.829  1.00  0.00     0.116 C 
BRANCH  24  25
ATOM     25  N   UNL A   1      32.445  31.002  26.373  1.00  0.00    -0.352 N 
ATOM     26  C   UNL A   1      33.139  31.820  27.244  1.00  0.00     0.251 C 
ATOM     27  H   UNL A   1      31.572  31.347  26.077  1.00  0.00     0.163 HD
ATOM     28  O   UNL A   1      32.651  32.867  27.626  1.00  0.00    -0.269 OA
BRANCH  26  29
ATOM     29  C   UNL A   1      34.459  31.372  27.741  1.00  0.00     0.039 A 
ATOM     30  C   UNL A   1      35.443  32.331  27.985  1.00  0.00     0.014 A 
ATOM     31  C   UNL A   1      34.683  30.027  28.046  1.00  0.00     0.014 A 
ATOM     32  C   UNL A   1      36.619  31.956  28.638  1.00  0.00     0.010 A 
ATOM     33  C   UNL A   1      35.823  29.670  28.758  1.00  0.00     0.010 A 
ATOM     34  C   UNL A   1      36.793  30.633  29.078  1.00  0.00    -0.014 A 
BRANCH  34  35
ATOM     35  C   UNL A   1      37.974  30.243  29.889  1.00  0.00     0.031 A 
ATOM     36  C   UNL A   1      38.981  29.278  29.330  1.00  0.00     0.074 A 
ATOM     37  C   UNL A   1      38.107  30.712  31.146  1.00  0.00     0.049 A 
ATOM     38  N   UNL A   1      40.025  28.747  29.910  1.00  0.00    -0.248 NA
ATOM     39  C   UNL A   1      38.768  28.832  27.945  1.00  0.00     0.031 C 
ATOM     40  C   UNL A   1      37.178  31.630  31.812  1.00  0.00     0.029 A 
ATOM     41  N   UNL A   1      39.077  30.485  32.090  1.00  0.00    -0.354 N 
ATOM     42  C   UNL A   1      40.589  27.898  28.966  1.00  0.00     0.074 A 
ATOM     43  C   UNL A   1      39.736  27.942  27.796  1.00  0.00     0.031 C 
ATOM     44  C   UNL A   1      37.645  31.916  33.038  1.00  0.00     0.029 A 
ATOM     45  C   UNL A   1      38.881  31.173  33.264  1.00  0.00     0.049 A 
ATOM     46  H   UNL A   1      39.843  29.885  31.940  1.00  0.00     0.167 HD
ATOM     47  C   UNL A   1      41.728  27.169  29.054  1.00  0.00     0.034 A 
ATOM     48  C   UNL A   1      39.611  31.200  34.397  1.00  0.00     0.034 A 
ATOM     49  C   UNL A   1      42.583  27.150  30.213  1.00  0.00     0.049 A 
ATOM     50  C   UNL A   1      40.859  30.363  34.481  1.00  0.00     0.074 A 
ATOM     51  C   UNL A   1      43.777  26.475  30.391  1.00  0.00     0.029 A 
ATOM     52  N   UNL A   1      42.337  27.844  31.390  1.00  0.00    -0.354 N 
ATOM     53  N   UNL A   1      41.377  29.564  33.578  1.00  0.00    -0.248 NA
ATOM     54  C   UNL A   1      41.620  30.429  35.737  1.00  0.00     0.031 C 
ATOM     55  C   UNL A   1      44.231  26.724  31.691  1.00  0.00     0.029 A 
ATOM     56  C   UNL A   1      43.348  27.599  32.304  1.00  0.00     0.049 A 
ATOM     57  H   UNL A   1      41.559  28.425  31.550  1.00  0.00     0.167 HD
ATOM     58  C   UNL A   1      42.534  29.046  34.150  1.00  0.00     0.074 A 
ATOM     59  C   UNL A   1      42.642  29.626  35.474  1.00  0.00     0.031 C 
ATOM     60  C   UNL A   1      43.429  28.172  33.625  1.00  0.00     0.034 A 
BRANCH  47  61
ATOM     61  C   UNL A   1      42.102  26.329  27.862  1.00  0.00     0.023 A 
ATOM     62  C   UNL A   1      41.687  24.991  27.753  1.00  0.00     0.031 A 
ATOM     63  C   UNL A   1      42.894  26.865  26.832  1.00  0.00     0.131 A 
ATOM     64  C   UNL A   1      42.117  24.213  26.669  1.00  0.00     0.055 A 
ATOM     65  C   UNL A   1      43.260  26.105  25.720  1.00  0.00     0.041 A 
ATOM     66  F   UNL A   1      43.333  28.131  26.896  1.00  0.00    -0.206 F 
ATOM     67  C   UNL A   1      42.881  24.768  25.639  1.00  0.00     0.022 A 
BRANCH  64  68
ATOM     68  S   UNL A   1      41.746  22.440  26.673  1.00  0.00     0.124 S 
ATOM     69  O   UNL A   1      42.278  22.026  25.376  1.00  0.00    -0.237 OA
ATOM     70  O   UNL A   1      42.476  21.963  27.843  1.00  0.00    -0.237 OA
ATOM     71  O   UNL A   1      40.289  22.395  26.787  1.00  0.00    -0.744 OA
ENDBRANCH  64  68
ENDBRANCH  47  61
BRANCH  48  72
ATOM     72  C   UNL A   1      39.184  32.047  35.543  1.00  0.00     0.023 A 
ATOM     73  C   UNL A   1      39.675  33.354  35.691  1.00  0.00     0.031 A 
ATOM     74  C   UNL A   1      38.283  31.563  36.507  1.00  0.00     0.131 A 
ATOM     75  C   UNL A   1      39.281  34.126  36.794  1.00  0.00     0.055 A 
ATOM     76  C   UNL A   1      37.868  32.347  37.586  1.00  0.00     0.041 A 
ATOM     77  F   UNL A   1      37.778  30.324  36.401  1.00  0.00    -0.206 F 
ATOM     78  C   UNL A   1      38.373  33.636  37.737  1.00  0.00     0.022 A 
BRANCH  75  79
ATOM     79  S   UNL A   1      39.990  35.783  36.996  1.00  0.00     0.124 S 
ATOM     80  O   UNL A   1      39.278  36.269  38.173  1.00  0.00    -0.237 OA
ATOM     81  O   UNL A   1      41.408  35.489  37.177  1.00  0.00    -0.237 OA
ATOM     82  O   UNL A   1      39.653  36.453  35.741  1.00  0.00    -0.744 OA
ENDBRANCH  75  79
ENDBRANCH  48  72
BRANCH  60  83
ATOM     83  C   UNL A   1      44.616  27.809  34.475  1.00  0.00     0.023 A 
ATOM     84  C   UNL A   1      44.579  26.714  35.352  1.00  0.00     0.031 A 
ATOM     85  C   UNL A   1      45.810  28.543  34.369  1.00  0.00     0.131 A 
ATOM     86  C   UNL A   1      45.711  26.398  36.117  1.00  0.00     0.055 A 
ATOM     87  C   UNL A   1      46.946  28.198  35.101  1.00  0.00     0.041 A 
ATOM     88  F   UNL A   1      45.892  29.596  33.541  1.00  0.00    -0.206 F 
ATOM     89  C   UNL A   1      46.900  27.123  35.984  1.00  0.00     0.022 A 
BRANCH  86  90
ATOM     90  S   UNL A   1      45.608  25.037  37.310  1.00  0.00     0.124 S 
ATOM     91  O   UNL A   1      45.652  25.748  38.584  1.00  0.00    -0.237 OA
ATOM     92  O   UNL A   1      44.331  24.416  36.972  1.00  0.00    -0.237 OA
ATOM     93  O   UNL A   1      46.786  24.226  37.010  1.00  0.00    -0.744 OA
ENDBRANCH  86  90
ENDBRANCH  60  83
ENDBRANCH  34  35
ENDBRANCH  26  29
ENDBRANCH  24  25
ENDBRANCH   1  24
TORSDOF 16
ENDMDL
