MODEL 1
REMARK VINA RESULT:     -12.7      0.000      0.000
REMARK SMILES O=C(NCCCCNC(=O)c1ccc(-c2c3nc(c(-c4cc(S(=O)(=O)[O-])ccc4F)c4ccc([nH]4)c(-c4cc(S(=O)(=O)[O-])ccc4F)c4nc(c(-c5cc(S(=O)(=O)[O-])ccc5F)c5ccc2[nH]5)C=C4)C=C3)cc1)C1=Cc2cc(S(F)(F)(F)(F)F)ccc2O[C@@H]1C(F)(F)F
REMARK SMILES IDX 6 1 5 2 4 3 3 4 1 5 2 6 74 8 75 9 89 10 76 11 88 12 77 13
REMARK SMILES IDX 87 14 78 15 86 16 85 17 90 18 91 19 92 20 93 21 79 22 80 23
REMARK SMILES IDX 81 24 82 25 83 26 84 27 7 28 8 29 9 30 10 32 11 33 12 34
REMARK SMILES IDX 73 35 13 36 72 37 14 38 15 39 16 40 66 41 17 42 71 43 65 44
REMARK SMILES IDX 67 45 18 46 70 47 64 48 63 49 19 51 51 52 31 53 50 54 32 55
REMARK SMILES IDX 35 56 49 57 68 58 33 59 34 60 48 62 69 63 36 64 20 65 21 66
REMARK SMILES IDX 29 67 22 68 28 69 30 70 27 71 23 72 24 73 25 74 26 75 52 76
REMARK SMILES IDX 53 77 61 78 54 79 60 80 62 81 59 82 55 83 56 84 57 85 58 86
REMARK SMILES IDX 37 87 38 88 46 89 39 90 45 91 47 92 44 93 40 94 41 95 42 96
REMARK SMILES IDX 43 97
REMARK H PARENT 3 7 8 31 67 50 35 61
REMARK Flexibility Score: inf
ROOT
ATOM      1  C   UNL A   1      33.535  31.368  27.692  1.00  0.00     0.023 C 
ENDROOT
BRANCH   1   2
ATOM      2  C   UNL A   1      34.735  30.437  27.759  1.00  0.00     0.023 C 
BRANCH   2   3
ATOM      3  C   UNL A   1      34.382  29.108  27.112  1.00  0.00     0.116 C 
BRANCH   3   4
ATOM      4  N   UNL A   1      33.175  28.559  27.748  1.00  0.00    -0.352 N 
ATOM      5  O   UNL A   1      30.954  27.757  27.480  1.00  0.00    -0.270 OA
ATOM      6  C   UNL A   1      31.998  28.232  26.931  1.00  0.00     0.251 C 
ATOM      7  H   UNL A   1      33.156  28.409  28.721  1.00  0.00     0.163 HD
BRANCH   6   8
ATOM      8  C   UNL A   1      32.028  28.462  25.428  1.00  0.00     0.067 C 
ATOM      9  C   UNL A   1      32.609  27.542  24.611  1.00  0.00     0.025 C 
ATOM     10  C   UNL A   1      31.410  29.719  24.840  1.00  0.00     0.314 C 
ATOM     11  C   UNL A   1      33.228  26.285  25.200  1.00  0.00     0.019 A 
ATOM     12  O   UNL A   1      31.408  26.269  26.728  1.00  0.00    -0.475 OA
ATOM     13  C   UNL A   1      34.413  25.768  24.703  1.00  0.00     0.036 A 
ATOM     14  C   UNL A   1      32.528  25.640  26.126  1.00  0.00     0.128 A 
ATOM     15  C   UNL A   1      34.632  24.411  25.042  1.00  0.00     0.107 A 
ATOM     16  C   UNL A   1      32.880  24.367  26.507  1.00  0.00     0.048 A 
ATOM     17  C   UNL A   1      34.007  23.771  26.012  1.00  0.00     0.028 A 
BRANCH  10  18
ATOM     18  C   UNL A   1      30.301  29.334  23.874  1.00  0.00     0.429 C 
ATOM     19  F   UNL A   1      29.792  28.159  24.230  1.00  0.00    -0.167 F 
ATOM     20  F   UNL A   1      29.345  30.259  23.904  1.00  0.00    -0.167 F 
ATOM     21  F   UNL A   1      30.796  29.249  22.642  1.00  0.00    -0.167 F 
ENDBRANCH  10  18
BRANCH  15  22
ATOM     22  S   UNL A   1      35.855  23.490  24.076  1.00  0.00     0.310 S 
ATOM     23  F   UNL A   1      35.586  22.155  24.889  1.00  0.00    -0.094 F 
ATOM     24  F   UNL A   1      36.938  23.852  25.162  1.00  0.00    -0.094 F 
ATOM     25  F   UNL A   1      36.909  22.702  23.248  1.00  0.00    -0.094 F 
ATOM     26  F   UNL A   1      34.728  23.023  23.073  1.00  0.00    -0.094 F 
ATOM     27  F   UNL A   1      34.753  24.192  24.965  1.00  0.00    -0.094 F 
ENDBRANCH  15  22
ENDBRANCH   6   8
ENDBRANCH   3   4
ENDBRANCH   2   3
ENDBRANCH   1   2
BRANCH   1  28
ATOM     28  C   UNL A   1      34.001  32.771  27.341  1.00  0.00     0.116 C 
BRANCH  28  29
ATOM     29  N   UNL A   1      33.108  33.756  27.968  1.00  0.00    -0.352 N 
ATOM     30  C   UNL A   1      33.407  34.268  29.313  1.00  0.00     0.251 C 
ATOM     31  H   UNL A   1      32.310  34.072  27.487  1.00  0.00     0.163 HD
ATOM     32  O   UNL A   1      32.635  35.119  29.855  1.00  0.00    -0.269 OA
BRANCH  30  33
ATOM     33  C   UNL A   1      34.640  33.778  30.056  1.00  0.00     0.039 A 
ATOM     34  C   UNL A   1      35.869  34.278  29.658  1.00  0.00     0.014 A 
ATOM     35  C   UNL A   1      34.550  32.818  30.970  1.00  0.00     0.014 A 
ATOM     36  C   UNL A   1      36.970  33.494  30.076  1.00  0.00     0.010 A 
ATOM     37  C   UNL A   1      35.678  32.187  31.435  1.00  0.00     0.010 A 
ATOM     38  C   UNL A   1      36.923  32.591  31.038  1.00  0.00    -0.014 A 
BRANCH  38  39
ATOM     39  C   UNL A   1      38.186  32.028  31.671  1.00  0.00     0.031 A 
ATOM     40  C   UNL A   1      38.597  32.468  32.930  1.00  0.00     0.074 A 
ATOM     41  C   UNL A   1      38.790  30.993  30.978  1.00  0.00     0.049 A 
ATOM     42  N   UNL A   1      39.580  31.975  33.684  1.00  0.00    -0.248 NA
ATOM     43  C   UNL A   1      37.978  33.590  33.653  1.00  0.00     0.031 C 
ATOM     44  C   UNL A   1      38.376  30.537  29.711  1.00  0.00     0.029 A 
ATOM     45  N   UNL A   1      39.870  30.232  31.368  1.00  0.00    -0.354 N 
ATOM     46  C   UNL A   1      39.661  32.647  34.834  1.00  0.00     0.074 A 
ATOM     47  C   UNL A   1      38.636  33.699  34.828  1.00  0.00     0.031 C 
ATOM     48  C   UNL A   1      39.202  29.524  29.338  1.00  0.00     0.029 A 
ATOM     49  C   UNL A   1      40.145  29.329  30.364  1.00  0.00     0.049 A 
ATOM     50  H   UNL A   1      40.362  30.318  32.217  1.00  0.00     0.167 HD
ATOM     51  C   UNL A   1      40.547  32.422  35.888  1.00  0.00     0.034 A 
ATOM     52  C   UNL A   1      41.158  28.384  30.328  1.00  0.00     0.034 A 
ATOM     53  C   UNL A   1      41.533  31.448  35.869  1.00  0.00     0.049 A 
ATOM     54  C   UNL A   1      42.082  28.198  31.358  1.00  0.00     0.074 A 
ATOM     55  C   UNL A   1      42.429  31.203  36.927  1.00  0.00     0.029 A 
ATOM     56  N   UNL A   1      41.823  30.562  34.856  1.00  0.00    -0.354 N 
ATOM     57  N   UNL A   1      42.137  28.842  32.524  1.00  0.00    -0.248 NA
ATOM     58  C   UNL A   1      43.179  27.221  31.316  1.00  0.00     0.031 C 
ATOM     59  C   UNL A   1      43.255  30.190  36.554  1.00  0.00     0.029 A 
ATOM     60  C   UNL A   1      42.889  29.786  35.255  1.00  0.00     0.049 A 
ATOM     61  H   UNL A   1      41.350  30.495  33.995  1.00  0.00     0.167 HD
ATOM     62  C   UNL A   1      43.148  28.377  33.260  1.00  0.00     0.074 A 
ATOM     63  C   UNL A   1      43.837  27.331  32.491  1.00  0.00     0.031 C 
ATOM     64  C   UNL A   1      43.522  28.779  34.544  1.00  0.00     0.034 A 
BRANCH  51  65
ATOM     65  C   UNL A   1      40.427  33.296  37.126  1.00  0.00     0.023 A 
ATOM     66  C   UNL A   1      39.773  32.854  38.264  1.00  0.00     0.031 A 
ATOM     67  C   UNL A   1      40.899  34.535  37.041  1.00  0.00     0.131 A 
ATOM     68  C   UNL A   1      39.408  33.890  39.156  1.00  0.00     0.055 A 
ATOM     69  C   UNL A   1      40.617  35.459  38.017  1.00  0.00     0.041 A 
ATOM     70  F   UNL A   1      41.650  34.883  36.001  1.00  0.00    -0.206 F 
ATOM     71  C   UNL A   1      39.924  35.105  39.141  1.00  0.00     0.022 A 
BRANCH  68  72
ATOM     72  S   UNL A   1      38.150  33.523  40.404  1.00  0.00     0.124 S 
ATOM     73  O   UNL A   1      36.885  33.006  39.715  1.00  0.00    -0.237 OA
ATOM     74  O   UNL A   1      38.679  32.458  41.365  1.00  0.00    -0.237 OA
ATOM     75  O   UNL A   1      37.782  34.947  41.277  1.00  0.00    -0.744 OA
ENDBRANCH  68  72
ENDBRANCH  51  65
BRANCH  52  76
ATOM     76  C   UNL A   1      41.268  27.499  29.097  1.00  0.00     0.023 A 
ATOM     77  C   UNL A   1      42.356  27.736  28.272  1.00  0.00     0.031 A 
ATOM     78  C   UNL A   1      40.413  26.516  28.843  1.00  0.00     0.131 A 
ATOM     79  C   UNL A   1      42.293  27.055  27.032  1.00  0.00     0.055 A 
ATOM     80  C   UNL A   1      40.493  25.802  27.672  1.00  0.00     0.041 A 
ATOM     81  F   UNL A   1      39.469  26.219  29.732  1.00  0.00    -0.206 F 
ATOM     82  C   UNL A   1      41.508  26.023  26.783  1.00  0.00     0.022 A 
BRANCH  79  83
ATOM     83  S   UNL A   1      43.364  27.641  25.695  1.00  0.00     0.124 S 
ATOM     84  O   UNL A   1      44.400  26.564  25.363  1.00  0.00    -0.237 OA
ATOM     85  O   UNL A   1      42.518  27.935  24.455  1.00  0.00    -0.237 OA
ATOM     86  O   UNL A   1      44.165  29.068  26.191  1.00  0.00    -0.744 OA
ENDBRANCH  79  83
ENDBRANCH  52  76
BRANCH  64  87
ATOM     87  C   UNL A   1      44.693  28.068  35.201  1.00  0.00     0.023 A 
ATOM     88  C   UNL A   1      44.416  27.061  36.112  1.00  0.00     0.031 A 
ATOM     89  C   UNL A   1      45.931  28.514  35.023  1.00  0.00     0.131 A 
ATOM     90  C   UNL A   1      45.482  26.784  37.002  1.00  0.00     0.055 A 
ATOM     91  C   UNL A   1      46.950  28.097  35.845  1.00  0.00     0.041 A 
ATOM     92  F   UNL A   1      46.188  29.373  34.040  1.00  0.00    -0.206 F 
ATOM     93  C   UNL A   1      46.735  27.148  36.805  1.00  0.00     0.022 A 
BRANCH  90  94
ATOM     94  S   UNL A   1      45.096  25.869  38.515  1.00  0.00     0.124 S 
ATOM     95  O   UNL A   1      43.819  26.432  39.141  1.00  0.00    -0.237 OA
ATOM     96  O   UNL A   1      44.890  24.390  38.178  1.00  0.00    -0.237 OA
ATOM     97  O   UNL A   1      46.391  26.026  39.621  1.00  0.00    -0.744 OA
ENDBRANCH  90  94
ENDBRANCH  64  87
ENDBRANCH  38  39
ENDBRANCH  30  33
ENDBRANCH  28  29
ENDBRANCH   1  28
TORSDOF 16
ENDMDL
MODEL 2
REMARK VINA RESULT:     -12.6      6.168     10.787
REMARK SMILES O=C(NCCCCNC(=O)c1ccc(-c2c3nc(c(-c4cc(S(=O)(=O)[O-])ccc4F)c4ccc([nH]4)c(-c4cc(S(=O)(=O)[O-])ccc4F)c4nc(c(-c5cc(S(=O)(=O)[O-])ccc5F)c5ccc2[nH]5)C=C4)C=C3)cc1)C1=Cc2cc(S(F)(F)(F)(F)F)ccc2O[C@@H]1C(F)(F)F
REMARK SMILES IDX 6 1 5 2 4 3 3 4 1 5 2 6 74 8 75 9 89 10 76 11 88 12 77 13
REMARK SMILES IDX 87 14 78 15 86 16 85 17 90 18 91 19 92 20 93 21 79 22 80 23
REMARK SMILES IDX 81 24 82 25 83 26 84 27 7 28 8 29 9 30 10 32 11 33 12 34
REMARK SMILES IDX 73 35 13 36 72 37 14 38 15 39 16 40 66 41 17 42 71 43 65 44
REMARK SMILES IDX 67 45 18 46 70 47 64 48 63 49 19 51 51 52 31 53 50 54 32 55
REMARK SMILES IDX 35 56 49 57 68 58 33 59 34 60 48 62 69 63 36 64 20 65 21 66
REMARK SMILES IDX 29 67 22 68 28 69 30 70 27 71 23 72 24 73 25 74 26 75 52 76
REMARK SMILES IDX 53 77 61 78 54 79 60 80 62 81 59 82 55 83 56 84 57 85 58 86
REMARK SMILES IDX 37 87 38 88 46 89 39 90 45 91 47 92 44 93 40 94 41 95 42 96
REMARK SMILES IDX 43 97
REMARK H PARENT 3 7 8 31 67 50 35 61
REMARK Flexibility Score: inf
ROOT
ATOM      1  C   UNL A   1      38.869  21.531  25.757  1.00  0.00     0.023 C 
ENDROOT
BRANCH   1   2
ATOM      2  C   UNL A   1      38.861  22.995  26.163  1.00  0.00     0.023 C 
BRANCH   2   3
ATOM      3  C   UNL A   1      37.494  23.593  25.871  1.00  0.00     0.116 C 
BRANCH   3   4
ATOM      4  N   UNL A   1      37.257  23.592  24.421  1.00  0.00    -0.352 N 
ATOM      5  O   UNL A   1      35.870  22.915  22.615  1.00  0.00    -0.270 OA
ATOM      6  C   UNL A   1      36.074  22.916  23.869  1.00  0.00     0.251 C 
ATOM      7  H   UNL A   1      37.891  24.045  23.818  1.00  0.00     0.163 HD
BRANCH   6   8
ATOM      8  C   UNL A   1      35.096  22.217  24.799  1.00  0.00     0.067 C 
ATOM      9  C   UNL A   1      34.095  22.926  25.390  1.00  0.00     0.025 C 
ATOM     10  C   UNL A   1      35.235  20.729  25.070  1.00  0.00     0.314 C 
ATOM     11  C   UNL A   1      33.956  24.415  25.120  1.00  0.00     0.019 A 
ATOM     12  O   UNL A   1      34.579  23.928  22.879  1.00  0.00    -0.475 OA
ATOM     13  C   UNL A   1      33.608  25.299  26.129  1.00  0.00     0.036 A 
ATOM     14  C   UNL A   1      34.066  24.817  23.859  1.00  0.00     0.128 A 
ATOM     15  C   UNL A   1      33.109  26.536  25.659  1.00  0.00     0.107 A 
ATOM     16  C   UNL A   1      33.686  26.087  23.495  1.00  0.00     0.048 A 
ATOM     17  C   UNL A   1      33.276  26.994  24.432  1.00  0.00     0.028 A 
BRANCH  10  18
ATOM     18  C   UNL A   1      33.969  20.013  24.629  1.00  0.00     0.429 C 
ATOM     19  F   UNL A   1      33.121  19.943  25.650  1.00  0.00    -0.167 F 
ATOM     20  F   UNL A   1      33.404  20.686  23.629  1.00  0.00    -0.167 F 
ATOM     21  F   UNL A   1      34.273  18.784  24.220  1.00  0.00    -0.167 F 
ENDBRANCH  10  18
BRANCH  15  22
ATOM     22  S   UNL A   1      32.178  27.564  26.822  1.00  0.00     0.310 S 
ATOM     23  F   UNL A   1      31.981  28.715  25.747  1.00  0.00    -0.094 F 
ATOM     24  F   UNL A   1      33.526  28.270  27.229  1.00  0.00    -0.094 F 
ATOM     25  F   UNL A   1      31.381  28.448  27.823  1.00  0.00    -0.094 F 
ATOM     26  F   UNL A   1      30.821  26.945  26.301  1.00  0.00    -0.094 F 
ATOM     27  F   UNL A   1      32.959  26.742  25.722  1.00  0.00    -0.094 F 
ENDBRANCH  15  22
ENDBRANCH   6   8
ENDBRANCH   3   4
ENDBRANCH   2   3
ENDBRANCH   1   2
BRANCH   1  28
ATOM     28  C   UNL A   1      39.656  20.727  26.780  1.00  0.00     0.116 C 
BRANCH  28  29
ATOM     29  N   UNL A   1      40.582  19.822  26.085  1.00  0.00    -0.352 N 
ATOM     30  C   UNL A   1      41.968  20.242  25.830  1.00  0.00     0.251 C 
ATOM     31  H   UNL A   1      40.275  18.935  25.790  1.00  0.00     0.163 HD
ATOM     32  O   UNL A   1      42.769  19.459  25.229  1.00  0.00    -0.269 OA
BRANCH  30  33
ATOM     33  C   UNL A   1      42.443  21.613  26.286  1.00  0.00     0.039 A 
ATOM     34  C   UNL A   1      42.674  21.794  27.639  1.00  0.00     0.014 A 
ATOM     35  C   UNL A   1      42.516  22.628  25.432  1.00  0.00     0.014 A 
ATOM     36  C   UNL A   1      42.694  23.151  28.041  1.00  0.00     0.010 A 
ATOM     37  C   UNL A   1      42.672  23.914  25.887  1.00  0.00     0.010 A 
ATOM     38  C   UNL A   1      42.847  24.172  27.219  1.00  0.00    -0.014 A 
BRANCH  38  39
ATOM     39  C   UNL A   1      43.198  25.563  27.725  1.00  0.00     0.031 A 
ATOM     40  C   UNL A   1      44.498  26.051  27.593  1.00  0.00     0.074 A 
ATOM     41  C   UNL A   1      42.132  26.316  28.187  1.00  0.00     0.049 A 
ATOM     42  N   UNL A   1      44.933  27.287  27.841  1.00  0.00    -0.248 NA
ATOM     43  C   UNL A   1      45.639  25.243  27.135  1.00  0.00     0.031 C 
ATOM     44  C   UNL A   1      40.814  25.832  28.316  1.00  0.00     0.029 A 
ATOM     45  N   UNL A   1      42.140  27.630  28.597  1.00  0.00    -0.354 N 
ATOM     46  C   UNL A   1      46.238  27.378  27.578  1.00  0.00     0.074 A 
ATOM     47  C   UNL A   1      46.712  26.063  27.126  1.00  0.00     0.031 C 
ATOM     48  C   UNL A   1      40.043  26.839  28.807  1.00  0.00     0.029 A 
ATOM     49  C   UNL A   1      40.864  27.966  28.993  1.00  0.00     0.049 A 
ATOM     50  H   UNL A   1      42.923  28.228  28.606  1.00  0.00     0.167 HD
ATOM     51  C   UNL A   1      47.050  28.507  27.695  1.00  0.00     0.034 A 
ATOM     52  C   UNL A   1      40.424  29.182  29.493  1.00  0.00     0.034 A 
ATOM     53  C   UNL A   1      46.599  29.735  28.154  1.00  0.00     0.049 A 
ATOM     54  C   UNL A   1      41.249  30.295  29.665  1.00  0.00     0.074 A 
ATOM     55  C   UNL A   1      47.403  30.884  28.271  1.00  0.00     0.029 A 
ATOM     56  N   UNL A   1      45.330  30.064  28.573  1.00  0.00    -0.354 N 
ATOM     57  N   UNL A   1      42.545  30.398  29.364  1.00  0.00    -0.248 NA
ATOM     58  C   UNL A   1      40.800  31.577  30.224  1.00  0.00     0.031 C 
ATOM     59  C   UNL A   1      46.633  31.891  28.762  1.00  0.00     0.029 A 
ATOM     60  C   UNL A   1      45.333  31.385  28.961  1.00  0.00     0.049 A 
ATOM     61  H   UNL A   1      44.553  29.458  28.591  1.00  0.00     0.167 HD
ATOM     62  C   UNL A   1      42.988  31.622  29.653  1.00  0.00     0.074 A 
ATOM     63  C   UNL A   1      41.874  32.397  30.216  1.00  0.00     0.031 C 
ATOM     64  C   UNL A   1      44.276  32.127  29.465  1.00  0.00     0.034 A 
BRANCH  51  65
ATOM     65  C   UNL A   1      48.512  28.383  27.299  1.00  0.00     0.023 A 
ATOM     66  C   UNL A   1      48.938  28.652  26.008  1.00  0.00     0.031 A 
ATOM     67  C   UNL A   1      49.352  27.921  28.218  1.00  0.00     0.131 A 
ATOM     68  C   UNL A   1      50.215  28.125  25.703  1.00  0.00     0.055 A 
ATOM     69  C   UNL A   1      50.630  27.552  27.876  1.00  0.00     0.041 A 
ATOM     70  F   UNL A   1      48.951  27.816  29.481  1.00  0.00    -0.206 F 
ATOM     71  C   UNL A   1      51.098  27.735  26.604  1.00  0.00     0.022 A 
BRANCH  68  72
ATOM     72  S   UNL A   1      50.670  27.976  23.958  1.00  0.00     0.124 S 
ATOM     73  O   UNL A   1      51.443  29.224  23.525  1.00  0.00    -0.237 OA
ATOM     74  O   UNL A   1      51.549  26.738  23.764  1.00  0.00    -0.237 OA
ATOM     75  O   UNL A   1      49.254  27.824  23.011  1.00  0.00    -0.744 OA
ENDBRANCH  68  72
ENDBRANCH  51  65
BRANCH  52  76
ATOM     76  C   UNL A   1      38.958  29.310  29.874  1.00  0.00     0.023 A 
ATOM     77  C   UNL A   1      38.142  29.946  28.953  1.00  0.00     0.031 A 
ATOM     78  C   UNL A   1      38.462  28.797  30.995  1.00  0.00     0.131 A 
ATOM     79  C   UNL A   1      36.849  30.247  29.445  1.00  0.00     0.055 A 
ATOM     80  C   UNL A   1      37.153  29.018  31.346  1.00  0.00     0.041 A 
ATOM     81  F   UNL A   1      39.242  28.064  31.784  1.00  0.00    -0.206 F 
ATOM     82  C   UNL A   1      36.305  29.690  30.511  1.00  0.00     0.022 A 
BRANCH  79  83
ATOM     83  S   UNL A   1      35.874  31.482  28.549  1.00  0.00     0.124 S 
ATOM     84  O   UNL A   1      35.336  30.866  27.254  1.00  0.00    -0.237 OA
ATOM     85  O   UNL A   1      34.703  31.939  29.421  1.00  0.00    -0.237 OA
ATOM     86  O   UNL A   1      36.864  32.825  28.173  1.00  0.00    -0.744 OA
ENDBRANCH  79  83
ENDBRANCH  52  76
BRANCH  64  87
ATOM     87  C   UNL A   1      44.535  33.578  29.835  1.00  0.00     0.023 A 
ATOM     88  C   UNL A   1      44.287  34.548  28.878  1.00  0.00     0.031 A 
ATOM     89  C   UNL A   1      45.131  33.879  30.983  1.00  0.00     0.131 A 
ATOM     90  C   UNL A   1      44.970  35.767  29.106  1.00  0.00     0.055 A 
ATOM     91  C   UNL A   1      45.656  35.132  31.190  1.00  0.00     0.041 A 
ATOM     92  F   UNL A   1      45.220  32.961  31.940  1.00  0.00    -0.206 F 
ATOM     93  C   UNL A   1      45.500  36.123  30.262  1.00  0.00     0.022 A 
BRANCH  90  94
ATOM     94  S   UNL A   1      45.128  36.916  27.717  1.00  0.00     0.124 S 
ATOM     95  O   UNL A   1      46.334  36.521  26.862  1.00  0.00    -0.237 OA
ATOM     96  O   UNL A   1      43.858  36.862  26.864  1.00  0.00    -0.237 OA
ATOM     97  O   UNL A   1      45.347  38.504  28.313  1.00  0.00    -0.744 OA
ENDBRANCH  90  94
ENDBRANCH  64  87
ENDBRANCH  38  39
ENDBRANCH  30  33
ENDBRANCH  28  29
ENDBRANCH   1  28
TORSDOF 16
ENDMDL
MODEL 3
REMARK VINA RESULT:     -12.5      5.766     11.155
REMARK SMILES O=C(NCCCCNC(=O)c1ccc(-c2c3nc(c(-c4cc(S(=O)(=O)[O-])ccc4F)c4ccc([nH]4)c(-c4cc(S(=O)(=O)[O-])ccc4F)c4nc(c(-c5cc(S(=O)(=O)[O-])ccc5F)c5ccc2[nH]5)C=C4)C=C3)cc1)C1=Cc2cc(S(F)(F)(F)(F)F)ccc2O[C@@H]1C(F)(F)F
REMARK SMILES IDX 6 1 5 2 4 3 3 4 1 5 2 6 74 8 75 9 89 10 76 11 88 12 77 13
REMARK SMILES IDX 87 14 78 15 86 16 85 17 90 18 91 19 92 20 93 21 79 22 80 23
REMARK SMILES IDX 81 24 82 25 83 26 84 27 7 28 8 29 9 30 10 32 11 33 12 34
REMARK SMILES IDX 73 35 13 36 72 37 14 38 15 39 16 40 66 41 17 42 71 43 65 44
REMARK SMILES IDX 67 45 18 46 70 47 64 48 63 49 19 51 51 52 31 53 50 54 32 55
REMARK SMILES IDX 35 56 49 57 68 58 33 59 34 60 48 62 69 63 36 64 20 65 21 66
REMARK SMILES IDX 29 67 22 68 28 69 30 70 27 71 23 72 24 73 25 74 26 75 52 76
REMARK SMILES IDX 53 77 61 78 54 79 60 80 62 81 59 82 55 83 56 84 57 85 58 86
REMARK SMILES IDX 37 87 38 88 46 89 39 90 45 91 47 92 44 93 40 94 41 95 42 96
REMARK SMILES IDX 43 97
REMARK H PARENT 3 7 8 31 67 50 35 61
REMARK Flexibility Score: inf
ROOT
ATOM      1  C   UNL A   1      39.177  21.472  25.660  1.00  0.00     0.023 C 
ENDROOT
BRANCH   1   2
ATOM      2  C   UNL A   1      39.035  22.876  26.226  1.00  0.00     0.023 C 
BRANCH   2   3
ATOM      3  C   UNL A   1      37.645  23.408  25.918  1.00  0.00     0.116 C 
BRANCH   3   4
ATOM      4  N   UNL A   1      37.431  23.409  24.463  1.00  0.00    -0.352 N 
ATOM      5  O   UNL A   1      36.059  22.757  22.637  1.00  0.00    -0.270 OA
ATOM      6  C   UNL A   1      36.244  22.755  23.894  1.00  0.00     0.251 C 
ATOM      7  H   UNL A   1      38.083  23.848  23.871  1.00  0.00     0.163 HD
BRANCH   6   8
ATOM      8  C   UNL A   1      35.237  22.079  24.809  1.00  0.00     0.067 C 
ATOM      9  C   UNL A   1      34.249  22.810  25.394  1.00  0.00     0.025 C 
ATOM     10  C   UNL A   1      35.333  20.585  25.073  1.00  0.00     0.314 C 
ATOM     11  C   UNL A   1      34.153  24.304  25.131  1.00  0.00     0.019 A 
ATOM     12  O   UNL A   1      34.788  23.813  22.894  1.00  0.00    -0.475 OA
ATOM     13  C   UNL A   1      33.818  25.191  26.141  1.00  0.00     0.036 A 
ATOM     14  C   UNL A   1      34.288  24.710  23.874  1.00  0.00     0.128 A 
ATOM     15  C   UNL A   1      33.358  26.445  25.673  1.00  0.00     0.107 A 
ATOM     16  C   UNL A   1      33.946  25.992  23.514  1.00  0.00     0.048 A 
ATOM     17  C   UNL A   1      33.550  26.905  24.451  1.00  0.00     0.028 A 
BRANCH  10  18
ATOM     18  C   UNL A   1      34.053  19.906  24.614  1.00  0.00     0.429 C 
ATOM     19  F   UNL A   1      34.335  18.691  24.155  1.00  0.00    -0.167 F 
ATOM     20  F   UNL A   1      33.210  19.809  25.639  1.00  0.00    -0.167 F 
ATOM     21  F   UNL A   1      33.491  20.627  23.646  1.00  0.00    -0.167 F 
ENDBRANCH  10  18
BRANCH  15  22
ATOM     22  S   UNL A   1      32.442  27.491  26.833  1.00  0.00     0.310 S 
ATOM     23  F   UNL A   1      32.250  28.634  25.750  1.00  0.00    -0.094 F 
ATOM     24  F   UNL A   1      33.798  28.187  27.227  1.00  0.00    -0.094 F 
ATOM     25  F   UNL A   1      31.659  28.390  27.831  1.00  0.00    -0.094 F 
ATOM     26  F   UNL A   1      31.077  26.879  26.324  1.00  0.00    -0.094 F 
ATOM     27  F   UNL A   1      33.210  26.652  25.735  1.00  0.00    -0.094 F 
ENDBRANCH  15  22
ENDBRANCH   6   8
ENDBRANCH   3   4
ENDBRANCH   2   3
ENDBRANCH   1   2
BRANCH   1  28
ATOM     28  C   UNL A   1      39.595  20.520  26.768  1.00  0.00     0.116 C 
BRANCH  28  29
ATOM     29  N   UNL A   1      40.390  19.422  26.198  1.00  0.00    -0.352 N 
ATOM     30  C   UNL A   1      41.831  19.602  25.966  1.00  0.00     0.251 C 
ATOM     31  H   UNL A   1      39.958  18.568  25.971  1.00  0.00     0.163 HD
ATOM     32  O   UNL A   1      42.518  18.653  25.472  1.00  0.00    -0.269 OA
BRANCH  30  33
ATOM     33  C   UNL A   1      42.499  20.922  26.315  1.00  0.00     0.039 A 
ATOM     34  C   UNL A   1      42.689  21.208  27.657  1.00  0.00     0.014 A 
ATOM     35  C   UNL A   1      42.778  21.816  25.373  1.00  0.00     0.014 A 
ATOM     36  C   UNL A   1      42.910  22.580  27.924  1.00  0.00     0.010 A 
ATOM     37  C   UNL A   1      43.119  23.103  25.710  1.00  0.00     0.010 A 
ATOM     38  C   UNL A   1      43.267  23.472  27.019  1.00  0.00    -0.014 A 
BRANCH  38  39
ATOM     39  C   UNL A   1      43.814  24.836  27.409  1.00  0.00     0.031 A 
ATOM     40  C   UNL A   1      45.170  25.121  27.249  1.00  0.00     0.074 A 
ATOM     41  C   UNL A   1      42.867  25.769  27.795  1.00  0.00     0.049 A 
ATOM     42  N   UNL A   1      45.777  26.299  27.395  1.00  0.00    -0.248 NA
ATOM     43  C   UNL A   1      46.183  24.123  26.872  1.00  0.00     0.031 C 
ATOM     44  C   UNL A   1      41.495  25.491  27.951  1.00  0.00     0.029 A 
ATOM     45  N   UNL A   1      43.064  27.100  28.092  1.00  0.00    -0.354 N 
ATOM     46  C   UNL A   1      47.081  26.181  27.138  1.00  0.00     0.074 A 
ATOM     47  C   UNL A   1      47.362  24.779  26.804  1.00  0.00     0.031 C 
ATOM     48  C   UNL A   1      40.876  26.635  28.348  1.00  0.00     0.029 A 
ATOM     49  C   UNL A   1      41.850  27.646  28.445  1.00  0.00     0.049 A 
ATOM     50  H   UNL A   1      43.924  27.578  28.058  1.00  0.00     0.167 HD
ATOM     51  C   UNL A   1      48.047  27.189  27.167  1.00  0.00     0.034 A 
ATOM     52  C   UNL A   1      41.589  28.950  28.836  1.00  0.00     0.034 A 
ATOM     53  C   UNL A   1      47.777  28.503  27.516  1.00  0.00     0.049 A 
ATOM     54  C   UNL A   1      42.565  29.945  28.922  1.00  0.00     0.074 A 
ATOM     55  C   UNL A   1      48.737  29.532  27.543  1.00  0.00     0.029 A 
ATOM     56  N   UNL A   1      46.568  29.043  27.893  1.00  0.00    -0.354 N 
ATOM     57  N   UNL A   1      43.861  29.836  28.626  1.00  0.00    -0.248 NA
ATOM     58  C   UNL A   1      42.304  31.321  29.365  1.00  0.00     0.031 C 
ATOM     59  C   UNL A   1      48.118  30.676  27.939  1.00  0.00     0.029 A 
ATOM     60  C   UNL A   1      46.760  30.379  28.168  1.00  0.00     0.049 A 
ATOM     61  H   UNL A   1      45.713  28.559  27.955  1.00  0.00     0.167 HD
ATOM     62  C   UNL A   1      44.475  31.006  28.814  1.00  0.00     0.074 A 
ATOM     63  C   UNL A   1      43.484  31.976  29.299  1.00  0.00     0.031 C 
ATOM     64  C   UNL A   1      45.821  31.304  28.597  1.00  0.00     0.034 A 
BRANCH  51  65
ATOM     65  C   UNL A   1      49.475  26.825  26.797  1.00  0.00     0.023 A 
ATOM     66  C   UNL A   1      50.422  26.534  27.765  1.00  0.00     0.031 A 
ATOM     67  C   UNL A   1      49.801  26.882  25.510  1.00  0.00     0.131 A 
ATOM     68  C   UNL A   1      51.757  26.602  27.300  1.00  0.00     0.055 A 
ATOM     69  C   UNL A   1      51.115  26.806  25.117  1.00  0.00     0.041 A 
ATOM     70  F   UNL A   1      48.846  27.014  24.595  1.00  0.00    -0.206 F 
ATOM     71  C   UNL A   1      52.109  26.579  26.028  1.00  0.00     0.022 A 
BRANCH  68  72
ATOM     72  S   UNL A   1      53.073  26.730  28.536  1.00  0.00     0.124 S 
ATOM     73  O   UNL A   1      53.541  28.184  28.634  1.00  0.00    -0.237 OA
ATOM     74  O   UNL A   1      52.543  26.272  29.896  1.00  0.00    -0.237 OA
ATOM     75  O   UNL A   1      54.387  25.738  28.073  1.00  0.00    -0.744 OA
ENDBRANCH  68  72
ENDBRANCH  51  65
BRANCH  52  76
ATOM     76  C   UNL A   1      40.157  29.318  29.191  1.00  0.00     0.023 A 
ATOM     77  C   UNL A   1      39.886  29.482  30.539  1.00  0.00     0.031 A 
ATOM     78  C   UNL A   1      39.223  29.529  28.270  1.00  0.00     0.131 A 
ATOM     79  C   UNL A   1      38.507  29.594  30.838  1.00  0.00     0.055 A 
ATOM     80  C   UNL A   1      37.921  29.767  28.636  1.00  0.00     0.041 A 
ATOM     81  F   UNL A   1      39.553  29.511  26.982  1.00  0.00    -0.206 F 
ATOM     82  C   UNL A   1      37.570  29.883  29.953  1.00  0.00     0.022 A 
BRANCH  79  83
ATOM     83  S   UNL A   1      37.991  29.320  32.551  1.00  0.00     0.124 S 
ATOM     84  O   UNL A   1      37.721  27.829  32.771  1.00  0.00    -0.237 OA
ATOM     85  O   UNL A   1      39.101  29.783  33.498  1.00  0.00    -0.237 OA
ATOM     86  O   UNL A   1      36.566  30.211  32.866  1.00  0.00    -0.744 OA
ENDBRANCH  79  83
ENDBRANCH  52  76
BRANCH  64  87
ATOM     87  C   UNL A   1      46.285  32.730  28.845  1.00  0.00     0.023 A 
ATOM     88  C   UNL A   1      46.279  33.612  27.777  1.00  0.00     0.031 A 
ATOM     89  C   UNL A   1      46.828  33.063  30.010  1.00  0.00     0.131 A 
ATOM     90  C   UNL A   1      47.132  34.728  27.950  1.00  0.00     0.055 A 
ATOM     91  C   UNL A   1      47.535  34.234  30.143  1.00  0.00     0.041 A 
ATOM     92  F   UNL A   1      46.688  32.256  31.058  1.00  0.00    -0.206 F 
ATOM     93  C   UNL A   1      47.619  35.126  29.110  1.00  0.00     0.022 A 
BRANCH  90  94
ATOM     94  S   UNL A   1      47.588  35.674  26.475  1.00  0.00     0.124 S 
ATOM     95  O   UNL A   1      46.381  36.482  25.993  1.00  0.00    -0.237 OA
ATOM     96  O   UNL A   1      48.737  36.626  26.815  1.00  0.00    -0.237 OA
ATOM     97  O   UNL A   1      48.084  34.599  25.240  1.00  0.00    -0.744 OA
ENDBRANCH  90  94
ENDBRANCH  64  87
ENDBRANCH  38  39
ENDBRANCH  30  33
ENDBRANCH  28  29
ENDBRANCH   1  28
TORSDOF 16
ENDMDL
