MODEL 1
REMARK VINA RESULT:     -12.9      0.000      0.000
REMARK SMILES CCCc1cc2c(cc1Cl)C=C(C(=O)NCCCCNC(=O)c1ccc(-c3c4nc(c(-c5cc(S(=O)(=O)[O-])ccc5F)c5ccc([nH]5)c(-c5cc(S(=O)(=O)[O-])ccc5F)c5nc(c(-c6cc(S(=O)(=O)[O-])ccc6F)c6ccc3[nH]6)C=C5)C=C4)cc1)[C@H](C(F)(F)F)O2
REMARK SMILES IDX 18 1 17 2 16 3 15 4 13 5 14 6 12 8 4 9 5 10 9 11 6 12 8 13
REMARK SMILES IDX 10 14 7 15 91 16 11 17 86 18 3 19 2 20 1 21 87 22 88 23
REMARK SMILES IDX 89 24 90 25 19 26 20 27 21 28 22 30 23 31 24 32 85 33 25 34
REMARK SMILES IDX 84 35 26 36 27 37 28 38 78 39 29 40 83 41 77 42 79 43 30 44
REMARK SMILES IDX 82 45 76 46 75 47 31 49 63 50 43 51 62 52 44 53 47 54 61 55
REMARK SMILES IDX 80 56 45 57 46 58 60 60 81 61 48 62 32 63 33 64 41 65 34 66
REMARK SMILES IDX 40 67 42 68 39 69 35 70 36 71 37 72 38 73 64 74 65 75 73 76
REMARK SMILES IDX 66 77 72 78 74 79 71 80 67 81 68 82 69 83 70 84 49 85 50 86
REMARK SMILES IDX 58 87 51 88 57 89 59 90 56 91 52 92 53 93 54 94 55 95
REMARK H PARENT 15 7 20 29 79 48 47 59
REMARK Flexibility Score: inf
ROOT
ATOM      1  C   UNL A   1      35.711  21.509  25.245  1.00  0.00     0.023 C 
ENDROOT
BRANCH   1   2
ATOM      2  C   UNL A   1      34.690  22.378  24.516  1.00  0.00     0.023 C 
BRANCH   2   3
ATOM      3  C   UNL A   1      34.423  23.739  25.156  1.00  0.00     0.116 C 
BRANCH   3   4
ATOM      4  N   UNL A   1      33.317  23.698  26.095  1.00  0.00    -0.352 N 
ATOM      5  C   UNL A   1      32.176  24.390  26.320  1.00  0.00     0.251 C 
ATOM      6  O   UNL A   1      31.493  23.973  27.263  1.00  0.00    -0.270 OA
ATOM      7  H   UNL A   1      33.426  22.967  26.746  1.00  0.00     0.163 HD
BRANCH   5   8
ATOM      8  C   UNL A   1      31.699  25.573  25.543  1.00  0.00     0.067 C 
ATOM      9  C   UNL A   1      28.875  28.854  22.943  1.00  0.00    -0.026 A 
ATOM     10  C   UNL A   1      30.258  28.682  23.134  1.00  0.00     0.052 A 
ATOM     11  C   UNL A   1      28.005  27.894  23.489  1.00  0.00     0.045 A 
ATOM     12  C   UNL A   1      30.742  27.605  23.872  1.00  0.00     0.128 A 
ATOM     13  C   UNL A   1      28.505  26.780  24.175  1.00  0.00     0.032 A 
ATOM     14  Cl  UNL A   1      26.286  28.042  23.385  1.00  0.00    -0.084 Cl
ATOM     15  C   UNL A   1      29.877  26.636  24.375  1.00  0.00     0.019 A 
ATOM     16  O   UNL A   1      32.094  27.537  24.069  1.00  0.00    -0.475 OA
ATOM     17  C   UNL A   1      30.432  25.496  25.093  1.00  0.00     0.025 C 
ATOM     18  C   UNL A   1      32.492  26.824  25.280  1.00  0.00     0.314 C 
BRANCH   9  19
ATOM     19  C   UNL A   1      28.408  30.070  22.174  1.00  0.00     0.037 C 
BRANCH  19  20
ATOM     20  C   UNL A   1      27.851  31.194  23.055  1.00  0.00     0.001 C 
ATOM     21  C   UNL A   1      28.643  32.490  22.969  1.00  0.00     0.004 C 
ENDBRANCH  19  20
ENDBRANCH   9  19
BRANCH  18  22
ATOM     22  C   UNL A   1      32.519  27.786  26.486  1.00  0.00     0.429 C 
ATOM     23  F   UNL A   1      33.709  27.787  27.129  1.00  0.00    -0.167 F 
ATOM     24  F   UNL A   1      32.285  29.060  26.082  1.00  0.00    -0.167 F 
ATOM     25  F   UNL A   1      31.582  27.491  27.418  1.00  0.00    -0.167 F 
ENDBRANCH  18  22
ENDBRANCH   5   8
ENDBRANCH   3   4
ENDBRANCH   2   3
ENDBRANCH   1   2
BRANCH   1  26
ATOM     26  C   UNL A   1      37.170  21.811  24.932  1.00  0.00     0.116 C 
BRANCH  26  27
ATOM     27  N   UNL A   1      38.082  20.698  25.166  1.00  0.00    -0.352 N 
ATOM     28  C   UNL A   1      39.245  20.702  25.907  1.00  0.00     0.251 C 
ATOM     29  H   UNL A   1      37.838  19.842  24.744  1.00  0.00     0.163 HD
ATOM     30  O   UNL A   1      39.950  19.700  25.966  1.00  0.00    -0.269 OA
BRANCH  28  31
ATOM     31  C   UNL A   1      39.649  21.958  26.573  1.00  0.00     0.039 A 
ATOM     32  C   UNL A   1      39.106  23.171  26.153  1.00  0.00     0.014 A 
ATOM     33  C   UNL A   1      40.664  21.927  27.533  1.00  0.00     0.014 A 
ATOM     34  C   UNL A   1      39.718  24.357  26.536  1.00  0.00     0.010 A 
ATOM     35  C   UNL A   1      41.209  23.129  27.995  1.00  0.00     0.010 A 
ATOM     36  C   UNL A   1      40.784  24.352  27.453  1.00  0.00    -0.014 A 
BRANCH  36  37
ATOM     37  C   UNL A   1      41.422  25.645  27.816  1.00  0.00     0.031 A 
ATOM     38  C   UNL A   1      42.784  26.018  27.292  1.00  0.00     0.074 A 
ATOM     39  C   UNL A   1      40.719  26.523  28.557  1.00  0.00     0.049 A 
ATOM     40  N   UNL A   1      43.439  27.141  27.441  1.00  0.00    -0.248 NA
ATOM     41  C   UNL A   1      43.507  25.006  26.506  1.00  0.00     0.031 C 
ATOM     42  C   UNL A   1      39.394  26.262  29.117  1.00  0.00     0.029 A 
ATOM     43  N   UNL A   1      40.989  27.817  28.928  1.00  0.00    -0.354 N 
ATOM     44  C   UNL A   1      44.655  26.965  26.788  1.00  0.00     0.074 A 
ATOM     45  C   UNL A   1      44.661  25.616  26.269  1.00  0.00     0.031 C 
ATOM     46  C   UNL A   1      38.930  27.382  29.686  1.00  0.00     0.029 A 
ATOM     47  C   UNL A   1      39.955  28.419  29.605  1.00  0.00     0.049 A 
ATOM     48  H   UNL A   1      41.842  28.269  28.729  1.00  0.00     0.167 HD
ATOM     49  C   UNL A   1      45.665  27.855  26.627  1.00  0.00     0.034 A 
ATOM     50  C   UNL A   1      39.838  29.664  30.108  1.00  0.00     0.034 A 
ATOM     51  C   UNL A   1      45.633  29.206  27.131  1.00  0.00     0.049 A 
ATOM     52  C   UNL A   1      40.975  30.630  29.917  1.00  0.00     0.074 A 
ATOM     53  C   UNL A   1      46.598  30.190  26.998  1.00  0.00     0.029 A 
ATOM     54  N   UNL A   1      44.589  29.767  27.852  1.00  0.00    -0.354 N 
ATOM     55  N   UNL A   1      42.102  30.457  29.268  1.00  0.00    -0.248 NA
ATOM     56  C   UNL A   1      40.832  31.958  30.528  1.00  0.00     0.031 C 
ATOM     57  C   UNL A   1      46.161  31.327  27.682  1.00  0.00     0.029 A 
ATOM     58  C   UNL A   1      44.897  31.076  28.191  1.00  0.00     0.049 A 
ATOM     59  H   UNL A   1      43.753  29.304  28.089  1.00  0.00     0.167 HD
ATOM     60  C   UNL A   1      42.802  31.653  29.391  1.00  0.00     0.074 A 
ATOM     61  C   UNL A   1      41.952  32.556  30.140  1.00  0.00     0.031 C 
ATOM     62  C   UNL A   1      44.044  31.968  28.941  1.00  0.00     0.034 A 
BRANCH  49  63
ATOM     63  C   UNL A   1      46.896  27.423  25.868  1.00  0.00     0.023 A 
ATOM     64  C   UNL A   1      47.066  27.804  24.522  1.00  0.00     0.031 A 
ATOM     65  C   UNL A   1      47.833  26.538  26.430  1.00  0.00     0.131 A 
ATOM     66  C   UNL A   1      48.129  27.277  23.778  1.00  0.00     0.055 A 
ATOM     67  C   UNL A   1      48.911  26.044  25.694  1.00  0.00     0.041 A 
ATOM     68  F   UNL A   1      47.715  26.144  27.709  1.00  0.00    -0.206 F 
ATOM     69  C   UNL A   1      49.056  26.405  24.357  1.00  0.00     0.022 A 
BRANCH  66  70
ATOM     70  S   UNL A   1      48.319  27.654  22.013  1.00  0.00     0.124 S 
ATOM     71  O   UNL A   1      48.532  26.324  21.444  1.00  0.00    -0.237 OA
ATOM     72  O   UNL A   1      47.035  28.270  21.693  1.00  0.00    -0.237 OA
ATOM     73  O   UNL A   1      49.476  28.541  21.965  1.00  0.00    -0.744 OA
ENDBRANCH  66  70
ENDBRANCH  49  63
BRANCH  50  74
ATOM     74  C   UNL A   1      38.568  30.053  30.790  1.00  0.00     0.023 A 
ATOM     75  C   UNL A   1      37.551  30.726  30.087  1.00  0.00     0.031 A 
ATOM     76  C   UNL A   1      38.410  29.877  32.174  1.00  0.00     0.131 A 
ATOM     77  C   UNL A   1      36.468  31.276  30.785  1.00  0.00     0.055 A 
ATOM     78  C   UNL A   1      37.288  30.356  32.853  1.00  0.00     0.041 A 
ATOM     79  F   UNL A   1      39.359  29.254  32.889  1.00  0.00    -0.206 F 
ATOM     80  C   UNL A   1      36.321  31.080  32.162  1.00  0.00     0.022 A 
BRANCH  77  81
ATOM     81  S   UNL A   1      35.309  32.401  29.958  1.00  0.00     0.124 S 
ATOM     82  O   UNL A   1      34.795  31.567  28.877  1.00  0.00    -0.237 OA
ATOM     83  O   UNL A   1      34.364  32.699  31.032  1.00  0.00    -0.237 OA
ATOM     84  O   UNL A   1      36.150  33.521  29.549  1.00  0.00    -0.744 OA
ENDBRANCH  77  81
ENDBRANCH  50  74
BRANCH  62  85
ATOM     85  C   UNL A   1      44.588  33.339  29.257  1.00  0.00     0.023 A 
ATOM     86  C   UNL A   1      44.323  34.423  28.399  1.00  0.00     0.031 A 
ATOM     87  C   UNL A   1      45.472  33.540  30.331  1.00  0.00     0.131 A 
ATOM     88  C   UNL A   1      44.959  35.653  28.614  1.00  0.00     0.055 A 
ATOM     89  C   UNL A   1      46.071  34.779  30.566  1.00  0.00     0.041 A 
ATOM     90  F   UNL A   1      45.764  32.534  31.170  1.00  0.00    -0.206 F 
ATOM     91  C   UNL A   1      45.825  35.838  29.698  1.00  0.00     0.022 A 
BRANCH  88  92
ATOM     92  S   UNL A   1      44.755  37.029  27.450  1.00  0.00     0.124 S 
ATOM     93  O   UNL A   1      44.727  38.180  28.350  1.00  0.00    -0.237 OA
ATOM     94  O   UNL A   1      45.953  36.913  26.622  1.00  0.00    -0.237 OA
ATOM     95  O   UNL A   1      43.496  36.736  26.775  1.00  0.00    -0.744 OA
ENDBRANCH  88  92
ENDBRANCH  62  85
ENDBRANCH  36  37
ENDBRANCH  28  31
ENDBRANCH  26  27
ENDBRANCH   1  26
TORSDOF 17
ENDMDL
MODEL 2
REMARK VINA RESULT:     -12.9      5.197     10.408
REMARK SMILES CCCc1cc2c(cc1Cl)C=C(C(=O)NCCCCNC(=O)c1ccc(-c3c4nc(c(-c5cc(S(=O)(=O)[O-])ccc5F)c5ccc([nH]5)c(-c5cc(S(=O)(=O)[O-])ccc5F)c5nc(c(-c6cc(S(=O)(=O)[O-])ccc6F)c6ccc3[nH]6)C=C5)C=C4)cc1)[C@H](C(F)(F)F)O2
REMARK SMILES IDX 18 1 17 2 16 3 15 4 13 5 14 6 12 8 4 9 5 10 9 11 6 12 8 13
REMARK SMILES IDX 10 14 7 15 91 16 11 17 86 18 3 19 2 20 1 21 87 22 88 23
REMARK SMILES IDX 89 24 90 25 19 26 20 27 21 28 22 30 23 31 24 32 85 33 25 34
REMARK SMILES IDX 84 35 26 36 27 37 28 38 78 39 29 40 83 41 77 42 79 43 30 44
REMARK SMILES IDX 82 45 76 46 75 47 31 49 63 50 43 51 62 52 44 53 47 54 61 55
REMARK SMILES IDX 80 56 45 57 46 58 60 60 81 61 48 62 32 63 33 64 41 65 34 66
REMARK SMILES IDX 40 67 42 68 39 69 35 70 36 71 37 72 38 73 64 74 65 75 73 76
REMARK SMILES IDX 66 77 72 78 74 79 71 80 67 81 68 82 69 83 70 84 49 85 50 86
REMARK SMILES IDX 58 87 51 88 57 89 59 90 56 91 52 92 53 93 54 94 55 95
REMARK H PARENT 15 7 20 29 79 48 47 59
REMARK Flexibility Score: inf
ROOT
ATOM      1  C   UNL A   1      31.647  29.229  27.183  1.00  0.00     0.023 C 
ENDROOT
BRANCH   1   2
ATOM      2  C   UNL A   1      32.236  27.821  27.177  1.00  0.00     0.023 C 
BRANCH   2   3
ATOM      3  C   UNL A   1      33.320  27.576  26.130  1.00  0.00     0.116 C 
BRANCH   3   4
ATOM      4  N   UNL A   1      32.789  27.570  24.779  1.00  0.00    -0.352 N 
ATOM      5  C   UNL A   1      32.341  26.655  23.889  1.00  0.00     0.251 C 
ATOM      6  O   UNL A   1      31.947  27.123  22.815  1.00  0.00    -0.270 OA
ATOM      7  H   UNL A   1      32.741  28.481  24.409  1.00  0.00     0.163 HD
BRANCH   5   8
ATOM      8  C   UNL A   1      32.289  25.177  24.101  1.00  0.00     0.067 C 
ATOM      9  C   UNL A   1      33.508  20.304  24.627  1.00  0.00    -0.026 A 
ATOM     10  C   UNL A   1      32.304  20.999  24.409  1.00  0.00     0.052 A 
ATOM     11  C   UNL A   1      34.707  21.038  24.626  1.00  0.00     0.045 A 
ATOM     12  C   UNL A   1      32.307  22.380  24.231  1.00  0.00     0.128 A 
ATOM     13  C   UNL A   1      34.705  22.417  24.382  1.00  0.00     0.032 A 
ATOM     14  Cl  UNL A   1      36.236  20.304  24.960  1.00  0.00    -0.084 Cl
ATOM     15  C   UNL A   1      33.502  23.094  24.191  1.00  0.00     0.019 A 
ATOM     16  O   UNL A   1      31.094  22.996  24.088  1.00  0.00    -0.475 OA
ATOM     17  C   UNL A   1      33.461  24.530  23.946  1.00  0.00     0.025 C 
ATOM     18  C   UNL A   1      31.073  24.393  24.511  1.00  0.00     0.314 C 
BRANCH   9  19
ATOM     19  C   UNL A   1      33.436  18.812  24.863  1.00  0.00     0.037 C 
BRANCH  19  20
ATOM     20  C   UNL A   1      33.538  17.969  23.587  1.00  0.00     0.001 C 
ATOM     21  C   UNL A   1      34.099  16.574  23.816  1.00  0.00     0.004 C 
ENDBRANCH  19  20
ENDBRANCH   9  19
BRANCH  18  22
ATOM     22  C   UNL A   1      30.772  24.493  26.021  1.00  0.00     0.429 C 
ATOM     23  F   UNL A   1      31.892  24.594  26.773  1.00  0.00    -0.167 F 
ATOM     24  F   UNL A   1      30.017  25.589  26.284  1.00  0.00    -0.167 F 
ATOM     25  F   UNL A   1      30.090  23.424  26.495  1.00  0.00    -0.167 F 
ENDBRANCH  18  22
ENDBRANCH   5   8
ENDBRANCH   3   4
ENDBRANCH   2   3
ENDBRANCH   1   2
BRANCH   1  26
ATOM     26  C   UNL A   1      32.428  30.268  26.390  1.00  0.00     0.116 C 
BRANCH  26  27
ATOM     27  N   UNL A   1      32.164  31.648  26.776  1.00  0.00    -0.352 N 
ATOM     28  C   UNL A   1      33.009  32.516  27.435  1.00  0.00     0.251 C 
ATOM     29  H   UNL A   1      31.276  32.003  26.539  1.00  0.00     0.163 HD
ATOM     30  O   UNL A   1      32.627  33.638  27.753  1.00  0.00    -0.269 OA
BRANCH  28  31
ATOM     31  C   UNL A   1      34.359  32.039  27.803  1.00  0.00     0.039 A 
ATOM     32  C   UNL A   1      34.552  30.702  28.147  1.00  0.00     0.014 A 
ATOM     33  C   UNL A   1      35.402  32.961  27.920  1.00  0.00     0.014 A 
ATOM     34  C   UNL A   1      35.718  30.332  28.803  1.00  0.00     0.010 A 
ATOM     35  C   UNL A   1      36.615  32.559  28.487  1.00  0.00     0.010 A 
ATOM     36  C   UNL A   1      36.761  31.257  28.991  1.00  0.00    -0.014 A 
BRANCH  36  37
ATOM     37  C   UNL A   1      37.981  30.821  29.719  1.00  0.00     0.031 A 
ATOM     38  C   UNL A   1      38.229  31.232  31.146  1.00  0.00     0.074 A 
ATOM     39  C   UNL A   1      38.827  29.971  29.104  1.00  0.00     0.049 A 
ATOM     40  N   UNL A   1      39.196  30.865  31.948  1.00  0.00    -0.248 NA
ATOM     41  C   UNL A   1      37.278  32.177  31.753  1.00  0.00     0.031 C 
ATOM     42  C   UNL A   1      38.683  29.512  27.723  1.00  0.00     0.029 A 
ATOM     43  N   UNL A   1      39.940  29.310  29.561  1.00  0.00    -0.354 N 
ATOM     44  C   UNL A   1      38.984  31.546  33.142  1.00  0.00     0.074 A 
ATOM     45  C   UNL A   1      37.815  32.374  32.950  1.00  0.00     0.031 C 
ATOM     46  C   UNL A   1      39.614  28.583  27.470  1.00  0.00     0.029 A 
ATOM     47  C   UNL A   1      40.474  28.437  28.642  1.00  0.00     0.049 A 
ATOM     48  H   UNL A   1      40.318  29.447  30.460  1.00  0.00     0.167 HD
ATOM     49  C   UNL A   1      39.693  31.475  34.295  1.00  0.00     0.034 A 
ATOM     50  C   UNL A   1      41.536  27.612  28.725  1.00  0.00     0.034 A 
ATOM     51  C   UNL A   1      40.845  30.625  34.478  1.00  0.00     0.049 A 
ATOM     52  C   UNL A   1      42.307  27.554  30.014  1.00  0.00     0.074 A 
ATOM     53  C   UNL A   1      41.616  30.464  35.617  1.00  0.00     0.029 A 
ATOM     54  N   UNL A   1      41.385  29.790  33.510  1.00  0.00    -0.354 N 
ATOM     55  N   UNL A   1      42.071  28.180  31.143  1.00  0.00    -0.248 NA
ATOM     56  C   UNL A   1      43.491  26.684  30.046  1.00  0.00     0.031 C 
ATOM     57  C   UNL A   1      42.652  29.575  35.322  1.00  0.00     0.029 A 
ATOM     58  C   UNL A   1      42.494  29.131  34.019  1.00  0.00     0.049 A 
ATOM     59  H   UNL A   1      41.034  29.682  32.597  1.00  0.00     0.167 HD
ATOM     60  C   UNL A   1      43.075  27.780  32.020  1.00  0.00     0.074 A 
ATOM     61  C   UNL A   1      43.895  26.824  31.303  1.00  0.00     0.031 C 
ATOM     62  C   UNL A   1      43.307  28.182  33.295  1.00  0.00     0.034 A 
BRANCH  49  63
ATOM     63  C   UNL A   1      39.258  32.320  35.467  1.00  0.00     0.023 A 
ATOM     64  C   UNL A   1      39.717  33.646  35.591  1.00  0.00     0.031 A 
ATOM     65  C   UNL A   1      38.497  31.780  36.519  1.00  0.00     0.131 A 
ATOM     66  C   UNL A   1      39.436  34.375  36.754  1.00  0.00     0.055 A 
ATOM     67  C   UNL A   1      38.189  32.523  37.660  1.00  0.00     0.041 A 
ATOM     68  F   UNL A   1      38.036  30.521  36.450  1.00  0.00    -0.206 F 
ATOM     69  C   UNL A   1      38.669  33.824  37.785  1.00  0.00     0.022 A 
BRANCH  66  70
ATOM     70  S   UNL A   1      40.101  36.044  37.000  1.00  0.00     0.124 S 
ATOM     71  O   UNL A   1      39.787  36.684  35.724  1.00  0.00    -0.237 OA
ATOM     72  O   UNL A   1      39.325  36.518  38.142  1.00  0.00    -0.237 OA
ATOM     73  O   UNL A   1      41.522  35.824  37.249  1.00  0.00    -0.744 OA
ENDBRANCH  66  70
ENDBRANCH  49  63
BRANCH  50  74
ATOM     74  C   UNL A   1      41.876  26.750  27.553  1.00  0.00     0.023 A 
ATOM     75  C   UNL A   1      41.430  25.418  27.486  1.00  0.00     0.031 A 
ATOM     76  C   UNL A   1      42.756  27.204  26.558  1.00  0.00     0.131 A 
ATOM     77  C   UNL A   1      41.936  24.562  26.499  1.00  0.00     0.055 A 
ATOM     78  C   UNL A   1      43.194  26.370  25.527  1.00  0.00     0.041 A 
ATOM     79  F   UNL A   1      43.220  28.462  26.586  1.00  0.00    -0.206 F 
ATOM     80  C   UNL A   1      42.801  25.034  25.508  1.00  0.00     0.022 A 
BRANCH  77  81
ATOM     81  S   UNL A   1      41.617  22.776  26.571  1.00  0.00     0.124 S 
ATOM     82  O   UNL A   1      40.160  22.729  26.597  1.00  0.00    -0.237 OA
ATOM     83  O   UNL A   1      42.245  22.312  25.335  1.00  0.00    -0.237 OA
ATOM     84  O   UNL A   1      42.288  22.357  27.797  1.00  0.00    -0.744 OA
ENDBRANCH  77  81
ENDBRANCH  50  74
BRANCH  62  85
ATOM     85  C   UNL A   1      44.509  27.616  34.012  1.00  0.00     0.023 A 
ATOM     86  C   UNL A   1      44.384  26.457  34.801  1.00  0.00     0.031 A 
ATOM     87  C   UNL A   1      45.738  28.297  34.017  1.00  0.00     0.131 A 
ATOM     88  C   UNL A   1      45.464  26.030  35.585  1.00  0.00     0.055 A 
ATOM     89  C   UNL A   1      46.824  27.843  34.767  1.00  0.00     0.041 A 
ATOM     90  F   UNL A   1      45.902  29.413  33.289  1.00  0.00    -0.206 F 
ATOM     91  C   UNL A   1      46.685  26.712  35.565  1.00  0.00     0.022 A 
BRANCH  88  92
ATOM     92  S   UNL A   1      45.298  24.626  36.723  1.00  0.00     0.124 S 
ATOM     93  O   UNL A   1      46.487  24.775  37.558  1.00  0.00    -0.237 OA
ATOM     94  O   UNL A   1      44.029  24.915  37.386  1.00  0.00    -0.237 OA
ATOM     95  O   UNL A   1      45.294  23.461  35.846  1.00  0.00    -0.744 OA
ENDBRANCH  88  92
ENDBRANCH  62  85
ENDBRANCH  36  37
ENDBRANCH  28  31
ENDBRANCH  26  27
ENDBRANCH   1  26
TORSDOF 17
ENDMDL
MODEL 3
REMARK VINA RESULT:     -12.8      1.980      2.362
REMARK SMILES CCCc1cc2c(cc1Cl)C=C(C(=O)NCCCCNC(=O)c1ccc(-c3c4nc(c(-c5cc(S(=O)(=O)[O-])ccc5F)c5ccc([nH]5)c(-c5cc(S(=O)(=O)[O-])ccc5F)c5nc(c(-c6cc(S(=O)(=O)[O-])ccc6F)c6ccc3[nH]6)C=C5)C=C4)cc1)[C@H](C(F)(F)F)O2
REMARK SMILES IDX 18 1 17 2 16 3 15 4 13 5 14 6 12 8 4 9 5 10 9 11 6 12 8 13
REMARK SMILES IDX 10 14 7 15 91 16 11 17 86 18 3 19 2 20 1 21 87 22 88 23
REMARK SMILES IDX 89 24 90 25 19 26 20 27 21 28 22 30 23 31 24 32 85 33 25 34
REMARK SMILES IDX 84 35 26 36 27 37 28 38 78 39 29 40 83 41 77 42 79 43 30 44
REMARK SMILES IDX 82 45 76 46 75 47 31 49 63 50 43 51 62 52 44 53 47 54 61 55
REMARK SMILES IDX 80 56 45 57 46 58 60 60 81 61 48 62 32 63 33 64 41 65 34 66
REMARK SMILES IDX 40 67 42 68 39 69 35 70 36 71 37 72 38 73 64 74 65 75 73 76
REMARK SMILES IDX 66 77 72 78 74 79 71 80 67 81 68 82 69 83 70 84 49 85 50 86
REMARK SMILES IDX 58 87 51 88 57 89 59 90 56 91 52 92 53 93 54 94 55 95
REMARK H PARENT 15 7 20 29 79 48 47 59
REMARK Flexibility Score: inf
ROOT
ATOM      1  C   UNL A   1      36.782  21.806  24.156  1.00  0.00     0.023 C 
ENDROOT
BRANCH   1   2
ATOM      2  C   UNL A   1      36.113  23.165  23.965  1.00  0.00     0.023 C 
BRANCH   2   3
ATOM      3  C   UNL A   1      35.434  23.734  25.208  1.00  0.00     0.116 C 
BRANCH   3   4
ATOM      4  N   UNL A   1      34.222  23.014  25.553  1.00  0.00    -0.352 N 
ATOM      5  C   UNL A   1      32.891  23.157  25.363  1.00  0.00     0.251 C 
ATOM      6  O   UNL A   1      32.197  22.250  25.836  1.00  0.00    -0.270 OA
ATOM      7  H   UNL A   1      34.424  22.197  26.065  1.00  0.00     0.163 HD
BRANCH   5   8
ATOM      8  C   UNL A   1      32.223  24.288  24.650  1.00  0.00     0.067 C 
ATOM      9  C   UNL A   1      30.260  28.782  23.446  1.00  0.00    -0.026 A 
ATOM     10  C   UNL A   1      30.149  27.485  22.912  1.00  0.00     0.052 A 
ATOM     11  C   UNL A   1      30.992  28.950  24.635  1.00  0.00     0.045 A 
ATOM     12  C   UNL A   1      30.776  26.409  23.534  1.00  0.00     0.128 A 
ATOM     13  C   UNL A   1      31.566  27.851  25.286  1.00  0.00     0.032 A 
ATOM     14  Cl  UNL A   1      31.262  30.505  25.340  1.00  0.00    -0.084 Cl
ATOM     15  C   UNL A   1      31.466  26.576  24.732  1.00  0.00     0.019 A 
ATOM     16  O   UNL A   1      30.677  25.189  22.923  1.00  0.00    -0.475 OA
ATOM     17  C   UNL A   1      32.059  25.411  25.376  1.00  0.00     0.025 C 
ATOM     18  C   UNL A   1      31.780  24.277  23.213  1.00  0.00     0.314 C 
BRANCH   9  19
ATOM     19  C   UNL A   1      29.598  29.919  22.700  1.00  0.00     0.037 C 
BRANCH  19  20
ATOM     20  C   UNL A   1      28.087  30.028  22.936  1.00  0.00     0.001 C 
ATOM     21  C   UNL A   1      27.672  31.288  23.681  1.00  0.00     0.004 C 
ENDBRANCH  19  20
ENDBRANCH   9  19
BRANCH  18  22
ATOM     22  C   UNL A   1      32.941  24.506  22.223  1.00  0.00     0.429 C 
ATOM     23  F   UNL A   1      32.537  25.077  21.065  1.00  0.00    -0.167 F 
ATOM     24  F   UNL A   1      33.873  25.328  22.767  1.00  0.00    -0.167 F 
ATOM     25  F   UNL A   1      33.578  23.361  21.882  1.00  0.00    -0.167 F 
ENDBRANCH  18  22
ENDBRANCH   5   8
ENDBRANCH   3   4
ENDBRANCH   2   3
ENDBRANCH   1   2
BRANCH   1  26
ATOM     26  C   UNL A   1      37.332  21.539  25.551  1.00  0.00     0.116 C 
BRANCH  26  27
ATOM     27  N   UNL A   1      38.405  20.553  25.599  1.00  0.00    -0.352 N 
ATOM     28  C   UNL A   1      39.662  20.701  26.146  1.00  0.00     0.251 C 
ATOM     29  H   UNL A   1      38.209  19.678  25.191  1.00  0.00     0.163 HD
ATOM     30  O   UNL A   1      40.490  19.800  26.058  1.00  0.00    -0.269 OA
BRANCH  28  31
ATOM     31  C   UNL A   1      40.003  21.990  26.783  1.00  0.00     0.039 A 
ATOM     32  C   UNL A   1      39.473  23.176  26.276  1.00  0.00     0.014 A 
ATOM     33  C   UNL A   1      40.952  22.017  27.808  1.00  0.00     0.014 A 
ATOM     34  C   UNL A   1      40.042  24.386  26.648  1.00  0.00     0.010 A 
ATOM     35  C   UNL A   1      41.449  23.245  28.254  1.00  0.00     0.010 A 
ATOM     36  C   UNL A   1      41.044  24.437  27.633  1.00  0.00    -0.014 A 
BRANCH  36  37
ATOM     37  C   UNL A   1      41.639  25.754  27.982  1.00  0.00     0.031 A 
ATOM     38  C   UNL A   1      42.998  26.158  27.471  1.00  0.00     0.074 A 
ATOM     39  C   UNL A   1      40.900  26.626  28.695  1.00  0.00     0.049 A 
ATOM     40  N   UNL A   1      43.618  27.302  27.610  1.00  0.00    -0.248 NA
ATOM     41  C   UNL A   1      43.762  25.153  26.715  1.00  0.00     0.031 C 
ATOM     42  C   UNL A   1      39.573  26.336  29.240  1.00  0.00     0.029 A 
ATOM     43  N   UNL A   1      41.126  27.933  29.047  1.00  0.00    -0.354 N 
ATOM     44  C   UNL A   1      44.849  27.150  26.979  1.00  0.00     0.074 A 
ATOM     45  C   UNL A   1      44.901  25.793  26.485  1.00  0.00     0.031 C 
ATOM     46  C   UNL A   1      39.069  27.452  29.781  1.00  0.00     0.029 A 
ATOM     47  C   UNL A   1      40.064  28.517  29.696  1.00  0.00     0.049 A 
ATOM     48  H   UNL A   1      41.968  28.406  28.853  1.00  0.00     0.167 HD
ATOM     49  C   UNL A   1      45.835  28.066  26.816  1.00  0.00     0.034 A 
ATOM     50  C   UNL A   1      39.903  29.767  30.175  1.00  0.00     0.034 A 
ATOM     51  C   UNL A   1      45.756  29.424  27.295  1.00  0.00     0.049 A 
ATOM     52  C   UNL A   1      41.015  30.762  29.984  1.00  0.00     0.074 A 
ATOM     53  C   UNL A   1      46.693  30.434  27.159  1.00  0.00     0.029 A 
ATOM     54  N   UNL A   1      44.685  29.967  27.990  1.00  0.00    -0.354 N 
ATOM     55  N   UNL A   1      42.157  30.610  29.355  1.00  0.00    -0.248 NA
ATOM     56  C   UNL A   1      40.824  32.096  30.567  1.00  0.00     0.031 C 
ATOM     57  C   UNL A   1      46.213  31.569  27.815  1.00  0.00     0.029 A 
ATOM     58  C   UNL A   1      44.949  31.290  28.309  1.00  0.00     0.049 A 
ATOM     59  H   UNL A   1      43.859  29.485  28.222  1.00  0.00     0.167 HD
ATOM     60  C   UNL A   1      42.820  31.828  29.466  1.00  0.00     0.074 A 
ATOM     61  C   UNL A   1      41.932  32.719  30.185  1.00  0.00     0.031 C 
ATOM     62  C   UNL A   1      44.059  32.170  29.029  1.00  0.00     0.034 A 
BRANCH  49  63
ATOM     63  C   UNL A   1      47.090  27.656  26.084  1.00  0.00     0.023 A 
ATOM     64  C   UNL A   1      47.214  27.903  24.703  1.00  0.00     0.031 A 
ATOM     65  C   UNL A   1      48.102  26.916  26.720  1.00  0.00     0.131 A 
ATOM     66  C   UNL A   1      48.309  27.387  23.999  1.00  0.00     0.055 A 
ATOM     67  C   UNL A   1      49.210  26.435  26.020  1.00  0.00     0.041 A 
ATOM     68  F   UNL A   1      48.030  26.654  28.035  1.00  0.00    -0.206 F 
ATOM     69  C   UNL A   1      49.311  26.661  24.650  1.00  0.00     0.022 A 
BRANCH  66  70
ATOM     70  S   UNL A   1      48.449  27.587  22.201  1.00  0.00     0.124 S 
ATOM     71  O   UNL A   1      47.143  28.148  21.859  1.00  0.00    -0.237 OA
ATOM     72  O   UNL A   1      49.573  28.510  22.083  1.00  0.00    -0.237 OA
ATOM     73  O   UNL A   1      48.688  26.233  21.714  1.00  0.00    -0.744 OA
ENDBRANCH  66  70
ENDBRANCH  49  63
BRANCH  50  74
ATOM     74  C   UNL A   1      38.612  30.131  30.830  1.00  0.00     0.023 A 
ATOM     75  C   UNL A   1      37.597  30.784  30.106  1.00  0.00     0.031 A 
ATOM     76  C   UNL A   1      38.429  29.951  32.210  1.00  0.00     0.131 A 
ATOM     77  C   UNL A   1      36.489  31.313  30.781  1.00  0.00     0.055 A 
ATOM     78  C   UNL A   1      37.284  30.407  32.866  1.00  0.00     0.041 A 
ATOM     79  F   UNL A   1      39.374  29.345  32.945  1.00  0.00    -0.206 F 
ATOM     80  C   UNL A   1      36.317  31.113  32.154  1.00  0.00     0.022 A 
BRANCH  77  81
ATOM     81  S   UNL A   1      35.326  32.416  29.930  1.00  0.00     0.124 S 
ATOM     82  O   UNL A   1      36.188  33.529  29.549  1.00  0.00    -0.237 OA
ATOM     83  O   UNL A   1      34.862  31.570  28.832  1.00  0.00    -0.237 OA
ATOM     84  O   UNL A   1      34.323  32.709  30.948  1.00  0.00    -0.744 OA
ENDBRANCH  77  81
ENDBRANCH  50  74
BRANCH  62  85
ATOM     85  C   UNL A   1      44.558  33.563  29.328  1.00  0.00     0.023 A 
ATOM     86  C   UNL A   1      45.222  33.835  30.539  1.00  0.00     0.031 A 
ATOM     87  C   UNL A   1      44.262  34.639  28.473  1.00  0.00     0.131 A 
ATOM     88  C   UNL A   1      45.542  35.157  30.875  1.00  0.00     0.055 A 
ATOM     89  C   UNL A   1      44.621  35.950  28.794  1.00  0.00     0.041 A 
ATOM     90  F   UNL A   1      43.621  34.431  27.313  1.00  0.00    -0.206 F 
ATOM     91  C   UNL A   1      45.252  36.213  30.005  1.00  0.00     0.022 A 
BRANCH  88  92
ATOM     92  S   UNL A   1      46.267  35.563  32.488  1.00  0.00     0.124 S 
ATOM     93  O   UNL A   1      47.614  35.011  32.358  1.00  0.00    -0.237 OA
ATOM     94  O   UNL A   1      46.189  37.022  32.502  1.00  0.00    -0.237 OA
ATOM     95  O   UNL A   1      45.404  34.881  33.444  1.00  0.00    -0.744 OA
ENDBRANCH  88  92
ENDBRANCH  62  85
ENDBRANCH  36  37
ENDBRANCH  28  31
ENDBRANCH  26  27
ENDBRANCH   1  26
TORSDOF 17
ENDMDL
