MODEL 1
REMARK VINA RESULT:     -12.2      0.000      0.000
REMARK SMILES CCC[C@]1(C(=O)NCCCCNC(=O)c2ccc(-c3c4nc(c(-c5cc(S(=O)(=O)[O-])ccc5F)c5ccc([nH]5)c(-c5cc(S(=O)(=O)[O-])ccc5F)c5nc(c(-c6cc(S(=O)(=O)[O-])ccc6F)c6ccc3[nH]6)C=C5)C=C4)cc2)CCCN(C(=O)c2ccc(NS(=O)(=O)CC)cc2)C1
REMARK SMILES IDX 8 1 7 2 5 3 6 4 4 6 78 7 96 8 79 9 81 10 80 11 3 12 2 13
REMARK SMILES IDX 1 14 82 15 83 16 84 17 85 18 95 19 86 20 94 21 87 22 88 23
REMARK SMILES IDX 89 25 90 26 91 27 92 28 93 29 9 30 10 31 11 32 12 33 13 34
REMARK SMILES IDX 14 36 15 37 16 38 77 39 17 40 76 41 18 42 19 43 20 44 70 45
REMARK SMILES IDX 21 46 75 47 69 48 71 49 22 50 74 51 68 52 67 53 23 55 55 56
REMARK SMILES IDX 35 57 54 58 36 59 39 60 53 61 72 62 37 63 38 64 52 66 73 67
REMARK SMILES IDX 40 68 24 69 25 70 33 71 26 72 32 73 34 74 31 75 27 76 28 77
REMARK SMILES IDX 29 78 30 79 56 80 57 81 65 82 58 83 64 84 66 85 63 86 59 87
REMARK SMILES IDX 60 88 61 89 62 90 41 91 42 92 50 93 43 94 49 95 51 96 48 97
REMARK SMILES IDX 44 98 45 99 46 100 47 101
REMARK H PARENT 7 5 88 24 12 35 71 54 39 65
REMARK Flexibility Score: inf
ROOT
ATOM      1  C   UNL A   1      33.822  28.685  26.690  1.00  0.00     0.116 C 
ENDROOT
BRANCH   1   2
ATOM      2  N   UNL A   1      33.979  28.690  25.247  1.00  0.00    -0.356 N 
ATOM      3  C   UNL A   1      33.703  27.768  24.287  1.00  0.00     0.228 C 
ATOM      4  O   UNL A   1      33.936  28.133  23.131  1.00  0.00    -0.274 OA
ATOM      5  H   UNL A   1      34.359  29.526  24.894  1.00  0.00     0.163 HD
BRANCH   3   6
ATOM      6  C   UNL A   1      33.088  26.368  24.597  1.00  0.00     0.067 C 
ATOM      7  C   UNL A   1      31.612  26.515  25.040  1.00  0.00     0.020 C 
ATOM      8  C   UNL A   1      33.294  25.538  23.302  1.00  0.00     0.136 C 
ATOM      9  C   UNL A   1      30.705  25.329  24.717  1.00  0.00     0.023 C 
ATOM     10  N   UNL A   1      32.329  24.466  23.076  1.00  0.00    -0.338 N 
ATOM     11  C   UNL A   1      30.927  24.769  23.323  1.00  0.00     0.120 C 
BRANCH   6  12
ATOM     12  C   UNL A   1      33.951  25.793  25.786  1.00  0.00     0.018 C 
BRANCH  12  13
ATOM     13  C   UNL A   1      34.965  24.665  25.578  1.00  0.00    -0.002 C 
ATOM     14  C   UNL A   1      34.783  23.466  26.476  1.00  0.00     0.004 C 
ENDBRANCH  12  13
ENDBRANCH   6  12
BRANCH  10  15
ATOM     15  C   UNL A   1      32.761  23.365  22.342  1.00  0.00     0.253 C 
ATOM     16  O   UNL A   1      33.504  23.432  21.366  1.00  0.00    -0.269 OA
BRANCH  15  17
ATOM     17  C   UNL A   1      32.477  22.018  22.865  1.00  0.00     0.040 A 
ATOM     18  C   UNL A   1      32.740  21.816  24.216  1.00  0.00     0.016 A 
ATOM     19  C   UNL A   1      32.119  20.945  22.053  1.00  0.00     0.016 A 
ATOM     20  C   UNL A   1      32.621  20.552  24.777  1.00  0.00     0.027 A 
ATOM     21  C   UNL A   1      32.061  19.659  22.615  1.00  0.00     0.027 A 
ATOM     22  C   UNL A   1      32.324  19.452  23.980  1.00  0.00     0.049 A 
BRANCH  22  23
ATOM     23  N   UNL A   1      32.597  18.119  24.417  1.00  0.00    -0.284 N 
ATOM     24  H   UNL A   1      31.918  17.668  24.969  1.00  0.00     0.180 HD
BRANCH  23  25
ATOM     25  S   UNL A   1      33.990  17.274  24.057  1.00  0.00     0.232 S 
ATOM     26  O   UNL A   1      33.868  16.739  22.718  1.00  0.00    -0.207 OA
ATOM     27  O   UNL A   1      35.066  18.191  24.381  1.00  0.00    -0.207 OA
BRANCH  25  28
ATOM     28  C   UNL A   1      34.102  15.902  25.213  1.00  0.00     0.156 C 
ATOM     29  C   UNL A   1      32.837  15.091  25.399  1.00  0.00     0.023 C 
ENDBRANCH  25  28
ENDBRANCH  23  25
ENDBRANCH  22  23
ENDBRANCH  15  17
ENDBRANCH  10  15
ENDBRANCH   3   6
ENDBRANCH   1   2
BRANCH   1  30
ATOM     30  C   UNL A   1      32.513  29.346  27.119  1.00  0.00     0.023 C 
BRANCH  30  31
ATOM     31  C   UNL A   1      32.399  30.825  26.754  1.00  0.00     0.023 C 
BRANCH  31  32
ATOM     32  C   UNL A   1      33.410  31.735  27.437  1.00  0.00     0.116 C 
BRANCH  32  33
ATOM     33  N   UNL A   1      32.931  33.101  27.592  1.00  0.00    -0.352 N 
ATOM     34  C   UNL A   1      33.356  34.050  28.493  1.00  0.00     0.251 C 
ATOM     35  H   UNL A   1      32.213  33.379  26.978  1.00  0.00     0.163 HD
ATOM     36  O   UNL A   1      32.771  35.122  28.592  1.00  0.00    -0.269 OA
BRANCH  34  37
ATOM     37  C   UNL A   1      34.507  33.726  29.359  1.00  0.00     0.039 A 
ATOM     38  C   UNL A   1      34.332  32.843  30.426  1.00  0.00     0.014 A 
ATOM     39  C   UNL A   1      35.773  34.226  29.044  1.00  0.00     0.014 A 
ATOM     40  C   UNL A   1      35.449  32.394  31.135  1.00  0.00     0.010 A 
ATOM     41  C   UNL A   1      36.887  33.724  29.705  1.00  0.00     0.010 A 
ATOM     42  C   UNL A   1      36.738  32.798  30.751  1.00  0.00    -0.014 A 
BRANCH  42  43
ATOM     43  C   UNL A   1      37.961  32.298  31.430  1.00  0.00     0.031 A 
ATOM     44  C   UNL A   1      38.744  31.186  30.791  1.00  0.00     0.074 A 
ATOM     45  C   UNL A   1      38.302  32.760  32.649  1.00  0.00     0.049 A 
ATOM     46  N   UNL A   1      39.698  30.446  31.294  1.00  0.00    -0.248 NA
ATOM     47  C   UNL A   1      38.372  30.839  29.411  1.00  0.00     0.031 C 
ATOM     48  C   UNL A   1      37.616  33.831  33.374  1.00  0.00     0.029 A 
ATOM     49  N   UNL A   1      39.300  32.367  33.506  1.00  0.00    -0.354 N 
ATOM     50  C   UNL A   1      40.021  29.526  30.301  1.00  0.00     0.074 A 
ATOM     51  C   UNL A   1      39.123  29.771  29.193  1.00  0.00     0.031 C 
ATOM     52  C   UNL A   1      38.221  34.016  34.560  1.00  0.00     0.029 A 
ATOM     53  C   UNL A   1      39.296  33.040  34.707  1.00  0.00     0.049 A 
ATOM     54  H   UNL A   1      39.958  31.670  33.283  1.00  0.00     0.167 HD
ATOM     55  C   UNL A   1      40.991  28.578  30.309  1.00  0.00     0.034 A 
ATOM     56  C   UNL A   1      40.055  32.869  35.809  1.00  0.00     0.034 A 
ATOM     57  C   UNL A   1      41.888  28.362  31.416  1.00  0.00     0.049 A 
ATOM     58  C   UNL A   1      41.104  31.782  35.810  1.00  0.00     0.074 A 
ATOM     59  C   UNL A   1      42.915  27.442  31.529  1.00  0.00     0.029 A 
ATOM     60  N   UNL A   1      41.867  29.082  32.604  1.00  0.00    -0.354 N 
ATOM     61  N   UNL A   1      41.396  30.916  34.867  1.00  0.00    -0.248 NA
ATOM     62  C   UNL A   1      41.927  31.652  37.019  1.00  0.00     0.031 C 
ATOM     63  C   UNL A   1      43.484  27.573  32.800  1.00  0.00     0.029 A 
ATOM     64  C   UNL A   1      42.857  28.620  33.455  1.00  0.00     0.049 A 
ATOM     65  H   UNL A   1      41.241  29.813  32.810  1.00  0.00     0.167 HD
ATOM     66  C   UNL A   1      42.468  30.173  35.353  1.00  0.00     0.074 A 
ATOM     67  C   UNL A   1      42.768  30.688  36.672  1.00  0.00     0.031 C 
ATOM     68  C   UNL A   1      43.153  29.164  34.759  1.00  0.00     0.034 A 
BRANCH  55  69
ATOM     69  C   UNL A   1      41.103  27.698  29.089  1.00  0.00     0.023 A 
ATOM     70  C   UNL A   1      42.095  27.915  28.116  1.00  0.00     0.031 A 
ATOM     71  C   UNL A   1      40.184  26.656  28.872  1.00  0.00     0.131 A 
ATOM     72  C   UNL A   1      42.093  27.161  26.934  1.00  0.00     0.055 A 
ATOM     73  C   UNL A   1      40.243  25.849  27.733  1.00  0.00     0.041 A 
ATOM     74  F   UNL A   1      39.203  26.414  29.755  1.00  0.00    -0.206 F 
ATOM     75  C   UNL A   1      41.191  26.111  26.748  1.00  0.00     0.022 A 
BRANCH  72  76
ATOM     76  S   UNL A   1      43.190  27.670  25.584  1.00  0.00     0.124 S 
ATOM     77  O   UNL A   1      42.235  28.207  24.617  1.00  0.00    -0.237 OA
ATOM     78  O   UNL A   1      44.059  28.645  26.232  1.00  0.00    -0.237 OA
ATOM     79  O   UNL A   1      43.839  26.424  25.180  1.00  0.00    -0.744 OA
ENDBRANCH  72  76
ENDBRANCH  55  69
BRANCH  56  80
ATOM     80  C   UNL A   1      39.853  33.724  37.015  1.00  0.00     0.023 A 
ATOM     81  C   UNL A   1      39.171  33.230  38.137  1.00  0.00     0.031 A 
ATOM     82  C   UNL A   1      40.284  35.062  37.042  1.00  0.00     0.131 A 
ATOM     83  C   UNL A   1      38.890  34.081  39.217  1.00  0.00     0.055 A 
ATOM     84  C   UNL A   1      40.051  35.889  38.142  1.00  0.00     0.041 A 
ATOM     85  F   UNL A   1      40.946  35.584  35.997  1.00  0.00    -0.206 F 
ATOM     86  C   UNL A   1      39.335  35.404  39.232  1.00  0.00     0.022 A 
BRANCH  83  87
ATOM     87  S   UNL A   1      37.843  33.458  40.561  1.00  0.00     0.124 S 
ATOM     88  O   UNL A   1      38.701  32.442  41.158  1.00  0.00    -0.237 OA
ATOM     89  O   UNL A   1      37.623  34.661  41.355  1.00  0.00    -0.237 OA
ATOM     90  O   UNL A   1      36.664  32.948  39.864  1.00  0.00    -0.744 OA
ENDBRANCH  83  87
ENDBRANCH  56  80
BRANCH  68  91
ATOM     91  C   UNL A   1      44.349  28.614  35.491  1.00  0.00     0.023 A 
ATOM     92  C   UNL A   1      44.259  27.493  36.333  1.00  0.00     0.031 A 
ATOM     93  C   UNL A   1      45.607  29.218  35.317  1.00  0.00     0.131 A 
ATOM     94  C   UNL A   1      45.406  27.030  36.999  1.00  0.00     0.055 A 
ATOM     95  C   UNL A   1      46.751  28.724  35.943  1.00  0.00     0.041 A 
ATOM     96  F   UNL A   1      45.744  30.291  34.521  1.00  0.00    -0.206 F 
ATOM     97  C   UNL A   1      46.653  27.629  36.796  1.00  0.00     0.022 A 
BRANCH  94  98
ATOM     98  S   UNL A   1      45.240  25.659  38.174  1.00  0.00     0.124 S 
ATOM     99  O   UNL A   1      44.539  26.295  39.286  1.00  0.00    -0.237 OA
ATOM    100  O   UNL A   1      44.470  24.683  37.412  1.00  0.00    -0.237 OA
ATOM    101  O   UNL A   1      46.623  25.275  38.452  1.00  0.00    -0.744 OA
ENDBRANCH  94  98
ENDBRANCH  68  91
ENDBRANCH  42  43
ENDBRANCH  34  37
ENDBRANCH  32  33
ENDBRANCH  31  32
ENDBRANCH  30  31
ENDBRANCH   1  30
TORSDOF 21
ENDMDL
MODEL 2
REMARK VINA RESULT:     -11.7      1.615      2.162
REMARK SMILES CCC[C@]1(C(=O)NCCCCNC(=O)c2ccc(-c3c4nc(c(-c5cc(S(=O)(=O)[O-])ccc5F)c5ccc([nH]5)c(-c5cc(S(=O)(=O)[O-])ccc5F)c5nc(c(-c6cc(S(=O)(=O)[O-])ccc6F)c6ccc3[nH]6)C=C5)C=C4)cc2)CCCN(C(=O)c2ccc(NS(=O)(=O)CC)cc2)C1
REMARK SMILES IDX 8 1 7 2 5 3 6 4 4 6 78 7 96 8 79 9 81 10 80 11 3 12 2 13
REMARK SMILES IDX 1 14 82 15 83 16 84 17 85 18 95 19 86 20 94 21 87 22 88 23
REMARK SMILES IDX 89 25 90 26 91 27 92 28 93 29 9 30 10 31 11 32 12 33 13 34
REMARK SMILES IDX 14 36 15 37 16 38 77 39 17 40 76 41 18 42 19 43 20 44 70 45
REMARK SMILES IDX 21 46 75 47 69 48 71 49 22 50 74 51 68 52 67 53 23 55 55 56
REMARK SMILES IDX 35 57 54 58 36 59 39 60 53 61 72 62 37 63 38 64 52 66 73 67
REMARK SMILES IDX 40 68 24 69 25 70 33 71 26 72 32 73 34 74 31 75 27 76 28 77
REMARK SMILES IDX 29 78 30 79 56 80 57 81 65 82 58 83 64 84 66 85 63 86 59 87
REMARK SMILES IDX 60 88 61 89 62 90 41 91 42 92 50 93 43 94 49 95 51 96 48 97
REMARK SMILES IDX 44 98 45 99 46 100 47 101
REMARK H PARENT 7 5 88 24 12 35 71 54 39 65
REMARK Flexibility Score: inf
ROOT
ATOM      1  C   UNL A   1      33.639  28.718  26.326  1.00  0.00     0.116 C 
ENDROOT
BRANCH   1   2
ATOM      2  N   UNL A   1      33.830  29.062  24.930  1.00  0.00    -0.356 N 
ATOM      3  C   UNL A   1      33.494  28.434  23.771  1.00  0.00     0.228 C 
ATOM      4  O   UNL A   1      33.787  29.049  22.741  1.00  0.00    -0.274 OA
ATOM      5  H   UNL A   1      34.292  29.920  24.794  1.00  0.00     0.163 HD
BRANCH   3   6
ATOM      6  C   UNL A   1      32.747  27.066  23.726  1.00  0.00     0.067 C 
ATOM      7  C   UNL A   1      32.590  26.587  22.262  1.00  0.00     0.020 C 
ATOM      8  C   UNL A   1      33.578  26.118  24.631  1.00  0.00     0.136 C 
ATOM      9  C   UNL A   1      32.541  25.072  22.066  1.00  0.00     0.023 C 
ATOM     10  N   UNL A   1      33.492  24.697  24.308  1.00  0.00    -0.338 N 
ATOM     11  C   UNL A   1      33.565  24.327  22.903  1.00  0.00     0.120 C 
BRANCH   6  12
ATOM     12  C   UNL A   1      31.327  27.352  24.352  1.00  0.00     0.018 C 
BRANCH  12  13
ATOM     13  C   UNL A   1      30.246  26.270  24.435  1.00  0.00    -0.002 C 
ATOM     14  C   UNL A   1      30.198  25.512  25.739  1.00  0.00     0.004 C 
ENDBRANCH  12  13
ENDBRANCH   6  12
BRANCH  10  15
ATOM     15  C   UNL A   1      33.677  23.795  25.353  1.00  0.00     0.253 C 
ATOM     16  O   UNL A   1      33.443  24.045  26.533  1.00  0.00    -0.269 OA
BRANCH  15  17
ATOM     17  C   UNL A   1      33.987  22.394  25.024  1.00  0.00     0.040 A 
ATOM     18  C   UNL A   1      32.902  21.526  24.951  1.00  0.00     0.016 A 
ATOM     19  C   UNL A   1      35.286  21.900  24.942  1.00  0.00     0.016 A 
ATOM     20  C   UNL A   1      33.100  20.164  24.768  1.00  0.00     0.027 A 
ATOM     21  C   UNL A   1      35.479  20.514  24.818  1.00  0.00     0.027 A 
ATOM     22  C   UNL A   1      34.386  19.635  24.743  1.00  0.00     0.049 A 
BRANCH  22  23
ATOM     23  N   UNL A   1      34.625  18.245  24.973  1.00  0.00    -0.284 N 
ATOM     24  H   UNL A   1      35.333  18.000  25.611  1.00  0.00     0.180 HD
BRANCH  23  25
ATOM     25  S   UNL A   1      33.786  17.007  24.233  1.00  0.00     0.232 S 
ATOM     26  O   UNL A   1      33.249  17.501  22.983  1.00  0.00    -0.207 OA
ATOM     27  O   UNL A   1      34.709  15.887  24.240  1.00  0.00    -0.207 OA
BRANCH  25  28
ATOM     28  C   UNL A   1      32.415  16.566  25.309  1.00  0.00     0.156 C 
ATOM     29  C   UNL A   1      32.331  15.106  25.704  1.00  0.00     0.023 C 
ENDBRANCH  25  28
ENDBRANCH  23  25
ENDBRANCH  22  23
ENDBRANCH  15  17
ENDBRANCH  10  15
ENDBRANCH   3   6
ENDBRANCH   1   2
BRANCH   1  30
ATOM     30  C   UNL A   1      32.365  29.342  26.894  1.00  0.00     0.023 C 
BRANCH  30  31
ATOM     31  C   UNL A   1      32.218  30.840  26.628  1.00  0.00     0.023 C 
BRANCH  31  32
ATOM     32  C   UNL A   1      33.221  31.723  27.358  1.00  0.00     0.116 C 
BRANCH  32  33
ATOM     33  N   UNL A   1      32.771  33.101  27.494  1.00  0.00    -0.352 N 
ATOM     34  C   UNL A   1      33.225  34.057  28.372  1.00  0.00     0.251 C 
ATOM     35  H   UNL A   1      32.052  33.382  26.882  1.00  0.00     0.163 HD
ATOM     36  O   UNL A   1      32.662  35.142  28.459  1.00  0.00    -0.269 OA
BRANCH  34  37
ATOM     37  C   UNL A   1      34.379  33.726  29.232  1.00  0.00     0.039 A 
ATOM     38  C   UNL A   1      34.195  32.876  30.324  1.00  0.00     0.014 A 
ATOM     39  C   UNL A   1      35.653  34.183  28.887  1.00  0.00     0.014 A 
ATOM     40  C   UNL A   1      35.310  32.416  31.029  1.00  0.00     0.010 A 
ATOM     41  C   UNL A   1      36.762  33.669  29.546  1.00  0.00     0.010 A 
ATOM     42  C   UNL A   1      36.604  32.776  30.618  1.00  0.00    -0.014 A 
BRANCH  42  43
ATOM     43  C   UNL A   1      37.822  32.261  31.294  1.00  0.00     0.031 A 
ATOM     44  C   UNL A   1      38.574  31.120  30.669  1.00  0.00     0.074 A 
ATOM     45  C   UNL A   1      38.187  32.738  32.501  1.00  0.00     0.049 A 
ATOM     46  N   UNL A   1      39.517  30.369  31.176  1.00  0.00    -0.248 NA
ATOM     47  C   UNL A   1      38.180  30.756  29.299  1.00  0.00     0.031 C 
ATOM     48  C   UNL A   1      37.532  33.837  33.212  1.00  0.00     0.029 A 
ATOM     49  N   UNL A   1      39.185  32.339  33.355  1.00  0.00    -0.354 N 
ATOM     50  C   UNL A   1      39.809  29.423  30.197  1.00  0.00     0.074 A 
ATOM     51  C   UNL A   1      38.905  29.668  29.094  1.00  0.00     0.031 C 
ATOM     52  C   UNL A   1      38.153  34.031  34.388  1.00  0.00     0.029 A 
ATOM     53  C   UNL A   1      39.208  33.034  34.543  1.00  0.00     0.049 A 
ATOM     54  H   UNL A   1      39.825  31.624  33.139  1.00  0.00     0.167 HD
ATOM     55  C   UNL A   1      40.758  28.455  30.213  1.00  0.00     0.034 A 
ATOM     56  C   UNL A   1      39.975  32.867  35.640  1.00  0.00     0.034 A 
ATOM     57  C   UNL A   1      41.662  28.240  31.314  1.00  0.00     0.049 A 
ATOM     58  C   UNL A   1      40.999  31.757  35.651  1.00  0.00     0.074 A 
ATOM     59  C   UNL A   1      42.669  27.299  31.435  1.00  0.00     0.029 A 
ATOM     60  N   UNL A   1      41.670  28.981  32.489  1.00  0.00    -0.354 N 
ATOM     61  N   UNL A   1      41.263  30.868  34.721  1.00  0.00    -0.248 NA
ATOM     62  C   UNL A   1      41.833  31.632  36.854  1.00  0.00     0.031 C 
ATOM     63  C   UNL A   1      43.254  27.442  32.698  1.00  0.00     0.029 A 
ATOM     64  C   UNL A   1      42.658  28.514  33.339  1.00  0.00     0.049 A 
ATOM     65  H   UNL A   1      41.061  29.731  32.687  1.00  0.00     0.167 HD
ATOM     66  C   UNL A   1      42.323  30.111  35.210  1.00  0.00     0.074 A 
ATOM     67  C   UNL A   1      42.648  30.643  36.517  1.00  0.00     0.031 C 
ATOM     68  C   UNL A   1      42.979  29.075  34.629  1.00  0.00     0.034 A 
BRANCH  55  69
ATOM     69  C   UNL A   1      40.838  27.550  29.008  1.00  0.00     0.023 A 
ATOM     70  C   UNL A   1      41.786  27.762  27.993  1.00  0.00     0.031 A 
ATOM     71  C   UNL A   1      39.930  26.487  28.851  1.00  0.00     0.131 A 
ATOM     72  C   UNL A   1      41.752  26.981  26.829  1.00  0.00     0.055 A 
ATOM     73  C   UNL A   1      39.959  25.657  27.728  1.00  0.00     0.041 A 
ATOM     74  F   UNL A   1      38.989  26.249  29.778  1.00  0.00    -0.206 F 
ATOM     75  C   UNL A   1      40.862  25.912  26.701  1.00  0.00     0.022 A 
BRANCH  72  76
ATOM     76  S   UNL A   1      42.786  27.479  25.425  1.00  0.00     0.124 S 
ATOM     77  O   UNL A   1      44.031  27.849  26.095  1.00  0.00    -0.237 OA
ATOM     78  O   UNL A   1      42.831  26.265  24.619  1.00  0.00    -0.237 OA
ATOM     79  O   UNL A   1      42.049  28.595  24.835  1.00  0.00    -0.744 OA
ENDBRANCH  72  76
ENDBRANCH  55  69
BRANCH  56  80
ATOM     80  C   UNL A   1      39.805  33.749  36.831  1.00  0.00     0.023 A 
ATOM     81  C   UNL A   1      40.685  34.818  37.063  1.00  0.00     0.031 A 
ATOM     82  C   UNL A   1      38.802  33.503  37.785  1.00  0.00     0.131 A 
ATOM     83  C   UNL A   1      40.581  35.566  38.245  1.00  0.00     0.055 A 
ATOM     84  C   UNL A   1      38.668  34.286  38.933  1.00  0.00     0.041 A 
ATOM     85  F   UNL A   1      37.930  32.497  37.610  1.00  0.00    -0.206 F 
ATOM     86  C   UNL A   1      39.572  35.315  39.176  1.00  0.00     0.022 A 
BRANCH  83  87
ATOM     87  S   UNL A   1      41.853  36.812  38.595  1.00  0.00     0.124 S 
ATOM     88  O   UNL A   1      41.057  37.898  39.155  1.00  0.00    -0.237 OA
ATOM     89  O   UNL A   1      42.721  36.104  39.530  1.00  0.00    -0.237 OA
ATOM     90  O   UNL A   1      42.437  37.079  37.283  1.00  0.00    -0.744 OA
ENDBRANCH  83  87
ENDBRANCH  56  80
BRANCH  68  91
ATOM     91  C   UNL A   1      44.171  28.513  35.359  1.00  0.00     0.023 A 
ATOM     92  C   UNL A   1      44.041  27.530  36.355  1.00  0.00     0.031 A 
ATOM     93  C   UNL A   1      45.462  28.959  35.027  1.00  0.00     0.131 A 
ATOM     94  C   UNL A   1      45.186  27.049  37.010  1.00  0.00     0.055 A 
ATOM     95  C   UNL A   1      46.599  28.443  35.647  1.00  0.00     0.041 A 
ATOM     96  F   UNL A   1      45.637  29.896  34.081  1.00  0.00    -0.206 F 
ATOM     97  C   UNL A   1      46.464  27.489  36.651  1.00  0.00     0.022 A 
BRANCH  94  98
ATOM     98  S   UNL A   1      44.983  25.874  38.375  1.00  0.00     0.124 S 
ATOM     99  O   UNL A   1      44.199  24.813  37.749  1.00  0.00    -0.237 OA
ATOM    100  O   UNL A   1      46.363  25.534  38.705  1.00  0.00    -0.237 OA
ATOM    101  O   UNL A   1      44.276  26.648  39.394  1.00  0.00    -0.744 OA
ENDBRANCH  94  98
ENDBRANCH  68  91
ENDBRANCH  42  43
ENDBRANCH  34  37
ENDBRANCH  32  33
ENDBRANCH  31  32
ENDBRANCH  30  31
ENDBRANCH   1  30
TORSDOF 21
ENDMDL
MODEL 3
REMARK VINA RESULT:     -11.0      2.111      7.477
REMARK SMILES CCC[C@]1(C(=O)NCCCCNC(=O)c2ccc(-c3c4nc(c(-c5cc(S(=O)(=O)[O-])ccc5F)c5ccc([nH]5)c(-c5cc(S(=O)(=O)[O-])ccc5F)c5nc(c(-c6cc(S(=O)(=O)[O-])ccc6F)c6ccc3[nH]6)C=C5)C=C4)cc2)CCCN(C(=O)c2ccc(NS(=O)(=O)CC)cc2)C1
REMARK SMILES IDX 8 1 7 2 5 3 6 4 4 6 78 7 96 8 79 9 81 10 80 11 3 12 2 13
REMARK SMILES IDX 1 14 82 15 83 16 84 17 85 18 95 19 86 20 94 21 87 22 88 23
REMARK SMILES IDX 89 25 90 26 91 27 92 28 93 29 9 30 10 31 11 32 12 33 13 34
REMARK SMILES IDX 14 36 15 37 16 38 77 39 17 40 76 41 18 42 19 43 20 44 70 45
REMARK SMILES IDX 21 46 75 47 69 48 71 49 22 50 74 51 68 52 67 53 23 55 55 56
REMARK SMILES IDX 35 57 54 58 36 59 39 60 53 61 72 62 37 63 38 64 52 66 73 67
REMARK SMILES IDX 40 68 24 69 25 70 33 71 26 72 32 73 34 74 31 75 27 76 28 77
REMARK SMILES IDX 29 78 30 79 56 80 57 81 65 82 58 83 64 84 66 85 63 86 59 87
REMARK SMILES IDX 60 88 61 89 62 90 41 91 42 92 50 93 43 94 49 95 51 96 48 97
REMARK SMILES IDX 44 98 45 99 46 100 47 101
REMARK H PARENT 7 5 88 24 12 35 71 54 39 65
REMARK Flexibility Score: inf
ROOT
ATOM      1  C   UNL A   1      32.731  29.095  26.865  1.00  0.00     0.116 C 
ENDROOT
BRANCH   1   2
ATOM      2  N   UNL A   1      31.774  29.116  25.776  1.00  0.00    -0.356 N 
ATOM      3  C   UNL A   1      31.564  28.290  24.716  1.00  0.00     0.228 C 
ATOM      4  O   UNL A   1      30.614  28.602  23.992  1.00  0.00    -0.274 OA
ATOM      5  H   UNL A   1      31.152  29.878  25.811  1.00  0.00     0.163 HD
BRANCH   3   6
ATOM      6  C   UNL A   1      32.414  27.010  24.449  1.00  0.00     0.067 C 
ATOM      7  C   UNL A   1      33.433  26.791  25.593  1.00  0.00     0.020 C 
ATOM      8  C   UNL A   1      31.381  25.865  24.276  1.00  0.00     0.136 C 
ATOM      9  C   UNL A   1      33.821  25.338  25.861  1.00  0.00     0.023 C 
ATOM     10  N   UNL A   1      31.854  24.527  24.618  1.00  0.00    -0.338 N 
ATOM     11  C   UNL A   1      32.637  24.388  25.837  1.00  0.00     0.120 C 
BRANCH   6  12
ATOM     12  C   UNL A   1      33.177  27.298  23.097  1.00  0.00     0.018 C 
BRANCH  12  13
ATOM     13  C   UNL A   1      33.484  26.187  22.089  1.00  0.00    -0.002 C 
ATOM     14  C   UNL A   1      32.405  25.936  21.065  1.00  0.00     0.004 C 
ENDBRANCH  12  13
ENDBRANCH   6  12
BRANCH  10  15
ATOM     15  C   UNL A   1      31.263  23.454  23.956  1.00  0.00     0.253 C 
ATOM     16  O   UNL A   1      30.349  23.562  23.142  1.00  0.00    -0.269 OA
BRANCH  15  17
ATOM     17  C   UNL A   1      31.882  22.124  24.083  1.00  0.00     0.040 A 
ATOM     18  C   UNL A   1      31.964  21.372  22.915  1.00  0.00     0.016 A 
ATOM     19  C   UNL A   1      32.228  21.558  25.306  1.00  0.00     0.016 A 
ATOM     20  C   UNL A   1      32.419  20.061  22.950  1.00  0.00     0.027 A 
ATOM     21  C   UNL A   1      32.628  20.212  25.342  1.00  0.00     0.027 A 
ATOM     22  C   UNL A   1      32.714  19.450  24.164  1.00  0.00     0.049 A 
BRANCH  22  23
ATOM     23  N   UNL A   1      32.777  18.028  24.287  1.00  0.00    -0.284 N 
ATOM     24  H   UNL A   1      31.953  17.552  24.540  1.00  0.00     0.180 HD
BRANCH  23  25
ATOM     25  S   UNL A   1      34.152  17.117  24.033  1.00  0.00     0.232 S 
ATOM     26  O   UNL A   1      34.097  16.570  22.695  1.00  0.00    -0.207 OA
ATOM     27  O   UNL A   1      35.243  17.992  24.419  1.00  0.00    -0.207 OA
BRANCH  25  28
ATOM     28  C   UNL A   1      34.124  15.759  25.209  1.00  0.00     0.156 C 
ATOM     29  C   UNL A   1      32.771  15.123  25.451  1.00  0.00     0.023 C 
ENDBRANCH  25  28
ENDBRANCH  23  25
ENDBRANCH  22  23
ENDBRANCH  15  17
ENDBRANCH  10  15
ENDBRANCH   3   6
ENDBRANCH   1   2
BRANCH   1  30
ATOM     30  C   UNL A   1      33.429  30.444  27.031  1.00  0.00     0.023 C 
BRANCH  30  31
ATOM     31  C   UNL A   1      32.672  31.628  26.432  1.00  0.00     0.023 C 
BRANCH  31  32
ATOM     32  C   UNL A   1      31.898  32.471  27.437  1.00  0.00     0.116 C 
BRANCH  32  33
ATOM     33  N   UNL A   1      32.341  33.857  27.475  1.00  0.00    -0.352 N 
ATOM     34  C   UNL A   1      33.507  34.359  28.004  1.00  0.00     0.251 C 
ATOM     35  H   UNL A   1      31.729  34.517  27.074  1.00  0.00     0.163 HD
ATOM     36  O   UNL A   1      33.688  35.569  28.078  1.00  0.00    -0.269 OA
BRANCH  34  37
ATOM     37  C   UNL A   1      34.512  33.405  28.514  1.00  0.00     0.039 A 
ATOM     38  C   UNL A   1      35.758  33.326  27.889  1.00  0.00     0.014 A 
ATOM     39  C   UNL A   1      34.243  32.669  29.671  1.00  0.00     0.014 A 
ATOM     40  C   UNL A   1      36.770  32.562  28.473  1.00  0.00     0.010 A 
ATOM     41  C   UNL A   1      35.273  31.968  30.285  1.00  0.00     0.010 A 
ATOM     42  C   UNL A   1      36.548  31.913  29.699  1.00  0.00    -0.014 A 
BRANCH  42  43
ATOM     43  C   UNL A   1      37.612  31.144  30.393  1.00  0.00     0.031 A 
ATOM     44  C   UNL A   1      37.963  31.502  31.809  1.00  0.00     0.074 A 
ATOM     45  C   UNL A   1      38.324  30.211  29.729  1.00  0.00     0.049 A 
ATOM     46  N   UNL A   1      38.989  31.132  32.531  1.00  0.00    -0.248 NA
ATOM     47  C   UNL A   1      37.052  32.438  32.487  1.00  0.00     0.031 C 
ATOM     48  C   UNL A   1      38.083  29.780  28.351  1.00  0.00     0.029 A 
ATOM     49  N   UNL A   1      39.413  29.473  30.120  1.00  0.00    -0.354 N 
ATOM     50  C   UNL A   1      38.861  31.810  33.739  1.00  0.00     0.074 A 
ATOM     51  C   UNL A   1      37.690  32.653  33.626  1.00  0.00     0.031 C 
ATOM     52  C   UNL A   1      38.990  28.848  28.017  1.00  0.00     0.029 A 
ATOM     53  C   UNL A   1      39.914  28.657  29.131  1.00  0.00     0.049 A 
ATOM     54  H   UNL A   1      39.801  29.523  31.023  1.00  0.00     0.167 HD
ATOM     55  C   UNL A   1      39.640  31.721  34.845  1.00  0.00     0.034 A 
ATOM     56  C   UNL A   1      41.007  27.867  29.117  1.00  0.00     0.034 A 
ATOM     57  C   UNL A   1      40.792  30.861  34.945  1.00  0.00     0.049 A 
ATOM     58  C   UNL A   1      41.882  27.813  30.347  1.00  0.00     0.074 A 
ATOM     59  C   UNL A   1      41.646  30.680  36.019  1.00  0.00     0.029 A 
ATOM     60  N   UNL A   1      41.251  30.031  33.929  1.00  0.00    -0.354 N 
ATOM     61  N   UNL A   1      41.754  28.463  31.481  1.00  0.00    -0.248 NA
ATOM     62  C   UNL A   1      43.045  26.916  30.298  1.00  0.00     0.031 C 
ATOM     63  C   UNL A   1      42.645  29.778  35.637  1.00  0.00     0.029 A 
ATOM     64  C   UNL A   1      42.377  29.345  34.350  1.00  0.00     0.049 A 
ATOM     65  H   UNL A   1      40.835  29.944  33.041  1.00  0.00     0.167 HD
ATOM     66  C   UNL A   1      42.791  28.015  32.294  1.00  0.00     0.074 A 
ATOM     67  C   UNL A   1      43.539  27.046  31.521  1.00  0.00     0.031 C 
ATOM     68  C   UNL A   1      43.093  28.365  33.570  1.00  0.00     0.034 A 
BRANCH  55  69
ATOM     69  C   UNL A   1      39.274  32.599  36.017  1.00  0.00     0.023 A 
ATOM     70  C   UNL A   1      39.665  33.948  36.073  1.00  0.00     0.031 A 
ATOM     71  C   UNL A   1      38.563  32.072  37.110  1.00  0.00     0.131 A 
ATOM     72  C   UNL A   1      39.418  34.700  37.231  1.00  0.00     0.055 A 
ATOM     73  C   UNL A   1      38.243  32.853  38.223  1.00  0.00     0.041 A 
ATOM     74  F   UNL A   1      38.181  30.785  37.122  1.00  0.00    -0.206 F 
ATOM     75  C   UNL A   1      38.686  34.170  38.295  1.00  0.00     0.022 A 
BRANCH  72  76
ATOM     76  S   UNL A   1      40.199  36.330  37.383  1.00  0.00     0.124 S 
ATOM     77  O   UNL A   1      40.024  36.865  36.034  1.00  0.00    -0.237 OA
ATOM     78  O   UNL A   1      39.405  36.964  38.429  1.00  0.00    -0.237 OA
ATOM     79  O   UNL A   1      41.579  36.017  37.747  1.00  0.00    -0.744 OA
ENDBRANCH  72  76
ENDBRANCH  55  69
BRANCH  56  80
ATOM     80  C   UNL A   1      41.360  27.073  27.904  1.00  0.00     0.023 A 
ATOM     81  C   UNL A   1      41.063  25.704  27.833  1.00  0.00     0.031 A 
ATOM     82  C   UNL A   1      42.050  27.655  26.827  1.00  0.00     0.131 A 
ATOM     83  C   UNL A   1      41.503  24.948  26.736  1.00  0.00     0.055 A 
ATOM     84  C   UNL A   1      42.437  26.910  25.711  1.00  0.00     0.041 A 
ATOM     85  F   UNL A   1      42.355  28.963  26.840  1.00  0.00    -0.206 F 
ATOM     86  C   UNL A   1      42.177  25.544  25.668  1.00  0.00     0.022 A 
BRANCH  83  87
ATOM     87  S   UNL A   1      41.267  23.150  26.772  1.00  0.00     0.124 S 
ATOM     88  O   UNL A   1      39.839  23.033  26.497  1.00  0.00    -0.237 OA
ATOM     89  O   UNL A   1      42.164  22.705  25.711  1.00  0.00    -0.237 OA
ATOM     90  O   UNL A   1      41.674  22.781  28.126  1.00  0.00    -0.744 OA
ENDBRANCH  83  87
ENDBRANCH  56  80
BRANCH  68  91
ATOM     91  C   UNL A   1      44.224  27.628  34.239  1.00  0.00     0.023 A 
ATOM     92  C   UNL A   1      44.048  26.362  34.824  1.00  0.00     0.031 A 
ATOM     93  C   UNL A   1      45.507  28.201  34.266  1.00  0.00     0.131 A 
ATOM     94  C   UNL A   1      45.136  25.726  35.443  1.00  0.00     0.055 A 
ATOM     95  C   UNL A   1      46.594  27.543  34.839  1.00  0.00     0.041 A 
ATOM     96  F   UNL A   1      45.726  29.409  33.718  1.00  0.00    -0.206 F 
ATOM     97  C   UNL A   1      46.410  26.302  35.440  1.00  0.00     0.022 A 
BRANCH  94  98
ATOM     98  S   UNL A   1      44.856  24.151  36.298  1.00  0.00     0.124 S 
ATOM     99  O   UNL A   1      43.548  23.755  35.785  1.00  0.00    -0.237 OA
ATOM    100  O   UNL A   1      45.986  23.345  35.849  1.00  0.00    -0.237 OA
ATOM    101  O   UNL A   1      44.882  24.519  37.713  1.00  0.00    -0.744 OA
ENDBRANCH  94  98
ENDBRANCH  68  91
ENDBRANCH  42  43
ENDBRANCH  34  37
ENDBRANCH  32  33
ENDBRANCH  31  32
ENDBRANCH  30  31
ENDBRANCH   1  30
TORSDOF 21
ENDMDL
