MODEL 1
REMARK VINA RESULT:     -10.9      0.000      0.000
REMARK SMILES [NH3+][C@H](Cc1cc(F)c(F)c(F)c1)C(=O)NCCCCNC(=O)c1ccc(-c2c3nc(c(-c4cc(S(=O)(=O)[O-])ccc4F)c4ccc([nH]4)c(-c4cc(S(=O)(=O)[O-])ccc4F)c4nc(c(-c5cc(S(=O)(=O)[O-])ccc5F)c5ccc2[nH]5)C=C4)C=C3)cc1
REMARK SMILES IDX 18 1 17 2 16 3 15 4 13 5 14 6 2 8 1 9 3 13 4 14 5 15 12 16
REMARK SMILES IDX 6 17 10 18 7 19 8 20 11 21 9 22 19 23 20 24 21 25 22 27
REMARK SMILES IDX 23 28 24 29 85 30 25 31 84 32 26 33 27 34 28 35 78 36 29 37
REMARK SMILES IDX 83 38 77 39 79 40 30 41 82 42 76 43 75 44 31 46 63 47 43 48
REMARK SMILES IDX 62 49 44 50 47 51 61 52 80 53 45 54 46 55 60 57 81 58 48 59
REMARK SMILES IDX 32 60 33 61 41 62 34 63 40 64 42 65 39 66 35 67 36 68 37 69
REMARK SMILES IDX 38 70 64 71 65 72 73 73 66 74 72 75 74 76 71 77 67 78 68 79
REMARK SMILES IDX 69 80 70 81 49 82 50 83 58 84 51 85 57 86 59 87 56 88 52 89
REMARK SMILES IDX 53 90 54 91 55 92
REMARK H PARENT 15 7 1 10 1 11 1 12 20 26 79 45 47 56
REMARK Flexibility Score: inf
ROOT
ATOM      1  C   UNL A   1      34.998  34.424  29.452  1.00  0.00     0.023 C 
ENDROOT
BRANCH   1   2
ATOM      2  C   UNL A   1      34.235  35.510  28.698  1.00  0.00     0.023 C 
BRANCH   2   3
ATOM      3  C   UNL A   1      32.917  35.912  29.356  1.00  0.00     0.116 C 
BRANCH   3   4
ATOM      4  N   UNL A   1      33.087  37.002  30.292  1.00  0.00    -0.351 N 
ATOM      5  C   UNL A   1      33.211  36.986  31.653  1.00  0.00     0.278 C 
ATOM      6  O   UNL A   1      33.286  38.074  32.232  1.00  0.00    -0.268 OA
ATOM      7  H   UNL A   1      33.117  37.897  29.883  1.00  0.00     0.163 HD
BRANCH   5   8
ATOM      8  C   UNL A   1      33.271  35.655  32.451  1.00  0.00     0.275 C 
BRANCH   8   9
ATOM      9  N   UNL A   1      31.906  35.243  32.831  1.00  0.00    -0.347 N 
ATOM     10  H   UNL A   1      31.317  36.070  32.930  1.00  0.00     0.345 HD
ATOM     11  H   UNL A   1      31.937  34.739  33.717  1.00  0.00     0.345 HD
ATOM     12  H   UNL A   1      31.521  34.636  32.107  1.00  0.00     0.345 HD
ENDBRANCH   8   9
BRANCH   8  13
ATOM     13  C   UNL A   1      34.366  35.675  33.550  1.00  0.00     0.111 C 
BRANCH  13  14
ATOM     14  C   UNL A   1      35.280  34.469  33.697  1.00  0.00    -0.036 A 
ATOM     15  C   UNL A   1      36.182  34.394  34.770  1.00  0.00     0.046 A 
ATOM     16  C   UNL A   1      35.194  33.361  32.836  1.00  0.00     0.046 A 
ATOM     17  C   UNL A   1      36.963  33.251  34.962  1.00  0.00     0.162 A 
ATOM     18  C   UNL A   1      35.984  32.230  33.037  1.00  0.00     0.162 A 
ATOM     19  F   UNL A   1      37.804  33.205  36.004  1.00  0.00    -0.204 F 
ATOM     20  C   UNL A   1      36.867  32.169  34.099  1.00  0.00     0.194 A 
ATOM     21  F   UNL A   1      35.869  31.200  32.190  1.00  0.00    -0.204 F 
ATOM     22  F   UNL A   1      37.615  31.074  34.295  1.00  0.00    -0.200 F 
ENDBRANCH  13  14
ENDBRANCH   8  13
ENDBRANCH   5   8
ENDBRANCH   3   4
ENDBRANCH   2   3
ENDBRANCH   1   2
BRANCH   1  23
ATOM     23  C   UNL A   1      35.557  33.303  28.580  1.00  0.00     0.116 C 
BRANCH  23  24
ATOM     24  N   UNL A   1      34.529  32.507  27.926  1.00  0.00    -0.352 N 
ATOM     25  C   UNL A   1      34.555  31.163  27.624  1.00  0.00     0.251 C 
ATOM     26  H   UNL A   1      33.711  32.990  27.667  1.00  0.00     0.163 HD
ATOM     27  O   UNL A   1      33.646  30.659  26.977  1.00  0.00    -0.269 OA
BRANCH  25  28
ATOM     28  C   UNL A   1      35.719  30.359  28.053  1.00  0.00     0.039 A 
ATOM     29  C   UNL A   1      36.862  30.343  27.249  1.00  0.00     0.014 A 
ATOM     30  C   UNL A   1      35.706  29.697  29.283  1.00  0.00     0.014 A 
ATOM     31  C   UNL A   1      38.024  29.732  27.722  1.00  0.00     0.010 A 
ATOM     32  C   UNL A   1      36.887  29.158  29.783  1.00  0.00     0.010 A 
ATOM     33  C   UNL A   1      38.060  29.177  29.012  1.00  0.00    -0.014 A 
BRANCH  33  34
ATOM     34  C   UNL A   1      39.313  28.617  29.581  1.00  0.00     0.031 A 
ATOM     35  C   UNL A   1      39.928  29.247  30.801  1.00  0.00     0.074 A 
ATOM     36  C   UNL A   1      39.938  27.601  28.953  1.00  0.00     0.049 A 
ATOM     37  N   UNL A   1      41.068  28.983  31.385  1.00  0.00    -0.248 NA
ATOM     38  C   UNL A   1      39.175  30.347  31.420  1.00  0.00     0.031 C 
ATOM     39  C   UNL A   1      39.468  26.944  27.732  1.00  0.00     0.029 A 
ATOM     40  N   UNL A   1      41.113  26.954  29.246  1.00  0.00    -0.354 N 
ATOM     41  C   UNL A   1      41.177  29.894  32.430  1.00  0.00     0.074 A 
ATOM     42  C   UNL A   1      40.019  30.759  32.352  1.00  0.00     0.031 C 
ATOM     43  C   UNL A   1      40.336  25.976  27.392  1.00  0.00     0.029 A 
ATOM     44  C   UNL A   1      41.442  25.969  28.343  1.00  0.00     0.049 A 
ATOM     45  H   UNL A   1      41.668  27.174  30.029  1.00  0.00     0.167 HD
ATOM     46  C   UNL A   1      42.140  29.984  33.381  1.00  0.00     0.034 A 
ATOM     47  C   UNL A   1      42.519  25.162  28.281  1.00  0.00     0.034 A 
ATOM     48  C   UNL A   1      43.280  29.102  33.453  1.00  0.00     0.049 A 
ATOM     49  C   UNL A   1      43.578  25.278  29.348  1.00  0.00     0.074 A 
ATOM     50  C   UNL A   1      44.288  29.068  34.401  1.00  0.00     0.029 A 
ATOM     51  N   UNL A   1      43.566  28.098  32.537  1.00  0.00    -0.354 N 
ATOM     52  N   UNL A   1      43.644  26.115  30.358  1.00  0.00    -0.248 NA
ATOM     53  C   UNL A   1      44.700  24.334  29.273  1.00  0.00     0.031 C 
ATOM     54  C   UNL A   1      45.210  28.084  34.029  1.00  0.00     0.029 A 
ATOM     55  C   UNL A   1      44.743  27.455  32.885  1.00  0.00     0.049 A 
ATOM     56  H   UNL A   1      43.012  27.875  31.753  1.00  0.00     0.167 HD
ATOM     57  C   UNL A   1      44.800  25.778  31.054  1.00  0.00     0.074 A 
ATOM     58  C   UNL A   1      45.392  24.655  30.356  1.00  0.00     0.031 C 
ATOM     59  C   UNL A   1      45.325  26.343  32.171  1.00  0.00     0.034 A 
BRANCH  46  60
ATOM     60  C   UNL A   1      42.000  31.090  34.400  1.00  0.00     0.023 A 
ATOM     61  C   UNL A   1      42.612  32.342  34.216  1.00  0.00     0.031 A 
ATOM     62  C   UNL A   1      41.285  30.877  35.592  1.00  0.00     0.131 A 
ATOM     63  C   UNL A   1      42.576  33.298  35.242  1.00  0.00     0.055 A 
ATOM     64  C   UNL A   1      41.179  31.866  36.573  1.00  0.00     0.041 A 
ATOM     65  F   UNL A   1      40.695  29.696  35.834  1.00  0.00    -0.206 F 
ATOM     66  C   UNL A   1      41.841  33.078  36.408  1.00  0.00     0.022 A 
BRANCH  63  67
ATOM     67  S   UNL A   1      43.632  34.764  35.091  1.00  0.00     0.124 S 
ATOM     68  O   UNL A   1      43.279  35.506  36.300  1.00  0.00    -0.237 OA
ATOM     69  O   UNL A   1      44.971  34.188  35.062  1.00  0.00    -0.237 OA
ATOM     70  O   UNL A   1      43.189  35.379  33.841  1.00  0.00    -0.744 OA
ENDBRANCH  63  67
ENDBRANCH  46  60
BRANCH  47  71
ATOM     71  C   UNL A   1      42.662  24.178  27.171  1.00  0.00     0.023 A 
ATOM     72  C   UNL A   1      42.066  22.910  27.249  1.00  0.00     0.031 A 
ATOM     73  C   UNL A   1      43.426  24.481  26.030  1.00  0.00     0.131 A 
ATOM     74  C   UNL A   1      42.280  21.973  26.226  1.00  0.00     0.055 A 
ATOM     75  C   UNL A   1      43.598  23.561  24.993  1.00  0.00     0.041 A 
ATOM     76  F   UNL A   1      44.009  25.683  25.902  1.00  0.00    -0.206 F 
ATOM     77  C   UNL A   1      43.033  22.294  25.093  1.00  0.00     0.022 A 
BRANCH  74  78
ATOM     78  S   UNL A   1      41.619  20.296  26.430  1.00  0.00     0.124 S 
ATOM     79  O   UNL A   1      42.301  19.575  25.361  1.00  0.00    -0.237 OA
ATOM     80  O   UNL A   1      42.035  19.972  27.790  1.00  0.00    -0.237 OA
ATOM     81  O   UNL A   1      40.180  20.473  26.247  1.00  0.00    -0.744 OA
ENDBRANCH  74  78
ENDBRANCH  47  71
BRANCH  59  82
ATOM     82  C   UNL A   1      46.581  25.718  32.726  1.00  0.00     0.023 A 
ATOM     83  C   UNL A   1      46.534  24.695  33.688  1.00  0.00     0.031 A 
ATOM     84  C   UNL A   1      47.841  26.162  32.290  1.00  0.00     0.131 A 
ATOM     85  C   UNL A   1      47.727  24.186  34.223  1.00  0.00     0.055 A 
ATOM     86  C   UNL A   1      49.025  25.614  32.786  1.00  0.00     0.041 A 
ATOM     87  F   UNL A   1      47.942  27.139  31.374  1.00  0.00    -0.206 F 
ATOM     88  C   UNL A   1      48.972  24.629  33.767  1.00  0.00     0.022 A 
BRANCH  85  89
ATOM     89  S   UNL A   1      47.632  22.993  35.586  1.00  0.00     0.124 S 
ATOM     90  O   UNL A   1      48.958  23.108  36.184  1.00  0.00    -0.237 OA
ATOM     91  O   UNL A   1      46.527  23.517  36.383  1.00  0.00    -0.237 OA
ATOM     92  O   UNL A   1      47.362  21.723  34.914  1.00  0.00    -0.744 OA
ENDBRANCH  85  89
ENDBRANCH  59  82
ENDBRANCH  33  34
ENDBRANCH  25  28
ENDBRANCH  23  24
ENDBRANCH   1  23
TORSDOF 17
ENDMDL
MODEL 2
REMARK VINA RESULT:     -10.9      4.523     12.070
REMARK SMILES [NH3+][C@H](Cc1cc(F)c(F)c(F)c1)C(=O)NCCCCNC(=O)c1ccc(-c2c3nc(c(-c4cc(S(=O)(=O)[O-])ccc4F)c4ccc([nH]4)c(-c4cc(S(=O)(=O)[O-])ccc4F)c4nc(c(-c5cc(S(=O)(=O)[O-])ccc5F)c5ccc2[nH]5)C=C4)C=C3)cc1
REMARK SMILES IDX 18 1 17 2 16 3 15 4 13 5 14 6 2 8 1 9 3 13 4 14 5 15 12 16
REMARK SMILES IDX 6 17 10 18 7 19 8 20 11 21 9 22 19 23 20 24 21 25 22 27
REMARK SMILES IDX 23 28 24 29 85 30 25 31 84 32 26 33 27 34 28 35 78 36 29 37
REMARK SMILES IDX 83 38 77 39 79 40 30 41 82 42 76 43 75 44 31 46 63 47 43 48
REMARK SMILES IDX 62 49 44 50 47 51 61 52 80 53 45 54 46 55 60 57 81 58 48 59
REMARK SMILES IDX 32 60 33 61 41 62 34 63 40 64 42 65 39 66 35 67 36 68 37 69
REMARK SMILES IDX 38 70 64 71 65 72 73 73 66 74 72 75 74 76 71 77 67 78 68 79
REMARK SMILES IDX 69 80 70 81 49 82 50 83 58 84 51 85 57 86 59 87 56 88 52 89
REMARK SMILES IDX 53 90 54 91 55 92
REMARK H PARENT 15 7 1 10 1 11 1 12 20 26 79 45 47 56
REMARK Flexibility Score: inf
ROOT
ATOM      1  C   UNL A   1      41.055  20.596  27.304  1.00  0.00     0.023 C 
ENDROOT
BRANCH   1   2
ATOM      2  C   UNL A   1      42.281  19.698  27.160  1.00  0.00     0.023 C 
BRANCH   2   3
ATOM      3  C   UNL A   1      42.847  19.644  25.742  1.00  0.00     0.116 C 
BRANCH   3   4
ATOM      4  N   UNL A   1      44.292  19.694  25.731  1.00  0.00    -0.351 N 
ATOM      5  C   UNL A   1      45.138  20.676  25.293  1.00  0.00     0.278 C 
ATOM      6  O   UNL A   1      46.350  20.446  25.339  1.00  0.00    -0.268 OA
ATOM      7  H   UNL A   1      44.737  18.896  26.095  1.00  0.00     0.163 HD
BRANCH   5   8
ATOM      8  C   UNL A   1      44.605  22.037  24.768  1.00  0.00     0.275 C 
BRANCH   8   9
ATOM      9  N   UNL A   1      44.544  22.010  23.294  1.00  0.00    -0.347 N 
ATOM     10  H   UNL A   1      44.385  21.052  22.978  1.00  0.00     0.345 HD
ATOM     11  H   UNL A   1      45.424  22.352  22.910  1.00  0.00     0.345 HD
ATOM     12  H   UNL A   1      43.778  22.604  22.974  1.00  0.00     0.345 HD
ENDBRANCH   8   9
BRANCH   8  13
ATOM     13  C   UNL A   1      45.298  23.244  25.453  1.00  0.00     0.111 C 
BRANCH  13  14
ATOM     14  C   UNL A   1      44.927  23.585  26.887  1.00  0.00    -0.036 A 
ATOM     15  C   UNL A   1      43.677  23.205  27.402  1.00  0.00     0.046 A 
ATOM     16  C   UNL A   1      45.838  24.197  27.765  1.00  0.00     0.046 A 
ATOM     17  C   UNL A   1      43.362  23.436  28.744  1.00  0.00     0.162 A 
ATOM     18  C   UNL A   1      45.507  24.427  29.100  1.00  0.00     0.162 A 
ATOM     19  F   UNL A   1      42.167  23.050  29.209  1.00  0.00    -0.204 F 
ATOM     20  C   UNL A   1      44.273  24.046  29.594  1.00  0.00     0.194 A 
ATOM     21  F   UNL A   1      46.407  25.015  29.899  1.00  0.00    -0.204 F 
ATOM     22  F   UNL A   1      43.965  24.258  30.882  1.00  0.00    -0.200 F 
ENDBRANCH  13  14
ENDBRANCH   8  13
ENDBRANCH   5   8
ENDBRANCH   3   4
ENDBRANCH   2   3
ENDBRANCH   1   2
BRANCH   1  23
ATOM     23  C   UNL A   1      40.764  21.490  26.102  1.00  0.00     0.116 C 
BRANCH  23  24
ATOM     24  N   UNL A   1      39.345  21.721  25.877  1.00  0.00    -0.352 N 
ATOM     25  C   UNL A   1      38.609  22.850  26.165  1.00  0.00     0.251 C 
ATOM     26  H   UNL A   1      38.847  20.977  25.467  1.00  0.00     0.163 HD
ATOM     27  O   UNL A   1      37.395  22.851  26.008  1.00  0.00    -0.269 OA
BRANCH  25  28
ATOM     28  C   UNL A   1      39.306  24.034  26.711  1.00  0.00     0.039 A 
ATOM     29  C   UNL A   1      39.957  24.900  25.831  1.00  0.00     0.014 A 
ATOM     30  C   UNL A   1      39.240  24.324  28.076  1.00  0.00     0.014 A 
ATOM     31  C   UNL A   1      40.470  26.107  26.310  1.00  0.00     0.010 A 
ATOM     32  C   UNL A   1      39.683  25.560  28.535  1.00  0.00     0.010 A 
ATOM     33  C   UNL A   1      40.294  26.469  27.656  1.00  0.00    -0.014 A 
BRANCH  33  34
ATOM     34  C   UNL A   1      40.733  27.792  28.167  1.00  0.00     0.031 A 
ATOM     35  C   UNL A   1      42.201  28.090  28.309  1.00  0.00     0.074 A 
ATOM     36  C   UNL A   1      39.815  28.688  28.582  1.00  0.00     0.049 A 
ATOM     37  N   UNL A   1      42.788  29.134  28.835  1.00  0.00    -0.248 NA
ATOM     38  C   UNL A   1      43.128  27.056  27.829  1.00  0.00     0.031 C 
ATOM     39  C   UNL A   1      38.364  28.492  28.545  1.00  0.00     0.029 A 
ATOM     40  N   UNL A   1      39.966  29.937  29.130  1.00  0.00    -0.354 N 
ATOM     41  C   UNL A   1      44.152  28.875  28.765  1.00  0.00     0.074 A 
ATOM     42  C   UNL A   1      44.297  27.547  28.208  1.00  0.00     0.031 C 
ATOM     43  C   UNL A   1      37.760  29.589  29.032  1.00  0.00     0.029 A 
ATOM     44  C   UNL A   1      38.776  30.548  29.453  1.00  0.00     0.049 A 
ATOM     45  H   UNL A   1      40.844  30.357  29.279  1.00  0.00     0.167 HD
ATOM     46  C   UNL A   1      45.188  29.680  29.108  1.00  0.00     0.034 A 
ATOM     47  C   UNL A   1      38.532  31.739  30.034  1.00  0.00     0.034 A 
ATOM     48  C   UNL A   1      45.026  31.009  29.646  1.00  0.00     0.049 A 
ATOM     49  C   UNL A   1      39.697  32.619  30.408  1.00  0.00     0.074 A 
ATOM     50  C   UNL A   1      46.002  31.932  29.980  1.00  0.00     0.029 A 
ATOM     51  N   UNL A   1      43.804  31.605  29.933  1.00  0.00    -0.354 N 
ATOM     52  N   UNL A   1      40.983  32.380  30.291  1.00  0.00    -0.248 NA
ATOM     53  C   UNL A   1      39.378  33.933  30.978  1.00  0.00     0.031 C 
ATOM     54  C   UNL A   1      45.374  33.061  30.519  1.00  0.00     0.029 A 
ATOM     55  C   UNL A   1      44.003  32.872  30.460  1.00  0.00     0.049 A 
ATOM     56  H   UNL A   1      42.925  31.188  29.785  1.00  0.00     0.167 HD
ATOM     57  C   UNL A   1      41.625  33.526  30.750  1.00  0.00     0.074 A 
ATOM     58  C   UNL A   1      40.584  34.459  31.131  1.00  0.00     0.031 C 
ATOM     59  C   UNL A   1      42.953  33.786  30.845  1.00  0.00     0.034 A 
BRANCH  46  60
ATOM     60  C   UNL A   1      46.581  29.127  28.925  1.00  0.00     0.023 A 
ATOM     61  C   UNL A   1      47.184  29.057  27.657  1.00  0.00     0.031 A 
ATOM     62  C   UNL A   1      47.299  28.619  30.022  1.00  0.00     0.131 A 
ATOM     63  C   UNL A   1      48.421  28.414  27.502  1.00  0.00     0.055 A 
ATOM     64  C   UNL A   1      48.571  28.059  29.874  1.00  0.00     0.041 A 
ATOM     65  F   UNL A   1      46.770  28.640  31.255  1.00  0.00    -0.206 F 
ATOM     66  C   UNL A   1      49.130  27.938  28.606  1.00  0.00     0.022 A 
BRANCH  63  67
ATOM     67  S   UNL A   1      49.011  28.072  25.822  1.00  0.00     0.124 S 
ATOM     68  O   UNL A   1      50.110  29.026  25.696  1.00  0.00    -0.237 OA
ATOM     69  O   UNL A   1      49.389  26.667  25.899  1.00  0.00    -0.237 OA
ATOM     70  O   UNL A   1      47.848  28.361  24.985  1.00  0.00    -0.744 OA
ENDBRANCH  63  67
ENDBRANCH  46  60
BRANCH  47  71
ATOM     71  C   UNL A   1      37.132  32.171  30.308  1.00  0.00     0.023 A 
ATOM     72  C   UNL A   1      36.330  32.709  29.289  1.00  0.00     0.031 A 
ATOM     73  C   UNL A   1      36.589  32.086  31.601  1.00  0.00     0.131 A 
ATOM     74  C   UNL A   1      35.042  33.181  29.589  1.00  0.00     0.055 A 
ATOM     75  C   UNL A   1      35.291  32.515  31.885  1.00  0.00     0.041 A 
ATOM     76  F   UNL A   1      37.312  31.571  32.609  1.00  0.00    -0.206 F 
ATOM     77  C   UNL A   1      34.514  33.078  30.878  1.00  0.00     0.022 A 
BRANCH  74  78
ATOM     78  S   UNL A   1      34.092  34.003  28.282  1.00  0.00     0.124 S 
ATOM     79  O   UNL A   1      35.148  34.446  27.379  1.00  0.00    -0.237 OA
ATOM     80  O   UNL A   1      33.246  32.918  27.796  1.00  0.00    -0.237 OA
ATOM     81  O   UNL A   1      33.387  35.069  28.991  1.00  0.00    -0.744 OA
ENDBRANCH  74  78
ENDBRANCH  47  71
BRANCH  59  82
ATOM     82  C   UNL A   1      43.346  35.156  31.341  1.00  0.00     0.023 A 
ATOM     83  C   UNL A   1      43.559  36.228  30.458  1.00  0.00     0.031 A 
ATOM     84  C   UNL A   1      43.520  35.383  32.717  1.00  0.00     0.131 A 
ATOM     85  C   UNL A   1      43.985  37.468  30.958  1.00  0.00     0.055 A 
ATOM     86  C   UNL A   1      43.891  36.634  33.213  1.00  0.00     0.041 A 
ATOM     87  F   UNL A   1      43.332  34.392  33.603  1.00  0.00    -0.206 F 
ATOM     88  C   UNL A   1      44.138  37.681  32.330  1.00  0.00     0.022 A 
BRANCH  85  89
ATOM     89  S   UNL A   1      44.418  38.779  29.782  1.00  0.00     0.124 S 
ATOM     90  O   UNL A   1      43.106  39.297  29.408  1.00  0.00    -0.237 OA
ATOM     91  O   UNL A   1      45.246  39.666  30.594  1.00  0.00    -0.237 OA
ATOM     92  O   UNL A   1      45.130  38.068  28.722  1.00  0.00    -0.744 OA
ENDBRANCH  85  89
ENDBRANCH  59  82
ENDBRANCH  33  34
ENDBRANCH  25  28
ENDBRANCH  23  24
ENDBRANCH   1  23
TORSDOF 17
ENDMDL
MODEL 3
REMARK VINA RESULT:     -10.7      5.247     12.585
REMARK SMILES [NH3+][C@H](Cc1cc(F)c(F)c(F)c1)C(=O)NCCCCNC(=O)c1ccc(-c2c3nc(c(-c4cc(S(=O)(=O)[O-])ccc4F)c4ccc([nH]4)c(-c4cc(S(=O)(=O)[O-])ccc4F)c4nc(c(-c5cc(S(=O)(=O)[O-])ccc5F)c5ccc2[nH]5)C=C4)C=C3)cc1
REMARK SMILES IDX 18 1 17 2 16 3 15 4 13 5 14 6 2 8 1 9 3 13 4 14 5 15 12 16
REMARK SMILES IDX 6 17 10 18 7 19 8 20 11 21 9 22 19 23 20 24 21 25 22 27
REMARK SMILES IDX 23 28 24 29 85 30 25 31 84 32 26 33 27 34 28 35 78 36 29 37
REMARK SMILES IDX 83 38 77 39 79 40 30 41 82 42 76 43 75 44 31 46 63 47 43 48
REMARK SMILES IDX 62 49 44 50 47 51 61 52 80 53 45 54 46 55 60 57 81 58 48 59
REMARK SMILES IDX 32 60 33 61 41 62 34 63 40 64 42 65 39 66 35 67 36 68 37 69
REMARK SMILES IDX 38 70 64 71 65 72 73 73 66 74 72 75 74 76 71 77 67 78 68 79
REMARK SMILES IDX 69 80 70 81 49 82 50 83 58 84 51 85 57 86 59 87 56 88 52 89
REMARK SMILES IDX 53 90 54 91 55 92
REMARK H PARENT 15 7 1 10 1 11 1 12 20 26 79 45 47 56
REMARK Flexibility Score: inf
ROOT
ATOM      1  C   UNL A   1      41.937  20.081  27.450  1.00  0.00     0.023 C 
ENDROOT
BRANCH   1   2
ATOM      2  C   UNL A   1      42.676  18.821  27.005  1.00  0.00     0.023 C 
BRANCH   2   3
ATOM      3  C   UNL A   1      43.251  18.906  25.592  1.00  0.00     0.116 C 
BRANCH   3   4
ATOM      4  N   UNL A   1      44.694  18.996  25.596  1.00  0.00    -0.351 N 
ATOM      5  C   UNL A   1      45.514  20.045  25.285  1.00  0.00     0.278 C 
ATOM      6  O   UNL A   1      46.732  19.844  25.310  1.00  0.00    -0.268 OA
ATOM      7  H   UNL A   1      45.159  18.171  25.864  1.00  0.00     0.163 HD
BRANCH   5   8
ATOM      8  C   UNL A   1      44.946  21.445  24.924  1.00  0.00     0.275 C 
BRANCH   8   9
ATOM      9  N   UNL A   1      44.603  21.486  23.489  1.00  0.00    -0.347 N 
ATOM     10  H   UNL A   1      45.458  21.442  22.935  1.00  0.00     0.345 HD
ATOM     11  H   UNL A   1      44.107  22.353  23.283  1.00  0.00     0.345 HD
ATOM     12  H   UNL A   1      44.008  20.690  23.260  1.00  0.00     0.345 HD
ENDBRANCH   8   9
BRANCH   8  13
ATOM     13  C   UNL A   1      45.806  22.597  25.507  1.00  0.00     0.111 C 
BRANCH  13  14
ATOM     14  C   UNL A   1      45.465  23.140  26.886  1.00  0.00    -0.036 A 
ATOM     15  C   UNL A   1      44.352  22.645  27.584  1.00  0.00     0.046 A 
ATOM     16  C   UNL A   1      46.287  24.073  27.542  1.00  0.00     0.046 A 
ATOM     17  C   UNL A   1      44.081  23.075  28.886  1.00  0.00     0.162 A 
ATOM     18  C   UNL A   1      46.000  24.497  28.839  1.00  0.00     0.162 A 
ATOM     19  F   UNL A   1      43.019  22.574  29.530  1.00  0.00    -0.204 F 
ATOM     20  C   UNL A   1      44.902  24.000  29.515  1.00  0.00     0.194 A 
ATOM     21  F   UNL A   1      46.812  25.388  29.424  1.00  0.00    -0.204 F 
ATOM     22  F   UNL A   1      44.639  24.401  30.767  1.00  0.00    -0.200 F 
ENDBRANCH  13  14
ENDBRANCH   8  13
ENDBRANCH   5   8
ENDBRANCH   3   4
ENDBRANCH   2   3
ENDBRANCH   1   2
BRANCH   1  23
ATOM     23  C   UNL A   1      41.477  20.994  26.318  1.00  0.00     0.116 C 
BRANCH  23  24
ATOM     24  N   UNL A   1      40.039  20.961  26.091  1.00  0.00    -0.352 N 
ATOM     25  C   UNL A   1      39.125  21.977  26.264  1.00  0.00     0.251 C 
ATOM     26  H   UNL A   1      39.674  20.104  25.772  1.00  0.00     0.163 HD
ATOM     27  O   UNL A   1      37.928  21.760  26.127  1.00  0.00    -0.269 OA
BRANCH  25  28
ATOM     28  C   UNL A   1      39.614  23.313  26.667  1.00  0.00     0.039 A 
ATOM     29  C   UNL A   1      40.422  23.423  27.801  1.00  0.00     0.014 A 
ATOM     30  C   UNL A   1      39.340  24.432  25.878  1.00  0.00     0.014 A 
ATOM     31  C   UNL A   1      41.029  24.646  28.094  1.00  0.00     0.010 A 
ATOM     32  C   UNL A   1      40.007  25.627  26.128  1.00  0.00     0.010 A 
ATOM     33  C   UNL A   1      40.866  25.744  27.233  1.00  0.00    -0.014 A 
BRANCH  33  34
ATOM     34  C   UNL A   1      41.585  27.023  27.462  1.00  0.00     0.031 A 
ATOM     35  C   UNL A   1      42.964  27.219  26.892  1.00  0.00     0.074 A 
ATOM     36  C   UNL A   1      41.036  27.969  28.250  1.00  0.00     0.049 A 
ATOM     37  N   UNL A   1      43.800  28.209  27.068  1.00  0.00    -0.248 NA
ATOM     38  C   UNL A   1      43.480  26.136  26.043  1.00  0.00     0.031 C 
ATOM     39  C   UNL A   1      39.729  27.871  28.905  1.00  0.00     0.029 A 
ATOM     40  N   UNL A   1      41.514  29.192  28.649  1.00  0.00    -0.354 N 
ATOM     41  C   UNL A   1      44.949  27.861  26.365  1.00  0.00     0.074 A 
ATOM     42  C   UNL A   1      44.721  26.540  25.820  1.00  0.00     0.031 C 
ATOM     43  C   UNL A   1      39.504  28.994  29.606  1.00  0.00     0.029 A 
ATOM     44  C   UNL A   1      40.662  29.873  29.488  1.00  0.00     0.049 A 
ATOM     45  H   UNL A   1      42.385  29.549  28.361  1.00  0.00     0.167 HD
ATOM     46  C   UNL A   1      46.078  28.587  26.170  1.00  0.00     0.034 A 
ATOM     47  C   UNL A   1      40.804  31.064  30.102  1.00  0.00     0.034 A 
ATOM     48  C   UNL A   1      46.281  29.911  26.706  1.00  0.00     0.049 A 
ATOM     49  C   UNL A   1      42.066  31.856  29.872  1.00  0.00     0.074 A 
ATOM     50  C   UNL A   1      47.361  30.759  26.530  1.00  0.00     0.029 A 
ATOM     51  N   UNL A   1      45.384  30.581  27.529  1.00  0.00    -0.354 N 
ATOM     52  N   UNL A   1      43.126  31.533  29.166  1.00  0.00    -0.248 NA
ATOM     53  C   UNL A   1      42.146  33.175  30.511  1.00  0.00     0.031 C 
ATOM     54  C   UNL A   1      47.142  31.914  27.289  1.00  0.00     0.029 A 
ATOM     55  C   UNL A   1      45.895  31.819  27.885  1.00  0.00     0.049 A 
ATOM     56  H   UNL A   1      44.511  30.227  27.817  1.00  0.00     0.167 HD
ATOM     57  C   UNL A   1      43.986  32.623  29.255  1.00  0.00     0.074 A 
ATOM     58  C   UNL A   1      43.316  33.615  30.071  1.00  0.00     0.031 C 
ATOM     59  C   UNL A   1      45.217  32.792  28.709  1.00  0.00     0.034 A 
BRANCH  46  60
ATOM     60  C   UNL A   1      47.178  27.946  25.358  1.00  0.00     0.023 A 
ATOM     61  C   UNL A   1      47.349  28.236  23.993  1.00  0.00     0.031 A 
ATOM     62  C   UNL A   1      48.038  26.999  25.940  1.00  0.00     0.131 A 
ATOM     63  C   UNL A   1      48.291  27.524  23.236  1.00  0.00     0.055 A 
ATOM     64  C   UNL A   1      49.034  26.356  25.201  1.00  0.00     0.041 A 
ATOM     65  F   UNL A   1      47.912  26.665  27.235  1.00  0.00    -0.206 F 
ATOM     66  C   UNL A   1      49.152  26.604  23.837  1.00  0.00     0.022 A 
BRANCH  63  67
ATOM     67  S   UNL A   1      48.264  27.705  21.433  1.00  0.00     0.124 S 
ATOM     68  O   UNL A   1      48.533  26.338  20.996  1.00  0.00    -0.237 OA
ATOM     69  O   UNL A   1      46.916  28.202  21.186  1.00  0.00    -0.237 OA
ATOM     70  O   UNL A   1      49.340  28.659  21.168  1.00  0.00    -0.744 OA
ENDBRANCH  63  67
ENDBRANCH  46  60
BRANCH  47  71
ATOM     71  C   UNL A   1      39.733  31.583  30.998  1.00  0.00     0.023 A 
ATOM     72  C   UNL A   1      39.797  31.390  32.387  1.00  0.00     0.031 A 
ATOM     73  C   UNL A   1      38.611  32.248  30.474  1.00  0.00     0.131 A 
ATOM     74  C   UNL A   1      38.738  31.820  33.202  1.00  0.00     0.055 A 
ATOM     75  C   UNL A   1      37.581  32.715  31.295  1.00  0.00     0.041 A 
ATOM     76  F   UNL A   1      38.505  32.466  29.154  1.00  0.00    -0.206 F 
ATOM     77  C   UNL A   1      37.636  32.490  32.667  1.00  0.00     0.022 A 
BRANCH  74  78
ATOM     78  S   UNL A   1      38.787  31.423  34.971  1.00  0.00     0.124 S 
ATOM     79  O   UNL A   1      39.764  32.386  35.466  1.00  0.00    -0.237 OA
ATOM     80  O   UNL A   1      37.402  31.653  35.370  1.00  0.00    -0.237 OA
ATOM     81  O   UNL A   1      39.216  30.026  34.996  1.00  0.00    -0.744 OA
ENDBRANCH  74  78
ENDBRANCH  47  71
BRANCH  59  82
ATOM     82  C   UNL A   1      45.892  34.120  28.946  1.00  0.00     0.023 A 
ATOM     83  C   UNL A   1      45.777  35.181  28.031  1.00  0.00     0.031 A 
ATOM     84  C   UNL A   1      46.670  34.319  30.099  1.00  0.00     0.131 A 
ATOM     85  C   UNL A   1      46.472  36.378  28.261  1.00  0.00     0.055 A 
ATOM     86  C   UNL A   1      47.315  35.531  30.349  1.00  0.00     0.041 A 
ATOM     87  F   UNL A   1      46.815  33.338  31.004  1.00  0.00    -0.206 F 
ATOM     88  C   UNL A   1      47.229  36.564  29.420  1.00  0.00     0.022 A 
BRANCH  85  89
ATOM     89  S   UNL A   1      46.444  37.661  26.979  1.00  0.00     0.124 S 
ATOM     90  O   UNL A   1      45.055  38.105  27.025  1.00  0.00    -0.237 OA
ATOM     91  O   UNL A   1      47.434  38.615  27.470  1.00  0.00    -0.237 OA
ATOM     92  O   UNL A   1      46.826  36.943  25.765  1.00  0.00    -0.744 OA
ENDBRANCH  85  89
ENDBRANCH  59  82
ENDBRANCH  33  34
ENDBRANCH  25  28
ENDBRANCH  23  24
ENDBRANCH   1  23
TORSDOF 17
ENDMDL
