MODEL 1
REMARK VINA RESULT:     -12.4      0.000      0.000
REMARK SMILES O=C(NCCCCNC(=O)c1ccc(N2C(=O)C[C@H]([NH+]3CCN(c4ccc(F)cc4)CC3)C2=O)cc1)c1ccc(-c2c3nc(c(-c4cc(S(=O)(=O)[O-])ccc4F)c4ccc([nH]4)c(-c4cc(S(=O)(=O)[O-])ccc4F)c4nc(c(-c5cc(S(=O)(=O)[O-])ccc5F)c5ccc2[nH]5)C=C4)C=C3)cc1
REMARK SMILES IDX 5 1 4 2 3 3 1 4 2 5 37 7 38 8 99 9 39 10 98 11 40 12 41 13
REMARK SMILES IDX 42 14 92 15 43 16 97 17 91 18 93 19 44 20 96 21 90 22 89 23
REMARK SMILES IDX 45 25 77 26 57 27 76 28 58 29 61 30 75 31 94 32 59 33 60 34
REMARK SMILES IDX 74 36 95 37 62 38 46 39 47 40 55 41 48 42 54 43 56 44 53 45
REMARK SMILES IDX 49 46 50 47 51 48 52 49 78 50 79 51 87 52 80 53 86 54 88 55
REMARK SMILES IDX 85 56 81 57 82 58 83 59 84 60 63 61 64 62 72 63 65 64 71 65
REMARK SMILES IDX 73 66 70 67 66 68 67 69 68 70 69 71 6 72 7 73 8 74 9 75
REMARK SMILES IDX 10 77 11 78 12 79 36 80 13 81 35 82 14 83 15 84 16 85 33 86
REMARK SMILES IDX 17 87 18 88 19 89 34 90 20 91 21 92 32 93 22 95 31 96 23 97
REMARK SMILES IDX 24 98 25 99 30 100 26 101 29 102 27 103 28 104
REMARK H PARENT 3 6 93 24 61 35 8 76 20 94
REMARK Flexibility Score: inf
ROOT
ATOM      1  C   UNL A   1      42.201  21.900  27.288  1.00  0.00     0.023 C 
ENDROOT
BRANCH   1   2
ATOM      2  C   UNL A   1      42.818  22.194  25.927  1.00  0.00     0.116 C 
BRANCH   2   3
ATOM      3  N   UNL A   1      44.121  21.571  25.735  1.00  0.00    -0.352 N 
ATOM      4  O   UNL A   1      46.369  21.479  25.535  1.00  0.00    -0.269 OA
ATOM      5  C   UNL A   1      45.375  22.134  25.833  1.00  0.00     0.251 C 
ATOM      6  H   UNL A   1      44.104  20.615  25.501  1.00  0.00     0.163 HD
BRANCH   5   7
ATOM      7  C   UNL A   1      45.509  23.543  26.267  1.00  0.00     0.039 A 
ATOM      8  C   UNL A   1      45.804  23.850  27.596  1.00  0.00     0.014 A 
ATOM      9  C   UNL A   1      45.286  24.567  25.342  1.00  0.00     0.014 A 
ATOM     10  C   UNL A   1      45.691  25.163  28.037  1.00  0.00     0.010 A 
ATOM     11  C   UNL A   1      45.270  25.899  25.772  1.00  0.00     0.010 A 
ATOM     12  C   UNL A   1      45.420  26.205  27.134  1.00  0.00    -0.014 A 
BRANCH  12  13
ATOM     13  C   UNL A   1      45.309  27.597  27.649  1.00  0.00     0.031 A 
ATOM     14  C   UNL A   1      46.467  28.557  27.553  1.00  0.00     0.074 A 
ATOM     15  C   UNL A   1      44.130  28.010  28.152  1.00  0.00     0.049 A 
ATOM     16  N   UNL A   1      46.524  29.818  27.903  1.00  0.00    -0.248 NA
ATOM     17  C   UNL A   1      47.726  28.031  27.008  1.00  0.00     0.031 C 
ATOM     18  C   UNL A   1      42.939  27.168  28.302  1.00  0.00     0.029 A 
ATOM     19  N   UNL A   1      43.722  29.240  28.601  1.00  0.00    -0.354 N 
ATOM     20  C   UNL A   1      47.828  30.231  27.645  1.00  0.00     0.074 A 
ATOM     21  C   UNL A   1      48.535  29.073  27.139  1.00  0.00     0.031 C 
ATOM     22  C   UNL A   1      41.922  27.919  28.744  1.00  0.00     0.029 A 
ATOM     23  C   UNL A   1      42.398  29.278  28.975  1.00  0.00     0.049 A 
ATOM     24  H   UNL A   1      44.319  30.021  28.650  1.00  0.00     0.167 HD
ATOM     25  C   UNL A   1      48.379  31.461  27.808  1.00  0.00     0.034 A 
ATOM     26  C   UNL A   1      41.653  30.288  29.460  1.00  0.00     0.034 A 
ATOM     27  C   UNL A   1      47.652  32.611  28.297  1.00  0.00     0.049 A 
ATOM     28  C   UNL A   1      42.290  31.639  29.640  1.00  0.00     0.074 A 
ATOM     29  C   UNL A   1      48.102  33.910  28.461  1.00  0.00     0.029 A 
ATOM     30  N   UNL A   1      46.324  32.600  28.705  1.00  0.00    -0.354 N 
ATOM     31  N   UNL A   1      43.520  32.013  29.374  1.00  0.00    -0.248 NA
ATOM     32  C   UNL A   1      41.436  32.702  30.182  1.00  0.00     0.031 C 
ATOM     33  C   UNL A   1      47.070  34.668  29.026  1.00  0.00     0.029 A 
ATOM     34  C   UNL A   1      45.950  33.861  29.148  1.00  0.00     0.049 A 
ATOM     35  H   UNL A   1      45.735  31.812  28.684  1.00  0.00     0.167 HD
ATOM     36  C   UNL A   1      43.580  33.365  29.698  1.00  0.00     0.074 A 
ATOM     37  C   UNL A   1      42.258  33.740  30.156  1.00  0.00     0.031 C 
ATOM     38  C   UNL A   1      44.633  34.218  29.622  1.00  0.00     0.034 A 
BRANCH  25  39
ATOM     39  C   UNL A   1      49.853  31.612  27.502  1.00  0.00     0.023 A 
ATOM     40  C   UNL A   1      50.313  32.072  26.257  1.00  0.00     0.031 A 
ATOM     41  C   UNL A   1      50.813  31.266  28.471  1.00  0.00     0.131 A 
ATOM     42  C   UNL A   1      51.691  32.108  25.988  1.00  0.00     0.055 A 
ATOM     43  C   UNL A   1      52.183  31.377  28.224  1.00  0.00     0.041 A 
ATOM     44  F   UNL A   1      50.436  30.801  29.672  1.00  0.00    -0.206 F 
ATOM     45  C   UNL A   1      52.630  31.786  26.971  1.00  0.00     0.022 A 
BRANCH  42  46
ATOM     46  S   UNL A   1      52.238  32.443  24.290  1.00  0.00     0.124 S 
ATOM     47  O   UNL A   1      51.542  33.695  23.998  1.00  0.00    -0.237 OA
ATOM     48  O   UNL A   1      53.685  32.537  24.437  1.00  0.00    -0.237 OA
ATOM     49  O   UNL A   1      51.759  31.285  23.540  1.00  0.00    -0.744 OA
ENDBRANCH  42  46
ENDBRANCH  25  39
BRANCH  26  50
ATOM     50  C   UNL A   1      40.226  30.058  29.824  1.00  0.00     0.023 A 
ATOM     51  C   UNL A   1      39.813  30.056  31.165  1.00  0.00     0.031 A 
ATOM     52  C   UNL A   1      39.258  29.815  28.832  1.00  0.00     0.131 A 
ATOM     53  C   UNL A   1      38.474  29.778  31.480  1.00  0.00     0.055 A 
ATOM     54  C   UNL A   1      37.919  29.591  29.149  1.00  0.00     0.041 A 
ATOM     55  F   UNL A   1      39.603  29.814  27.534  1.00  0.00    -0.206 F 
ATOM     56  C   UNL A   1      37.522  29.560  30.481  1.00  0.00     0.022 A 
BRANCH  53  57
ATOM     57  S   UNL A   1      38.006  29.634  33.226  1.00  0.00     0.124 S 
ATOM     58  O   UNL A   1      39.302  29.455  33.870  1.00  0.00    -0.237 OA
ATOM     59  O   UNL A   1      37.340  30.911  33.467  1.00  0.00    -0.237 OA
ATOM     60  O   UNL A   1      37.130  28.464  33.248  1.00  0.00    -0.744 OA
ENDBRANCH  53  57
ENDBRANCH  26  50
BRANCH  38  61
ATOM     61  C   UNL A   1      44.369  35.651  30.013  1.00  0.00     0.023 A 
ATOM     62  C   UNL A   1      43.944  36.607  29.073  1.00  0.00     0.031 A 
ATOM     63  C   UNL A   1      44.589  36.075  31.336  1.00  0.00     0.131 A 
ATOM     64  C   UNL A   1      43.816  37.951  29.454  1.00  0.00     0.055 A 
ATOM     65  C   UNL A   1      44.401  37.402  31.722  1.00  0.00     0.041 A 
ATOM     66  F   UNL A   1      44.998  35.205  32.273  1.00  0.00    -0.206 F 
ATOM     67  C   UNL A   1      44.028  38.353  30.776  1.00  0.00     0.022 A 
BRANCH  64  68
ATOM     68  S   UNL A   1      43.475  39.190  28.173  1.00  0.00     0.124 S 
ATOM     69  O   UNL A   1      44.794  39.779  27.961  1.00  0.00    -0.237 OA
ATOM     70  O   UNL A   1      42.960  38.373  27.079  1.00  0.00    -0.237 OA
ATOM     71  O   UNL A   1      42.495  40.073  28.801  1.00  0.00    -0.744 OA
ENDBRANCH  64  68
ENDBRANCH  38  61
ENDBRANCH  12  13
ENDBRANCH   5   7
ENDBRANCH   2   3
ENDBRANCH   1   2
BRANCH   1  72
ATOM     72  C   UNL A   1      40.881  22.609  27.576  1.00  0.00     0.023 C 
BRANCH  72  73
ATOM     73  C   UNL A   1      39.766  22.340  26.569  1.00  0.00     0.116 C 
BRANCH  73  74
ATOM     74  N   UNL A   1      39.809  20.989  26.031  1.00  0.00    -0.352 N 
ATOM     75  C   UNL A   1      38.801  20.282  25.429  1.00  0.00     0.251 C 
ATOM     76  H   UNL A   1      40.672  20.522  26.110  1.00  0.00     0.163 HD
ATOM     77  O   UNL A   1      38.944  19.115  25.081  1.00  0.00    -0.269 OA
BRANCH  75  78
ATOM     78  C   UNL A   1      37.511  20.951  25.214  1.00  0.00     0.039 A 
ATOM     79  C   UNL A   1      37.491  22.323  24.986  1.00  0.00     0.016 A 
ATOM     80  C   UNL A   1      36.332  20.207  25.188  1.00  0.00     0.016 A 
ATOM     81  C   UNL A   1      36.283  22.946  24.664  1.00  0.00     0.027 A 
ATOM     82  C   UNL A   1      35.126  20.843  24.881  1.00  0.00     0.027 A 
ATOM     83  C   UNL A   1      35.081  22.218  24.594  1.00  0.00     0.052 A 
BRANCH  83  84
ATOM     84  N   UNL A   1      33.856  22.855  24.241  1.00  0.00    -0.245 N 
ATOM     85  C   UNL A   1      33.561  23.323  22.983  1.00  0.00     0.240 C 
ATOM     86  C   UNL A   1      32.828  23.108  25.130  1.00  0.00     0.292 C 
ATOM     87  O   UNL A   1      34.256  23.342  21.976  1.00  0.00    -0.274 OA
ATOM     88  C   UNL A   1      32.133  23.764  22.949  1.00  0.00     0.176 C 
ATOM     89  C   UNL A   1      31.754  23.916  24.404  1.00  0.00     0.284 C 
ATOM     90  O   UNL A   1      32.764  22.828  26.321  1.00  0.00    -0.267 OA
BRANCH  89  91
ATOM     91  N   UNL A   1      31.627  25.269  24.973  1.00  0.00    -0.321 N 
ATOM     92  C   UNL A   1      32.329  26.376  24.296  1.00  0.00     0.284 C 
ATOM     93  C   UNL A   1      30.248  25.666  25.313  1.00  0.00     0.284 C 
ATOM     94  H   UNL A   1      32.150  25.127  25.836  1.00  0.00     0.348 HD
ATOM     95  C   UNL A   1      31.579  27.067  23.134  1.00  0.00     0.178 C 
ATOM     96  C   UNL A   1      29.426  26.349  24.196  1.00  0.00     0.178 C 
ATOM     97  N   UNL A   1      30.208  27.400  23.535  1.00  0.00    -0.360 N 
BRANCH  97  98
ATOM     98  C   UNL A   1      29.546  28.458  22.937  1.00  0.00     0.037 A 
ATOM     99  C   UNL A   1      30.218  29.451  22.210  1.00  0.00     0.029 A 
ATOM    100  C   UNL A   1      28.157  28.587  23.091  1.00  0.00     0.029 A 
ATOM    101  C   UNL A   1      29.528  30.539  21.663  1.00  0.00     0.041 A 
ATOM    102  C   UNL A   1      27.463  29.677  22.560  1.00  0.00     0.041 A 
ATOM    103  C   UNL A   1      28.158  30.644  21.850  1.00  0.00     0.123 A 
ATOM    104  F   UNL A   1      27.498  31.696  21.347  1.00  0.00    -0.207 F 
ENDBRANCH  97  98
ENDBRANCH  89  91
ENDBRANCH  83  84
ENDBRANCH  75  78
ENDBRANCH  73  74
ENDBRANCH  72  73
ENDBRANCH   1  72
TORSDOF 17
ENDMDL
MODEL 2
REMARK VINA RESULT:     -12.4      4.292      8.816
REMARK SMILES O=C(NCCCCNC(=O)c1ccc(N2C(=O)C[C@H]([NH+]3CCN(c4ccc(F)cc4)CC3)C2=O)cc1)c1ccc(-c2c3nc(c(-c4cc(S(=O)(=O)[O-])ccc4F)c4ccc([nH]4)c(-c4cc(S(=O)(=O)[O-])ccc4F)c4nc(c(-c5cc(S(=O)(=O)[O-])ccc5F)c5ccc2[nH]5)C=C4)C=C3)cc1
REMARK SMILES IDX 5 1 4 2 3 3 1 4 2 5 37 7 38 8 99 9 39 10 98 11 40 12 41 13
REMARK SMILES IDX 42 14 92 15 43 16 97 17 91 18 93 19 44 20 96 21 90 22 89 23
REMARK SMILES IDX 45 25 77 26 57 27 76 28 58 29 61 30 75 31 94 32 59 33 60 34
REMARK SMILES IDX 74 36 95 37 62 38 46 39 47 40 55 41 48 42 54 43 56 44 53 45
REMARK SMILES IDX 49 46 50 47 51 48 52 49 78 50 79 51 87 52 80 53 86 54 88 55
REMARK SMILES IDX 85 56 81 57 82 58 83 59 84 60 63 61 64 62 72 63 65 64 71 65
REMARK SMILES IDX 73 66 70 67 66 68 67 69 68 70 69 71 6 72 7 73 8 74 9 75
REMARK SMILES IDX 10 77 11 78 12 79 36 80 13 81 35 82 14 83 15 84 16 85 33 86
REMARK SMILES IDX 17 87 18 88 19 89 34 90 20 91 21 92 32 93 22 95 31 96 23 97
REMARK SMILES IDX 24 98 25 99 30 100 26 101 29 102 27 103 28 104
REMARK H PARENT 3 6 93 24 61 35 8 76 20 94
REMARK Flexibility Score: inf
ROOT
ATOM      1  C   UNL A   1      36.229  33.580  32.408  1.00  0.00     0.023 C 
ENDROOT
BRANCH   1   2
ATOM      2  C   UNL A   1      37.034  32.684  33.339  1.00  0.00     0.116 C 
BRANCH   2   3
ATOM      3  N   UNL A   1      36.723  31.268  33.192  1.00  0.00    -0.352 N 
ATOM      4  O   UNL A   1      36.964  29.159  32.422  1.00  0.00    -0.269 OA
ATOM      5  C   UNL A   1      37.431  30.289  32.530  1.00  0.00     0.251 C 
ATOM      6  H   UNL A   1      35.892  30.969  33.626  1.00  0.00     0.163 HD
BRANCH   5   7
ATOM      7  C   UNL A   1      38.739  30.620  31.922  1.00  0.00     0.039 A 
ATOM      8  C   UNL A   1      39.869  30.790  32.723  1.00  0.00     0.014 A 
ATOM      9  C   UNL A   1      38.821  30.811  30.540  1.00  0.00     0.014 A 
ATOM     10  C   UNL A   1      41.025  31.331  32.171  1.00  0.00     0.010 A 
ATOM     11  C   UNL A   1      40.019  31.263  29.973  1.00  0.00     0.010 A 
ATOM     12  C   UNL A   1      41.116  31.577  30.790  1.00  0.00    -0.014 A 
BRANCH  12  13
ATOM     13  C   UNL A   1      42.372  32.155  30.240  1.00  0.00     0.031 A 
ATOM     14  C   UNL A   1      43.542  31.275  29.881  1.00  0.00     0.074 A 
ATOM     15  C   UNL A   1      42.429  33.481  30.010  1.00  0.00     0.049 A 
ATOM     16  N   UNL A   1      44.689  31.607  29.343  1.00  0.00    -0.248 NA
ATOM     17  C   UNL A   1      43.413  29.841  30.176  1.00  0.00     0.031 C 
ATOM     18  C   UNL A   1      41.361  34.435  30.324  1.00  0.00     0.029 A 
ATOM     19  N   UNL A   1      43.403  34.255  29.434  1.00  0.00    -0.354 N 
ATOM     20  C   UNL A   1      45.429  30.431  29.257  1.00  0.00     0.074 A 
ATOM     21  C   UNL A   1      44.608  29.384  29.830  1.00  0.00     0.031 C 
ATOM     22  C   UNL A   1      41.711  35.649  29.879  1.00  0.00     0.029 A 
ATOM     23  C   UNL A   1      43.052  35.580  29.310  1.00  0.00     0.049 A 
ATOM     24  H   UNL A   1      44.271  33.896  29.137  1.00  0.00     0.167 HD
ATOM     25  C   UNL A   1      46.671  30.243  28.743  1.00  0.00     0.034 A 
ATOM     26  C   UNL A   1      43.735  36.624  28.806  1.00  0.00     0.034 A 
ATOM     27  C   UNL A   1      47.468  31.297  28.157  1.00  0.00     0.049 A 
ATOM     28  C   UNL A   1      45.113  36.391  28.251  1.00  0.00     0.074 A 
ATOM     29  C   UNL A   1      48.720  31.208  27.571  1.00  0.00     0.029 A 
ATOM     30  N   UNL A   1      47.096  32.634  28.088  1.00  0.00    -0.354 N 
ATOM     31  N   UNL A   1      45.788  35.268  28.163  1.00  0.00    -0.248 NA
ATOM     32  C   UNL A   1      45.817  37.565  27.724  1.00  0.00     0.031 C 
ATOM     33  C   UNL A   1      49.130  32.496  27.206  1.00  0.00     0.029 A 
ATOM     34  C   UNL A   1      48.105  33.382  27.497  1.00  0.00     0.049 A 
ATOM     35  H   UNL A   1      46.241  32.998  28.412  1.00  0.00     0.167 HD
ATOM     36  C   UNL A   1      46.992  35.600  27.550  1.00  0.00     0.074 A 
ATOM     37  C   UNL A   1      46.937  37.021  27.271  1.00  0.00     0.031 C 
ATOM     38  C   UNL A   1      48.046  34.802  27.243  1.00  0.00     0.034 A 
BRANCH  25  39
ATOM     39  C   UNL A   1      47.263  28.854  28.837  1.00  0.00     0.023 A 
ATOM     40  C   UNL A   1      47.181  27.935  27.777  1.00  0.00     0.031 A 
ATOM     41  C   UNL A   1      47.900  28.437  30.020  1.00  0.00     0.131 A 
ATOM     42  C   UNL A   1      47.664  26.626  27.945  1.00  0.00     0.055 A 
ATOM     43  C   UNL A   1      48.447  27.159  30.153  1.00  0.00     0.041 A 
ATOM     44  F   UNL A   1      47.992  29.263  31.074  1.00  0.00    -0.206 F 
ATOM     45  C   UNL A   1      48.318  26.240  29.117  1.00  0.00     0.022 A 
BRANCH  42  46
ATOM     46  S   UNL A   1      47.299  25.394  26.663  1.00  0.00     0.124 S 
ATOM     47  O   UNL A   1      45.956  25.791  26.245  1.00  0.00    -0.237 OA
ATOM     48  O   UNL A   1      48.363  25.622  25.693  1.00  0.00    -0.237 OA
ATOM     49  O   UNL A   1      47.367  24.123  27.379  1.00  0.00    -0.744 OA
ENDBRANCH  42  46
ENDBRANCH  25  39
BRANCH  26  50
ATOM     50  C   UNL A   1      43.133  37.988  28.817  1.00  0.00     0.023 A 
ATOM     51  C   UNL A   1      43.396  38.886  29.863  1.00  0.00     0.031 A 
ATOM     52  C   UNL A   1      42.267  38.403  27.789  1.00  0.00     0.131 A 
ATOM     53  C   UNL A   1      42.769  40.142  29.877  1.00  0.00     0.055 A 
ATOM     54  C   UNL A   1      41.687  39.671  27.782  1.00  0.00     0.041 A 
ATOM     55  F   UNL A   1      41.990  37.582  26.763  1.00  0.00    -0.206 F 
ATOM     56  C   UNL A   1      41.928  40.545  28.837  1.00  0.00     0.022 A 
BRANCH  53  57
ATOM     57  S   UNL A   1      43.011  41.217  31.316  1.00  0.00     0.124 S 
ATOM     58  O   UNL A   1      44.391  41.654  31.134  1.00  0.00    -0.237 OA
ATOM     59  O   UNL A   1      41.984  42.233  31.111  1.00  0.00    -0.237 OA
ATOM     60  O   UNL A   1      42.783  40.324  32.450  1.00  0.00    -0.744 OA
ENDBRANCH  53  57
ENDBRANCH  26  50
BRANCH  38  61
ATOM     61  C   UNL A   1      49.206  35.458  26.536  1.00  0.00     0.023 A 
ATOM     62  C   UNL A   1      50.269  36.043  27.245  1.00  0.00     0.031 A 
ATOM     63  C   UNL A   1      49.224  35.536  25.132  1.00  0.00     0.131 A 
ATOM     64  C   UNL A   1      51.272  36.739  26.553  1.00  0.00     0.055 A 
ATOM     65  C   UNL A   1      50.256  36.177  24.445  1.00  0.00     0.041 A 
ATOM     66  F   UNL A   1      48.233  34.998  24.404  1.00  0.00    -0.206 F 
ATOM     67  C   UNL A   1      51.280  36.797  25.156  1.00  0.00     0.022 A 
BRANCH  64  68
ATOM     68  S   UNL A   1      52.509  37.661  27.506  1.00  0.00     0.124 S 
ATOM     69  O   UNL A   1      52.200  37.259  28.875  1.00  0.00    -0.237 OA
ATOM     70  O   UNL A   1      53.765  37.153  26.962  1.00  0.00    -0.237 OA
ATOM     71  O   UNL A   1      52.216  39.057  27.190  1.00  0.00    -0.744 OA
ENDBRANCH  64  68
ENDBRANCH  38  61
ENDBRANCH  12  13
ENDBRANCH   5   7
ENDBRANCH   2   3
ENDBRANCH   1   2
BRANCH   1  72
ATOM     72  C   UNL A   1      34.811  33.105  32.102  1.00  0.00     0.023 C 
BRANCH  72  73
ATOM     73  C   UNL A   1      34.620  32.479  30.724  1.00  0.00     0.116 C 
BRANCH  73  74
ATOM     74  N   UNL A   1      34.960  33.389  29.641  1.00  0.00    -0.352 N 
ATOM     75  C   UNL A   1      34.915  33.159  28.291  1.00  0.00     0.251 C 
ATOM     76  H   UNL A   1      35.262  34.286  29.913  1.00  0.00     0.163 HD
ATOM     77  O   UNL A   1      35.301  33.990  27.476  1.00  0.00    -0.269 OA
BRANCH  75  78
ATOM     78  C   UNL A   1      34.402  31.864  27.822  1.00  0.00     0.039 A 
ATOM     79  C   UNL A   1      33.087  31.779  27.376  1.00  0.00     0.016 A 
ATOM     80  C   UNL A   1      35.243  30.753  27.776  1.00  0.00     0.016 A 
ATOM     81  C   UNL A   1      32.630  30.583  26.819  1.00  0.00     0.027 A 
ATOM     82  C   UNL A   1      34.771  29.556  27.231  1.00  0.00     0.027 A 
ATOM     83  C   UNL A   1      33.463  29.454  26.724  1.00  0.00     0.052 A 
BRANCH  83  84
ATOM     84  N   UNL A   1      32.998  28.245  26.132  1.00  0.00    -0.245 N 
ATOM     85  C   UNL A   1      32.120  27.375  26.735  1.00  0.00     0.240 C 
ATOM     86  C   UNL A   1      33.396  27.784  24.891  1.00  0.00     0.292 C 
ATOM     87  O   UNL A   1      31.625  27.418  27.853  1.00  0.00    -0.274 OA
ATOM     88  C   UNL A   1      31.727  26.320  25.752  1.00  0.00     0.176 C 
ATOM     89  C   UNL A   1      32.781  26.403  24.672  1.00  0.00     0.284 C 
ATOM     90  O   UNL A   1      34.165  28.307  24.095  1.00  0.00    -0.267 OA
BRANCH  89  91
ATOM     91  N   UNL A   1      33.819  25.359  24.604  1.00  0.00    -0.321 N 
ATOM     92  C   UNL A   1      33.996  24.477  25.774  1.00  0.00     0.284 C 
ATOM     93  C   UNL A   1      33.817  24.570  23.359  1.00  0.00     0.284 C 
ATOM     94  H   UNL A   1      34.645  25.958  24.612  1.00  0.00     0.348 HD
ATOM     95  C   UNL A   1      33.096  23.222  25.838  1.00  0.00     0.178 C 
ATOM     96  C   UNL A   1      32.926  23.306  23.340  1.00  0.00     0.178 C 
ATOM     97  N   UNL A   1      33.118  22.509  24.557  1.00  0.00    -0.360 N 
BRANCH  97  98
ATOM     98  C   UNL A   1      32.879  21.147  24.515  1.00  0.00     0.037 A 
ATOM     99  C   UNL A   1      33.123  20.306  25.611  1.00  0.00     0.029 A 
ATOM    100  C   UNL A   1      32.419  20.556  23.327  1.00  0.00     0.029 A 
ATOM    101  C   UNL A   1      32.924  18.924  25.520  1.00  0.00     0.041 A 
ATOM    102  C   UNL A   1      32.232  19.176  23.225  1.00  0.00     0.041 A 
ATOM    103  C   UNL A   1      32.487  18.372  24.326  1.00  0.00     0.123 A 
ATOM    104  F   UNL A   1      32.317  17.047  24.229  1.00  0.00    -0.207 F 
ENDBRANCH  97  98
ENDBRANCH  89  91
ENDBRANCH  83  84
ENDBRANCH  75  78
ENDBRANCH  73  74
ENDBRANCH  72  73
ENDBRANCH   1  72
TORSDOF 17
ENDMDL
MODEL 3
REMARK VINA RESULT:     -12.3      5.783     11.254
REMARK SMILES O=C(NCCCCNC(=O)c1ccc(N2C(=O)C[C@H]([NH+]3CCN(c4ccc(F)cc4)CC3)C2=O)cc1)c1ccc(-c2c3nc(c(-c4cc(S(=O)(=O)[O-])ccc4F)c4ccc([nH]4)c(-c4cc(S(=O)(=O)[O-])ccc4F)c4nc(c(-c5cc(S(=O)(=O)[O-])ccc5F)c5ccc2[nH]5)C=C4)C=C3)cc1
REMARK SMILES IDX 5 1 4 2 3 3 1 4 2 5 37 7 38 8 99 9 39 10 98 11 40 12 41 13
REMARK SMILES IDX 42 14 92 15 43 16 97 17 91 18 93 19 44 20 96 21 90 22 89 23
REMARK SMILES IDX 45 25 77 26 57 27 76 28 58 29 61 30 75 31 94 32 59 33 60 34
REMARK SMILES IDX 74 36 95 37 62 38 46 39 47 40 55 41 48 42 54 43 56 44 53 45
REMARK SMILES IDX 49 46 50 47 51 48 52 49 78 50 79 51 87 52 80 53 86 54 88 55
REMARK SMILES IDX 85 56 81 57 82 58 83 59 84 60 63 61 64 62 72 63 65 64 71 65
REMARK SMILES IDX 73 66 70 67 66 68 67 69 68 70 69 71 6 72 7 73 8 74 9 75
REMARK SMILES IDX 10 77 11 78 12 79 36 80 13 81 35 82 14 83 15 84 16 85 33 86
REMARK SMILES IDX 17 87 18 88 19 89 34 90 20 91 21 92 32 93 22 95 31 96 23 97
REMARK SMILES IDX 24 98 25 99 30 100 26 101 29 102 27 103 28 104
REMARK H PARENT 3 6 93 24 61 35 8 76 20 94
REMARK Flexibility Score: inf
ROOT
ATOM      1  C   UNL A   1      35.631  34.543  33.767  1.00  0.00     0.023 C 
ENDROOT
BRANCH   1   2
ATOM      2  C   UNL A   1      37.023  34.200  34.278  1.00  0.00     0.116 C 
BRANCH   2   3
ATOM      3  N   UNL A   1      37.014  33.329  35.446  1.00  0.00    -0.352 N 
ATOM      4  O   UNL A   1      37.555  31.529  36.698  1.00  0.00    -0.269 OA
ATOM      5  C   UNL A   1      37.769  32.204  35.696  1.00  0.00     0.251 C 
ATOM      6  H   UNL A   1      36.380  33.579  36.156  1.00  0.00     0.163 HD
BRANCH   5   7
ATOM      7  C   UNL A   1      38.814  31.799  34.729  1.00  0.00     0.039 A 
ATOM      8  C   UNL A   1      38.534  30.856  33.739  1.00  0.00     0.014 A 
ATOM      9  C   UNL A   1      40.100  32.333  34.848  1.00  0.00     0.014 A 
ATOM     10  C   UNL A   1      39.577  30.310  32.998  1.00  0.00     0.010 A 
ATOM     11  C   UNL A   1      41.129  31.851  34.030  1.00  0.00     0.010 A 
ATOM     12  C   UNL A   1      40.888  30.798  33.134  1.00  0.00    -0.014 A 
BRANCH  12  13
ATOM     13  C   UNL A   1      41.974  30.188  32.320  1.00  0.00     0.031 A 
ATOM     14  C   UNL A   1      42.566  30.916  31.140  1.00  0.00     0.074 A 
ATOM     15  C   UNL A   1      42.467  28.990  32.690  1.00  0.00     0.049 A 
ATOM     16  N   UNL A   1      43.551  30.554  30.357  1.00  0.00    -0.248 NA
ATOM     17  C   UNL A   1      41.966  32.210  30.787  1.00  0.00     0.031 C 
ATOM     18  C   UNL A   1      41.969  28.187  33.811  1.00  0.00     0.029 A 
ATOM     19  N   UNL A   1      43.509  28.251  32.192  1.00  0.00    -0.354 N 
ATOM     20  C   UNL A   1      43.674  31.560  29.403  1.00  0.00     0.074 A 
ATOM     21  C   UNL A   1      42.639  32.531  29.690  1.00  0.00     0.031 C 
ATOM     22  C   UNL A   1      42.745  27.104  33.955  1.00  0.00     0.029 A 
ATOM     23  C   UNL A   1      43.751  27.096  32.899  1.00  0.00     0.049 A 
ATOM     24  H   UNL A   1      44.034  28.522  31.404  1.00  0.00     0.167 HD
ATOM     25  C   UNL A   1      44.571  31.666  28.389  1.00  0.00     0.034 A 
ATOM     26  C   UNL A   1      44.672  26.132  32.715  1.00  0.00     0.034 A 
ATOM     27  C   UNL A   1      45.610  30.696  28.129  1.00  0.00     0.049 A 
ATOM     28  C   UNL A   1      45.648  26.268  31.578  1.00  0.00     0.074 A 
ATOM     29  C   UNL A   1      46.595  30.726  27.155  1.00  0.00     0.029 A 
ATOM     30  N   UNL A   1      45.798  29.517  28.841  1.00  0.00    -0.354 N 
ATOM     31  N   UNL A   1      45.759  27.236  30.697  1.00  0.00    -0.248 NA
ATOM     32  C   UNL A   1      46.624  25.184  31.415  1.00  0.00     0.031 C 
ATOM     33  C   UNL A   1      47.335  29.541  27.238  1.00  0.00     0.029 A 
ATOM     34  C   UNL A   1      46.861  28.801  28.309  1.00  0.00     0.049 A 
ATOM     35  H   UNL A   1      45.254  29.231  29.610  1.00  0.00     0.167 HD
ATOM     36  C   UNL A   1      46.834  26.885  29.887  1.00  0.00     0.074 A 
ATOM     37  C   UNL A   1      47.347  25.630  30.399  1.00  0.00     0.031 C 
ATOM     38  C   UNL A   1      47.351  27.541  28.817  1.00  0.00     0.034 A 
BRANCH  25  39
ATOM     39  C   UNL A   1      44.434  32.848  27.456  1.00  0.00     0.023 A 
ATOM     40  C   UNL A   1      44.860  34.138  27.817  1.00  0.00     0.031 A 
ATOM     41  C   UNL A   1      43.843  32.683  26.190  1.00  0.00     0.131 A 
ATOM     42  C   UNL A   1      44.628  35.221  26.954  1.00  0.00     0.055 A 
ATOM     43  C   UNL A   1      43.684  33.751  25.304  1.00  0.00     0.041 A 
ATOM     44  F   UNL A   1      43.398  31.480  25.795  1.00  0.00    -0.206 F 
ATOM     45  C   UNL A   1      44.064  35.033  25.690  1.00  0.00     0.022 A 
BRANCH  42  46
ATOM     46  S   UNL A   1      44.941  36.901  27.564  1.00  0.00     0.124 S 
ATOM     47  O   UNL A   1      44.817  36.720  29.009  1.00  0.00    -0.237 OA
ATOM     48  O   UNL A   1      46.284  37.172  27.068  1.00  0.00    -0.237 OA
ATOM     49  O   UNL A   1      43.876  37.693  26.952  1.00  0.00    -0.744 OA
ENDBRANCH  42  46
ENDBRANCH  25  39
BRANCH  26  50
ATOM     50  C   UNL A   1      44.705  24.946  33.616  1.00  0.00     0.023 A 
ATOM     51  C   UNL A   1      45.303  25.017  34.884  1.00  0.00     0.031 A 
ATOM     52  C   UNL A   1      44.156  23.716  33.211  1.00  0.00     0.131 A 
ATOM     53  C   UNL A   1      45.370  23.868  35.688  1.00  0.00     0.055 A 
ATOM     54  C   UNL A   1      44.181  22.591  34.035  1.00  0.00     0.041 A 
ATOM     55  F   UNL A   1      43.568  23.599  32.010  1.00  0.00    -0.206 F 
ATOM     56  C   UNL A   1      44.801  22.660  35.278  1.00  0.00     0.022 A 
BRANCH  53  57
ATOM     57  S   UNL A   1      46.281  23.957  37.253  1.00  0.00     0.124 S 
ATOM     58  O   UNL A   1      45.222  23.722  38.229  1.00  0.00    -0.237 OA
ATOM     59  O   UNL A   1      47.258  22.883  37.096  1.00  0.00    -0.237 OA
ATOM     60  O   UNL A   1      46.837  25.308  37.247  1.00  0.00    -0.744 OA
ENDBRANCH  53  57
ENDBRANCH  26  50
BRANCH  38  61
ATOM     61  C   UNL A   1      48.559  26.918  28.162  1.00  0.00     0.023 A 
ATOM     62  C   UNL A   1      49.866  27.234  28.570  1.00  0.00     0.031 A 
ATOM     63  C   UNL A   1      48.398  26.028  27.085  1.00  0.00     0.131 A 
ATOM     64  C   UNL A   1      50.963  26.717  27.864  1.00  0.00     0.055 A 
ATOM     65  C   UNL A   1      49.493  25.469  26.425  1.00  0.00     0.041 A 
ATOM     66  F   UNL A   1      47.172  25.693  26.652  1.00  0.00    -0.206 F 
ATOM     67  C   UNL A   1      50.784  25.826  26.802  1.00  0.00     0.022 A 
BRANCH  64  68
ATOM     68  S   UNL A   1      52.625  27.312  28.279  1.00  0.00     0.124 S 
ATOM     69  O   UNL A   1      53.471  26.250  27.745  1.00  0.00    -0.237 OA
ATOM     70  O   UNL A   1      52.685  28.589  27.575  1.00  0.00    -0.237 OA
ATOM     71  O   UNL A   1      52.600  27.410  29.737  1.00  0.00    -0.744 OA
ENDBRANCH  64  68
ENDBRANCH  38  61
ENDBRANCH  12  13
ENDBRANCH   5   7
ENDBRANCH   2   3
ENDBRANCH   1   2
BRANCH   1  72
ATOM     72  C   UNL A   1      34.763  33.350  33.376  1.00  0.00     0.023 C 
BRANCH  72  73
ATOM     73  C   UNL A   1      35.164  32.653  32.079  1.00  0.00     0.116 C 
BRANCH  73  74
ATOM     74  N   UNL A   1      35.389  33.585  30.986  1.00  0.00    -0.352 N 
ATOM     75  C   UNL A   1      36.183  33.423  29.880  1.00  0.00     0.251 C 
ATOM     76  H   UNL A   1      34.910  34.443  31.048  1.00  0.00     0.163 HD
ATOM     77  O   UNL A   1      36.347  34.319  29.061  1.00  0.00    -0.269 OA
BRANCH  75  78
ATOM     78  C   UNL A   1      36.863  32.134  29.694  1.00  0.00     0.039 A 
ATOM     79  C   UNL A   1      36.132  31.042  29.239  1.00  0.00     0.016 A 
ATOM     80  C   UNL A   1      38.235  32.028  29.920  1.00  0.00     0.016 A 
ATOM     81  C   UNL A   1      36.795  29.848  28.947  1.00  0.00     0.027 A 
ATOM     82  C   UNL A   1      38.887  30.824  29.640  1.00  0.00     0.027 A 
ATOM     83  C   UNL A   1      38.184  29.719  29.130  1.00  0.00     0.052 A 
BRANCH  83  84
ATOM     84  N   UNL A   1      38.857  28.505  28.807  1.00  0.00    -0.245 N 
ATOM     85  C   UNL A   1      38.950  27.423  29.649  1.00  0.00     0.240 C 
ATOM     86  C   UNL A   1      39.527  28.281  27.618  1.00  0.00     0.292 C 
ATOM     87  O   UNL A   1      38.550  27.293  30.798  1.00  0.00    -0.274 OA
ATOM     88  C   UNL A   1      39.569  26.281  28.909  1.00  0.00     0.176 C 
ATOM     89  C   UNL A   1      40.221  26.924  27.706  1.00  0.00     0.284 C 
ATOM     90  O   UNL A   1      39.644  29.032  26.657  1.00  0.00    -0.267 OA
BRANCH  89  91
ATOM     91  N   UNL A   1      41.687  27.071  27.681  1.00  0.00    -0.321 N 
ATOM     92  C   UNL A   1      42.492  26.150  28.506  1.00  0.00     0.284 C 
ATOM     93  C   UNL A   1      42.269  27.196  26.332  1.00  0.00     0.284 C 
ATOM     94  H   UNL A   1      41.763  27.969  28.157  1.00  0.00     0.348 HD
ATOM     95  C   UNL A   1      42.870  24.794  27.866  1.00  0.00     0.178 C 
ATOM     96  C   UNL A   1      42.658  25.881  25.619  1.00  0.00     0.178 C 
ATOM     97  N   UNL A   1      43.408  24.996  26.517  1.00  0.00    -0.360 N 
BRANCH  97  98
ATOM     98  C   UNL A   1      44.292  24.080  25.977  1.00  0.00     0.037 A 
ATOM     99  C   UNL A   1      44.667  24.102  24.625  1.00  0.00     0.029 A 
ATOM    100  C   UNL A   1      44.810  23.052  26.782  1.00  0.00     0.029 A 
ATOM    101  C   UNL A   1      45.520  23.128  24.095  1.00  0.00     0.041 A 
ATOM    102  C   UNL A   1      45.651  22.068  26.257  1.00  0.00     0.041 A 
ATOM    103  C   UNL A   1      45.998  22.116  24.915  1.00  0.00     0.123 A 
ATOM    104  F   UNL A   1      46.797  21.170  24.406  1.00  0.00    -0.207 F 
ENDBRANCH  97  98
ENDBRANCH  89  91
ENDBRANCH  83  84
ENDBRANCH  75  78
ENDBRANCH  73  74
ENDBRANCH  72  73
ENDBRANCH   1  72
TORSDOF 17
ENDMDL
