MODEL 1
REMARK VINA RESULT:     -11.3      0.000      0.000
REMARK SMILES O=C(C[N@@H+](Cc1cccc(Br)c1)C1CC1)NCCCCNC(=O)c1ccc(-c2c3nc(c(-c4cc(S(=O)(=O)[O-])ccc4F)c4ccc([nH]4)c(-c4cc(S(=O)(=O)[O-])ccc4F)c4nc(c(-c5cc(S(=O)(=O)[O-])ccc5F)c5ccc2[nH]5)C=C4)C=C3)cc1
REMARK SMILES IDX 18 1 17 2 16 3 1 4 2 5 3 7 4 8 5 10 6 11 7 12 12 13 8 14
REMARK SMILES IDX 10 15 9 16 11 17 13 18 14 19 15 20 19 21 20 22 21 23 22 24
REMARK SMILES IDX 23 26 24 27 25 28 86 29 26 30 85 31 27 32 28 33 29 34 79 35
REMARK SMILES IDX 30 36 84 37 78 38 80 39 31 40 83 41 77 42 76 43 32 45 64 46
REMARK SMILES IDX 44 47 63 48 45 49 48 50 62 51 81 52 46 53 47 54 61 56 82 57
REMARK SMILES IDX 49 58 33 59 34 60 42 61 35 62 41 63 43 64 40 65 36 66 37 67
REMARK SMILES IDX 38 68 39 69 65 70 66 71 74 72 67 73 73 74 75 75 72 76 68 77
REMARK SMILES IDX 69 78 70 79 71 80 50 81 51 82 59 83 52 84 58 85 60 86 57 87
REMARK SMILES IDX 53 88 54 89 55 90 56 91
REMARK H PARENT 16 6 4 9 21 25 80 44 48 55
REMARK Flexibility Score: inf
ROOT
ATOM      1  C   UNL A   1      34.877  22.342  24.157  1.00  0.00     0.023 C 
ENDROOT
BRANCH   1   2
ATOM      2  C   UNL A   1      34.830  23.663  23.401  1.00  0.00     0.116 C 
BRANCH   2   3
ATOM      3  N   UNL A   1      33.643  24.445  23.683  1.00  0.00    -0.351 N 
ATOM      4  O   UNL A   1      33.217  24.952  21.495  1.00  0.00    -0.269 OA
ATOM      5  C   UNL A   1      32.851  24.932  22.672  1.00  0.00     0.275 C 
ATOM      6  H   UNL A   1      33.400  24.631  24.619  1.00  0.00     0.163 HD
BRANCH   5   7
ATOM      7  C   UNL A   1      31.499  25.506  23.083  1.00  0.00     0.364 C 
BRANCH   7   8
ATOM      8  N   UNL A   1      31.502  26.931  23.521  1.00  0.00    -0.321 N 
ATOM      9  H   UNL A   1      32.480  27.124  23.739  1.00  0.00     0.349 HD
BRANCH   8  10
ATOM     10  C   UNL A   1      30.949  27.755  22.398  1.00  0.00     0.299 C 
BRANCH  10  11
ATOM     11  C   UNL A   1      29.690  28.571  22.698  1.00  0.00     0.007 A 
ATOM     12  C   UNL A   1      28.460  27.969  23.016  1.00  0.00     0.009 A 
ATOM     13  C   UNL A   1      29.740  29.976  22.665  1.00  0.00     0.025 A 
ATOM     14  C   UNL A   1      27.309  28.730  23.237  1.00  0.00     0.002 A 
ATOM     15  C   UNL A   1      28.590  30.733  22.905  1.00  0.00     0.018 A 
ATOM     16  C   UNL A   1      27.372  30.117  23.179  1.00  0.00     0.016 A 
ATOM     17  Br  UNL A   1      28.681  32.622  22.856  1.00  0.00    -0.051 Br
ENDBRANCH  10  11
ENDBRANCH   8  10
BRANCH   8  18
ATOM     18  C   UNL A   1      30.836  27.295  24.802  1.00  0.00     0.185 C 
ATOM     19  C   UNL A   1      30.969  26.523  26.084  1.00  0.00     0.071 C 
ATOM     20  C   UNL A   1      31.582  27.888  25.964  1.00  0.00     0.071 C 
ENDBRANCH   8  18
ENDBRANCH   7   8
ENDBRANCH   5   7
ENDBRANCH   2   3
ENDBRANCH   1   2
BRANCH   1  21
ATOM     21  C   UNL A   1      36.263  21.701  24.226  1.00  0.00     0.023 C 
BRANCH  21  22
ATOM     22  C   UNL A   1      36.921  21.706  25.603  1.00  0.00     0.116 C 
BRANCH  22  23
ATOM     23  N   UNL A   1      37.940  20.678  25.754  1.00  0.00    -0.352 N 
ATOM     24  C   UNL A   1      39.256  20.803  26.135  1.00  0.00     0.251 C 
ATOM     25  H   UNL A   1      37.644  19.760  25.556  1.00  0.00     0.163 HD
ATOM     26  O   UNL A   1      40.003  19.831  26.065  1.00  0.00    -0.269 OA
BRANCH  24  27
ATOM     27  C   UNL A   1      39.777  22.113  26.590  1.00  0.00     0.039 A 
ATOM     28  C   UNL A   1      40.850  22.138  27.484  1.00  0.00     0.014 A 
ATOM     29  C   UNL A   1      39.223  23.311  26.132  1.00  0.00     0.014 A 
ATOM     30  C   UNL A   1      41.416  23.361  27.857  1.00  0.00     0.010 A 
ATOM     31  C   UNL A   1      39.834  24.524  26.445  1.00  0.00     0.010 A 
ATOM     32  C   UNL A   1      40.941  24.563  27.308  1.00  0.00    -0.014 A 
BRANCH  32  33
ATOM     33  C   UNL A   1      41.595  25.865  27.615  1.00  0.00     0.031 A 
ATOM     34  C   UNL A   1      40.863  26.913  28.412  1.00  0.00     0.074 A 
ATOM     35  C   UNL A   1      42.822  26.130  27.124  1.00  0.00     0.049 A 
ATOM     36  N   UNL A   1      41.232  28.131  28.717  1.00  0.00    -0.248 NA
ATOM     37  C   UNL A   1      39.527  26.550  28.906  1.00  0.00     0.031 C 
ATOM     38  C   UNL A   1      43.623  25.211  26.309  1.00  0.00     0.029 A 
ATOM     39  N   UNL A   1      43.613  27.248  27.230  1.00  0.00    -0.354 N 
ATOM     40  C   UNL A   1      40.172  28.684  29.426  1.00  0.00     0.074 A 
ATOM     41  C   UNL A   1      39.122  27.687  29.451  1.00  0.00     0.031 C 
ATOM     42  C   UNL A   1      44.797  25.792  26.017  1.00  0.00     0.029 A 
ATOM     43  C   UNL A   1      44.818  27.141  26.574  1.00  0.00     0.049 A 
ATOM     44  H   UNL A   1      43.343  28.053  27.729  1.00  0.00     0.167 HD
ATOM     45  C   UNL A   1      40.088  29.903  30.018  1.00  0.00     0.034 A 
ATOM     46  C   UNL A   1      45.820  28.030  26.423  1.00  0.00     0.034 A 
ATOM     47  C   UNL A   1      41.149  30.881  29.993  1.00  0.00     0.049 A 
ATOM     48  C   UNL A   1      45.688  29.393  27.058  1.00  0.00     0.074 A 
ATOM     49  C   UNL A   1      41.192  32.120  30.612  1.00  0.00     0.029 A 
ATOM     50  N   UNL A   1      42.349  30.741  29.307  1.00  0.00    -0.354 N 
ATOM     51  N   UNL A   1      44.698  29.880  27.770  1.00  0.00    -0.248 NA
ATOM     52  C   UNL A   1      46.813  30.319  26.877  1.00  0.00     0.031 C 
ATOM     53  C   UNL A   1      42.377  32.759  30.235  1.00  0.00     0.029 A 
ATOM     54  C   UNL A   1      43.118  31.886  29.455  1.00  0.00     0.049 A 
ATOM     55  H   UNL A   1      42.614  29.946  28.791  1.00  0.00     0.167 HD
ATOM     56  C   UNL A   1      45.101  31.159  28.150  1.00  0.00     0.074 A 
ATOM     57  C   UNL A   1      46.425  31.358  27.602  1.00  0.00     0.031 C 
ATOM     58  C   UNL A   1      44.436  32.081  28.894  1.00  0.00     0.034 A 
BRANCH  45  59
ATOM     59  C   UNL A   1      38.793  30.253  30.715  1.00  0.00     0.023 A 
ATOM     60  C   UNL A   1      37.766  30.957  30.062  1.00  0.00     0.031 A 
ATOM     61  C   UNL A   1      38.589  29.892  32.059  1.00  0.00     0.131 A 
ATOM     62  C   UNL A   1      36.621  31.346  30.772  1.00  0.00     0.055 A 
ATOM     63  C   UNL A   1      37.409  30.205  32.735  1.00  0.00     0.041 A 
ATOM     64  F   UNL A   1      39.540  29.237  32.743  1.00  0.00    -0.206 F 
ATOM     65  C   UNL A   1      36.422  30.951  32.097  1.00  0.00     0.022 A 
BRANCH  62  66
ATOM     66  S   UNL A   1      35.465  32.503  29.988  1.00  0.00     0.124 S 
ATOM     67  O   UNL A   1      36.268  33.723  29.924  1.00  0.00    -0.237 OA
ATOM     68  O   UNL A   1      35.188  31.854  28.712  1.00  0.00    -0.237 OA
ATOM     69  O   UNL A   1      34.343  32.553  30.921  1.00  0.00    -0.744 OA
ENDBRANCH  62  66
ENDBRANCH  45  59
BRANCH  46  70
ATOM     70  C   UNL A   1      47.036  27.677  25.632  1.00  0.00     0.023 A 
ATOM     71  C   UNL A   1      47.124  27.990  24.266  1.00  0.00     0.031 A 
ATOM     72  C   UNL A   1      48.106  26.976  26.216  1.00  0.00     0.131 A 
ATOM     73  C   UNL A   1      48.231  27.559  23.519  1.00  0.00     0.055 A 
ATOM     74  C   UNL A   1      49.233  26.602  25.481  1.00  0.00     0.041 A 
ATOM     75  F   UNL A   1      48.075  26.652  27.519  1.00  0.00    -0.206 F 
ATOM     76  C   UNL A   1      49.292  26.881  24.120  1.00  0.00     0.022 A 
BRANCH  73  77
ATOM     77  S   UNL A   1      48.217  27.816  21.722  1.00  0.00     0.124 S 
ATOM     78  O   UNL A   1      46.880  28.357  21.512  1.00  0.00    -0.237 OA
ATOM     79  O   UNL A   1      49.324  28.748  21.541  1.00  0.00    -0.237 OA
ATOM     80  O   UNL A   1      48.440  26.474  21.186  1.00  0.00    -0.744 OA
ENDBRANCH  73  77
ENDBRANCH  46  70
BRANCH  58  81
ATOM     81  C   UNL A   1      45.159  33.373  29.196  1.00  0.00     0.023 A 
ATOM     82  C   UNL A   1      45.021  34.511  28.381  1.00  0.00     0.031 A 
ATOM     83  C   UNL A   1      46.010  33.460  30.314  1.00  0.00     0.131 A 
ATOM     84  C   UNL A   1      45.767  35.666  28.663  1.00  0.00     0.055 A 
ATOM     85  C   UNL A   1      46.696  34.633  30.626  1.00  0.00     0.041 A 
ATOM     86  F   UNL A   1      46.183  32.404  31.124  1.00  0.00    -0.206 F 
ATOM     87  C   UNL A   1      46.588  35.741  29.791  1.00  0.00     0.022 A 
BRANCH  84  88
ATOM     88  S   UNL A   1      45.724  37.041  27.480  1.00  0.00     0.124 S 
ATOM     89  O   UNL A   1      46.563  36.536  26.398  1.00  0.00    -0.237 OA
ATOM     90  O   UNL A   1      44.299  37.153  27.182  1.00  0.00    -0.237 OA
ATOM     91  O   UNL A   1      46.289  38.159  28.232  1.00  0.00    -0.744 OA
ENDBRANCH  84  88
ENDBRANCH  58  81
ENDBRANCH  32  33
ENDBRANCH  24  27
ENDBRANCH  22  23
ENDBRANCH  21  22
ENDBRANCH   1  21
TORSDOF 18
ENDMDL
MODEL 2
REMARK VINA RESULT:     -11.2      5.528      8.663
REMARK SMILES O=C(C[N@@H+](Cc1cccc(Br)c1)C1CC1)NCCCCNC(=O)c1ccc(-c2c3nc(c(-c4cc(S(=O)(=O)[O-])ccc4F)c4ccc([nH]4)c(-c4cc(S(=O)(=O)[O-])ccc4F)c4nc(c(-c5cc(S(=O)(=O)[O-])ccc5F)c5ccc2[nH]5)C=C4)C=C3)cc1
REMARK SMILES IDX 18 1 17 2 16 3 1 4 2 5 3 7 4 8 5 10 6 11 7 12 12 13 8 14
REMARK SMILES IDX 10 15 9 16 11 17 13 18 14 19 15 20 19 21 20 22 21 23 22 24
REMARK SMILES IDX 23 26 24 27 25 28 86 29 26 30 85 31 27 32 28 33 29 34 79 35
REMARK SMILES IDX 30 36 84 37 78 38 80 39 31 40 83 41 77 42 76 43 32 45 64 46
REMARK SMILES IDX 44 47 63 48 45 49 48 50 62 51 81 52 46 53 47 54 61 56 82 57
REMARK SMILES IDX 49 58 33 59 34 60 42 61 35 62 41 63 43 64 40 65 36 66 37 67
REMARK SMILES IDX 38 68 39 69 65 70 66 71 74 72 67 73 73 74 75 75 72 76 68 77
REMARK SMILES IDX 69 78 70 79 71 80 50 81 51 82 59 83 52 84 58 85 60 86 57 87
REMARK SMILES IDX 53 88 54 89 55 90 56 91
REMARK H PARENT 16 6 4 9 21 25 80 44 48 55
REMARK Flexibility Score: inf
ROOT
ATOM      1  C   UNL A   1      31.726  30.565  26.494  1.00  0.00     0.023 C 
ENDROOT
BRANCH   1   2
ATOM      2  C   UNL A   1      33.169  30.081  26.425  1.00  0.00     0.116 C 
BRANCH   2   3
ATOM      3  N   UNL A   1      33.432  29.219  25.291  1.00  0.00    -0.351 N 
ATOM      4  O   UNL A   1      32.985  27.278  26.412  1.00  0.00    -0.269 OA
ATOM      5  C   UNL A   1      33.194  27.868  25.350  1.00  0.00     0.275 C 
ATOM      6  H   UNL A   1      33.789  29.611  24.461  1.00  0.00     0.163 HD
BRANCH   5   7
ATOM      7  C   UNL A   1      33.253  27.108  24.028  1.00  0.00     0.364 C 
BRANCH   7   8
ATOM      8  N   UNL A   1      31.938  26.763  23.416  1.00  0.00    -0.321 N 
ATOM      9  H   UNL A   1      31.303  26.693  24.211  1.00  0.00     0.349 HD
BRANCH   8  10
ATOM     10  C   UNL A   1      31.588  27.849  22.443  1.00  0.00     0.299 C 
BRANCH  10  11
ATOM     11  C   UNL A   1      30.194  28.464  22.571  1.00  0.00     0.007 A 
ATOM     12  C   UNL A   1      29.135  27.804  23.221  1.00  0.00     0.009 A 
ATOM     13  C   UNL A   1      29.937  29.737  22.033  1.00  0.00     0.025 A 
ATOM     14  C   UNL A   1      27.856  28.361  23.283  1.00  0.00     0.002 A 
ATOM     15  C   UNL A   1      28.659  30.298  22.114  1.00  0.00     0.018 A 
ATOM     16  C   UNL A   1      27.614  29.612  22.726  1.00  0.00     0.016 A 
ATOM     17  Br  UNL A   1      28.336  32.013  21.382  1.00  0.00    -0.051 Br
ENDBRANCH  10  11
ENDBRANCH   8  10
BRANCH   8  18
ATOM     18  C   UNL A   1      31.764  25.428  22.781  1.00  0.00     0.185 C 
ATOM     19  C   UNL A   1      32.247  24.132  23.368  1.00  0.00     0.071 C 
ATOM     20  C   UNL A   1      30.775  24.413  23.282  1.00  0.00     0.071 C 
ENDBRANCH   8  18
ENDBRANCH   7   8
ENDBRANCH   5   7
ENDBRANCH   2   3
ENDBRANCH   1   2
BRANCH   1  21
ATOM     21  C   UNL A   1      31.572  32.052  26.815  1.00  0.00     0.023 C 
BRANCH  21  22
ATOM     22  C   UNL A   1      32.862  32.786  27.167  1.00  0.00     0.116 C 
BRANCH  22  23
ATOM     23  N   UNL A   1      32.633  34.113  27.720  1.00  0.00    -0.352 N 
ATOM     24  C   UNL A   1      33.261  34.740  28.771  1.00  0.00     0.251 C 
ATOM     25  H   UNL A   1      31.928  34.637  27.276  1.00  0.00     0.163 HD
ATOM     26  O   UNL A   1      32.828  35.813  29.183  1.00  0.00    -0.269 OA
BRANCH  24  27
ATOM     27  C   UNL A   1      34.429  34.106  29.426  1.00  0.00     0.039 A 
ATOM     28  C   UNL A   1      34.210  33.220  30.484  1.00  0.00     0.014 A 
ATOM     29  C   UNL A   1      35.732  34.371  28.996  1.00  0.00     0.014 A 
ATOM     30  C   UNL A   1      35.291  32.542  31.058  1.00  0.00     0.010 A 
ATOM     31  C   UNL A   1      36.798  33.639  29.518  1.00  0.00     0.010 A 
ATOM     32  C   UNL A   1      36.589  32.713  30.551  1.00  0.00    -0.014 A 
BRANCH  32  33
ATOM     33  C   UNL A   1      37.736  31.925  31.082  1.00  0.00     0.031 A 
ATOM     34  C   UNL A   1      38.297  32.226  32.447  1.00  0.00     0.074 A 
ATOM     35  C   UNL A   1      38.313  30.981  30.311  1.00  0.00     0.049 A 
ATOM     36  N   UNL A   1      39.334  31.704  33.051  1.00  0.00    -0.248 NA
ATOM     37  C   UNL A   1      37.616  33.274  33.222  1.00  0.00     0.031 C 
ATOM     38  C   UNL A   1      37.885  30.618  28.958  1.00  0.00     0.029 A 
ATOM     39  N   UNL A   1      39.386  30.158  30.549  1.00  0.00    -0.354 N 
ATOM     40  C   UNL A   1      39.439  32.367  34.269  1.00  0.00     0.074 A 
ATOM     41  C   UNL A   1      38.395  33.371  34.289  1.00  0.00     0.031 C 
ATOM     42  C   UNL A   1      38.666  29.628  28.500  1.00  0.00     0.029 A 
ATOM     43  C   UNL A   1      39.685  29.319  29.499  1.00  0.00     0.049 A 
ATOM     44  H   UNL A   1      39.895  30.166  31.392  1.00  0.00     0.167 HD
ATOM     45  C   UNL A   1      40.312  32.146  35.285  1.00  0.00     0.034 A 
ATOM     46  C   UNL A   1      40.673  28.414  29.350  1.00  0.00     0.034 A 
ATOM     47  C   UNL A   1      41.340  31.134  35.253  1.00  0.00     0.049 A 
ATOM     48  C   UNL A   1      41.656  28.213  30.478  1.00  0.00     0.074 A 
ATOM     49  C   UNL A   1      42.236  30.785  36.251  1.00  0.00     0.029 A 
ATOM     50  N   UNL A   1      41.620  30.313  34.168  1.00  0.00    -0.354 N 
ATOM     51  N   UNL A   1      41.708  28.814  31.644  1.00  0.00    -0.248 NA
ATOM     52  C   UNL A   1      42.704  27.207  30.271  1.00  0.00     0.031 C 
ATOM     53  C   UNL A   1      43.105  29.816  35.742  1.00  0.00     0.029 A 
ATOM     54  C   UNL A   1      42.699  29.491  34.458  1.00  0.00     0.049 A 
ATOM     55  H   UNL A   1      41.126  30.315  33.317  1.00  0.00     0.167 HD
ATOM     56  C   UNL A   1      42.775  28.228  32.323  1.00  0.00     0.074 A 
ATOM     57  C   UNL A   1      43.326  27.222  31.441  1.00  0.00     0.031 C 
ATOM     58  C   UNL A   1      43.250  28.495  33.567  1.00  0.00     0.034 A 
BRANCH  45  59
ATOM     59  C   UNL A   1      40.208  33.039  36.500  1.00  0.00     0.023 A 
ATOM     60  C   UNL A   1      39.504  32.646  37.652  1.00  0.00     0.031 A 
ATOM     61  C   UNL A   1      40.808  34.311  36.501  1.00  0.00     0.131 A 
ATOM     62  C   UNL A   1      39.350  33.542  38.720  1.00  0.00     0.055 A 
ATOM     63  C   UNL A   1      40.726  35.164  37.603  1.00  0.00     0.041 A 
ATOM     64  F   UNL A   1      41.476  34.753  35.424  1.00  0.00    -0.206 F 
ATOM     65  C   UNL A   1      39.979  34.789  38.716  1.00  0.00     0.022 A 
BRANCH  62  66
ATOM     66  S   UNL A   1      38.191  33.116  40.049  1.00  0.00     0.124 S 
ATOM     67  O   UNL A   1      37.006  32.722  39.290  1.00  0.00    -0.237 OA
ATOM     68  O   UNL A   1      38.890  32.041  40.743  1.00  0.00    -0.237 OA
ATOM     69  O   UNL A   1      38.056  34.362  40.799  1.00  0.00    -0.744 OA
ENDBRANCH  62  66
ENDBRANCH  45  59
BRANCH  46  70
ATOM     70  C   UNL A   1      40.802  27.632  28.085  1.00  0.00     0.023 A 
ATOM     71  C   UNL A   1      40.363  26.300  28.011  1.00  0.00     0.031 A 
ATOM     72  C   UNL A   1      41.413  28.186  26.946  1.00  0.00     0.131 A 
ATOM     73  C   UNL A   1      40.586  25.552  26.845  1.00  0.00     0.055 A 
ATOM     74  C   UNL A   1      41.579  27.456  25.767  1.00  0.00     0.041 A 
ATOM     75  F   UNL A   1      41.851  29.456  26.960  1.00  0.00    -0.206 F 
ATOM     76  C   UNL A   1      41.177  26.126  25.718  1.00  0.00     0.022 A 
BRANCH  73  77
ATOM     77  S   UNL A   1      40.178  23.784  26.857  1.00  0.00     0.124 S 
ATOM     78  O   UNL A   1      41.199  23.240  25.971  1.00  0.00    -0.237 OA
ATOM     79  O   UNL A   1      40.311  23.452  28.271  1.00  0.00    -0.237 OA
ATOM     80  O   UNL A   1      38.813  23.748  26.335  1.00  0.00    -0.744 OA
ENDBRANCH  73  77
ENDBRANCH  46  70
BRANCH  58  81
ATOM     81  C   UNL A   1      44.397  27.646  34.063  1.00  0.00     0.023 A 
ATOM     82  C   UNL A   1      44.205  26.331  34.522  1.00  0.00     0.031 A 
ATOM     83  C   UNL A   1      45.703  28.169  34.086  1.00  0.00     0.131 A 
ATOM     84  C   UNL A   1      45.290  25.605  35.038  1.00  0.00     0.055 A 
ATOM     85  C   UNL A   1      46.788  27.419  34.538  1.00  0.00     0.041 A 
ATOM     86  F   UNL A   1      45.946  29.420  33.664  1.00  0.00    -0.206 F 
ATOM     87  C   UNL A   1      46.583  26.133  35.030  1.00  0.00     0.022 A 
BRANCH  84  88
ATOM     88  S   UNL A   1      44.973  23.994  35.810  1.00  0.00     0.124 S 
ATOM     89  O   UNL A   1      45.803  23.104  35.005  1.00  0.00    -0.237 OA
ATOM     90  O   UNL A   1      45.420  24.213  37.183  1.00  0.00    -0.237 OA
ATOM     91  O   UNL A   1      43.532  23.814  35.649  1.00  0.00    -0.744 OA
ENDBRANCH  84  88
ENDBRANCH  58  81
ENDBRANCH  32  33
ENDBRANCH  24  27
ENDBRANCH  22  23
ENDBRANCH  21  22
ENDBRANCH   1  21
TORSDOF 18
ENDMDL
MODEL 3
REMARK VINA RESULT:     -11.1      5.778     10.922
REMARK SMILES O=C(C[N@@H+](Cc1cccc(Br)c1)C1CC1)NCCCCNC(=O)c1ccc(-c2c3nc(c(-c4cc(S(=O)(=O)[O-])ccc4F)c4ccc([nH]4)c(-c4cc(S(=O)(=O)[O-])ccc4F)c4nc(c(-c5cc(S(=O)(=O)[O-])ccc5F)c5ccc2[nH]5)C=C4)C=C3)cc1
REMARK SMILES IDX 18 1 17 2 16 3 1 4 2 5 3 7 4 8 5 10 6 11 7 12 12 13 8 14
REMARK SMILES IDX 10 15 9 16 11 17 13 18 14 19 15 20 19 21 20 22 21 23 22 24
REMARK SMILES IDX 23 26 24 27 25 28 86 29 26 30 85 31 27 32 28 33 29 34 79 35
REMARK SMILES IDX 30 36 84 37 78 38 80 39 31 40 83 41 77 42 76 43 32 45 64 46
REMARK SMILES IDX 44 47 63 48 45 49 48 50 62 51 81 52 46 53 47 54 61 56 82 57
REMARK SMILES IDX 49 58 33 59 34 60 42 61 35 62 41 63 43 64 40 65 36 66 37 67
REMARK SMILES IDX 38 68 39 69 65 70 66 71 74 72 67 73 73 74 75 75 72 76 68 77
REMARK SMILES IDX 69 78 70 79 71 80 50 81 51 82 59 83 52 84 58 85 60 86 57 87
REMARK SMILES IDX 53 88 54 89 55 90 56 91
REMARK H PARENT 16 6 4 9 21 25 80 44 48 55
REMARK Flexibility Score: inf
ROOT
ATOM      1  C   UNL A   1      32.023  30.232  26.249  1.00  0.00     0.023 C 
ENDROOT
BRANCH   1   2
ATOM      2  C   UNL A   1      32.254  29.182  27.327  1.00  0.00     0.116 C 
BRANCH   2   3
ATOM      3  N   UNL A   1      32.292  27.828  26.812  1.00  0.00    -0.351 N 
ATOM      4  O   UNL A   1      34.241  28.115  25.651  1.00  0.00    -0.269 OA
ATOM      5  C   UNL A   1      33.372  27.364  26.100  1.00  0.00     0.275 C 
ATOM      6  H   UNL A   1      31.529  27.228  26.976  1.00  0.00     0.163 HD
BRANCH   5   7
ATOM      7  C   UNL A   1      33.421  25.862  25.841  1.00  0.00     0.364 C 
BRANCH   7   8
ATOM      8  N   UNL A   1      32.260  25.290  25.102  1.00  0.00    -0.321 N 
ATOM      9  H   UNL A   1      31.482  25.369  25.758  1.00  0.00     0.349 HD
BRANCH   8  10
ATOM     10  C   UNL A   1      32.085  26.082  23.842  1.00  0.00     0.299 C 
BRANCH  10  11
ATOM     11  C   UNL A   1      30.740  26.787  23.653  1.00  0.00     0.007 A 
ATOM     12  C   UNL A   1      29.527  26.222  24.083  1.00  0.00     0.009 A 
ATOM     13  C   UNL A   1      30.690  28.048  23.033  1.00  0.00     0.025 A 
ATOM     14  C   UNL A   1      28.304  26.858  23.856  1.00  0.00     0.002 A 
ATOM     15  C   UNL A   1      29.465  28.689  22.825  1.00  0.00     0.018 A 
ATOM     16  C   UNL A   1      28.271  28.095  23.222  1.00  0.00     0.016 A 
ATOM     17  Br  UNL A   1      29.422  30.385  21.989  1.00  0.00    -0.051 Br
ENDBRANCH  10  11
ENDBRANCH   8  10
BRANCH   8  18
ATOM     18  C   UNL A   1      32.242  23.832  24.799  1.00  0.00     0.185 C 
ATOM     19  C   UNL A   1      32.443  22.745  25.817  1.00  0.00     0.071 C 
ATOM     20  C   UNL A   1      31.097  22.937  25.181  1.00  0.00     0.071 C 
ENDBRANCH   8  18
ENDBRANCH   7   8
ENDBRANCH   5   7
ENDBRANCH   2   3
ENDBRANCH   1   2
BRANCH   1  21
ATOM     21  C   UNL A   1      31.731  31.635  26.783  1.00  0.00     0.023 C 
BRANCH  21  22
ATOM     22  C   UNL A   1      32.933  32.386  27.349  1.00  0.00     0.116 C 
BRANCH  22  23
ATOM     23  N   UNL A   1      32.657  33.789  27.615  1.00  0.00    -0.352 N 
ATOM     24  C   UNL A   1      33.232  34.631  28.539  1.00  0.00     0.251 C 
ATOM     25  H   UNL A   1      31.959  34.195  27.052  1.00  0.00     0.163 HD
ATOM     26  O   UNL A   1      32.763  35.752  28.712  1.00  0.00    -0.269 OA
BRANCH  24  27
ATOM     27  C   UNL A   1      34.386  34.173  29.347  1.00  0.00     0.039 A 
ATOM     28  C   UNL A   1      34.148  33.391  30.480  1.00  0.00     0.014 A 
ATOM     29  C   UNL A   1      35.696  34.499  28.987  1.00  0.00     0.014 A 
ATOM     30  C   UNL A   1      35.226  32.873  31.206  1.00  0.00     0.010 A 
ATOM     31  C   UNL A   1      36.768  33.922  29.667  1.00  0.00     0.010 A 
ATOM     32  C   UNL A   1      36.545  33.097  30.781  1.00  0.00    -0.014 A 
BRANCH  32  33
ATOM     33  C   UNL A   1      37.700  32.472  31.482  1.00  0.00     0.031 A 
ATOM     34  C   UNL A   1      38.460  31.344  30.836  1.00  0.00     0.074 A 
ATOM     35  C   UNL A   1      38.026  32.876  32.727  1.00  0.00     0.049 A 
ATOM     36  N   UNL A   1      39.442  30.624  31.315  1.00  0.00    -0.248 NA
ATOM     37  C   UNL A   1      38.038  30.957  29.482  1.00  0.00     0.031 C 
ATOM     38  C   UNL A   1      37.347  33.937  33.475  1.00  0.00     0.029 A 
ATOM     39  N   UNL A   1      39.006  32.443  33.586  1.00  0.00    -0.354 N 
ATOM     40  C   UNL A   1      39.748  29.692  30.329  1.00  0.00     0.074 A 
ATOM     41  C   UNL A   1      38.804  29.901  29.251  1.00  0.00     0.031 C 
ATOM     42  C   UNL A   1      37.948  34.090  34.666  1.00  0.00     0.029 A 
ATOM     43  C   UNL A   1      39.020  33.107  34.791  1.00  0.00     0.049 A 
ATOM     44  H   UNL A   1      39.641  31.724  33.361  1.00  0.00     0.167 HD
ATOM     45  C   UNL A   1      40.736  28.761  30.316  1.00  0.00     0.034 A 
ATOM     46  C   UNL A   1      39.797  32.937  35.881  1.00  0.00     0.034 A 
ATOM     47  C   UNL A   1      41.676  28.573  31.395  1.00  0.00     0.049 A 
ATOM     48  C   UNL A   1      40.864  31.870  35.857  1.00  0.00     0.074 A 
ATOM     49  C   UNL A   1      42.752  27.703  31.457  1.00  0.00     0.029 A 
ATOM     50  N   UNL A   1      41.650  29.255  32.605  1.00  0.00    -0.354 N 
ATOM     51  N   UNL A   1      41.172  31.032  34.894  1.00  0.00    -0.248 NA
ATOM     52  C   UNL A   1      41.692  31.734  37.062  1.00  0.00     0.031 C 
ATOM     53  C   UNL A   1      43.323  27.801  32.730  1.00  0.00     0.029 A 
ATOM     54  C   UNL A   1      42.664  28.796  33.433  1.00  0.00     0.049 A 
ATOM     55  H   UNL A   1      41.005  29.961  32.841  1.00  0.00     0.167 HD
ATOM     56  C   UNL A   1      42.255  30.294  35.368  1.00  0.00     0.074 A 
ATOM     57  C   UNL A   1      42.552  30.797  36.693  1.00  0.00     0.031 C 
ATOM     58  C   UNL A   1      42.946  29.296  34.759  1.00  0.00     0.034 A 
BRANCH  45  59
ATOM     59  C   UNL A   1      40.826  27.857  29.107  1.00  0.00     0.023 A 
ATOM     60  C   UNL A   1      41.804  28.043  28.114  1.00  0.00     0.031 A 
ATOM     61  C   UNL A   1      39.909  26.805  28.937  1.00  0.00     0.131 A 
ATOM     62  C   UNL A   1      41.794  27.243  26.962  1.00  0.00     0.055 A 
ATOM     63  C   UNL A   1      39.959  25.956  27.829  1.00  0.00     0.041 A 
ATOM     64  F   UNL A   1      38.939  26.590  29.839  1.00  0.00    -0.206 F 
ATOM     65  C   UNL A   1      40.896  26.182  26.824  1.00  0.00     0.022 A 
BRANCH  62  66
ATOM     66  S   UNL A   1      42.872  27.703  25.578  1.00  0.00     0.124 S 
ATOM     67  O   UNL A   1      43.266  26.393  25.064  1.00  0.00    -0.237 OA
ATOM     68  O   UNL A   1      41.977  28.479  24.726  1.00  0.00    -0.237 OA
ATOM     69  O   UNL A   1      43.944  28.463  26.215  1.00  0.00    -0.744 OA
ENDBRANCH  62  66
ENDBRANCH  45  59
BRANCH  46  70
ATOM     70  C   UNL A   1      39.598  33.782  37.095  1.00  0.00     0.023 A 
ATOM     71  C   UNL A   1      38.915  33.285  38.216  1.00  0.00     0.031 A 
ATOM     72  C   UNL A   1      40.041  35.117  37.133  1.00  0.00     0.131 A 
ATOM     73  C   UNL A   1      38.650  34.128  39.306  1.00  0.00     0.055 A 
ATOM     74  C   UNL A   1      39.827  35.934  38.245  1.00  0.00     0.041 A 
ATOM     75  F   UNL A   1      40.700  35.644  36.089  1.00  0.00    -0.206 F 
ATOM     76  C   UNL A   1      39.114  35.445  39.334  1.00  0.00     0.022 A 
BRANCH  73  77
ATOM     77  S   UNL A   1      37.601  33.506  40.650  1.00  0.00     0.124 S 
ATOM     78  O   UNL A   1      38.516  32.610  41.346  1.00  0.00    -0.237 OA
ATOM     79  O   UNL A   1      37.246  34.735  41.351  1.00  0.00    -0.237 OA
ATOM     80  O   UNL A   1      36.500  32.851  39.946  1.00  0.00    -0.744 OA
ENDBRANCH  73  77
ENDBRANCH  46  70
BRANCH  58  81
ATOM     81  C   UNL A   1      44.125  28.718  35.507  1.00  0.00     0.023 A 
ATOM     82  C   UNL A   1      43.980  27.655  36.415  1.00  0.00     0.031 A 
ATOM     83  C   UNL A   1      45.413  29.250  35.313  1.00  0.00     0.131 A 
ATOM     84  C   UNL A   1      45.093  27.197  37.138  1.00  0.00     0.055 A 
ATOM     85  C   UNL A   1      46.526  28.746  35.985  1.00  0.00     0.041 A 
ATOM     86  F   UNL A   1      45.610  30.269  34.461  1.00  0.00    -0.206 F 
ATOM     87  C   UNL A   1      46.368  27.722  36.914  1.00  0.00     0.022 A 
BRANCH  84  88
ATOM     88  S   UNL A   1      44.837  25.968  38.448  1.00  0.00     0.124 S 
ATOM     89  O   UNL A   1      43.748  26.565  39.215  1.00  0.00    -0.237 OA
ATOM     90  O   UNL A   1      44.496  24.768  37.688  1.00  0.00    -0.237 OA
ATOM     91  O   UNL A   1      46.126  25.922  39.133  1.00  0.00    -0.744 OA
ENDBRANCH  84  88
ENDBRANCH  58  81
ENDBRANCH  32  33
ENDBRANCH  24  27
ENDBRANCH  22  23
ENDBRANCH  21  22
ENDBRANCH   1  21
TORSDOF 18
ENDMDL
