MODEL 1
REMARK VINA RESULT:     -11.5      0.000      0.000
REMARK SMILES [NH3+][C@H]1C=C[C@@H](C(=O)NC2(CC(=O)NCCCCNC(=O)c3ccc(-c4c5nc(c(-c6cc(S(=O)(=O)[O-])ccc6F)c6ccc([nH]6)c(-c6cc(S(=O)(=O)[O-])ccc6F)c6nc(c(-c7cc(S(=O)(=O)[O-])ccc7F)c7ccc4[nH]7)C=C6)C=C5)cc3)CCC2)C1
REMARK SMILES IDX 15 1 14 2 13 3 11 4 12 5 10 7 9 8 84 9 86 10 85 11 8 12 6 13
REMARK SMILES IDX 7 14 5 16 2 17 3 18 87 19 4 20 1 21 16 25 17 26 18 27 19 28
REMARK SMILES IDX 20 30 21 31 22 32 83 33 23 34 82 35 24 36 25 37 26 38 76 39
REMARK SMILES IDX 27 40 81 41 75 42 77 43 28 44 80 45 74 46 73 47 29 49 61 50
REMARK SMILES IDX 41 51 60 52 42 53 45 54 59 55 78 56 43 57 44 58 58 60 79 61
REMARK SMILES IDX 46 62 30 63 31 64 39 65 32 66 38 67 40 68 37 69 33 70 34 71
REMARK SMILES IDX 35 72 36 73 62 74 63 75 71 76 64 77 70 78 72 79 69 80 65 81
REMARK SMILES IDX 66 82 67 83 68 84 47 85 48 86 56 87 49 88 55 89 57 90 54 91
REMARK SMILES IDX 50 92 51 93 52 94 53 95
REMARK H PARENT 13 6 8 15 1 22 1 23 1 24 18 29 77 48 45 59
REMARK Flexibility Score: inf
ROOT
ATOM      1  C   UNL A   1      37.034  20.187  24.986  1.00  0.00     0.023 C 
ENDROOT
BRANCH   1   2
ATOM      2  C   UNL A   1      37.259  21.697  24.884  1.00  0.00     0.116 C 
BRANCH   2   3
ATOM      3  N   UNL A   1      36.489  22.259  23.794  1.00  0.00    -0.356 N 
ATOM      4  C   UNL A   1      35.249  22.810  23.827  1.00  0.00     0.222 C 
ATOM      5  O   UNL A   1      34.670  23.032  22.761  1.00  0.00    -0.275 OA
ATOM      6  H   UNL A   1      36.922  22.236  22.911  1.00  0.00     0.163 HD
BRANCH   4   7
ATOM      7  C   UNL A   1      34.569  23.145  25.138  1.00  0.00     0.128 C 
BRANCH   7   8
ATOM      8  C   UNL A   1      33.553  22.110  25.684  1.00  0.00     0.049 C 
ATOM      9  C   UNL A   1      32.488  22.814  26.570  1.00  0.00     0.029 C 
ATOM     10  C   UNL A   1      34.058  21.391  26.948  1.00  0.00     0.029 C 
ATOM     11  C   UNL A   1      33.240  22.344  27.822  1.00  0.00     0.005 C 
BRANCH   8  12
ATOM     12  N   UNL A   1      32.987  21.309  24.569  1.00  0.00    -0.350 N 
ATOM     13  C   UNL A   1      32.964  20.019  24.140  1.00  0.00     0.227 C 
ATOM     14  O   UNL A   1      32.314  19.837  23.097  1.00  0.00    -0.274 OA
ATOM     15  H   UNL A   1      32.475  21.883  23.956  1.00  0.00     0.164 HD
BRANCH  13  16
ATOM     16  C   UNL A   1      33.645  18.793  24.758  1.00  0.00     0.107 C 
ATOM     17  C   UNL A   1      33.161  16.506  25.517  1.00  0.00     0.205 C 
ATOM     18  C   UNL A   1      33.967  16.528  24.261  1.00  0.00     0.033 C 
ATOM     19  C   UNL A   1      32.787  17.985  25.740  1.00  0.00     0.087 C 
ATOM     20  C   UNL A   1      34.236  17.771  23.850  1.00  0.00    -0.012 C 
BRANCH  17  21
ATOM     21  N   UNL A   1      31.994  15.653  25.375  1.00  0.00    -0.352 N 
ATOM     22  H   UNL A   1      32.156  14.771  25.859  1.00  0.00     0.345 HD
ATOM     23  H   UNL A   1      31.823  15.473  24.385  1.00  0.00     0.345 HD
ATOM     24  H   UNL A   1      31.181  16.119  25.780  1.00  0.00     0.345 HD
ENDBRANCH  17  21
ENDBRANCH  13  16
ENDBRANCH   8  12
ENDBRANCH   7   8
ENDBRANCH   4   7
ENDBRANCH   2   3
ENDBRANCH   1   2
BRANCH   1  25
ATOM     25  C   UNL A   1      38.314  19.352  24.999  1.00  0.00     0.023 C 
BRANCH  25  26
ATOM     26  C   UNL A   1      39.385  19.846  25.966  1.00  0.00     0.116 C 
BRANCH  26  27
ATOM     27  N   UNL A   1      40.593  19.035  25.957  1.00  0.00    -0.352 N 
ATOM     28  C   UNL A   1      41.892  19.448  26.156  1.00  0.00     0.251 C 
ATOM     29  H   UNL A   1      40.466  18.074  25.789  1.00  0.00     0.163 HD
ATOM     30  O   UNL A   1      42.818  18.653  26.018  1.00  0.00    -0.269 OA
BRANCH  28  31
ATOM     31  C   UNL A   1      42.154  20.866  26.477  1.00  0.00     0.039 A 
ATOM     32  C   UNL A   1      42.340  21.230  27.812  1.00  0.00     0.014 A 
ATOM     33  C   UNL A   1      42.283  21.815  25.460  1.00  0.00     0.014 A 
ATOM     34  C   UNL A   1      42.740  22.533  28.121  1.00  0.00     0.010 A 
ATOM     35  C   UNL A   1      42.749  23.090  25.764  1.00  0.00     0.010 A 
ATOM     36  C   UNL A   1      42.991  23.460  27.096  1.00  0.00    -0.014 A 
BRANCH  36  37
ATOM     37  C   UNL A   1      43.524  24.815  27.393  1.00  0.00     0.031 A 
ATOM     38  C   UNL A   1      42.602  25.889  27.903  1.00  0.00     0.074 A 
ATOM     39  C   UNL A   1      44.815  25.096  27.122  1.00  0.00     0.049 A 
ATOM     40  N   UNL A   1      42.851  27.152  28.130  1.00  0.00    -0.248 NA
ATOM     41  C   UNL A   1      41.208  25.494  28.162  1.00  0.00     0.031 C 
ATOM     42  C   UNL A   1      45.792  24.150  26.578  1.00  0.00     0.029 A 
ATOM     43  N   UNL A   1      45.526  26.262  27.255  1.00  0.00    -0.354 N 
ATOM     44  C   UNL A   1      41.642  27.710  28.532  1.00  0.00     0.074 A 
ATOM     45  C   UNL A   1      40.652  26.655  28.473  1.00  0.00     0.031 C 
ATOM     46  C   UNL A   1      46.978  24.766  26.447  1.00  0.00     0.029 A 
ATOM     47  C   UNL A   1      46.839  26.161  26.852  1.00  0.00     0.049 A 
ATOM     48  H   UNL A   1      45.134  27.094  27.606  1.00  0.00     0.167 HD
ATOM     49  C   UNL A   1      41.388  28.980  28.931  1.00  0.00     0.034 A 
ATOM     50  C   UNL A   1      47.814  27.090  26.805  1.00  0.00     0.034 A 
ATOM     51  C   UNL A   1      42.393  30.010  29.020  1.00  0.00     0.049 A 
ATOM     52  C   UNL A   1      47.503  28.495  27.258  1.00  0.00     0.074 A 
ATOM     53  C   UNL A   1      42.261  31.303  29.494  1.00  0.00     0.029 A 
ATOM     54  N   UNL A   1      43.715  29.867  28.620  1.00  0.00    -0.354 N 
ATOM     55  N   UNL A   1      46.369  28.987  27.702  1.00  0.00    -0.248 NA
ATOM     56  C   UNL A   1      48.604  29.466  27.212  1.00  0.00     0.031 C 
ATOM     57  C   UNL A   1      43.486  31.960  29.326  1.00  0.00     0.029 A 
ATOM     58  C   UNL A   1      44.400  31.056  28.810  1.00  0.00     0.049 A 
ATOM     59  H   UNL A   1      44.108  29.041  28.256  1.00  0.00     0.167 HD
ATOM     60  C   UNL A   1      46.634  30.316  28.023  1.00  0.00     0.074 A 
ATOM     61  C   UNL A   1      48.034  30.542  27.733  1.00  0.00     0.031 C 
ATOM     62  C   UNL A   1      45.798  31.264  28.515  1.00  0.00     0.034 A 
BRANCH  49  63
ATOM     63  C   UNL A   1      39.963  29.331  29.281  1.00  0.00     0.023 A 
ATOM     64  C   UNL A   1      39.527  29.418  30.614  1.00  0.00     0.031 A 
ATOM     65  C   UNL A   1      39.025  29.580  28.263  1.00  0.00     0.131 A 
ATOM     66  C   UNL A   1      38.178  29.683  30.894  1.00  0.00     0.055 A 
ATOM     67  C   UNL A   1      37.700  29.915  28.549  1.00  0.00     0.041 A 
ATOM     68  F   UNL A   1      39.380  29.492  26.972  1.00  0.00    -0.206 F 
ATOM     69  C   UNL A   1      37.267  29.957  29.871  1.00  0.00     0.022 A 
BRANCH  66  70
ATOM     70  S   UNL A   1      37.605  29.550  32.609  1.00  0.00     0.124 S 
ATOM     71  O   UNL A   1      37.691  28.110  32.838  1.00  0.00    -0.237 OA
ATOM     72  O   UNL A   1      38.572  30.371  33.330  1.00  0.00    -0.237 OA
ATOM     73  O   UNL A   1      36.246  30.087  32.559  1.00  0.00    -0.744 OA
ENDBRANCH  66  70
ENDBRANCH  49  63
BRANCH  50  74
ATOM     74  C   UNL A   1      49.178  26.744  26.308  1.00  0.00     0.023 A 
ATOM     75  C   UNL A   1      49.626  27.206  25.060  1.00  0.00     0.031 A 
ATOM     76  C   UNL A   1      50.024  25.889  27.036  1.00  0.00     0.131 A 
ATOM     77  C   UNL A   1      50.856  26.765  24.550  1.00  0.00     0.055 A 
ATOM     78  C   UNL A   1      51.272  25.497  26.548  1.00  0.00     0.041 A 
ATOM     79  F   UNL A   1      49.647  25.421  28.237  1.00  0.00    -0.206 F 
ATOM     80  C   UNL A   1      51.688  25.922  25.290  1.00  0.00     0.022 A 
BRANCH  77  81
ATOM     81  S   UNL A   1      51.305  27.224  22.853  1.00  0.00     0.124 S 
ATOM     82  O   UNL A   1      51.602  28.645  22.999  1.00  0.00    -0.237 OA
ATOM     83  O   UNL A   1      52.448  26.353  22.599  1.00  0.00    -0.237 OA
ATOM     84  O   UNL A   1      50.102  26.912  22.086  1.00  0.00    -0.744 OA
ENDBRANCH  77  81
ENDBRANCH  50  74
BRANCH  62  85
ATOM     85  C   UNL A   1      46.398  32.613  28.819  1.00  0.00     0.023 A 
ATOM     86  C   UNL A   1      46.498  33.615  27.840  1.00  0.00     0.031 A 
ATOM     87  C   UNL A   1      46.891  32.890  30.107  1.00  0.00     0.131 A 
ATOM     88  C   UNL A   1      47.127  34.830  28.148  1.00  0.00     0.055 A 
ATOM     89  C   UNL A   1      47.463  34.122  30.423  1.00  0.00     0.041 A 
ATOM     90  F   UNL A   1      46.821  31.967  31.079  1.00  0.00    -0.206 F 
ATOM     91  C   UNL A   1      47.596  35.097  29.438  1.00  0.00     0.022 A 
BRANCH  88  92
ATOM     92  S   UNL A   1      47.399  36.032  26.817  1.00  0.00     0.124 S 
ATOM     93  O   UNL A   1      46.063  36.590  26.635  1.00  0.00    -0.237 OA
ATOM     94  O   UNL A   1      48.390  36.928  27.402  1.00  0.00    -0.237 OA
ATOM     95  O   UNL A   1      47.885  35.212  25.708  1.00  0.00    -0.744 OA
ENDBRANCH  88  92
ENDBRANCH  62  85
ENDBRANCH  36  37
ENDBRANCH  28  31
ENDBRANCH  26  27
ENDBRANCH  25  26
ENDBRANCH   1  25
TORSDOF 18
ENDMDL
MODEL 2
REMARK VINA RESULT:     -11.4      6.072     11.816
REMARK SMILES [NH3+][C@H]1C=C[C@@H](C(=O)NC2(CC(=O)NCCCCNC(=O)c3ccc(-c4c5nc(c(-c6cc(S(=O)(=O)[O-])ccc6F)c6ccc([nH]6)c(-c6cc(S(=O)(=O)[O-])ccc6F)c6nc(c(-c7cc(S(=O)(=O)[O-])ccc7F)c7ccc4[nH]7)C=C6)C=C5)cc3)CCC2)C1
REMARK SMILES IDX 15 1 14 2 13 3 11 4 12 5 10 7 9 8 84 9 86 10 85 11 8 12 6 13
REMARK SMILES IDX 7 14 5 16 2 17 3 18 87 19 4 20 1 21 16 25 17 26 18 27 19 28
REMARK SMILES IDX 20 30 21 31 22 32 83 33 23 34 82 35 24 36 25 37 26 38 76 39
REMARK SMILES IDX 27 40 81 41 75 42 77 43 28 44 80 45 74 46 73 47 29 49 61 50
REMARK SMILES IDX 41 51 60 52 42 53 45 54 59 55 78 56 43 57 44 58 58 60 79 61
REMARK SMILES IDX 46 62 30 63 31 64 39 65 32 66 38 67 40 68 37 69 33 70 34 71
REMARK SMILES IDX 35 72 36 73 62 74 63 75 71 76 64 77 70 78 72 79 69 80 65 81
REMARK SMILES IDX 66 82 67 83 68 84 47 85 48 86 56 87 49 88 55 89 57 90 54 91
REMARK SMILES IDX 50 92 51 93 52 94 53 95
REMARK H PARENT 13 6 8 15 1 22 1 23 1 24 18 29 77 48 45 59
REMARK Flexibility Score: inf
ROOT
ATOM      1  C   UNL A   1      31.406  30.959  25.773  1.00  0.00     0.023 C 
ENDROOT
BRANCH   1   2
ATOM      2  C   UNL A   1      32.457  29.859  25.937  1.00  0.00     0.116 C 
BRANCH   2   3
ATOM      3  N   UNL A   1      33.248  29.720  24.733  1.00  0.00    -0.356 N 
ATOM      4  C   UNL A   1      33.307  28.672  23.871  1.00  0.00     0.222 C 
ATOM      5  O   UNL A   1      34.203  28.651  23.024  1.00  0.00    -0.275 OA
ATOM      6  H   UNL A   1      33.821  30.489  24.508  1.00  0.00     0.163 HD
BRANCH   4   7
ATOM      7  C   UNL A   1      32.306  27.539  23.939  1.00  0.00     0.128 C 
BRANCH   7   8
ATOM      8  C   UNL A   1      31.317  27.407  22.753  1.00  0.00     0.049 C 
ATOM      9  C   UNL A   1      30.685  28.788  22.420  1.00  0.00     0.029 C 
ATOM     10  C   UNL A   1      29.921  26.930  23.193  1.00  0.00     0.029 C 
ATOM     11  C   UNL A   1      29.418  28.375  23.180  1.00  0.00     0.005 C 
BRANCH   8  12
ATOM     12  N   UNL A   1      31.981  26.746  21.601  1.00  0.00    -0.350 N 
ATOM     13  C   UNL A   1      32.616  25.578  21.313  1.00  0.00     0.227 C 
ATOM     14  O   UNL A   1      33.013  25.488  20.139  1.00  0.00    -0.274 OA
ATOM     15  H   UNL A   1      31.954  27.327  20.807  1.00  0.00     0.164 HD
BRANCH  13  16
ATOM     16  C   UNL A   1      32.916  24.398  22.243  1.00  0.00     0.107 C 
ATOM     17  C   UNL A   1      33.710  23.897  24.514  1.00  0.00     0.205 C 
ATOM     18  C   UNL A   1      32.255  23.609  24.346  1.00  0.00     0.033 C 
ATOM     19  C   UNL A   1      34.102  24.593  23.196  1.00  0.00     0.087 C 
ATOM     20  C   UNL A   1      31.823  23.875  23.109  1.00  0.00    -0.012 C 
BRANCH  17  21
ATOM     21  N   UNL A   1      33.945  24.735  25.677  1.00  0.00    -0.352 N 
ATOM     22  H   UNL A   1      34.462  24.207  26.378  1.00  0.00     0.345 HD
ATOM     23  H   UNL A   1      33.051  25.035  26.067  1.00  0.00     0.345 HD
ATOM     24  H   UNL A   1      34.487  25.555  25.401  1.00  0.00     0.345 HD
ENDBRANCH  17  21
ENDBRANCH  13  16
ENDBRANCH   8  12
ENDBRANCH   7   8
ENDBRANCH   4   7
ENDBRANCH   2   3
ENDBRANCH   1   2
BRANCH   1  25
ATOM     25  C   UNL A   1      31.389  31.995  26.897  1.00  0.00     0.023 C 
BRANCH  25  26
ATOM     26  C   UNL A   1      32.703  32.744  27.091  1.00  0.00     0.116 C 
BRANCH  26  27
ATOM     27  N   UNL A   1      32.543  34.039  27.734  1.00  0.00    -0.352 N 
ATOM     28  C   UNL A   1      33.308  34.585  28.741  1.00  0.00     0.251 C 
ATOM     29  H   UNL A   1      31.797  34.592  27.409  1.00  0.00     0.163 HD
ATOM     30  O   UNL A   1      32.982  35.655  29.250  1.00  0.00    -0.269 OA
BRANCH  28  31
ATOM     31  C   UNL A   1      34.484  33.840  29.234  1.00  0.00     0.039 A 
ATOM     32  C   UNL A   1      35.759  34.330  28.951  1.00  0.00     0.014 A 
ATOM     33  C   UNL A   1      34.324  32.703  30.030  1.00  0.00     0.014 A 
ATOM     34  C   UNL A   1      36.875  33.727  29.536  1.00  0.00     0.010 A 
ATOM     35  C   UNL A   1      35.429  32.148  30.668  1.00  0.00     0.010 A 
ATOM     36  C   UNL A   1      36.715  32.661  30.435  1.00  0.00    -0.014 A 
BRANCH  36  37
ATOM     37  C   UNL A   1      37.875  32.076  31.156  1.00  0.00     0.031 A 
ATOM     38  C   UNL A   1      38.686  30.984  30.513  1.00  0.00     0.074 A 
ATOM     39  C   UNL A   1      38.142  32.470  32.418  1.00  0.00     0.049 A 
ATOM     40  N   UNL A   1      39.671  30.283  31.012  1.00  0.00    -0.248 NA
ATOM     41  C   UNL A   1      38.318  30.611  29.138  1.00  0.00     0.031 C 
ATOM     42  C   UNL A   1      37.395  33.486  33.164  1.00  0.00     0.029 A 
ATOM     43  N   UNL A   1      39.107  32.058  33.302  1.00  0.00    -0.354 N 
ATOM     44  C   UNL A   1      40.024  29.369  30.024  1.00  0.00     0.074 A 
ATOM     45  C   UNL A   1      39.116  29.577  28.916  1.00  0.00     0.031 C 
ATOM     46  C   UNL A   1      37.943  33.633  34.381  1.00  0.00     0.029 A 
ATOM     47  C   UNL A   1      39.050  32.693  34.522  1.00  0.00     0.049 A 
ATOM     48  H   UNL A   1      39.778  31.371  33.085  1.00  0.00     0.167 HD
ATOM     49  C   UNL A   1      41.025  28.455  30.036  1.00  0.00     0.034 A 
ATOM     50  C   UNL A   1      39.799  32.528  35.631  1.00  0.00     0.034 A 
ATOM     51  C   UNL A   1      41.944  28.286  31.133  1.00  0.00     0.049 A 
ATOM     52  C   UNL A   1      40.908  31.505  35.614  1.00  0.00     0.074 A 
ATOM     53  C   UNL A   1      43.046  27.453  31.212  1.00  0.00     0.029 A 
ATOM     54  N   UNL A   1      41.867  28.959  32.345  1.00  0.00    -0.354 N 
ATOM     55  N   UNL A   1      41.271  30.697  34.644  1.00  0.00    -0.248 NA
ATOM     56  C   UNL A   1      41.712  31.378  36.836  1.00  0.00     0.031 C 
ATOM     57  C   UNL A   1      43.599  27.577  32.492  1.00  0.00     0.029 A 
ATOM     58  C   UNL A   1      42.883  28.537  33.188  1.00  0.00     0.049 A 
ATOM     59  H   UNL A   1      41.190  29.636  32.573  1.00  0.00     0.167 HD
ATOM     60  C   UNL A   1      42.371  29.995  35.130  1.00  0.00     0.074 A 
ATOM     61  C   UNL A   1      42.617  30.482  36.471  1.00  0.00     0.031 C 
ATOM     62  C   UNL A   1      43.113  29.035  34.523  1.00  0.00     0.034 A 
BRANCH  49  63
ATOM     63  C   UNL A   1      41.162  27.554  28.834  1.00  0.00     0.023 A 
ATOM     64  C   UNL A   1      42.167  27.751  27.871  1.00  0.00     0.031 A 
ATOM     65  C   UNL A   1      40.272  26.482  28.647  1.00  0.00     0.131 A 
ATOM     66  C   UNL A   1      42.218  26.930  26.735  1.00  0.00     0.055 A 
ATOM     67  C   UNL A   1      40.374  25.623  27.552  1.00  0.00     0.041 A 
ATOM     68  F   UNL A   1      39.281  26.257  29.524  1.00  0.00    -0.206 F 
ATOM     69  C   UNL A   1      41.345  25.851  26.581  1.00  0.00     0.022 A 
BRANCH  66  70
ATOM     70  S   UNL A   1      43.371  27.362  25.403  1.00  0.00     0.124 S 
ATOM     71  O   UNL A   1      42.467  27.919  24.401  1.00  0.00    -0.237 OA
ATOM     72  O   UNL A   1      44.266  28.311  26.055  1.00  0.00    -0.237 OA
ATOM     73  O   UNL A   1      43.976  26.081  25.044  1.00  0.00    -0.744 OA
ENDBRANCH  66  70
ENDBRANCH  49  63
BRANCH  50  74
ATOM     74  C   UNL A   1      39.536  33.333  36.859  1.00  0.00     0.023 A 
ATOM     75  C   UNL A   1      38.927  32.751  37.983  1.00  0.00     0.031 A 
ATOM     76  C   UNL A   1      39.822  34.709  36.903  1.00  0.00     0.131 A 
ATOM     77  C   UNL A   1      38.568  33.551  39.078  1.00  0.00     0.055 A 
ATOM     78  C   UNL A   1      39.513  35.490  38.019  1.00  0.00     0.041 A 
ATOM     79  F   UNL A   1      40.408  35.316  35.859  1.00  0.00    -0.206 F 
ATOM     80  C   UNL A   1      38.866  34.915  39.109  1.00  0.00     0.022 A 
BRANCH  77  81
ATOM     81  S   UNL A   1      37.604  32.801  40.420  1.00  0.00     0.124 S 
ATOM     82  O   UNL A   1      36.267  33.317  40.149  1.00  0.00    -0.237 OA
ATOM     83  O   UNL A   1      37.804  31.377  40.174  1.00  0.00    -0.237 OA
ATOM     84  O   UNL A   1      38.241  33.320  41.628  1.00  0.00    -0.744 OA
ENDBRANCH  77  81
ENDBRANCH  50  74
BRANCH  62  85
ATOM     85  C   UNL A   1      44.292  28.495  35.293  1.00  0.00     0.023 A 
ATOM     86  C   UNL A   1      44.181  27.361  36.115  1.00  0.00     0.031 A 
ATOM     87  C   UNL A   1      45.540  29.137  35.210  1.00  0.00     0.131 A 
ATOM     88  C   UNL A   1      45.285  26.936  36.867  1.00  0.00     0.055 A 
ATOM     89  C   UNL A   1      46.651  28.674  35.916  1.00  0.00     0.041 A 
ATOM     90  F   UNL A   1      45.700  30.225  34.440  1.00  0.00    -0.206 F 
ATOM     91  C   UNL A   1      46.525  27.575  36.761  1.00  0.00     0.022 A 
BRANCH  88  92
ATOM     92  S   UNL A   1      45.062  25.581  38.052  1.00  0.00     0.124 S 
ATOM     93  O   UNL A   1      43.899  24.889  37.506  1.00  0.00    -0.237 OA
ATOM     94  O   UNL A   1      46.331  24.868  37.956  1.00  0.00    -0.237 OA
ATOM     95  O   UNL A   1      44.833  26.270  39.321  1.00  0.00    -0.744 OA
ENDBRANCH  88  92
ENDBRANCH  62  85
ENDBRANCH  36  37
ENDBRANCH  28  31
ENDBRANCH  26  27
ENDBRANCH  25  26
ENDBRANCH   1  25
TORSDOF 18
ENDMDL
MODEL 3
REMARK VINA RESULT:     -11.2      6.146     11.332
REMARK SMILES [NH3+][C@H]1C=C[C@@H](C(=O)NC2(CC(=O)NCCCCNC(=O)c3ccc(-c4c5nc(c(-c6cc(S(=O)(=O)[O-])ccc6F)c6ccc([nH]6)c(-c6cc(S(=O)(=O)[O-])ccc6F)c6nc(c(-c7cc(S(=O)(=O)[O-])ccc7F)c7ccc4[nH]7)C=C6)C=C5)cc3)CCC2)C1
REMARK SMILES IDX 15 1 14 2 13 3 11 4 12 5 10 7 9 8 84 9 86 10 85 11 8 12 6 13
REMARK SMILES IDX 7 14 5 16 2 17 3 18 87 19 4 20 1 21 16 25 17 26 18 27 19 28
REMARK SMILES IDX 20 30 21 31 22 32 83 33 23 34 82 35 24 36 25 37 26 38 76 39
REMARK SMILES IDX 27 40 81 41 75 42 77 43 28 44 80 45 74 46 73 47 29 49 61 50
REMARK SMILES IDX 41 51 60 52 42 53 45 54 59 55 78 56 43 57 44 58 58 60 79 61
REMARK SMILES IDX 46 62 30 63 31 64 39 65 32 66 38 67 40 68 37 69 33 70 34 71
REMARK SMILES IDX 35 72 36 73 62 74 63 75 71 76 64 77 70 78 72 79 69 80 65 81
REMARK SMILES IDX 66 82 67 83 68 84 47 85 48 86 56 87 49 88 55 89 57 90 54 91
REMARK SMILES IDX 50 92 51 93 52 94 53 95
REMARK H PARENT 13 6 8 15 1 22 1 23 1 24 18 29 77 48 45 59
REMARK Flexibility Score: inf
ROOT
ATOM      1  C   UNL A   1      31.412  30.862  25.741  1.00  0.00     0.023 C 
ENDROOT
BRANCH   1   2
ATOM      2  C   UNL A   1      32.632  29.947  25.858  1.00  0.00     0.116 C 
BRANCH   2   3
ATOM      3  N   UNL A   1      33.274  29.780  24.572  1.00  0.00    -0.356 N 
ATOM      4  C   UNL A   1      33.234  28.711  23.735  1.00  0.00     0.222 C 
ATOM      5  O   UNL A   1      34.023  28.670  22.788  1.00  0.00    -0.275 OA
ATOM      6  H   UNL A   1      33.813  30.543  24.262  1.00  0.00     0.163 HD
BRANCH   4   7
ATOM      7  C   UNL A   1      32.253  27.579  23.949  1.00  0.00     0.128 C 
BRANCH   7   8
ATOM      8  C   UNL A   1      31.260  27.286  22.795  1.00  0.00     0.049 C 
ATOM      9  C   UNL A   1      30.455  28.567  22.437  1.00  0.00     0.029 C 
ATOM     10  C   UNL A   1      29.944  26.657  23.288  1.00  0.00     0.029 C 
ATOM     11  C   UNL A   1      29.266  28.028  23.244  1.00  0.00     0.005 C 
BRANCH   8  12
ATOM     12  N   UNL A   1      31.974  26.672  21.647  1.00  0.00    -0.350 N 
ATOM     13  C   UNL A   1      32.656  25.534  21.351  1.00  0.00     0.227 C 
ATOM     14  O   UNL A   1      33.083  25.480  20.186  1.00  0.00    -0.274 OA
ATOM     15  H   UNL A   1      31.944  27.267  20.864  1.00  0.00     0.164 HD
BRANCH  13  16
ATOM     16  C   UNL A   1      32.977  24.347  22.265  1.00  0.00     0.107 C 
ATOM     17  C   UNL A   1      33.603  23.823  24.584  1.00  0.00     0.205 C 
ATOM     18  C   UNL A   1      32.203  23.414  24.268  1.00  0.00     0.033 C 
ATOM     19  C   UNL A   1      34.049  24.606  23.333  1.00  0.00     0.087 C 
ATOM     20  C   UNL A   1      31.862  23.693  23.006  1.00  0.00    -0.012 C 
BRANCH  17  21
ATOM     21  N   UNL A   1      33.653  24.629  25.791  1.00  0.00    -0.352 N 
ATOM     22  H   UNL A   1      32.905  25.320  25.770  1.00  0.00     0.345 HD
ATOM     23  H   UNL A   1      34.555  25.105  25.844  1.00  0.00     0.345 HD
ATOM     24  H   UNL A   1      33.538  24.027  26.606  1.00  0.00     0.345 HD
ENDBRANCH  17  21
ENDBRANCH  13  16
ENDBRANCH   8  12
ENDBRANCH   7   8
ENDBRANCH   4   7
ENDBRANCH   2   3
ENDBRANCH   1   2
BRANCH   1  25
ATOM     25  C   UNL A   1      31.354  31.982  26.780  1.00  0.00     0.023 C 
BRANCH  25  26
ATOM     26  C   UNL A   1      32.618  32.832  26.869  1.00  0.00     0.116 C 
BRANCH  26  27
ATOM     27  N   UNL A   1      32.440  34.057  27.633  1.00  0.00    -0.352 N 
ATOM     28  C   UNL A   1      33.203  34.519  28.682  1.00  0.00     0.251 C 
ATOM     29  H   UNL A   1      31.682  34.625  27.367  1.00  0.00     0.163 HD
ATOM     30  O   UNL A   1      32.863  35.530  29.292  1.00  0.00    -0.269 OA
BRANCH  28  31
ATOM     31  C   UNL A   1      34.396  33.752  29.096  1.00  0.00     0.039 A 
ATOM     32  C   UNL A   1      35.661  34.266  28.806  1.00  0.00     0.014 A 
ATOM     33  C   UNL A   1      34.263  32.568  29.826  1.00  0.00     0.014 A 
ATOM     34  C   UNL A   1      36.795  33.634  29.322  1.00  0.00     0.010 A 
ATOM     35  C   UNL A   1      35.388  31.982  30.397  1.00  0.00     0.010 A 
ATOM     36  C   UNL A   1      36.665  32.515  30.159  1.00  0.00    -0.014 A 
BRANCH  36  37
ATOM     37  C   UNL A   1      37.848  31.894  30.810  1.00  0.00     0.031 A 
ATOM     38  C   UNL A   1      38.653  30.858  30.073  1.00  0.00     0.074 A 
ATOM     39  C   UNL A   1      38.142  32.203  32.089  1.00  0.00     0.049 A 
ATOM     40  N   UNL A   1      39.656  30.134  30.498  1.00  0.00    -0.248 NA
ATOM     41  C   UNL A   1      38.254  30.578  28.685  1.00  0.00     0.031 C 
ATOM     42  C   UNL A   1      37.404  33.156  32.921  1.00  0.00     0.029 A 
ATOM     43  N   UNL A   1      39.132  31.740  32.919  1.00  0.00    -0.354 N 
ATOM     44  C   UNL A   1      39.992  29.295  29.441  1.00  0.00     0.074 A 
ATOM     45  C   UNL A   1      39.056  29.570  28.372  1.00  0.00     0.031 C 
ATOM     46  C   UNL A   1      37.980  33.224  34.132  1.00  0.00     0.029 A 
ATOM     47  C   UNL A   1      39.099  32.289  34.182  1.00  0.00     0.049 A 
ATOM     48  H   UNL A   1      39.803  31.077  32.639  1.00  0.00     0.167 HD
ATOM     49  C   UNL A   1      41.002  28.394  29.365  1.00  0.00     0.034 A 
ATOM     50  C   UNL A   1      39.876  32.055  35.258  1.00  0.00     0.034 A 
ATOM     51  C   UNL A   1      41.949  28.159  30.426  1.00  0.00     0.049 A 
ATOM     52  C   UNL A   1      40.994  31.048  35.143  1.00  0.00     0.074 A 
ATOM     53  C   UNL A   1      43.060  27.334  30.421  1.00  0.00     0.029 A 
ATOM     54  N   UNL A   1      41.896  28.745  31.684  1.00  0.00    -0.354 N 
ATOM     55  N   UNL A   1      41.341  30.313  34.111  1.00  0.00    -0.248 NA
ATOM     56  C   UNL A   1      41.829  30.845  36.334  1.00  0.00     0.031 C 
ATOM     57  C   UNL A   1      43.643  27.375  31.693  1.00  0.00     0.029 A 
ATOM     58  C   UNL A   1      42.936  28.276  32.471  1.00  0.00     0.049 A 
ATOM     59  H   UNL A   1      41.218  29.398  31.974  1.00  0.00     0.167 HD
ATOM     60  C   UNL A   1      42.458  29.591  34.521  1.00  0.00     0.074 A 
ATOM     61  C   UNL A   1      42.732  29.986  35.886  1.00  0.00     0.031 C 
ATOM     62  C   UNL A   1      43.194  28.683  33.831  1.00  0.00     0.034 A 
BRANCH  49  63
ATOM     63  C   UNL A   1      41.118  27.579  28.101  1.00  0.00     0.023 A 
ATOM     64  C   UNL A   1      40.714  26.234  28.047  1.00  0.00     0.031 A 
ATOM     65  C   UNL A   1      41.644  28.157  26.932  1.00  0.00     0.131 A 
ATOM     66  C   UNL A   1      40.900  25.494  26.870  1.00  0.00     0.055 A 
ATOM     67  C   UNL A   1      41.759  27.436  25.742  1.00  0.00     0.041 A 
ATOM     68  F   UNL A   1      42.064  29.432  26.931  1.00  0.00    -0.206 F 
ATOM     69  C   UNL A   1      41.396  26.092  25.710  1.00  0.00     0.022 A 
BRANCH  66  70
ATOM     70  S   UNL A   1      40.592  23.708  26.910  1.00  0.00     0.124 S 
ATOM     71  O   UNL A   1      39.216  23.635  26.425  1.00  0.00    -0.237 OA
ATOM     72  O   UNL A   1      41.615  23.189  26.008  1.00  0.00    -0.237 OA
ATOM     73  O   UNL A   1      40.769  23.361  28.319  1.00  0.00    -0.744 OA
ENDBRANCH  66  70
ENDBRANCH  49  63
BRANCH  50  74
ATOM     74  C   UNL A   1      39.636  32.770  36.545  1.00  0.00     0.023 A 
ATOM     75  C   UNL A   1      38.713  32.275  37.480  1.00  0.00     0.031 A 
ATOM     76  C   UNL A   1      40.269  33.994  36.828  1.00  0.00     0.131 A 
ATOM     77  C   UNL A   1      38.403  33.027  38.624  1.00  0.00     0.055 A 
ATOM     78  C   UNL A   1      39.998  34.711  37.995  1.00  0.00     0.041 A 
ATOM     79  F   UNL A   1      41.164  34.510  35.971  1.00  0.00    -0.206 F 
ATOM     80  C   UNL A   1      39.047  34.236  38.894  1.00  0.00     0.022 A 
BRANCH  77  81
ATOM     81  S   UNL A   1      37.062  32.451  39.701  1.00  0.00     0.124 S 
ATOM     82  O   UNL A   1      37.146  33.396  40.810  1.00  0.00    -0.237 OA
ATOM     83  O   UNL A   1      35.898  32.586  38.832  1.00  0.00    -0.237 OA
ATOM     84  O   UNL A   1      37.446  31.078  40.020  1.00  0.00    -0.744 OA
ENDBRANCH  77  81
ENDBRANCH  50  74
BRANCH  62  85
ATOM     85  C   UNL A   1      44.397  28.104  34.533  1.00  0.00     0.023 A 
ATOM     86  C   UNL A   1      45.672  28.678  34.408  1.00  0.00     0.031 A 
ATOM     87  C   UNL A   1      44.261  26.950  35.326  1.00  0.00     0.131 A 
ATOM     88  C   UNL A   1      46.775  28.065  35.021  1.00  0.00     0.055 A 
ATOM     89  C   UNL A   1      45.352  26.379  35.981  1.00  0.00     0.041 A 
ATOM     90  F   UNL A   1      43.064  26.362  35.478  1.00  0.00    -0.206 F 
ATOM     91  C   UNL A   1      46.621  26.929  35.820  1.00  0.00     0.022 A 
BRANCH  88  92
ATOM     92  S   UNL A   1      48.431  28.728  34.695  1.00  0.00     0.124 S 
ATOM     93  O   UNL A   1      49.279  27.812  35.452  1.00  0.00    -0.237 OA
ATOM     94  O   UNL A   1      48.527  28.630  33.242  1.00  0.00    -0.237 OA
ATOM     95  O   UNL A   1      48.366  30.090  35.220  1.00  0.00    -0.744 OA
ENDBRANCH  88  92
ENDBRANCH  62  85
ENDBRANCH  36  37
ENDBRANCH  28  31
ENDBRANCH  26  27
ENDBRANCH  25  26
ENDBRANCH   1  25
TORSDOF 18
ENDMDL
