MODEL 1
REMARK VINA RESULT:     -12.6      0.000      0.000
REMARK SMILES CC[C@@](C)(NC(=O)c1sc2cc(F)ccc2c1Cl)C(=O)NCCCCNC(=O)c1ccc(-c2c3nc(c(-c4cc(S(=O)(=O)[O-])ccc4F)c4ccc([nH]4)c(-c4cc(S(=O)(=O)[O-])ccc4F)c4nc(c(-c5cc(S(=O)(=O)[O-])ccc5F)c5ccc2[nH]5)C=C4)C=C3)cc1
REMARK SMILES IDX 24 1 23 2 22 3 21 4 19 5 20 6 3 8 4 9 2 10 1 11 5 12 6 13
REMARK SMILES IDX 7 15 8 16 9 17 17 18 10 19 16 20 18 21 11 22 15 23 12 24
REMARK SMILES IDX 14 25 13 26 25 27 26 28 27 29 28 31 29 32 30 33 91 34 31 35
REMARK SMILES IDX 90 36 32 37 33 38 34 39 84 40 35 41 89 42 83 43 85 44 36 45
REMARK SMILES IDX 88 46 82 47 81 48 37 50 69 51 49 52 68 53 50 54 53 55 67 56
REMARK SMILES IDX 86 57 51 58 52 59 66 61 87 62 54 63 38 64 39 65 47 66 40 67
REMARK SMILES IDX 46 68 48 69 45 70 41 71 42 72 43 73 44 74 70 75 71 76 79 77
REMARK SMILES IDX 72 78 78 79 80 80 77 81 73 82 74 83 75 84 76 85 55 86 56 87
REMARK SMILES IDX 64 88 57 89 63 90 65 91 62 92 58 93 59 94 60 95 61 96
REMARK H PARENT 21 7 5 14 26 30 85 49 53 60
REMARK Flexibility Score: inf
ROOT
ATOM      1  C   UNL A   1      32.282  29.743  27.128  1.00  0.00     0.023 C 
ENDROOT
BRANCH   1   2
ATOM      2  C   UNL A   1      31.676  28.361  27.412  1.00  0.00     0.023 C 
BRANCH   2   3
ATOM      3  C   UNL A   1      31.944  27.133  26.521  1.00  0.00     0.116 C 
BRANCH   3   4
ATOM      4  N   UNL A   1      30.946  26.655  25.566  1.00  0.00    -0.354 N 
ATOM      5  C   UNL A   1      30.893  26.536  24.190  1.00  0.00     0.245 C 
ATOM      6  O   UNL A   1      30.096  25.716  23.721  1.00  0.00    -0.272 OA
ATOM      7  H   UNL A   1      30.121  26.345  26.005  1.00  0.00     0.163 HD
BRANCH   5   8
ATOM      8  C   UNL A   1      31.888  27.262  23.280  1.00  0.00     0.116 C 
ATOM      9  C   UNL A   1      31.092  28.524  22.844  1.00  0.00     0.045 C 
BRANCH   8  10
ATOM     10  C   UNL A   1      33.244  27.766  23.850  1.00  0.00     0.035 C 
ATOM     11  C   UNL A   1      33.634  29.221  23.642  1.00  0.00     0.007 C 
ENDBRANCH   8  10
BRANCH   8  12
ATOM     12  N   UNL A   1      32.198  26.392  22.141  1.00  0.00    -0.337 N 
ATOM     13  C   UNL A   1      32.919  25.228  21.961  1.00  0.00     0.263 C 
ATOM     14  H   UNL A   1      31.795  26.715  21.303  1.00  0.00     0.164 HD
ATOM     15  O   UNL A   1      33.242  25.149  20.763  1.00  0.00    -0.268 OA
BRANCH  13  16
ATOM     16  C   UNL A   1      33.293  24.149  22.910  1.00  0.00     0.112 A 
ATOM     17  S   UNL A   1      32.703  22.583  22.363  1.00  0.00    -0.128 S 
ATOM     18  C   UNL A   1      33.870  23.945  24.166  1.00  0.00     0.072 A 
ATOM     19  C   UNL A   1      32.978  21.792  23.848  1.00  0.00     0.040 A 
ATOM     20  C   UNL A   1      33.664  22.615  24.724  1.00  0.00     0.012 A 
ATOM     21  Cl  UNL A   1      34.643  24.990  25.279  1.00  0.00    -0.082 Cl
ATOM     22  C   UNL A   1      32.603  20.483  24.208  1.00  0.00     0.059 A 
ATOM     23  C   UNL A   1      34.004  22.084  26.009  1.00  0.00     0.014 A 
ATOM     24  C   UNL A   1      32.941  20.013  25.475  1.00  0.00     0.124 A 
ATOM     25  C   UNL A   1      33.638  20.792  26.375  1.00  0.00     0.040 A 
ATOM     26  F   UNL A   1      32.589  18.772  25.832  1.00  0.00    -0.207 F 
ENDBRANCH  13  16
ENDBRANCH   8  12
ENDBRANCH   5   8
ENDBRANCH   3   4
ENDBRANCH   2   3
ENDBRANCH   1   2
BRANCH   1  27
ATOM     27  C   UNL A   1      33.785  29.900  27.280  1.00  0.00     0.116 C 
BRANCH  27  28
ATOM     28  N   UNL A   1      34.219  31.266  27.464  1.00  0.00    -0.352 N 
ATOM     29  C   UNL A   1      35.399  31.880  27.784  1.00  0.00     0.251 C 
ATOM     30  H   UNL A   1      33.489  31.911  27.325  1.00  0.00     0.163 HD
ATOM     31  O   UNL A   1      35.394  33.108  27.648  1.00  0.00    -0.269 OA
BRANCH  29  32
ATOM     32  C   UNL A   1      36.622  31.221  28.328  1.00  0.00     0.039 A 
ATOM     33  C   UNL A   1      37.639  31.831  29.064  1.00  0.00     0.014 A 
ATOM     34  C   UNL A   1      36.762  29.856  28.000  1.00  0.00     0.014 A 
ATOM     35  C   UNL A   1      38.806  31.127  29.370  1.00  0.00     0.010 A 
ATOM     36  C   UNL A   1      37.918  29.149  28.311  1.00  0.00     0.010 A 
ATOM     37  C   UNL A   1      38.968  29.805  28.944  1.00  0.00    -0.014 A 
BRANCH  37  38
ATOM     38  C   UNL A   1      40.238  29.129  29.209  1.00  0.00     0.031 A 
ATOM     39  C   UNL A   1      40.499  28.752  30.628  1.00  0.00     0.074 A 
ATOM     40  C   UNL A   1      41.072  28.731  28.224  1.00  0.00     0.049 A 
ATOM     41  N   UNL A   1      41.474  29.122  31.396  1.00  0.00    -0.248 NA
ATOM     42  C   UNL A   1      39.490  27.926  31.304  1.00  0.00     0.031 C 
ATOM     43  C   UNL A   1      40.814  28.718  26.781  1.00  0.00     0.029 A 
ATOM     44  N   UNL A   1      42.289  28.125  28.322  1.00  0.00    -0.354 N 
ATOM     45  C   UNL A   1      41.297  28.447  32.607  1.00  0.00     0.074 A 
ATOM     46  C   UNL A   1      39.990  27.841  32.537  1.00  0.00     0.031 C 
ATOM     47  C   UNL A   1      41.712  27.907  26.179  1.00  0.00     0.029 A 
ATOM     48  C   UNL A   1      42.683  27.465  27.168  1.00  0.00     0.049 A 
ATOM     49  H   UNL A   1      42.838  28.154  29.137  1.00  0.00     0.167 HD
ATOM     50  C   UNL A   1      42.305  28.293  33.517  1.00  0.00     0.034 A 
ATOM     51  C   UNL A   1      43.658  26.527  27.058  1.00  0.00     0.034 A 
ATOM     52  C   UNL A   1      43.400  29.180  33.244  1.00  0.00     0.049 A 
ATOM     53  C   UNL A   1      44.551  26.644  28.238  1.00  0.00     0.074 A 
ATOM     54  C   UNL A   1      43.544  30.552  33.195  1.00  0.00     0.029 A 
ATOM     55  N   UNL A   1      44.513  28.666  32.622  1.00  0.00    -0.354 N 
ATOM     56  N   UNL A   1      45.353  27.651  28.455  1.00  0.00    -0.248 NA
ATOM     57  C   UNL A   1      44.217  25.848  29.410  1.00  0.00     0.031 C 
ATOM     58  C   UNL A   1      44.446  30.786  32.120  1.00  0.00     0.029 A 
ATOM     59  C   UNL A   1      44.847  29.543  31.622  1.00  0.00     0.049 A 
ATOM     60  H   UNL A   1      44.979  27.830  32.849  1.00  0.00     0.167 HD
ATOM     61  C   UNL A   1      45.242  27.893  29.816  1.00  0.00     0.074 A 
ATOM     62  C   UNL A   1      44.613  26.692  30.367  1.00  0.00     0.031 C 
ATOM     63  C   UNL A   1      45.395  29.145  30.341  1.00  0.00     0.034 A 
BRANCH  50  64
ATOM     64  C   UNL A   1      42.425  27.138  34.486  1.00  0.00     0.023 A 
ATOM     65  C   UNL A   1      43.206  25.999  34.219  1.00  0.00     0.031 A 
ATOM     66  C   UNL A   1      41.940  27.251  35.807  1.00  0.00     0.131 A 
ATOM     67  C   UNL A   1      43.471  25.038  35.205  1.00  0.00     0.055 A 
ATOM     68  C   UNL A   1      42.261  26.327  36.812  1.00  0.00     0.041 A 
ATOM     69  F   UNL A   1      41.188  28.297  36.183  1.00  0.00    -0.206 F 
ATOM     70  C   UNL A   1      43.032  25.211  36.512  1.00  0.00     0.022 A 
BRANCH  67  71
ATOM     71  S   UNL A   1      44.409  23.544  34.788  1.00  0.00     0.124 S 
ATOM     72  O   UNL A   1      43.462  22.829  33.929  1.00  0.00    -0.237 OA
ATOM     73  O   UNL A   1      45.573  24.108  34.102  1.00  0.00    -0.237 OA
ATOM     74  O   UNL A   1      44.683  22.938  36.076  1.00  0.00    -0.744 OA
ENDBRANCH  67  71
ENDBRANCH  50  64
BRANCH  51  75
ATOM     75  C   UNL A   1      43.531  25.264  26.288  1.00  0.00     0.023 A 
ATOM     76  C   UNL A   1      42.626  24.273  26.718  1.00  0.00     0.031 A 
ATOM     77  C   UNL A   1      44.470  24.891  25.313  1.00  0.00     0.131 A 
ATOM     78  C   UNL A   1      42.689  22.969  26.216  1.00  0.00     0.055 A 
ATOM     79  C   UNL A   1      44.526  23.586  24.799  1.00  0.00     0.041 A 
ATOM     80  F   UNL A   1      45.391  25.767  24.884  1.00  0.00    -0.206 F 
ATOM     81  C   UNL A   1      43.639  22.616  25.258  1.00  0.00     0.022 A 
BRANCH  78  82
ATOM     82  S   UNL A   1      41.569  21.695  26.856  1.00  0.00     0.124 S 
ATOM     83  O   UNL A   1      42.350  20.474  26.673  1.00  0.00    -0.237 OA
ATOM     84  O   UNL A   1      41.389  22.125  28.239  1.00  0.00    -0.237 OA
ATOM     85  O   UNL A   1      40.394  21.809  25.997  1.00  0.00    -0.744 OA
ENDBRANCH  78  82
ENDBRANCH  51  75
BRANCH  63  86
ATOM     86  C   UNL A   1      45.896  30.274  29.464  1.00  0.00     0.023 A 
ATOM     87  C   UNL A   1      44.962  30.887  28.608  1.00  0.00     0.031 A 
ATOM     88  C   UNL A   1      47.256  30.572  29.253  1.00  0.00     0.131 A 
ATOM     89  C   UNL A   1      45.391  31.709  27.559  1.00  0.00     0.055 A 
ATOM     90  C   UNL A   1      47.675  31.453  28.251  1.00  0.00     0.041 A 
ATOM     91  F   UNL A   1      48.227  29.953  29.937  1.00  0.00    -0.206 F 
ATOM     92  C   UNL A   1      46.743  32.010  27.384  1.00  0.00     0.022 A 
BRANCH  89  93
ATOM     93  S   UNL A   1      44.220  32.261  26.291  1.00  0.00     0.124 S 
ATOM     94  O   UNL A   1      43.407  31.066  26.083  1.00  0.00    -0.237 OA
ATOM     95  O   UNL A   1      43.542  33.371  26.957  1.00  0.00    -0.237 OA
ATOM     96  O   UNL A   1      45.069  32.644  25.167  1.00  0.00    -0.744 OA
ENDBRANCH  89  93
ENDBRANCH  63  86
ENDBRANCH  37  38
ENDBRANCH  29  32
ENDBRANCH  27  28
ENDBRANCH   1  27
TORSDOF 17
ENDMDL
MODEL 2
REMARK VINA RESULT:     -12.4      3.465      8.848
REMARK SMILES CC[C@@](C)(NC(=O)c1sc2cc(F)ccc2c1Cl)C(=O)NCCCCNC(=O)c1ccc(-c2c3nc(c(-c4cc(S(=O)(=O)[O-])ccc4F)c4ccc([nH]4)c(-c4cc(S(=O)(=O)[O-])ccc4F)c4nc(c(-c5cc(S(=O)(=O)[O-])ccc5F)c5ccc2[nH]5)C=C4)C=C3)cc1
REMARK SMILES IDX 24 1 23 2 22 3 21 4 19 5 20 6 3 8 4 9 2 10 1 11 5 12 6 13
REMARK SMILES IDX 7 15 8 16 9 17 17 18 10 19 16 20 18 21 11 22 15 23 12 24
REMARK SMILES IDX 14 25 13 26 25 27 26 28 27 29 28 31 29 32 30 33 91 34 31 35
REMARK SMILES IDX 90 36 32 37 33 38 34 39 84 40 35 41 89 42 83 43 85 44 36 45
REMARK SMILES IDX 88 46 82 47 81 48 37 50 69 51 49 52 68 53 50 54 53 55 67 56
REMARK SMILES IDX 86 57 51 58 52 59 66 61 87 62 54 63 38 64 39 65 47 66 40 67
REMARK SMILES IDX 46 68 48 69 45 70 41 71 42 72 43 73 44 74 70 75 71 76 79 77
REMARK SMILES IDX 72 78 78 79 80 80 77 81 73 82 74 83 75 84 76 85 55 86 56 87
REMARK SMILES IDX 64 88 57 89 63 90 65 91 62 92 58 93 59 94 60 95 61 96
REMARK H PARENT 21 7 5 14 26 30 85 49 53 60
REMARK Flexibility Score: inf
ROOT
ATOM      1  C   UNL A   1      37.061  21.981  24.585  1.00  0.00     0.023 C 
ENDROOT
BRANCH   1   2
ATOM      2  C   UNL A   1      36.541  22.948  23.513  1.00  0.00     0.023 C 
BRANCH   2   3
ATOM      3  C   UNL A   1      35.190  23.679  23.633  1.00  0.00     0.116 C 
BRANCH   3   4
ATOM      4  N   UNL A   1      33.943  23.041  23.215  1.00  0.00    -0.354 N 
ATOM      5  C   UNL A   1      32.856  22.500  23.876  1.00  0.00     0.245 C 
ATOM      6  O   UNL A   1      31.790  22.427  23.253  1.00  0.00    -0.272 OA
ATOM      7  H   UNL A   1      33.856  22.985  22.235  1.00  0.00     0.163 HD
BRANCH   5   8
ATOM      8  C   UNL A   1      32.911  22.155  25.367  1.00  0.00     0.116 C 
ATOM      9  C   UNL A   1      33.013  20.603  25.353  1.00  0.00     0.045 C 
BRANCH   8  10
ATOM     10  C   UNL A   1      34.086  22.670  26.245  1.00  0.00     0.035 C 
ATOM     11  C   UNL A   1      33.962  22.590  27.759  1.00  0.00     0.007 C 
ENDBRANCH   8  10
BRANCH   8  12
ATOM     12  N   UNL A   1      31.670  22.615  25.998  1.00  0.00    -0.337 N 
ATOM     13  C   UNL A   1      31.112  23.844  26.288  1.00  0.00     0.263 C 
ATOM     14  H   UNL A   1      31.096  21.867  26.282  1.00  0.00     0.164 HD
ATOM     15  O   UNL A   1      30.286  23.693  27.205  1.00  0.00    -0.268 OA
BRANCH  13  16
ATOM     16  C   UNL A   1      31.323  25.184  25.685  1.00  0.00     0.112 A 
ATOM     17  S   UNL A   1      29.847  25.793  24.944  1.00  0.00    -0.128 S 
ATOM     18  C   UNL A   1      32.329  26.111  25.398  1.00  0.00     0.072 A 
ATOM     19  C   UNL A   1      30.615  27.053  24.090  1.00  0.00     0.040 A 
ATOM     20  C   UNL A   1      31.945  27.159  24.461  1.00  0.00     0.012 A 
ATOM     21  Cl  UNL A   1      33.992  26.189  25.793  1.00  0.00    -0.082 Cl
ATOM     22  C   UNL A   1      30.046  27.917  23.134  1.00  0.00     0.059 A 
ATOM     23  C   UNL A   1      32.724  28.196  23.857  1.00  0.00     0.014 A 
ATOM     24  C   UNL A   1      30.847  28.902  22.559  1.00  0.00     0.124 A 
ATOM     25  C   UNL A   1      32.172  29.055  22.911  1.00  0.00     0.040 A 
ATOM     26  F   UNL A   1      30.320  29.728  21.648  1.00  0.00    -0.207 F 
ENDBRANCH  13  16
ENDBRANCH   8  12
ENDBRANCH   5   8
ENDBRANCH   3   4
ENDBRANCH   2   3
ENDBRANCH   1   2
BRANCH   1  27
ATOM     27  C   UNL A   1      37.884  22.563  25.723  1.00  0.00     0.116 C 
BRANCH  27  28
ATOM     28  N   UNL A   1      39.214  22.007  25.831  1.00  0.00    -0.352 N 
ATOM     29  C   UNL A   1      40.383  22.385  26.434  1.00  0.00     0.251 C 
ATOM     30  H   UNL A   1      39.300  21.149  25.358  1.00  0.00     0.163 HD
ATOM     31  O   UNL A   1      41.259  21.514  26.451  1.00  0.00    -0.269 OA
BRANCH  29  32
ATOM     32  C   UNL A   1      40.697  23.734  26.989  1.00  0.00     0.039 A 
ATOM     33  C   UNL A   1      41.698  24.041  27.914  1.00  0.00     0.014 A 
ATOM     34  C   UNL A   1      39.845  24.772  26.559  1.00  0.00     0.014 A 
ATOM     35  C   UNL A   1      41.773  25.320  28.470  1.00  0.00     0.010 A 
ATOM     36  C   UNL A   1      39.923  26.049  27.103  1.00  0.00     0.010 A 
ATOM     37  C   UNL A   1      40.851  26.306  28.106  1.00  0.00    -0.014 A 
BRANCH  37  38
ATOM     38  C   UNL A   1      40.910  27.607  28.773  1.00  0.00     0.031 A 
ATOM     39  C   UNL A   1      41.876  28.593  28.208  1.00  0.00     0.074 A 
ATOM     40  C   UNL A   1      40.048  27.965  29.749  1.00  0.00     0.049 A 
ATOM     41  N   UNL A   1      42.881  29.164  28.793  1.00  0.00    -0.248 NA
ATOM     42  C   UNL A   1      41.759  28.912  26.779  1.00  0.00     0.031 C 
ATOM     43  C   UNL A   1      38.839  27.259  30.183  1.00  0.00     0.029 A 
ATOM     44  N   UNL A   1      40.003  29.119  30.473  1.00  0.00    -0.354 N 
ATOM     45  C   UNL A   1      43.430  30.044  27.856  1.00  0.00     0.074 A 
ATOM     46  C   UNL A   1      42.788  29.741  26.602  1.00  0.00     0.031 C 
ATOM     47  C   UNL A   1      38.059  28.108  30.888  1.00  0.00     0.029 A 
ATOM     48  C   UNL A   1      38.775  29.361  31.071  1.00  0.00     0.049 A 
ATOM     49  H   UNL A   1      40.773  29.725  30.564  1.00  0.00     0.167 HD
ATOM     50  C   UNL A   1      44.255  31.075  28.211  1.00  0.00     0.034 A 
ATOM     51  C   UNL A   1      38.331  30.542  31.570  1.00  0.00     0.034 A 
ATOM     52  C   UNL A   1      44.746  30.919  29.551  1.00  0.00     0.049 A 
ATOM     53  C   UNL A   1      39.504  31.419  31.809  1.00  0.00     0.074 A 
ATOM     54  C   UNL A   1      45.517  29.972  30.194  1.00  0.00     0.029 A 
ATOM     55  N   UNL A   1      44.158  31.660  30.549  1.00  0.00    -0.354 N 
ATOM     56  N   UNL A   1      40.401  31.208  32.734  1.00  0.00    -0.248 NA
ATOM     57  C   UNL A   1      39.925  32.285  30.718  1.00  0.00     0.031 C 
ATOM     58  C   UNL A   1      44.957  29.869  31.498  1.00  0.00     0.029 A 
ATOM     59  C   UNL A   1      43.922  30.803  31.592  1.00  0.00     0.049 A 
ATOM     60  H   UNL A   1      43.947  32.621  30.519  1.00  0.00     0.167 HD
ATOM     61  C   UNL A   1      41.607  31.511  32.121  1.00  0.00     0.074 A 
ATOM     62  C   UNL A   1      41.245  32.265  30.920  1.00  0.00     0.031 C 
ATOM     63  C   UNL A   1      42.771  30.886  32.468  1.00  0.00     0.034 A 
BRANCH  50  64
ATOM     64  C   UNL A   1      44.391  32.375  27.449  1.00  0.00     0.023 A 
ATOM     65  C   UNL A   1      43.694  33.543  27.807  1.00  0.00     0.031 A 
ATOM     66  C   UNL A   1      45.401  32.538  26.478  1.00  0.00     0.131 A 
ATOM     67  C   UNL A   1      43.985  34.783  27.222  1.00  0.00     0.055 A 
ATOM     68  C   UNL A   1      45.740  33.790  25.943  1.00  0.00     0.041 A 
ATOM     69  F   UNL A   1      46.138  31.497  26.059  1.00  0.00    -0.206 F 
ATOM     70  C   UNL A   1      45.029  34.922  26.315  1.00  0.00     0.022 A 
BRANCH  67  71
ATOM     71  S   UNL A   1      43.000  36.243  27.654  1.00  0.00     0.124 S 
ATOM     72  O   UNL A   1      41.657  35.826  27.245  1.00  0.00    -0.237 OA
ATOM     73  O   UNL A   1      43.215  36.328  29.099  1.00  0.00    -0.237 OA
ATOM     74  O   UNL A   1      43.602  37.308  26.875  1.00  0.00    -0.744 OA
ENDBRANCH  67  71
ENDBRANCH  50  64
BRANCH  51  75
ATOM     75  C   UNL A   1      36.968  31.092  31.349  1.00  0.00     0.023 A 
ATOM     76  C   UNL A   1      36.511  31.314  30.035  1.00  0.00     0.031 A 
ATOM     77  C   UNL A   1      36.221  31.665  32.391  1.00  0.00     0.131 A 
ATOM     78  C   UNL A   1      35.380  32.099  29.786  1.00  0.00     0.055 A 
ATOM     79  C   UNL A   1      35.080  32.442  32.143  1.00  0.00     0.041 A 
ATOM     80  F   UNL A   1      36.618  31.533  33.666  1.00  0.00    -0.206 F 
ATOM     81  C   UNL A   1      34.661  32.670  30.835  1.00  0.00     0.022 A 
BRANCH  78  82
ATOM     82  S   UNL A   1      34.870  32.439  28.080  1.00  0.00     0.124 S 
ATOM     83  O   UNL A   1      35.934  33.323  27.608  1.00  0.00    -0.237 OA
ATOM     84  O   UNL A   1      34.859  31.101  27.500  1.00  0.00    -0.237 OA
ATOM     85  O   UNL A   1      33.565  33.076  28.234  1.00  0.00    -0.744 OA
ENDBRANCH  78  82
ENDBRANCH  51  75
BRANCH  63  86
ATOM     86  C   UNL A   1      42.808  29.985  33.685  1.00  0.00     0.023 A 
ATOM     87  C   UNL A   1      43.479  30.469  34.824  1.00  0.00     0.031 A 
ATOM     88  C   UNL A   1      42.460  28.621  33.675  1.00  0.00     0.131 A 
ATOM     89  C   UNL A   1      43.829  29.602  35.866  1.00  0.00     0.055 A 
ATOM     90  C   UNL A   1      42.745  27.773  34.750  1.00  0.00     0.041 A 
ATOM     91  F   UNL A   1      41.925  28.039  32.594  1.00  0.00    -0.206 F 
ATOM     92  C   UNL A   1      43.451  28.258  35.845  1.00  0.00     0.022 A 
BRANCH  89  93
ATOM     93  S   UNL A   1      44.936  30.159  37.187  1.00  0.00     0.124 S 
ATOM     94  O   UNL A   1      44.389  29.474  38.356  1.00  0.00    -0.237 OA
ATOM     95  O   UNL A   1      46.236  29.672  36.729  1.00  0.00    -0.237 OA
ATOM     96  O   UNL A   1      44.787  31.611  37.187  1.00  0.00    -0.744 OA
ENDBRANCH  89  93
ENDBRANCH  63  86
ENDBRANCH  37  38
ENDBRANCH  29  32
ENDBRANCH  27  28
ENDBRANCH   1  27
TORSDOF 17
ENDMDL
MODEL 3
REMARK VINA RESULT:     -12.3      1.790      2.217
REMARK SMILES CC[C@@](C)(NC(=O)c1sc2cc(F)ccc2c1Cl)C(=O)NCCCCNC(=O)c1ccc(-c2c3nc(c(-c4cc(S(=O)(=O)[O-])ccc4F)c4ccc([nH]4)c(-c4cc(S(=O)(=O)[O-])ccc4F)c4nc(c(-c5cc(S(=O)(=O)[O-])ccc5F)c5ccc2[nH]5)C=C4)C=C3)cc1
REMARK SMILES IDX 24 1 23 2 22 3 21 4 19 5 20 6 3 8 4 9 2 10 1 11 5 12 6 13
REMARK SMILES IDX 7 15 8 16 9 17 17 18 10 19 16 20 18 21 11 22 15 23 12 24
REMARK SMILES IDX 14 25 13 26 25 27 26 28 27 29 28 31 29 32 30 33 91 34 31 35
REMARK SMILES IDX 90 36 32 37 33 38 34 39 84 40 35 41 89 42 83 43 85 44 36 45
REMARK SMILES IDX 88 46 82 47 81 48 37 50 69 51 49 52 68 53 50 54 53 55 67 56
REMARK SMILES IDX 86 57 51 58 52 59 66 61 87 62 54 63 38 64 39 65 47 66 40 67
REMARK SMILES IDX 46 68 48 69 45 70 41 71 42 72 43 73 44 74 70 75 71 76 79 77
REMARK SMILES IDX 72 78 78 79 80 80 77 81 73 82 74 83 75 84 76 85 55 86 56 87
REMARK SMILES IDX 64 88 57 89 63 90 65 91 62 92 58 93 59 94 60 95 61 96
REMARK H PARENT 21 7 5 14 26 30 85 49 53 60
REMARK Flexibility Score: inf
ROOT
ATOM      1  C   UNL A   1      31.888  29.782  26.979  1.00  0.00     0.023 C 
ENDROOT
BRANCH   1   2
ATOM      2  C   UNL A   1      31.579  29.986  25.490  1.00  0.00     0.023 C 
BRANCH   2   3
ATOM      3  C   UNL A   1      31.613  28.836  24.464  1.00  0.00     0.116 C 
BRANCH   3   4
ATOM      4  N   UNL A   1      30.410  28.076  24.136  1.00  0.00    -0.354 N 
ATOM      5  C   UNL A   1      30.089  26.732  24.089  1.00  0.00     0.245 C 
ATOM      6  O   UNL A   1      28.894  26.429  24.190  1.00  0.00    -0.272 OA
ATOM      7  H   UNL A   1      29.651  28.654  23.892  1.00  0.00     0.163 HD
BRANCH   5   8
ATOM      8  C   UNL A   1      31.169  25.646  24.081  1.00  0.00     0.116 C 
ATOM      9  C   UNL A   1      30.498  24.506  23.265  1.00  0.00     0.045 C 
BRANCH   8  10
ATOM     10  C   UNL A   1      32.547  25.920  23.415  1.00  0.00     0.035 C 
ATOM     11  C   UNL A   1      32.675  25.777  21.906  1.00  0.00     0.007 C 
ENDBRANCH   8  10
BRANCH   8  12
ATOM     12  N   UNL A   1      31.434  25.243  25.466  1.00  0.00    -0.337 N 
ATOM     13  C   UNL A   1      32.004  24.143  26.077  1.00  0.00     0.263 C 
ATOM     14  H   UNL A   1      31.135  25.918  26.116  1.00  0.00     0.164 HD
ATOM     15  O   UNL A   1      31.590  24.087  27.248  1.00  0.00    -0.268 OA
BRANCH  13  16
ATOM     16  C   UNL A   1      32.976  23.138  25.577  1.00  0.00     0.112 A 
ATOM     17  S   UNL A   1      32.164  21.667  25.052  1.00  0.00    -0.128 S 
ATOM     18  C   UNL A   1      34.349  22.899  25.470  1.00  0.00     0.072 A 
ATOM     19  C   UNL A   1      33.587  20.732  24.967  1.00  0.00     0.040 A 
ATOM     20  C   UNL A   1      34.707  21.522  25.159  1.00  0.00     0.012 A 
ATOM     21  Cl  UNL A   1      35.729  23.858  25.792  1.00  0.00    -0.082 Cl
ATOM     22  C   UNL A   1      33.693  19.348  24.728  1.00  0.00     0.059 A 
ATOM     23  C   UNL A   1      35.988  20.890  25.083  1.00  0.00     0.014 A 
ATOM     24  C   UNL A   1      34.961  18.771  24.679  1.00  0.00     0.124 A 
ATOM     25  C   UNL A   1      36.105  19.523  24.848  1.00  0.00     0.040 A 
ATOM     26  F   UNL A   1      35.078  17.457  24.454  1.00  0.00    -0.207 F 
ENDBRANCH  13  16
ENDBRANCH   8  12
ENDBRANCH   5   8
ENDBRANCH   3   4
ENDBRANCH   2   3
ENDBRANCH   1   2
BRANCH   1  27
ATOM     27  C   UNL A   1      33.331  29.936  27.430  1.00  0.00     0.116 C 
BRANCH  27  28
ATOM     28  N   UNL A   1      33.773  31.308  27.527  1.00  0.00    -0.352 N 
ATOM     29  C   UNL A   1      34.966  31.934  27.767  1.00  0.00     0.251 C 
ATOM     30  H   UNL A   1      33.039  31.948  27.386  1.00  0.00     0.163 HD
ATOM     31  O   UNL A   1      34.957  33.153  27.570  1.00  0.00    -0.269 OA
BRANCH  29  32
ATOM     32  C   UNL A   1      36.210  31.299  28.292  1.00  0.00     0.039 A 
ATOM     33  C   UNL A   1      37.243  31.936  28.981  1.00  0.00     0.014 A 
ATOM     34  C   UNL A   1      36.351  29.926  27.997  1.00  0.00     0.014 A 
ATOM     35  C   UNL A   1      38.425  31.249  29.270  1.00  0.00     0.010 A 
ATOM     36  C   UNL A   1      37.522  29.237  28.293  1.00  0.00     0.010 A 
ATOM     37  C   UNL A   1      38.584  29.917  28.877  1.00  0.00    -0.014 A 
BRANCH  37  38
ATOM     38  C   UNL A   1      39.867  29.258  29.122  1.00  0.00     0.031 A 
ATOM     39  C   UNL A   1      40.182  28.940  30.545  1.00  0.00     0.074 A 
ATOM     40  C   UNL A   1      40.666  28.823  28.124  1.00  0.00     0.049 A 
ATOM     41  N   UNL A   1      41.182  29.345  31.261  1.00  0.00    -0.248 NA
ATOM     42  C   UNL A   1      39.202  28.139  31.291  1.00  0.00     0.031 C 
ATOM     43  C   UNL A   1      40.356  28.749  26.693  1.00  0.00     0.029 A 
ATOM     44  N   UNL A   1      41.889  28.227  28.202  1.00  0.00    -0.354 N 
ATOM     45  C   UNL A   1      41.053  28.720  32.504  1.00  0.00     0.074 A 
ATOM     46  C   UNL A   1      39.749  28.107  32.507  1.00  0.00     0.031 C 
ATOM     47  C   UNL A   1      41.236  27.918  26.092  1.00  0.00     0.029 A 
ATOM     48  C   UNL A   1      42.245  27.521  27.062  1.00  0.00     0.049 A 
ATOM     49  H   UNL A   1      42.468  28.291  28.995  1.00  0.00     0.167 HD
ATOM     50  C   UNL A   1      42.094  28.608  33.382  1.00  0.00     0.034 A 
ATOM     51  C   UNL A   1      43.220  26.584  26.955  1.00  0.00     0.034 A 
ATOM     52  C   UNL A   1      43.174  29.487  33.033  1.00  0.00     0.049 A 
ATOM     53  C   UNL A   1      44.156  26.752  28.096  1.00  0.00     0.074 A 
ATOM     54  C   UNL A   1      43.309  30.857  32.922  1.00  0.00     0.029 A 
ATOM     55  N   UNL A   1      44.266  28.953  32.391  1.00  0.00    -0.354 N 
ATOM     56  N   UNL A   1      44.959  27.770  28.242  1.00  0.00    -0.248 NA
ATOM     57  C   UNL A   1      43.869  26.004  29.311  1.00  0.00     0.031 C 
ATOM     58  C   UNL A   1      44.170  31.049  31.806  1.00  0.00     0.029 A 
ATOM     59  C   UNL A   1      44.558  29.789  31.345  1.00  0.00     0.049 A 
ATOM     60  H   UNL A   1      44.745  28.129  32.635  1.00  0.00     0.167 HD
ATOM     61  C   UNL A   1      44.897  28.068  29.595  1.00  0.00     0.074 A 
ATOM     62  C   UNL A   1      44.295  26.888  30.217  1.00  0.00     0.031 C 
ATOM     63  C   UNL A   1      45.062  29.341  30.062  1.00  0.00     0.034 A 
BRANCH  50  64
ATOM     64  C   UNL A   1      42.257  27.494  34.392  1.00  0.00     0.023 A 
ATOM     65  C   UNL A   1      43.019  26.339  34.137  1.00  0.00     0.031 A 
ATOM     66  C   UNL A   1      41.837  27.666  35.729  1.00  0.00     0.131 A 
ATOM     67  C   UNL A   1      43.327  25.420  35.149  1.00  0.00     0.055 A 
ATOM     68  C   UNL A   1      42.202  26.783  36.755  1.00  0.00     0.041 A 
ATOM     69  F   UNL A   1      41.108  28.732  36.096  1.00  0.00    -0.206 F 
ATOM     70  C   UNL A   1      42.952  25.651  36.467  1.00  0.00     0.022 A 
BRANCH  67  71
ATOM     71  S   UNL A   1      44.238  23.903  34.751  1.00  0.00     0.124 S 
ATOM     72  O   UNL A   1      45.048  24.334  33.610  1.00  0.00    -0.237 OA
ATOM     73  O   UNL A   1      44.980  23.670  35.992  1.00  0.00    -0.237 OA
ATOM     74  O   UNL A   1      43.194  22.939  34.464  1.00  0.00    -0.744 OA
ENDBRANCH  67  71
ENDBRANCH  50  64
BRANCH  51  75
ATOM     75  C   UNL A   1      43.072  25.289  26.242  1.00  0.00     0.023 A 
ATOM     76  C   UNL A   1      42.052  24.395  26.625  1.00  0.00     0.031 A 
ATOM     77  C   UNL A   1      44.073  24.790  25.393  1.00  0.00     0.131 A 
ATOM     78  C   UNL A   1      42.062  23.063  26.200  1.00  0.00     0.055 A 
ATOM     79  C   UNL A   1      44.077  23.457  24.957  1.00  0.00     0.041 A 
ATOM     80  F   UNL A   1      45.100  25.569  25.020  1.00  0.00    -0.206 F 
ATOM     81  C   UNL A   1      43.073  22.584  25.369  1.00  0.00     0.022 A 
BRANCH  78  82
ATOM     82  S   UNL A   1      40.785  21.915  26.784  1.00  0.00     0.124 S 
ATOM     83  O   UNL A   1      41.093  21.805  28.208  1.00  0.00    -0.237 OA
ATOM     84  O   UNL A   1      39.562  22.641  26.459  1.00  0.00    -0.237 OA
ATOM     85  O   UNL A   1      41.031  20.705  26.005  1.00  0.00    -0.744 OA
ENDBRANCH  78  82
ENDBRANCH  51  75
BRANCH  63  86
ATOM     86  C   UNL A   1      45.524  30.435  29.122  1.00  0.00     0.023 A 
ATOM     87  C   UNL A   1      46.877  30.817  29.196  1.00  0.00     0.031 A 
ATOM     88  C   UNL A   1      44.660  31.265  28.382  1.00  0.00     0.131 A 
ATOM     89  C   UNL A   1      47.313  32.008  28.601  1.00  0.00     0.055 A 
ATOM     90  C   UNL A   1      45.115  32.414  27.727  1.00  0.00     0.041 A 
ATOM     91  F   UNL A   1      43.338  31.052  28.347  1.00  0.00    -0.206 F 
ATOM     92  C   UNL A   1      46.443  32.802  27.852  1.00  0.00     0.022 A 
BRANCH  89  93
ATOM     93  S   UNL A   1      48.976  32.642  28.938  1.00  0.00     0.124 S 
ATOM     94  O   UNL A   1      49.224  32.153  30.292  1.00  0.00    -0.237 OA
ATOM     95  O   UNL A   1      49.770  32.007  27.888  1.00  0.00    -0.237 OA
ATOM     96  O   UNL A   1      48.836  34.090  28.813  1.00  0.00    -0.744 OA
ENDBRANCH  89  93
ENDBRANCH  63  86
ENDBRANCH  37  38
ENDBRANCH  29  32
ENDBRANCH  27  28
ENDBRANCH   1  27
TORSDOF 17
ENDMDL
