MODEL 1
REMARK VINA RESULT:     -12.9      0.000      0.000
REMARK SMILES O=C1C[C@@H](C(=O)Nc2cccc(C(=O)NCCCCNC(=O)c3ccc(-c4c5nc(c(-c6cc(S(=O)(=O)[O-])ccc6F)c6ccc([nH]6)c(-c6cc(S(=O)(=O)[O-])ccc6F)c6nc(c(-c7cc(S(=O)(=O)[O-])ccc7F)c7ccc4[nH]7)C=C6)C=C5)cc3)c2)[C@H](c2ccccc2)O1
REMARK SMILES IDX 17 1 16 2 15 3 13 4 14 5 12 7 8 8 9 9 86 10 10 11 11 12 7 13
REMARK SMILES IDX 5 14 6 15 4 17 1 18 2 19 3 20 94 21 87 22 88 23 89 24 93 25
REMARK SMILES IDX 90 26 92 27 91 28 18 29 19 30 20 31 21 32 22 34 23 35 24 36
REMARK SMILES IDX 85 37 25 38 84 39 26 40 27 41 28 42 78 43 29 44 83 45 77 46
REMARK SMILES IDX 79 47 30 48 82 49 76 50 75 51 31 53 63 54 43 55 62 56 44 57
REMARK SMILES IDX 47 58 61 59 80 60 45 61 46 62 60 64 81 65 48 66 32 67 33 68
REMARK SMILES IDX 41 69 34 70 40 71 42 72 39 73 35 74 36 75 37 76 38 77 64 78
REMARK SMILES IDX 65 79 73 80 66 81 72 82 74 83 71 84 67 85 68 86 69 87 70 88
REMARK SMILES IDX 49 89 50 90 58 91 51 92 57 93 59 94 56 95 52 96 53 97 54 98
REMARK SMILES IDX 55 99
REMARK H PARENT 15 6 7 16 20 33 79 52 47 63
REMARK Flexibility Score: inf
ROOT
ATOM      1  C   UNL A   1      31.422  30.734  26.151  1.00  0.00     0.023 C 
ENDROOT
BRANCH   1   2
ATOM      2  C   UNL A   1      32.820  30.130  26.276  1.00  0.00     0.116 C 
BRANCH   2   3
ATOM      3  N   UNL A   1      33.355  29.773  24.980  1.00  0.00    -0.352 N 
ATOM      4  C   UNL A   1      33.071  28.775  24.086  1.00  0.00     0.251 C 
ATOM      5  O   UNL A   1      33.705  28.779  23.029  1.00  0.00    -0.269 OA
ATOM      6  H   UNL A   1      34.073  30.374  24.677  1.00  0.00     0.163 HD
BRANCH   4   7
ATOM      7  C   UNL A   1      32.010  27.737  24.275  1.00  0.00     0.041 A 
ATOM      8  C   UNL A   1      30.915  25.907  25.449  1.00  0.00     0.041 A 
ATOM      9  C   UNL A   1      29.817  25.992  24.597  1.00  0.00     0.026 A 
ATOM     10  C   UNL A   1      32.044  26.699  25.210  1.00  0.00     0.040 A 
ATOM     11  C   UNL A   1      29.791  26.970  23.606  1.00  0.00     0.003 A 
ATOM     12  C   UNL A   1      30.864  27.854  23.468  1.00  0.00     0.014 A 
BRANCH   8  13
ATOM     13  N   UNL A   1      30.841  25.020  26.535  1.00  0.00    -0.326 N 
ATOM     14  C   UNL A   1      31.405  23.777  26.690  1.00  0.00     0.232 C 
ATOM     15  O   UNL A   1      31.074  23.110  27.673  1.00  0.00    -0.274 OA
ATOM     16  H   UNL A   1      30.306  25.337  27.297  1.00  0.00     0.169 HD
BRANCH  14  17
ATOM     17  C   UNL A   1      32.523  23.316  25.759  1.00  0.00     0.135 C 
ATOM     18  O   UNL A   1      31.807  20.024  24.691  1.00  0.00    -0.252 OA
ATOM     19  C   UNL A   1      32.236  21.057  25.185  1.00  0.00     0.307 C 
ATOM     20  C   UNL A   1      32.019  22.431  24.639  1.00  0.00     0.140 C 
ATOM     21  O   UNL A   1      33.045  21.090  26.280  1.00  0.00    -0.457 OA
ATOM     22  C   UNL A   1      33.510  22.426  26.506  1.00  0.00     0.220 C 
BRANCH  22  23
ATOM     23  C   UNL A   1      34.956  22.593  26.043  1.00  0.00    -0.007 A 
ATOM     24  C   UNL A   1      35.850  21.516  25.947  1.00  0.00     0.007 A 
ATOM     25  C   UNL A   1      35.438  23.871  25.716  1.00  0.00     0.007 A 
ATOM     26  C   UNL A   1      37.163  21.710  25.502  1.00  0.00     0.000 A 
ATOM     27  C   UNL A   1      36.740  24.065  25.249  1.00  0.00     0.000 A 
ATOM     28  C   UNL A   1      37.604  22.982  25.142  1.00  0.00     0.000 A 
ENDBRANCH  22  23
ENDBRANCH  14  17
ENDBRANCH   8  13
ENDBRANCH   4   7
ENDBRANCH   2   3
ENDBRANCH   1   2
BRANCH   1  29
ATOM     29  C   UNL A   1      31.374  32.212  26.539  1.00  0.00     0.023 C 
BRANCH  29  30
ATOM     30  C   UNL A   1      32.691  32.763  27.079  1.00  0.00     0.116 C 
BRANCH  30  31
ATOM     31  N   UNL A   1      32.560  34.081  27.682  1.00  0.00    -0.352 N 
ATOM     32  C   UNL A   1      33.323  34.624  28.691  1.00  0.00     0.251 C 
ATOM     33  H   UNL A   1      31.842  34.653  27.326  1.00  0.00     0.163 HD
ATOM     34  O   UNL A   1      33.017  35.702  29.187  1.00  0.00    -0.269 OA
BRANCH  32  35
ATOM     35  C   UNL A   1      34.479  33.853  29.190  1.00  0.00     0.039 A 
ATOM     36  C   UNL A   1      35.766  34.337  28.956  1.00  0.00     0.014 A 
ATOM     37  C   UNL A   1      34.277  32.715  29.975  1.00  0.00     0.014 A 
ATOM     38  C   UNL A   1      36.852  33.717  29.573  1.00  0.00     0.010 A 
ATOM     39  C   UNL A   1      35.349  32.155  30.659  1.00  0.00     0.010 A 
ATOM     40  C   UNL A   1      36.649  32.650  30.466  1.00  0.00    -0.014 A 
BRANCH  40  41
ATOM     41  C   UNL A   1      37.784  32.040  31.207  1.00  0.00     0.031 A 
ATOM     42  C   UNL A   1      38.567  30.916  30.587  1.00  0.00     0.074 A 
ATOM     43  C   UNL A   1      38.071  32.462  32.455  1.00  0.00     0.049 A 
ATOM     44  N   UNL A   1      39.556  30.221  31.087  1.00  0.00    -0.248 NA
ATOM     45  C   UNL A   1      38.161  30.495  29.237  1.00  0.00     0.031 C 
ATOM     46  C   UNL A   1      37.356  33.517  33.178  1.00  0.00     0.029 A 
ATOM     47  N   UNL A   1      39.040  32.057  33.340  1.00  0.00    -0.354 N 
ATOM     48  C   UNL A   1      39.880  29.274  30.122  1.00  0.00     0.074 A 
ATOM     49  C   UNL A   1      38.936  29.441  29.039  1.00  0.00     0.031 C 
ATOM     50  C   UNL A   1      37.937  33.704  34.374  1.00  0.00     0.029 A 
ATOM     51  C   UNL A   1      39.029  32.749  34.529  1.00  0.00     0.049 A 
ATOM     52  H   UNL A   1      39.682  31.338  33.141  1.00  0.00     0.167 HD
ATOM     53  C   UNL A   1      40.887  28.366  30.130  1.00  0.00     0.034 A 
ATOM     54  C   UNL A   1      39.806  32.624  35.623  1.00  0.00     0.034 A 
ATOM     55  C   UNL A   1      41.826  28.225  31.217  1.00  0.00     0.049 A 
ATOM     56  C   UNL A   1      40.897  31.581  35.623  1.00  0.00     0.074 A 
ATOM     57  C   UNL A   1      42.924  27.388  31.301  1.00  0.00     0.029 A 
ATOM     58  N   UNL A   1      41.772  28.928  32.413  1.00  0.00    -0.354 N 
ATOM     59  N   UNL A   1      41.232  30.735  34.675  1.00  0.00    -0.248 NA
ATOM     60  C   UNL A   1      41.719  31.483  36.835  1.00  0.00     0.031 C 
ATOM     61  C   UNL A   1      43.479  27.520  32.577  1.00  0.00     0.029 A 
ATOM     62  C   UNL A   1      42.789  28.509  33.258  1.00  0.00     0.049 A 
ATOM     63  H   UNL A   1      41.108  29.622  32.630  1.00  0.00     0.167 HD
ATOM     64  C   UNL A   1      42.329  30.030  35.167  1.00  0.00     0.074 A 
ATOM     65  C   UNL A   1      42.604  30.562  36.485  1.00  0.00     0.031 C 
ATOM     66  C   UNL A   1      43.046  29.039  34.578  1.00  0.00     0.034 A 
BRANCH  53  67
ATOM     67  C   UNL A   1      40.997  27.437  28.944  1.00  0.00     0.023 A 
ATOM     68  C   UNL A   1      41.997  27.591  27.967  1.00  0.00     0.031 A 
ATOM     69  C   UNL A   1      40.069  26.394  28.770  1.00  0.00     0.131 A 
ATOM     70  C   UNL A   1      41.995  26.776  26.826  1.00  0.00     0.055 A 
ATOM     71  C   UNL A   1      40.127  25.528  27.678  1.00  0.00     0.041 A 
ATOM     72  F   UNL A   1      39.076  26.209  29.655  1.00  0.00    -0.206 F 
ATOM     73  C   UNL A   1      41.085  25.727  26.687  1.00  0.00     0.022 A 
BRANCH  70  74
ATOM     74  S   UNL A   1      43.095  27.210  25.451  1.00  0.00     0.124 S 
ATOM     75  O   UNL A   1      44.246  27.766  26.159  1.00  0.00    -0.237 OA
ATOM     76  O   UNL A   1      43.306  25.923  24.798  1.00  0.00    -0.237 OA
ATOM     77  O   UNL A   1      42.318  28.181  24.683  1.00  0.00    -0.744 OA
ENDBRANCH  70  74
ENDBRANCH  53  67
BRANCH  54  78
ATOM     78  C   UNL A   1      39.592  33.498  36.814  1.00  0.00     0.023 A 
ATOM     79  C   UNL A   1      39.010  32.989  37.987  1.00  0.00     0.031 A 
ATOM     80  C   UNL A   1      39.919  34.866  36.783  1.00  0.00     0.131 A 
ATOM     81  C   UNL A   1      38.725  33.851  39.058  1.00  0.00     0.055 A 
ATOM     82  C   UNL A   1      39.689  35.705  37.873  1.00  0.00     0.041 A 
ATOM     83  F   UNL A   1      40.479  35.405  35.688  1.00  0.00    -0.206 F 
ATOM     84  C   UNL A   1      39.076  35.201  39.016  1.00  0.00     0.022 A 
BRANCH  81  85
ATOM     85  S   UNL A   1      37.799  33.196  40.475  1.00  0.00     0.124 S 
ATOM     86  O   UNL A   1      36.464  33.043  39.910  1.00  0.00    -0.237 OA
ATOM     87  O   UNL A   1      38.520  31.961  40.763  1.00  0.00    -0.237 OA
ATOM     88  O   UNL A   1      37.935  34.245  41.483  1.00  0.00    -0.744 OA
ENDBRANCH  81  85
ENDBRANCH  54  78
BRANCH  66  89
ATOM     89  C   UNL A   1      44.232  28.500  35.344  1.00  0.00     0.023 A 
ATOM     90  C   UNL A   1      44.118  27.408  36.219  1.00  0.00     0.031 A 
ATOM     91  C   UNL A   1      45.497  29.101  35.200  1.00  0.00     0.131 A 
ATOM     92  C   UNL A   1      45.231  26.989  36.964  1.00  0.00     0.055 A 
ATOM     93  C   UNL A   1      46.616  28.635  35.888  1.00  0.00     0.041 A 
ATOM     94  F   UNL A   1      45.665  30.153  34.381  1.00  0.00    -0.206 F 
ATOM     95  C   UNL A   1      46.485  27.582  36.788  1.00  0.00     0.022 A 
BRANCH  92  96
ATOM     96  S   UNL A   1      44.997  25.728  38.246  1.00  0.00     0.124 S 
ATOM     97  O   UNL A   1      46.371  25.322  38.526  1.00  0.00    -0.237 OA
ATOM     98  O   UNL A   1      44.326  26.476  39.304  1.00  0.00    -0.237 OA
ATOM     99  O   UNL A   1      44.175  24.716  37.586  1.00  0.00    -0.744 OA
ENDBRANCH  92  96
ENDBRANCH  66  89
ENDBRANCH  40  41
ENDBRANCH  32  35
ENDBRANCH  30  31
ENDBRANCH  29  30
ENDBRANCH   1  29
TORSDOF 17
ENDMDL
MODEL 2
REMARK VINA RESULT:     -12.6      2.342      7.872
REMARK SMILES O=C1C[C@@H](C(=O)Nc2cccc(C(=O)NCCCCNC(=O)c3ccc(-c4c5nc(c(-c6cc(S(=O)(=O)[O-])ccc6F)c6ccc([nH]6)c(-c6cc(S(=O)(=O)[O-])ccc6F)c6nc(c(-c7cc(S(=O)(=O)[O-])ccc7F)c7ccc4[nH]7)C=C6)C=C5)cc3)c2)[C@H](c2ccccc2)O1
REMARK SMILES IDX 17 1 16 2 15 3 13 4 14 5 12 7 8 8 9 9 86 10 10 11 11 12 7 13
REMARK SMILES IDX 5 14 6 15 4 17 1 18 2 19 3 20 94 21 87 22 88 23 89 24 93 25
REMARK SMILES IDX 90 26 92 27 91 28 18 29 19 30 20 31 21 32 22 34 23 35 24 36
REMARK SMILES IDX 85 37 25 38 84 39 26 40 27 41 28 42 78 43 29 44 83 45 77 46
REMARK SMILES IDX 79 47 30 48 82 49 76 50 75 51 31 53 63 54 43 55 62 56 44 57
REMARK SMILES IDX 47 58 61 59 80 60 45 61 46 62 60 64 81 65 48 66 32 67 33 68
REMARK SMILES IDX 41 69 34 70 40 71 42 72 39 73 35 74 36 75 37 76 38 77 64 78
REMARK SMILES IDX 65 79 73 80 66 81 72 82 74 83 71 84 67 85 68 86 69 87 70 88
REMARK SMILES IDX 49 89 50 90 58 91 51 92 57 93 59 94 56 95 52 96 53 97 54 98
REMARK SMILES IDX 55 99
REMARK H PARENT 15 6 7 16 20 33 79 52 47 63
REMARK Flexibility Score: inf
ROOT
ATOM      1  C   UNL A   1      33.664  28.524  24.882  1.00  0.00     0.023 C 
ENDROOT
BRANCH   1   2
ATOM      2  C   UNL A   1      33.705  29.060  23.452  1.00  0.00     0.116 C 
BRANCH   2   3
ATOM      3  N   UNL A   1      33.912  27.992  22.497  1.00  0.00    -0.352 N 
ATOM      4  C   UNL A   1      33.203  26.865  22.175  1.00  0.00     0.251 C 
ATOM      5  O   UNL A   1      33.652  26.169  21.262  1.00  0.00    -0.269 OA
ATOM      6  H   UNL A   1      34.735  28.099  21.968  1.00  0.00     0.163 HD
BRANCH   4   7
ATOM      7  C   UNL A   1      31.904  26.467  22.802  1.00  0.00     0.041 A 
ATOM      8  C   UNL A   1      30.487  25.107  24.240  1.00  0.00     0.041 A 
ATOM      9  C   UNL A   1      29.426  25.993  24.063  1.00  0.00     0.026 A 
ATOM     10  C   UNL A   1      31.673  25.291  23.520  1.00  0.00     0.040 A 
ATOM     11  C   UNL A   1      29.607  27.136  23.289  1.00  0.00     0.003 A 
ATOM     12  C   UNL A   1      30.844  27.385  22.691  1.00  0.00     0.014 A 
BRANCH   8  13
ATOM     13  N   UNL A   1      30.323  24.054  25.152  1.00  0.00    -0.326 N 
ATOM     14  C   UNL A   1      30.977  22.847  25.224  1.00  0.00     0.232 C 
ATOM     15  O   UNL A   1      30.556  22.007  26.022  1.00  0.00    -0.274 OA
ATOM     16  H   UNL A   1      29.637  24.201  25.842  1.00  0.00     0.169 HD
BRANCH  14  17
ATOM     17  C   UNL A   1      32.278  22.629  24.456  1.00  0.00     0.135 C 
ATOM     18  O   UNL A   1      32.104  19.499  22.824  1.00  0.00    -0.252 OA
ATOM     19  C   UNL A   1      32.333  20.473  23.527  1.00  0.00     0.307 C 
ATOM     20  C   UNL A   1      32.065  21.894  23.150  1.00  0.00     0.140 C 
ATOM     21  O   UNL A   1      32.939  20.398  24.745  1.00  0.00    -0.457 OA
ATOM     22  C   UNL A   1      33.215  21.715  25.237  1.00  0.00     0.220 C 
BRANCH  22  23
ATOM     23  C   UNL A   1      34.692  22.067  25.071  1.00  0.00    -0.007 A 
ATOM     24  C   UNL A   1      35.136  23.373  24.815  1.00  0.00     0.007 A 
ATOM     25  C   UNL A   1      35.662  21.055  25.153  1.00  0.00     0.007 A 
ATOM     26  C   UNL A   1      36.500  23.656  24.685  1.00  0.00     0.000 A 
ATOM     27  C   UNL A   1      37.025  21.337  25.048  1.00  0.00     0.000 A 
ATOM     28  C   UNL A   1      37.445  22.641  24.814  1.00  0.00     0.000 A 
ENDBRANCH  22  23
ENDBRANCH  14  17
ENDBRANCH   8  13
ENDBRANCH   4   7
ENDBRANCH   2   3
ENDBRANCH   1   2
BRANCH   1  29
ATOM     29  C   UNL A   1      32.459  29.032  25.674  1.00  0.00     0.023 C 
BRANCH  29  30
ATOM     30  C   UNL A   1      32.797  29.556  27.066  1.00  0.00     0.116 C 
BRANCH  30  31
ATOM     31  N   UNL A   1      32.763  31.008  27.160  1.00  0.00    -0.352 N 
ATOM     32  C   UNL A   1      33.753  31.844  27.626  1.00  0.00     0.251 C 
ATOM     33  H   UNL A   1      31.935  31.444  26.854  1.00  0.00     0.163 HD
ATOM     34  O   UNL A   1      33.536  33.042  27.766  1.00  0.00    -0.269 OA
BRANCH  32  35
ATOM     35  C   UNL A   1      35.053  31.254  28.001  1.00  0.00     0.039 A 
ATOM     36  C   UNL A   1      36.170  32.084  28.091  1.00  0.00     0.014 A 
ATOM     37  C   UNL A   1      35.134  29.906  28.361  1.00  0.00     0.014 A 
ATOM     38  C   UNL A   1      37.358  31.574  28.615  1.00  0.00     0.010 A 
ATOM     39  C   UNL A   1      36.291  29.427  28.964  1.00  0.00     0.010 A 
ATOM     40  C   UNL A   1      37.415  30.255  29.099  1.00  0.00    -0.014 A 
BRANCH  40  41
ATOM     41  C   UNL A   1      38.643  29.727  29.749  1.00  0.00     0.031 A 
ATOM     42  C   UNL A   1      39.044  30.224  31.111  1.00  0.00     0.074 A 
ATOM     43  C   UNL A   1      39.422  28.845  29.090  1.00  0.00     0.049 A 
ATOM     44  N   UNL A   1      40.099  29.926  31.824  1.00  0.00    -0.248 NA
ATOM     45  C   UNL A   1      38.155  31.213  31.740  1.00  0.00     0.031 C 
ATOM     46  C   UNL A   1      39.158  28.321  27.748  1.00  0.00     0.029 A 
ATOM     47  N   UNL A   1      40.594  28.232  29.458  1.00  0.00    -0.354 N 
ATOM     48  C   UNL A   1      40.009  30.700  32.975  1.00  0.00     0.074 A 
ATOM     49  C   UNL A   1      38.834  31.529  32.832  1.00  0.00     0.031 C 
ATOM     50  C   UNL A   1      40.115  27.435  27.424  1.00  0.00     0.029 A 
ATOM     51  C   UNL A   1      41.089  27.367  28.508  1.00  0.00     0.049 A 
ATOM     52  H   UNL A   1      41.039  28.396  30.320  1.00  0.00     0.167 HD
ATOM     53  C   UNL A   1      40.821  30.700  34.062  1.00  0.00     0.034 A 
ATOM     54  C   UNL A   1      42.204  26.610  28.509  1.00  0.00     0.034 A 
ATOM     55  C   UNL A   1      41.983  29.853  34.190  1.00  0.00     0.049 A 
ATOM     56  C   UNL A   1      43.110  26.654  29.714  1.00  0.00     0.074 A 
ATOM     57  C   UNL A   1      42.835  29.722  35.272  1.00  0.00     0.029 A 
ATOM     58  N   UNL A   1      42.465  29.006  33.201  1.00  0.00    -0.354 N 
ATOM     59  N   UNL A   1      42.977  27.344  30.825  1.00  0.00    -0.248 NA
ATOM     60  C   UNL A   1      44.312  25.812  29.670  1.00  0.00     0.031 C 
ATOM     61  C   UNL A   1      43.878  28.865  34.907  1.00  0.00     0.029 A 
ATOM     62  C   UNL A   1      43.628  28.385  33.631  1.00  0.00     0.049 A 
ATOM     63  H   UNL A   1      42.043  28.867  32.322  1.00  0.00     0.167 HD
ATOM     64  C   UNL A   1      44.061  26.988  31.624  1.00  0.00     0.074 A 
ATOM     65  C   UNL A   1      44.825  26.013  30.874  1.00  0.00     0.031 C 
ATOM     66  C   UNL A   1      44.389  27.423  32.868  1.00  0.00     0.034 A 
BRANCH  53  67
ATOM     67  C   UNL A   1      40.495  31.668  35.175  1.00  0.00     0.023 A 
ATOM     68  C   UNL A   1      39.526  31.379  36.152  1.00  0.00     0.031 A 
ATOM     69  C   UNL A   1      41.144  32.913  35.245  1.00  0.00     0.131 A 
ATOM     70  C   UNL A   1      39.175  32.350  37.101  1.00  0.00     0.055 A 
ATOM     71  C   UNL A   1      40.857  33.841  36.248  1.00  0.00     0.041 A 
ATOM     72  F   UNL A   1      42.062  33.258  34.328  1.00  0.00    -0.206 F 
ATOM     73  C   UNL A   1      39.854  33.569  37.174  1.00  0.00     0.022 A 
BRANCH  70  74
ATOM     74  S   UNL A   1      37.712  32.064  38.134  1.00  0.00     0.124 S 
ATOM     75  O   UNL A   1      38.250  32.287  39.474  1.00  0.00    -0.237 OA
ATOM     76  O   UNL A   1      36.778  33.072  37.643  1.00  0.00    -0.237 OA
ATOM     77  O   UNL A   1      37.350  30.679  37.839  1.00  0.00    -0.744 OA
ENDBRANCH  70  74
ENDBRANCH  53  67
BRANCH  54  78
ATOM     78  C   UNL A   1      42.538  25.745  27.339  1.00  0.00     0.023 A 
ATOM     79  C   UNL A   1      42.111  24.409  27.284  1.00  0.00     0.031 A 
ATOM     80  C   UNL A   1      43.331  26.225  26.280  1.00  0.00     0.131 A 
ATOM     81  C   UNL A   1      42.521  23.584  26.224  1.00  0.00     0.055 A 
ATOM     82  C   UNL A   1      43.686  25.419  25.199  1.00  0.00     0.041 A 
ATOM     83  F   UNL A   1      43.767  27.495  26.280  1.00  0.00    -0.206 F 
ATOM     84  C   UNL A   1      43.291  24.085  25.173  1.00  0.00     0.022 A 
BRANCH  81  85
ATOM     85  S   UNL A   1      42.110  21.818  26.290  1.00  0.00     0.124 S 
ATOM     86  O   UNL A   1      42.976  21.275  25.250  1.00  0.00    -0.237 OA
ATOM     87  O   UNL A   1      42.463  21.476  27.663  1.00  0.00    -0.237 OA
ATOM     88  O   UNL A   1      40.681  21.792  25.989  1.00  0.00    -0.744 OA
ENDBRANCH  81  85
ENDBRANCH  54  78
BRANCH  66  89
ATOM     89  C   UNL A   1      45.608  26.804  33.513  1.00  0.00     0.023 A 
ATOM     90  C   UNL A   1      45.535  25.609  34.247  1.00  0.00     0.031 A 
ATOM     91  C   UNL A   1      46.862  27.431  33.398  1.00  0.00     0.131 A 
ATOM     92  C   UNL A   1      46.679  25.111  34.890  1.00  0.00     0.055 A 
ATOM     93  C   UNL A   1      48.011  26.894  33.977  1.00  0.00     0.041 A 
ATOM     94  F   UNL A   1      46.993  28.580  32.713  1.00  0.00    -0.206 F 
ATOM     95  C   UNL A   1      47.921  25.734  34.741  1.00  0.00     0.022 A 
BRANCH  92  96
ATOM     96  S   UNL A   1      46.503  23.695  36.009  1.00  0.00     0.124 S 
ATOM     97  O   UNL A   1      47.123  22.621  35.239  1.00  0.00    -0.237 OA
ATOM     98  O   UNL A   1      47.235  24.136  37.191  1.00  0.00    -0.237 OA
ATOM     99  O   UNL A   1      45.057  23.574  36.186  1.00  0.00    -0.744 OA
ENDBRANCH  92  96
ENDBRANCH  66  89
ENDBRANCH  40  41
ENDBRANCH  32  35
ENDBRANCH  30  31
ENDBRANCH  29  30
ENDBRANCH   1  29
TORSDOF 17
ENDMDL
MODEL 3
REMARK VINA RESULT:     -12.4      4.879      7.979
REMARK SMILES O=C1C[C@@H](C(=O)Nc2cccc(C(=O)NCCCCNC(=O)c3ccc(-c4c5nc(c(-c6cc(S(=O)(=O)[O-])ccc6F)c6ccc([nH]6)c(-c6cc(S(=O)(=O)[O-])ccc6F)c6nc(c(-c7cc(S(=O)(=O)[O-])ccc7F)c7ccc4[nH]7)C=C6)C=C5)cc3)c2)[C@H](c2ccccc2)O1
REMARK SMILES IDX 17 1 16 2 15 3 13 4 14 5 12 7 8 8 9 9 86 10 10 11 11 12 7 13
REMARK SMILES IDX 5 14 6 15 4 17 1 18 2 19 3 20 94 21 87 22 88 23 89 24 93 25
REMARK SMILES IDX 90 26 92 27 91 28 18 29 19 30 20 31 21 32 22 34 23 35 24 36
REMARK SMILES IDX 85 37 25 38 84 39 26 40 27 41 28 42 78 43 29 44 83 45 77 46
REMARK SMILES IDX 79 47 30 48 82 49 76 50 75 51 31 53 63 54 43 55 62 56 44 57
REMARK SMILES IDX 47 58 61 59 80 60 45 61 46 62 60 64 81 65 48 66 32 67 33 68
REMARK SMILES IDX 41 69 34 70 40 71 42 72 39 73 35 74 36 75 37 76 38 77 64 78
REMARK SMILES IDX 65 79 73 80 66 81 72 82 74 83 71 84 67 85 68 86 69 87 70 88
REMARK SMILES IDX 49 89 50 90 58 91 51 92 57 93 59 94 56 95 52 96 53 97 54 98
REMARK SMILES IDX 55 99
REMARK H PARENT 15 6 7 16 20 33 79 52 47 63
REMARK Flexibility Score: inf
ROOT
ATOM      1  C   UNL A   1      35.172  21.779  26.808  1.00  0.00     0.023 C 
ENDROOT
BRANCH   1   2
ATOM      2  C   UNL A   1      33.698  21.678  27.195  1.00  0.00     0.116 C 
BRANCH   2   3
ATOM      3  N   UNL A   1      33.011  20.688  26.393  1.00  0.00    -0.352 N 
ATOM      4  C   UNL A   1      32.591  20.658  25.090  1.00  0.00     0.251 C 
ATOM      5  O   UNL A   1      32.056  19.617  24.702  1.00  0.00    -0.269 OA
ATOM      6  H   UNL A   1      32.802  19.864  26.889  1.00  0.00     0.163 HD
BRANCH   4   7
ATOM      7  C   UNL A   1      32.798  21.762  24.101  1.00  0.00     0.041 A 
ATOM      8  C   UNL A   1      32.189  23.819  22.950  1.00  0.00     0.041 A 
ATOM      9  C   UNL A   1      33.448  23.881  22.356  1.00  0.00     0.026 A 
ATOM     10  C   UNL A   1      31.839  22.705  23.722  1.00  0.00     0.040 A 
ATOM     11  C   UNL A   1      34.399  22.909  22.658  1.00  0.00     0.003 A 
ATOM     12  C   UNL A   1      34.085  21.878  23.547  1.00  0.00     0.014 A 
BRANCH   8  13
ATOM     13  N   UNL A   1      31.312  24.896  22.752  1.00  0.00    -0.326 N 
ATOM     14  C   UNL A   1      31.093  26.003  23.536  1.00  0.00     0.232 C 
ATOM     15  O   UNL A   1      30.156  26.747  23.239  1.00  0.00    -0.274 OA
ATOM     16  H   UNL A   1      30.774  24.852  21.930  1.00  0.00     0.169 HD
BRANCH  14  17
ATOM     17  C   UNL A   1      32.083  26.376  24.637  1.00  0.00     0.135 C 
ATOM     18  O   UNL A   1      31.440  24.347  27.457  1.00  0.00    -0.252 OA
ATOM     19  C   UNL A   1      31.576  25.229  26.622  1.00  0.00     0.307 C 
ATOM     20  C   UNL A   1      32.514  25.181  25.459  1.00  0.00     0.140 C 
ATOM     21  O   UNL A   1      30.931  26.428  26.678  1.00  0.00    -0.457 OA
ATOM     22  C   UNL A   1      31.428  27.301  25.657  1.00  0.00     0.220 C 
BRANCH  22  23
ATOM     23  C   UNL A   1      32.380  28.344  26.238  1.00  0.00    -0.007 A 
ATOM     24  C   UNL A   1      33.759  28.121  26.370  1.00  0.00     0.007 A 
ATOM     25  C   UNL A   1      31.874  29.575  26.685  1.00  0.00     0.007 A 
ATOM     26  C   UNL A   1      34.599  29.110  26.894  1.00  0.00     0.000 A 
ATOM     27  C   UNL A   1      32.712  30.573  27.185  1.00  0.00     0.000 A 
ATOM     28  C   UNL A   1      34.078  30.340  27.290  1.00  0.00     0.000 A 
ENDBRANCH  22  23
ENDBRANCH  14  17
ENDBRANCH   8  13
ENDBRANCH   4   7
ENDBRANCH   2   3
ENDBRANCH   1   2
BRANCH   1  29
ATOM     29  C   UNL A   1      35.606  23.209  26.483  1.00  0.00     0.023 C 
BRANCH  29  30
ATOM     30  C   UNL A   1      36.868  23.305  25.632  1.00  0.00     0.116 C 
BRANCH  30  31
ATOM     31  N   UNL A   1      37.938  22.428  26.084  1.00  0.00    -0.352 N 
ATOM     32  C   UNL A   1      39.114  22.786  26.702  1.00  0.00     0.251 C 
ATOM     33  H   UNL A   1      37.804  21.464  25.930  1.00  0.00     0.163 HD
ATOM     34  O   UNL A   1      39.982  21.947  26.914  1.00  0.00    -0.269 OA
BRANCH  32  35
ATOM     35  C   UNL A   1      39.321  24.205  27.051  1.00  0.00     0.039 A 
ATOM     36  C   UNL A   1      39.022  24.633  28.345  1.00  0.00     0.014 A 
ATOM     37  C   UNL A   1      39.908  25.076  26.129  1.00  0.00     0.014 A 
ATOM     38  C   UNL A   1      39.381  25.923  28.737  1.00  0.00     0.010 A 
ATOM     39  C   UNL A   1      40.343  26.327  26.549  1.00  0.00     0.010 A 
ATOM     40  C   UNL A   1      40.085  26.764  27.858  1.00  0.00    -0.014 A 
BRANCH  40  41
ATOM     41  C   UNL A   1      40.560  28.105  28.291  1.00  0.00     0.031 A 
ATOM     42  C   UNL A   1      42.035  28.387  28.373  1.00  0.00     0.074 A 
ATOM     43  C   UNL A   1      39.665  29.043  28.662  1.00  0.00     0.049 A 
ATOM     44  N   UNL A   1      42.649  29.471  28.773  1.00  0.00    -0.248 NA
ATOM     45  C   UNL A   1      42.939  27.294  27.984  1.00  0.00     0.031 C 
ATOM     46  C   UNL A   1      38.210  28.872  28.665  1.00  0.00     0.029 A 
ATOM     47  N   UNL A   1      39.846  30.329  29.109  1.00  0.00    -0.354 N 
ATOM     48  C   UNL A   1      44.008  29.184  28.698  1.00  0.00     0.074 A 
ATOM     49  C   UNL A   1      44.123  27.804  28.282  1.00  0.00     0.031 C 
ATOM     50  C   UNL A   1      37.632  30.021  29.051  1.00  0.00     0.029 A 
ATOM     51  C   UNL A   1      38.670  30.993  29.375  1.00  0.00     0.049 A 
ATOM     52  H   UNL A   1      40.733  30.737  29.229  1.00  0.00     0.167 HD
ATOM     53  C   UNL A   1      45.062  30.006  28.933  1.00  0.00     0.034 A 
ATOM     54  C   UNL A   1      38.454  32.241  29.834  1.00  0.00     0.034 A 
ATOM     55  C   UNL A   1      44.924  31.385  29.335  1.00  0.00     0.049 A 
ATOM     56  C   UNL A   1      39.642  33.125  30.123  1.00  0.00     0.074 A 
ATOM     57  C   UNL A   1      45.918  32.326  29.533  1.00  0.00     0.029 A 
ATOM     58  N   UNL A   1      43.719  32.017  29.615  1.00  0.00    -0.354 N 
ATOM     59  N   UNL A   1      40.923  32.860  29.986  1.00  0.00    -0.248 NA
ATOM     60  C   UNL A   1      39.357  34.476  30.619  1.00  0.00     0.031 C 
ATOM     61  C   UNL A   1      45.325  33.496  30.015  1.00  0.00     0.029 A 
ATOM     62  C   UNL A   1      43.951  33.321  30.028  1.00  0.00     0.049 A 
ATOM     63  H   UNL A   1      42.831  31.601  29.532  1.00  0.00     0.167 HD
ATOM     64  C   UNL A   1      41.591  34.028  30.345  1.00  0.00     0.074 A 
ATOM     65  C   UNL A   1      40.573  34.998  30.689  1.00  0.00     0.031 C 
ATOM     66  C   UNL A   1      42.926  34.277  30.381  1.00  0.00     0.034 A 
BRANCH  53  67
ATOM     67  C   UNL A   1      46.447  29.420  28.793  1.00  0.00     0.023 A 
ATOM     68  C   UNL A   1      47.024  29.165  27.536  1.00  0.00     0.031 A 
ATOM     69  C   UNL A   1      47.194  29.083  29.936  1.00  0.00     0.131 A 
ATOM     70  C   UNL A   1      48.265  28.519  27.451  1.00  0.00     0.055 A 
ATOM     71  C   UNL A   1      48.469  28.523  29.846  1.00  0.00     0.041 A 
ATOM     72  F   UNL A   1      46.689  29.279  31.164  1.00  0.00    -0.206 F 
ATOM     73  C   UNL A   1      49.006  28.221  28.597  1.00  0.00     0.022 A 
BRANCH  70  74
ATOM     74  S   UNL A   1      48.824  27.925  25.831  1.00  0.00     0.124 S 
ATOM     75  O   UNL A   1      50.037  28.715  25.631  1.00  0.00    -0.237 OA
ATOM     76  O   UNL A   1      49.021  26.500  26.068  1.00  0.00    -0.237 OA
ATOM     77  O   UNL A   1      47.716  28.264  24.941  1.00  0.00    -0.744 OA
ENDBRANCH  70  74
ENDBRANCH  53  67
BRANCH  54  78
ATOM     78  C   UNL A   1      37.065  32.742  30.056  1.00  0.00     0.023 A 
ATOM     79  C   UNL A   1      36.589  33.001  31.351  1.00  0.00     0.031 A 
ATOM     80  C   UNL A   1      36.175  32.922  28.981  1.00  0.00     0.131 A 
ATOM     81  C   UNL A   1      35.249  33.374  31.545  1.00  0.00     0.055 A 
ATOM     82  C   UNL A   1      34.861  33.351  29.174  1.00  0.00     0.041 A 
ATOM     83  F   UNL A   1      36.576  32.691  27.721  1.00  0.00    -0.206 F 
ATOM     84  C   UNL A   1      34.387  33.567  30.464  1.00  0.00     0.022 A 
BRANCH  81  85
ATOM     85  S   UNL A   1      34.623  33.510  33.242  1.00  0.00     0.124 S 
ATOM     86  O   UNL A   1      34.778  34.937  33.500  1.00  0.00    -0.237 OA
ATOM     87  O   UNL A   1      33.255  33.027  33.100  1.00  0.00    -0.237 OA
ATOM     88  O   UNL A   1      35.515  32.638  34.003  1.00  0.00    -0.744 OA
ENDBRANCH  81  85
ENDBRANCH  54  78
BRANCH  66  89
ATOM     89  C   UNL A   1      43.355  35.675  30.761  1.00  0.00     0.023 A 
ATOM     90  C   UNL A   1      43.510  36.067  32.101  1.00  0.00     0.031 A 
ATOM     91  C   UNL A   1      43.603  36.634  29.761  1.00  0.00     0.131 A 
ATOM     92  C   UNL A   1      43.839  37.396  32.408  1.00  0.00     0.055 A 
ATOM     93  C   UNL A   1      44.001  37.934  30.069  1.00  0.00     0.041 A 
ATOM     94  F   UNL A   1      43.466  36.318  28.462  1.00  0.00    -0.206 F 
ATOM     95  C   UNL A   1      44.107  38.326  31.401  1.00  0.00     0.022 A 
BRANCH  92  96
ATOM     96  S   UNL A   1      43.810  37.922  34.143  1.00  0.00     0.124 S 
ATOM     97  O   UNL A   1      44.240  39.313  34.045  1.00  0.00    -0.237 OA
ATOM     98  O   UNL A   1      42.415  37.711  34.512  1.00  0.00    -0.237 OA
ATOM     99  O   UNL A   1      44.765  37.023  34.791  1.00  0.00    -0.744 OA
ENDBRANCH  92  96
ENDBRANCH  66  89
ENDBRANCH  40  41
ENDBRANCH  32  35
ENDBRANCH  30  31
ENDBRANCH  29  30
ENDBRANCH   1  29
TORSDOF 17
ENDMDL
