MODEL 1
REMARK VINA RESULT:     -13.9      0.000      0.000
REMARK SMILES Cc1ccccc1[C@@H]1[NH2+][C@@H](C(=O)NCCCCNC(=O)c2ccc(-c3c4nc(c(-c5cc(S(=O)(=O)[O-])ccc5F)c5ccc([nH]5)c(-c5cc(S(=O)(=O)[O-])ccc5F)c5nc(c(-c6cc(S(=O)(=O)[O-])ccc6F)c6ccc3[nH]6)C=C5)C=C4)cc2)CC2=c3ccccc3=N[C@H]21
REMARK SMILES IDX 16 1 15 2 14 3 13 4 11 5 12 6 10 8 8 9 9 10 93 11 85 14
REMARK SMILES IDX 92 15 84 16 86 17 91 18 87 19 90 20 88 21 89 22 7 23 1 24
REMARK SMILES IDX 2 25 3 26 4 27 6 28 5 29 17 30 18 31 19 32 20 34 21 35 22 36
REMARK SMILES IDX 83 37 23 38 82 39 24 40 25 41 26 42 76 43 27 44 81 45 75 46
REMARK SMILES IDX 77 47 28 48 80 49 74 50 73 51 29 53 61 54 41 55 60 56 42 57
REMARK SMILES IDX 45 58 59 59 78 60 43 61 44 62 58 64 79 65 46 66 30 67 31 68
REMARK SMILES IDX 39 69 32 70 38 71 40 72 37 73 33 74 34 75 35 76 36 77 62 78
REMARK SMILES IDX 63 79 71 80 64 81 70 82 72 83 69 84 65 85 66 86 67 87 68 88
REMARK SMILES IDX 47 89 48 90 56 91 49 92 55 93 57 94 54 95 50 96 51 97 52 98
REMARK SMILES IDX 53 99
REMARK H PARENT 13 7 9 12 9 13 18 33 77 52 45 63
REMARK Flexibility Score: inf
ROOT
ATOM      1  C   UNL A   1      35.508  32.750  28.002  1.00  0.00     0.023 C 
ENDROOT
BRANCH   1   2
ATOM      2  C   UNL A   1      34.217  32.016  28.358  1.00  0.00     0.023 C 
BRANCH   2   3
ATOM      3  C   UNL A   1      33.561  31.247  27.201  1.00  0.00     0.116 C 
BRANCH   3   4
ATOM      4  N   UNL A   1      33.483  29.793  27.347  1.00  0.00    -0.351 N 
ATOM      5  C   UNL A   1      33.621  28.783  26.433  1.00  0.00     0.278 C 
ATOM      6  O   UNL A   1      34.013  27.693  26.876  1.00  0.00    -0.268 OA
ATOM      7  H   UNL A   1      33.298  29.487  28.264  1.00  0.00     0.163 HD
BRANCH   5   8
ATOM      8  C   UNL A   1      33.153  28.906  24.948  1.00  0.00     0.277 C 
ATOM      9  C   UNL A   1      31.102  27.835  23.798  1.00  0.00     0.243 C 
ATOM     10  N   UNL A   1      31.662  28.691  24.880  1.00  0.00    -0.327 N 
ATOM     11  C   UNL A   1      32.051  27.224  22.721  1.00  0.00     0.196 C 
ATOM     12  H   UNL A   1      31.381  28.273  25.767  1.00  0.00     0.347 HD
ATOM     13  H   UNL A   1      31.293  29.619  24.673  1.00  0.00     0.347 HD
ATOM     14  C   UNL A   1      33.353  26.976  23.378  1.00  0.00    -0.024 C 
ATOM     15  N   UNL A   1      31.597  25.874  22.251  1.00  0.00    -0.270 NA
ATOM     16  C   UNL A   1      34.025  28.158  23.939  1.00  0.00     0.109 C 
ATOM     17  C   UNL A   1      33.653  25.688  23.427  1.00  0.00     0.002 A 
ATOM     18  C   UNL A   1      32.556  25.092  22.657  1.00  0.00     0.066 A 
ATOM     19  C   UNL A   1      34.673  24.907  24.036  1.00  0.00     0.010 A 
ATOM     20  C   UNL A   1      32.658  23.635  22.416  1.00  0.00     0.028 A 
ATOM     21  C   UNL A   1      34.669  23.582  23.833  1.00  0.00     0.001 A 
ATOM     22  C   UNL A   1      33.671  22.954  22.981  1.00  0.00     0.002 A 
BRANCH   9  23
ATOM     23  C   UNL A   1      29.903  28.511  23.114  1.00  0.00     0.015 A 
ATOM     24  C   UNL A   1      28.170  26.761  23.875  1.00  0.00     0.045 C 
ATOM     25  C   UNL A   1      28.568  28.056  23.220  1.00  0.00    -0.042 A 
ATOM     26  C   UNL A   1      27.524  28.876  22.751  1.00  0.00     0.004 A 
ATOM     27  C   UNL A   1      27.786  30.093  22.125  1.00  0.00     0.000 A 
ATOM     28  C   UNL A   1      30.145  29.717  22.422  1.00  0.00     0.010 A 
ATOM     29  C   UNL A   1      29.098  30.499  21.932  1.00  0.00     0.001 A 
ENDBRANCH   9  23
ENDBRANCH   5   8
ENDBRANCH   3   4
ENDBRANCH   2   3
ENDBRANCH   1   2
BRANCH   1  30
ATOM     30  C   UNL A   1      36.715  32.418  28.883  1.00  0.00     0.116 C 
BRANCH  30  31
ATOM     31  N   UNL A   1      36.419  32.092  30.280  1.00  0.00    -0.352 N 
ATOM     32  C   UNL A   1      36.533  30.871  30.937  1.00  0.00     0.251 C 
ATOM     33  H   UNL A   1      36.094  32.842  30.830  1.00  0.00     0.163 HD
ATOM     34  O   UNL A   1      36.280  30.753  32.133  1.00  0.00    -0.269 OA
BRANCH  32  35
ATOM     35  C   UNL A   1      37.133  29.719  30.213  1.00  0.00     0.039 A 
ATOM     36  C   UNL A   1      37.423  28.577  30.971  1.00  0.00     0.014 A 
ATOM     37  C   UNL A   1      37.746  29.916  28.986  1.00  0.00     0.014 A 
ATOM     38  C   UNL A   1      38.576  27.858  30.684  1.00  0.00     0.010 A 
ATOM     39  C   UNL A   1      38.964  29.307  28.780  1.00  0.00     0.010 A 
ATOM     40  C   UNL A   1      39.412  28.338  29.680  1.00  0.00    -0.014 A 
BRANCH  40  41
ATOM     41  C   UNL A   1      40.783  27.888  29.497  1.00  0.00     0.031 A 
ATOM     42  C   UNL A   1      40.995  26.543  28.942  1.00  0.00     0.074 A 
ATOM     43  C   UNL A   1      41.821  28.687  29.825  1.00  0.00     0.049 A 
ATOM     44  N   UNL A   1      42.004  25.793  29.206  1.00  0.00    -0.248 NA
ATOM     45  C   UNL A   1      40.010  25.905  28.078  1.00  0.00     0.031 C 
ATOM     46  C   UNL A   1      43.241  28.466  29.562  1.00  0.00     0.029 A 
ATOM     47  N   UNL A   1      41.808  29.795  30.656  1.00  0.00    -0.354 N 
ATOM     48  C   UNL A   1      41.945  24.703  28.366  1.00  0.00     0.074 A 
ATOM     49  C   UNL A   1      40.649  24.785  27.739  1.00  0.00     0.031 C 
ATOM     50  C   UNL A   1      43.965  29.244  30.387  1.00  0.00     0.029 A 
ATOM     51  C   UNL A   1      43.042  29.885  31.310  1.00  0.00     0.049 A 
ATOM     52  H   UNL A   1      41.053  30.418  30.769  1.00  0.00     0.167 HD
ATOM     53  C   UNL A   1      43.058  23.933  28.204  1.00  0.00     0.034 A 
ATOM     54  C   UNL A   1      43.104  29.776  32.673  1.00  0.00     0.034 A 
ATOM     55  C   UNL A   1      44.132  24.394  29.089  1.00  0.00     0.049 A 
ATOM     56  C   UNL A   1      43.790  28.500  33.128  1.00  0.00     0.074 A 
ATOM     57  C   UNL A   1      45.210  25.239  28.884  1.00  0.00     0.029 A 
ATOM     58  N   UNL A   1      43.977  24.283  30.468  1.00  0.00    -0.354 N 
ATOM     59  N   UNL A   1      44.037  27.471  32.360  1.00  0.00    -0.248 NA
ATOM     60  C   UNL A   1      44.234  28.291  34.502  1.00  0.00     0.031 C 
ATOM     61  C   UNL A   1      45.631  25.720  30.153  1.00  0.00     0.029 A 
ATOM     62  C   UNL A   1      44.850  25.128  31.132  1.00  0.00     0.049 A 
ATOM     63  H   UNL A   1      43.334  23.684  30.911  1.00  0.00     0.167 HD
ATOM     64  C   UNL A   1      44.590  26.461  33.107  1.00  0.00     0.074 A 
ATOM     65  C   UNL A   1      44.743  27.050  34.429  1.00  0.00     0.031 C 
ATOM     66  C   UNL A   1      44.847  25.217  32.589  1.00  0.00     0.034 A 
BRANCH  53  67
ATOM     67  C   UNL A   1      43.275  22.996  27.034  1.00  0.00     0.023 A 
ATOM     68  C   UNL A   1      42.730  21.696  27.095  1.00  0.00     0.031 A 
ATOM     69  C   UNL A   1      44.038  23.270  25.881  1.00  0.00     0.131 A 
ATOM     70  C   UNL A   1      43.030  20.724  26.121  1.00  0.00     0.055 A 
ATOM     71  C   UNL A   1      44.384  22.289  24.940  1.00  0.00     0.041 A 
ATOM     72  F   UNL A   1      44.437  24.510  25.573  1.00  0.00    -0.206 F 
ATOM     73  C   UNL A   1      43.888  21.002  25.063  1.00  0.00     0.022 A 
BRANCH  70  74
ATOM     74  S   UNL A   1      42.274  19.082  26.256  1.00  0.00     0.124 S 
ATOM     75  O   UNL A   1      43.134  18.275  25.396  1.00  0.00    -0.237 OA
ATOM     76  O   UNL A   1      42.362  18.818  27.689  1.00  0.00    -0.237 OA
ATOM     77  O   UNL A   1      40.918  19.290  25.751  1.00  0.00    -0.744 OA
ENDBRANCH  70  74
ENDBRANCH  53  67
BRANCH  54  78
ATOM     78  C   UNL A   1      41.910  30.382  33.345  1.00  0.00     0.023 A 
ATOM     79  C   UNL A   1      41.827  31.791  33.389  1.00  0.00     0.031 A 
ATOM     80  C   UNL A   1      40.721  29.651  33.476  1.00  0.00     0.131 A 
ATOM     81  C   UNL A   1      40.571  32.422  33.347  1.00  0.00     0.055 A 
ATOM     82  C   UNL A   1      39.477  30.290  33.482  1.00  0.00     0.041 A 
ATOM     83  F   UNL A   1      40.734  28.310  33.444  1.00  0.00    -0.206 F 
ATOM     84  C   UNL A   1      39.395  31.674  33.347  1.00  0.00     0.022 A 
BRANCH  81  85
ATOM     85  S   UNL A   1      40.487  34.202  33.011  1.00  0.00     0.124 S 
ATOM     86  O   UNL A   1      40.763  34.780  34.322  1.00  0.00    -0.237 OA
ATOM     87  O   UNL A   1      41.528  34.376  32.005  1.00  0.00    -0.237 OA
ATOM     88  O   UNL A   1      39.133  34.398  32.498  1.00  0.00    -0.744 OA
ENDBRANCH  81  85
ENDBRANCH  54  78
BRANCH  66  89
ATOM     89  C   UNL A   1      45.213  23.995  33.414  1.00  0.00     0.023 A 
ATOM     90  C   UNL A   1      46.473  23.825  34.004  1.00  0.00     0.031 A 
ATOM     91  C   UNL A   1      44.283  22.960  33.673  1.00  0.00     0.131 A 
ATOM     92  C   UNL A   1      46.822  22.632  34.657  1.00  0.00     0.055 A 
ATOM     93  C   UNL A   1      44.595  21.824  34.430  1.00  0.00     0.041 A 
ATOM     94  F   UNL A   1      43.026  23.003  33.208  1.00  0.00    -0.206 F 
ATOM     95  C   UNL A   1      45.884  21.636  34.899  1.00  0.00     0.022 A 
BRANCH  92  96
ATOM     96  S   UNL A   1      48.569  22.373  35.058  1.00  0.00     0.124 S 
ATOM     97  O   UNL A   1      48.647  22.922  36.409  1.00  0.00    -0.237 OA
ATOM     98  O   UNL A   1      48.705  20.924  34.956  1.00  0.00    -0.237 OA
ATOM     99  O   UNL A   1      49.275  23.140  34.034  1.00  0.00    -0.744 OA
ENDBRANCH  92  96
ENDBRANCH  66  89
ENDBRANCH  40  41
ENDBRANCH  32  35
ENDBRANCH  30  31
ENDBRANCH   1  30
TORSDOF 15
ENDMDL
MODEL 2
REMARK VINA RESULT:     -13.9      2.732      4.011
REMARK SMILES Cc1ccccc1[C@@H]1[NH2+][C@@H](C(=O)NCCCCNC(=O)c2ccc(-c3c4nc(c(-c5cc(S(=O)(=O)[O-])ccc5F)c5ccc([nH]5)c(-c5cc(S(=O)(=O)[O-])ccc5F)c5nc(c(-c6cc(S(=O)(=O)[O-])ccc6F)c6ccc3[nH]6)C=C5)C=C4)cc2)CC2=c3ccccc3=N[C@H]21
REMARK SMILES IDX 16 1 15 2 14 3 13 4 11 5 12 6 10 8 8 9 9 10 93 11 85 14
REMARK SMILES IDX 92 15 84 16 86 17 91 18 87 19 90 20 88 21 89 22 7 23 1 24
REMARK SMILES IDX 2 25 3 26 4 27 6 28 5 29 17 30 18 31 19 32 20 34 21 35 22 36
REMARK SMILES IDX 83 37 23 38 82 39 24 40 25 41 26 42 76 43 27 44 81 45 75 46
REMARK SMILES IDX 77 47 28 48 80 49 74 50 73 51 29 53 61 54 41 55 60 56 42 57
REMARK SMILES IDX 45 58 59 59 78 60 43 61 44 62 58 64 79 65 46 66 30 67 31 68
REMARK SMILES IDX 39 69 32 70 38 71 40 72 37 73 33 74 34 75 35 76 36 77 62 78
REMARK SMILES IDX 63 79 71 80 64 81 70 82 72 83 69 84 65 85 66 86 67 87 68 88
REMARK SMILES IDX 47 89 48 90 56 91 49 92 55 93 57 94 54 95 50 96 51 97 52 98
REMARK SMILES IDX 53 99
REMARK H PARENT 13 7 9 12 9 13 18 33 77 52 45 63
REMARK Flexibility Score: inf
ROOT
ATOM      1  C   UNL A   1      35.599  32.362  28.965  1.00  0.00     0.023 C 
ENDROOT
BRANCH   1   2
ATOM      2  C   UNL A   1      35.370  31.432  27.774  1.00  0.00     0.023 C 
BRANCH   2   3
ATOM      3  C   UNL A   1      33.900  31.230  27.376  1.00  0.00     0.116 C 
BRANCH   3   4
ATOM      4  N   UNL A   1      33.348  29.890  27.582  1.00  0.00    -0.351 N 
ATOM      5  C   UNL A   1      33.207  28.829  26.729  1.00  0.00     0.278 C 
ATOM      6  O   UNL A   1      33.200  27.703  27.251  1.00  0.00    -0.268 OA
ATOM      7  H   UNL A   1      33.022  29.722  28.496  1.00  0.00     0.163 HD
BRANCH   5   8
ATOM      8  C   UNL A   1      32.891  28.993  25.208  1.00  0.00     0.277 C 
ATOM      9  C   UNL A   1      31.005  27.906  23.815  1.00  0.00     0.243 C 
ATOM     10  N   UNL A   1      31.423  28.737  24.978  1.00  0.00    -0.327 N 
ATOM     11  C   UNL A   1      32.080  27.363  22.824  1.00  0.00     0.196 C 
ATOM     12  H   UNL A   1      31.065  28.279  25.817  1.00  0.00     0.347 HD
ATOM     13  H   UNL A   1      31.046  29.661  24.765  1.00  0.00     0.347 HD
ATOM     14  C   UNL A   1      33.315  27.128  23.605  1.00  0.00    -0.024 C 
ATOM     15  N   UNL A   1      31.721  26.018  22.264  1.00  0.00    -0.270 NA
ATOM     16  C   UNL A   1      33.886  28.307  24.272  1.00  0.00     0.109 C 
ATOM     17  C   UNL A   1      33.649  25.849  23.641  1.00  0.00     0.002 A 
ATOM     18  C   UNL A   1      32.657  25.249  22.741  1.00  0.00     0.066 A 
ATOM     19  C   UNL A   1      34.626  25.075  24.327  1.00  0.00     0.010 A 
ATOM     20  C   UNL A   1      32.831  23.806  22.464  1.00  0.00     0.028 A 
ATOM     21  C   UNL A   1      34.686  23.759  24.079  1.00  0.00     0.001 A 
ATOM     22  C   UNL A   1      33.802  23.134  23.108  1.00  0.00     0.002 A 
BRANCH   9  23
ATOM     23  C   UNL A   1      29.862  28.572  23.033  1.00  0.00     0.015 A 
ATOM     24  C   UNL A   1      28.026  26.970  23.875  1.00  0.00     0.045 C 
ATOM     25  C   UNL A   1      28.505  28.185  23.128  1.00  0.00    -0.042 A 
ATOM     26  C   UNL A   1      27.516  29.006  22.554  1.00  0.00     0.004 A 
ATOM     27  C   UNL A   1      27.853  30.152  21.836  1.00  0.00     0.000 A 
ATOM     28  C   UNL A   1      30.181  29.702  22.251  1.00  0.00     0.010 A 
ATOM     29  C   UNL A   1      29.189  30.483  21.659  1.00  0.00     0.001 A 
ENDBRANCH   9  23
ENDBRANCH   5   8
ENDBRANCH   3   4
ENDBRANCH   2   3
ENDBRANCH   1   2
BRANCH   1  30
ATOM     30  C   UNL A   1      35.152  31.811  30.321  1.00  0.00     0.116 C 
BRANCH  30  31
ATOM     31  N   UNL A   1      34.252  32.668  31.096  1.00  0.00    -0.352 N 
ATOM     32  C   UNL A   1      34.530  33.438  32.220  1.00  0.00     0.251 C 
ATOM     33  H   UNL A   1      33.321  32.703  30.777  1.00  0.00     0.163 HD
ATOM     34  O   UNL A   1      33.675  34.143  32.750  1.00  0.00    -0.269 OA
BRANCH  32  35
ATOM     35  C   UNL A   1      35.937  33.540  32.692  1.00  0.00     0.039 A 
ATOM     36  C   UNL A   1      36.802  34.341  31.936  1.00  0.00     0.014 A 
ATOM     37  C   UNL A   1      36.448  32.586  33.557  1.00  0.00     0.014 A 
ATOM     38  C   UNL A   1      38.118  33.930  31.765  1.00  0.00     0.010 A 
ATOM     39  C   UNL A   1      37.701  32.085  33.282  1.00  0.00     0.010 A 
ATOM     40  C   UNL A   1      38.499  32.713  32.324  1.00  0.00    -0.014 A 
BRANCH  40  41
ATOM     41  C   UNL A   1      39.720  32.013  31.958  1.00  0.00     0.031 A 
ATOM     42  C   UNL A   1      39.597  30.817  31.112  1.00  0.00     0.074 A 
ATOM     43  C   UNL A   1      40.923  32.455  32.382  1.00  0.00     0.049 A 
ATOM     44  N   UNL A   1      40.400  29.814  31.140  1.00  0.00    -0.248 NA
ATOM     45  C   UNL A   1      38.478  30.636  30.197  1.00  0.00     0.031 C 
ATOM     46  C   UNL A   1      42.245  31.978  31.985  1.00  0.00     0.029 A 
ATOM     47  N   UNL A   1      41.186  33.319  33.433  1.00  0.00    -0.354 N 
ATOM     48  C   UNL A   1      40.072  28.986  30.089  1.00  0.00     0.074 A 
ATOM     49  C   UNL A   1      38.826  29.505  29.582  1.00  0.00     0.031 C 
ATOM     50  C   UNL A   1      43.145  32.360  32.910  1.00  0.00     0.029 A 
ATOM     51  C   UNL A   1      42.414  32.971  34.009  1.00  0.00     0.049 A 
ATOM     52  H   UNL A   1      40.604  34.057  33.728  1.00  0.00     0.167 HD
ATOM     53  C   UNL A   1      40.966  28.038  29.691  1.00  0.00     0.034 A 
ATOM     54  C   UNL A   1      42.464  32.545  35.308  1.00  0.00     0.034 A 
ATOM     55  C   UNL A   1      42.129  28.026  30.582  1.00  0.00     0.049 A 
ATOM     56  C   UNL A   1      42.830  31.076  35.430  1.00  0.00     0.074 A 
ATOM     57  C   UNL A   1      43.376  28.623  30.495  1.00  0.00     0.029 A 
ATOM     58  N   UNL A   1      41.969  27.644  31.912  1.00  0.00    -0.354 N 
ATOM     59  N   UNL A   1      42.814  30.219  34.443  1.00  0.00    -0.248 NA
ATOM     60  C   UNL A   1      43.227  30.465  36.694  1.00  0.00     0.031 C 
ATOM     61  C   UNL A   1      43.915  28.694  31.808  1.00  0.00     0.029 A 
ATOM     62  C   UNL A   1      43.027  28.092  32.684  1.00  0.00     0.049 A 
ATOM     63  H   UNL A   1      41.207  27.125  32.256  1.00  0.00     0.167 HD
ATOM     64  C   UNL A   1      43.118  28.966  34.914  1.00  0.00     0.074 A 
ATOM     65  C   UNL A   1      43.423  29.190  36.320  1.00  0.00     0.031 C 
ATOM     66  C   UNL A   1      43.063  27.848  34.124  1.00  0.00     0.034 A 
BRANCH  53  67
ATOM     67  C   UNL A   1      40.938  27.366  28.334  1.00  0.00     0.023 A 
ATOM     68  C   UNL A   1      40.919  25.956  28.275  1.00  0.00     0.031 A 
ATOM     69  C   UNL A   1      40.992  28.015  27.085  1.00  0.00     0.131 A 
ATOM     70  C   UNL A   1      41.057  25.267  27.054  1.00  0.00     0.055 A 
ATOM     71  C   UNL A   1      41.186  27.334  25.874  1.00  0.00     0.041 A 
ATOM     72  F   UNL A   1      40.800  29.334  26.963  1.00  0.00    -0.206 F 
ATOM     73  C   UNL A   1      41.231  25.949  25.856  1.00  0.00     0.022 A 
BRANCH  70  74
ATOM     74  S   UNL A   1      41.002  23.455  27.056  1.00  0.00     0.124 S 
ATOM     75  O   UNL A   1      41.536  23.132  28.375  1.00  0.00    -0.237 OA
ATOM     76  O   UNL A   1      39.582  23.189  26.850  1.00  0.00    -0.237 OA
ATOM     77  O   UNL A   1      41.866  23.089  25.934  1.00  0.00    -0.744 OA
ENDBRANCH  70  74
ENDBRANCH  53  67
BRANCH  54  78
ATOM     78  C   UNL A   1      41.458  33.242  36.173  1.00  0.00     0.023 A 
ATOM     79  C   UNL A   1      40.141  32.731  36.189  1.00  0.00     0.031 A 
ATOM     80  C   UNL A   1      41.874  34.018  37.264  1.00  0.00     0.131 A 
ATOM     81  C   UNL A   1      39.368  32.822  37.359  1.00  0.00     0.055 A 
ATOM     82  C   UNL A   1      41.077  34.142  38.406  1.00  0.00     0.041 A 
ATOM     83  F   UNL A   1      43.111  34.532  37.306  1.00  0.00    -0.206 F 
ATOM     84  C   UNL A   1      39.850  33.487  38.484  1.00  0.00     0.022 A 
BRANCH  81  85
ATOM     85  S   UNL A   1      37.854  31.833  37.498  1.00  0.00     0.124 S 
ATOM     86  O   UNL A   1      37.778  31.580  38.932  1.00  0.00    -0.237 OA
ATOM     87  O   UNL A   1      36.846  32.735  36.954  1.00  0.00    -0.237 OA
ATOM     88  O   UNL A   1      38.118  30.668  36.656  1.00  0.00    -0.744 OA
ENDBRANCH  81  85
ENDBRANCH  54  78
BRANCH  66  89
ATOM     89  C   UNL A   1      43.136  26.420  34.638  1.00  0.00     0.023 A 
ATOM     90  C   UNL A   1      44.333  25.694  34.702  1.00  0.00     0.031 A 
ATOM     91  C   UNL A   1      41.994  25.741  35.125  1.00  0.00     0.131 A 
ATOM     92  C   UNL A   1      44.350  24.338  35.067  1.00  0.00     0.055 A 
ATOM     93  C   UNL A   1      42.033  24.426  35.605  1.00  0.00     0.041 A 
ATOM     94  F   UNL A   1      40.785  26.321  35.164  1.00  0.00    -0.206 F 
ATOM     95  C   UNL A   1      43.211  23.701  35.545  1.00  0.00     0.022 A 
BRANCH  92  96
ATOM     96  S   UNL A   1      45.874  23.407  34.767  1.00  0.00     0.124 S 
ATOM     97  O   UNL A   1      45.365  22.219  34.087  1.00  0.00    -0.237 OA
ATOM     98  O   UNL A   1      46.648  24.326  33.940  1.00  0.00    -0.237 OA
ATOM     99  O   UNL A   1      46.406  23.174  36.108  1.00  0.00    -0.744 OA
ENDBRANCH  92  96
ENDBRANCH  66  89
ENDBRANCH  40  41
ENDBRANCH  32  35
ENDBRANCH  30  31
ENDBRANCH   1  30
TORSDOF 15
ENDMDL
MODEL 3
REMARK VINA RESULT:     -13.5      4.385     10.831
REMARK SMILES Cc1ccccc1[C@@H]1[NH2+][C@@H](C(=O)NCCCCNC(=O)c2ccc(-c3c4nc(c(-c5cc(S(=O)(=O)[O-])ccc5F)c5ccc([nH]5)c(-c5cc(S(=O)(=O)[O-])ccc5F)c5nc(c(-c6cc(S(=O)(=O)[O-])ccc6F)c6ccc3[nH]6)C=C5)C=C4)cc2)CC2=c3ccccc3=N[C@H]21
REMARK SMILES IDX 16 1 15 2 14 3 13 4 11 5 12 6 10 8 8 9 9 10 93 11 85 14
REMARK SMILES IDX 92 15 84 16 86 17 91 18 87 19 90 20 88 21 89 22 7 23 1 24
REMARK SMILES IDX 2 25 3 26 4 27 6 28 5 29 17 30 18 31 19 32 20 34 21 35 22 36
REMARK SMILES IDX 83 37 23 38 82 39 24 40 25 41 26 42 76 43 27 44 81 45 75 46
REMARK SMILES IDX 77 47 28 48 80 49 74 50 73 51 29 53 61 54 41 55 60 56 42 57
REMARK SMILES IDX 45 58 59 59 78 60 43 61 44 62 58 64 79 65 46 66 30 67 31 68
REMARK SMILES IDX 39 69 32 70 38 71 40 72 37 73 33 74 34 75 35 76 36 77 62 78
REMARK SMILES IDX 63 79 71 80 64 81 70 82 72 83 69 84 65 85 66 86 67 87 68 88
REMARK SMILES IDX 47 89 48 90 56 91 49 92 55 93 57 94 54 95 50 96 51 97 52 98
REMARK SMILES IDX 53 99
REMARK H PARENT 13 7 9 12 9 13 18 33 77 52 45 63
REMARK Flexibility Score: inf
ROOT
ATOM      1  C   UNL A   1      39.788  22.907  27.126  1.00  0.00     0.023 C 
ENDROOT
BRANCH   1   2
ATOM      2  C   UNL A   1      39.659  21.562  26.412  1.00  0.00     0.023 C 
BRANCH   2   3
ATOM      3  C   UNL A   1      38.515  21.471  25.392  1.00  0.00     0.116 C 
BRANCH   3   4
ATOM      4  N   UNL A   1      37.784  22.710  25.120  1.00  0.00    -0.351 N 
ATOM      5  C   UNL A   1      36.614  23.201  25.633  1.00  0.00     0.278 C 
ATOM      6  O   UNL A   1      36.491  24.436  25.631  1.00  0.00    -0.268 OA
ATOM      7  H   UNL A   1      38.209  23.292  24.449  1.00  0.00     0.163 HD
BRANCH   5   8
ATOM      8  C   UNL A   1      35.412  22.291  26.040  1.00  0.00     0.277 C 
ATOM      9  C   UNL A   1      33.397  21.530  24.612  1.00  0.00     0.243 C 
ATOM     10  N   UNL A   1      34.871  21.608  24.809  1.00  0.00    -0.327 N 
ATOM     11  C   UNL A   1      32.437  22.099  25.702  1.00  0.00     0.196 C 
ATOM     12  H   UNL A   1      35.255  22.101  24.003  1.00  0.00     0.347 HD
ATOM     13  H   UNL A   1      35.153  20.635  24.929  1.00  0.00     0.347 HD
ATOM     14  C   UNL A   1      33.125  23.248  26.333  1.00  0.00    -0.024 C 
ATOM     15  N   UNL A   1      31.182  22.679  25.120  1.00  0.00    -0.270 NA
ATOM     16  C   UNL A   1      34.407  22.947  26.988  1.00  0.00     0.109 C 
ATOM     17  C   UNL A   1      32.495  24.390  26.115  1.00  0.00     0.002 A 
ATOM     18  C   UNL A   1      31.283  23.942  25.421  1.00  0.00     0.066 A 
ATOM     19  C   UNL A   1      32.770  25.763  26.365  1.00  0.00     0.010 A 
ATOM     20  C   UNL A   1      30.282  24.993  25.133  1.00  0.00     0.028 A 
ATOM     21  C   UNL A   1      31.848  26.672  26.018  1.00  0.00     0.001 A 
ATOM     22  C   UNL A   1      30.578  26.271  25.433  1.00  0.00     0.002 A 
BRANCH   9  23
ATOM     23  C   UNL A   1      32.960  20.109  24.221  1.00  0.00     0.015 A 
ATOM     24  C   UNL A   1      31.910  20.790  21.968  1.00  0.00     0.045 C 
ATOM     25  C   UNL A   1      32.354  19.777  22.987  1.00  0.00    -0.042 A 
ATOM     26  C   UNL A   1      32.209  18.420  22.638  1.00  0.00     0.004 A 
ATOM     27  C   UNL A   1      32.585  17.404  23.513  1.00  0.00     0.000 A 
ATOM     28  C   UNL A   1      33.275  19.063  25.114  1.00  0.00     0.010 A 
ATOM     29  C   UNL A   1      33.090  17.726  24.765  1.00  0.00     0.001 A 
ENDBRANCH   9  23
ENDBRANCH   5   8
ENDBRANCH   3   4
ENDBRANCH   2   3
ENDBRANCH   1   2
BRANCH   1  30
ATOM     30  C   UNL A   1      41.178  23.223  27.682  1.00  0.00     0.116 C 
BRANCH  30  31
ATOM     31  N   UNL A   1      42.121  23.834  26.742  1.00  0.00    -0.352 N 
ATOM     32  C   UNL A   1      42.096  25.106  26.180  1.00  0.00     0.251 C 
ATOM     33  H   UNL A   1      42.878  23.265  26.472  1.00  0.00     0.163 HD
ATOM     34  O   UNL A   1      42.983  25.499  25.427  1.00  0.00    -0.269 OA
BRANCH  32  35
ATOM     35  C   UNL A   1      41.059  26.071  26.632  1.00  0.00     0.039 A 
ATOM     36  C   UNL A   1      41.063  27.334  26.026  1.00  0.00     0.014 A 
ATOM     37  C   UNL A   1      40.420  25.882  27.848  1.00  0.00     0.014 A 
ATOM     38  C   UNL A   1      40.772  28.450  26.801  1.00  0.00     0.010 A 
ATOM     39  C   UNL A   1      40.274  26.981  28.665  1.00  0.00     0.010 A 
ATOM     40  C   UNL A   1      40.532  28.257  28.159  1.00  0.00    -0.014 A 
BRANCH  40  41
ATOM     41  C   UNL A   1      40.541  29.335  29.134  1.00  0.00     0.031 A 
ATOM     42  C   UNL A   1      39.400  30.263  29.140  1.00  0.00     0.074 A 
ATOM     43  C   UNL A   1      41.564  29.471  30.005  1.00  0.00     0.049 A 
ATOM     44  N   UNL A   1      39.463  31.498  29.488  1.00  0.00    -0.248 NA
ATOM     45  C   UNL A   1      38.082  29.861  28.667  1.00  0.00     0.031 C 
ATOM     46  C   UNL A   1      41.659  30.384  31.141  1.00  0.00     0.029 A 
ATOM     47  N   UNL A   1      42.834  28.927  29.911  1.00  0.00    -0.354 N 
ATOM     48  C   UNL A   1      38.175  31.984  29.539  1.00  0.00     0.074 A 
ATOM     49  C   UNL A   1      37.363  30.948  28.948  1.00  0.00     0.031 C 
ATOM     50  C   UNL A   1      42.953  30.517  31.489  1.00  0.00     0.029 A 
ATOM     51  C   UNL A   1      43.749  29.808  30.499  1.00  0.00     0.049 A 
ATOM     52  H   UNL A   1      43.058  28.062  29.498  1.00  0.00     0.167 HD
ATOM     53  C   UNL A   1      37.935  33.152  30.198  1.00  0.00     0.034 A 
ATOM     54  C   UNL A   1      44.733  30.380  29.740  1.00  0.00     0.034 A 
ATOM     55  C   UNL A   1      39.192  33.743  30.664  1.00  0.00     0.049 A 
ATOM     56  C   UNL A   1      44.537  31.875  29.556  1.00  0.00     0.074 A 
ATOM     57  C   UNL A   1      39.852  33.691  31.882  1.00  0.00     0.029 A 
ATOM     58  N   UNL A   1      40.123  34.195  29.733  1.00  0.00    -0.354 N 
ATOM     59  N   UNL A   1      43.431  32.520  29.817  1.00  0.00    -0.248 NA
ATOM     60  C   UNL A   1      45.586  32.749  29.042  1.00  0.00     0.031 C 
ATOM     61  C   UNL A   1      41.216  34.010  31.649  1.00  0.00     0.029 A 
ATOM     62  C   UNL A   1      41.378  34.311  30.306  1.00  0.00     0.049 A 
ATOM     63  H   UNL A   1      39.917  34.403  28.793  1.00  0.00     0.167 HD
ATOM     64  C   UNL A   1      43.570  33.839  29.461  1.00  0.00     0.074 A 
ATOM     65  C   UNL A   1      44.958  33.937  29.035  1.00  0.00     0.031 C 
ATOM     66  C   UNL A   1      42.530  34.731  29.514  1.00  0.00     0.034 A 
BRANCH  53  67
ATOM     67  C   UNL A   1      36.569  33.578  30.696  1.00  0.00     0.023 A 
ATOM     68  C   UNL A   1      35.689  34.218  29.797  1.00  0.00     0.031 A 
ATOM     69  C   UNL A   1      36.090  33.453  32.015  1.00  0.00     0.131 A 
ATOM     70  C   UNL A   1      34.474  34.784  30.232  1.00  0.00     0.055 A 
ATOM     71  C   UNL A   1      34.909  34.064  32.462  1.00  0.00     0.041 A 
ATOM     72  F   UNL A   1      36.705  32.687  32.923  1.00  0.00    -0.206 F 
ATOM     73  C   UNL A   1      34.098  34.745  31.569  1.00  0.00     0.022 A 
BRANCH  70  74
ATOM     74  S   UNL A   1      33.386  35.573  29.015  1.00  0.00     0.124 S 
ATOM     75  O   UNL A   1      32.603  36.481  29.846  1.00  0.00    -0.237 OA
ATOM     76  O   UNL A   1      34.342  36.193  28.103  1.00  0.00    -0.237 OA
ATOM     77  O   UNL A   1      32.637  34.451  28.453  1.00  0.00    -0.744 OA
ENDBRANCH  70  74
ENDBRANCH  53  67
BRANCH  54  78
ATOM     78  C   UNL A   1      45.238  29.454  28.676  1.00  0.00     0.023 A 
ATOM     79  C   UNL A   1      46.082  28.395  29.076  1.00  0.00     0.031 A 
ATOM     80  C   UNL A   1      44.548  29.322  27.463  1.00  0.00     0.131 A 
ATOM     81  C   UNL A   1      46.050  27.173  28.382  1.00  0.00     0.055 A 
ATOM     82  C   UNL A   1      44.560  28.117  26.754  1.00  0.00     0.041 A 
ATOM     83  F   UNL A   1      43.734  30.294  27.029  1.00  0.00    -0.206 F 
ATOM     84  C   UNL A   1      45.256  27.015  27.247  1.00  0.00     0.022 A 
BRANCH  81  85
ATOM     85  S   UNL A   1      46.829  25.713  29.125  1.00  0.00     0.124 S 
ATOM     86  O   UNL A   1      46.175  24.618  28.418  1.00  0.00    -0.237 OA
ATOM     87  O   UNL A   1      48.238  25.923  28.813  1.00  0.00    -0.237 OA
ATOM     88  O   UNL A   1      46.516  25.834  30.547  1.00  0.00    -0.744 OA
ENDBRANCH  81  85
ENDBRANCH  54  78
BRANCH  66  89
ATOM     89  C   UNL A   1      42.550  36.120  28.900  1.00  0.00     0.023 A 
ATOM     90  C   UNL A   1      43.142  37.223  29.531  1.00  0.00     0.031 A 
ATOM     91  C   UNL A   1      42.001  36.382  27.622  1.00  0.00     0.131 A 
ATOM     92  C   UNL A   1      43.037  38.517  28.997  1.00  0.00     0.055 A 
ATOM     93  C   UNL A   1      42.006  37.653  27.034  1.00  0.00     0.041 A 
ATOM     94  F   UNL A   1      41.437  35.417  26.881  1.00  0.00    -0.206 F 
ATOM     95  C   UNL A   1      42.495  38.740  27.737  1.00  0.00     0.022 A 
BRANCH  92  96
ATOM     96  S   UNL A   1      43.511  39.906  30.060  1.00  0.00     0.124 S 
ATOM     97  O   UNL A   1      42.292  40.711  30.053  1.00  0.00    -0.237 OA
ATOM     98  O   UNL A   1      43.824  39.244  31.322  1.00  0.00    -0.237 OA
ATOM     99  O   UNL A   1      44.651  40.499  29.365  1.00  0.00    -0.744 OA
ENDBRANCH  92  96
ENDBRANCH  66  89
ENDBRANCH  40  41
ENDBRANCH  32  35
ENDBRANCH  30  31
ENDBRANCH   1  30
TORSDOF 15
ENDMDL
