MODEL 1
REMARK VINA RESULT:     -11.4      0.000      0.000
REMARK SMILES C[C@@H]1CC[N@@H+]1CC1(CC(=O)NCCCCNC(=O)c2ccc(-c3c4nc(c(-c5cc(S(=O)(=O)[O-])ccc5F)c5ccc([nH]5)c(-c5cc(S(=O)(=O)[O-])ccc5F)c5nc(c(-c6cc(S(=O)(=O)[O-])ccc6F)c6ccc3[nH]6)C=C5)C=C4)cc2)CCCCC1
REMARK SMILES IDX 13 1 12 2 11 3 9 4 10 5 8 7 7 8 82 9 86 10 83 11 85 12 84 13
REMARK SMILES IDX 6 14 5 15 1 16 2 17 3 18 4 19 14 21 15 22 16 23 17 24 18 26
REMARK SMILES IDX 19 27 20 28 81 29 21 30 80 31 22 32 23 33 24 34 74 35 25 36
REMARK SMILES IDX 79 37 73 38 75 39 26 40 78 41 72 42 71 43 27 45 59 46 39 47
REMARK SMILES IDX 58 48 40 49 43 50 57 51 76 52 41 53 42 54 56 56 77 57 44 58
REMARK SMILES IDX 28 59 29 60 37 61 30 62 36 63 38 64 35 65 31 66 32 67 33 68
REMARK SMILES IDX 34 69 60 70 61 71 69 72 62 73 68 74 70 75 67 76 63 77 64 78
REMARK SMILES IDX 65 79 66 80 45 81 46 82 54 83 47 84 53 85 55 86 52 87 48 88
REMARK SMILES IDX 49 89 50 90 51 91
REMARK H PARENT 11 6 5 20 16 25 75 44 43 55
REMARK Flexibility Score: inf
ROOT
ATOM      1  C   UNL A   1      35.144  22.563  24.090  1.00  0.00     0.023 C 
ENDROOT
BRANCH   1   2
ATOM      2  C   UNL A   1      34.967  23.756  23.146  1.00  0.00     0.116 C 
BRANCH   2   3
ATOM      3  N   UNL A   1      33.567  23.988  22.854  1.00  0.00    -0.356 N 
ATOM      4  C   UNL A   1      32.754  25.036  23.153  1.00  0.00     0.220 C 
ATOM      5  O   UNL A   1      31.577  24.974  22.788  1.00  0.00    -0.275 OA
ATOM      6  H   UNL A   1      33.129  23.262  22.353  1.00  0.00     0.163 HD
BRANCH   4   7
ATOM      7  C   UNL A   1      33.258  26.271  23.898  1.00  0.00     0.112 C 
BRANCH   7   8
ATOM      8  C   UNL A   1      32.917  26.430  25.439  1.00  0.00     0.028 C 
ATOM      9  C   UNL A   1      31.470  26.990  25.540  1.00  0.00     0.013 C 
ATOM     10  C   UNL A   1      33.824  27.501  26.082  1.00  0.00     0.013 C 
ATOM     11  C   UNL A   1      31.297  28.391  24.939  1.00  0.00     0.001 C 
ATOM     12  C   UNL A   1      33.695  28.912  25.503  1.00  0.00     0.001 C 
ATOM     13  C   UNL A   1      32.254  29.395  25.572  1.00  0.00     0.000 C 
BRANCH   8  14
ATOM     14  C   UNL A   1      33.037  24.986  26.110  1.00  0.00     0.269 C 
BRANCH  14  15
ATOM     15  N   UNL A   1      32.060  24.101  26.757  1.00  0.00    -0.332 N 
ATOM     16  C   UNL A   1      33.749  22.377  27.655  1.00  0.00     0.075 C 
ATOM     17  C   UNL A   1      32.356  22.728  27.193  1.00  0.00     0.186 C 
ATOM     18  C   UNL A   1      31.714  22.217  25.886  1.00  0.00     0.126 C 
ATOM     19  C   UNL A   1      30.996  23.591  25.878  1.00  0.00     0.268 C 
ATOM     20  H   UNL A   1      31.916  24.783  27.502  1.00  0.00     0.348 HD
ENDBRANCH  14  15
ENDBRANCH   8  14
ENDBRANCH   7   8
ENDBRANCH   4   7
ENDBRANCH   2   3
ENDBRANCH   1   2
BRANCH   1  21
ATOM     21  C   UNL A   1      36.522  21.921  24.083  1.00  0.00     0.023 C 
BRANCH  21  22
ATOM     22  C   UNL A   1      37.105  21.673  25.468  1.00  0.00     0.116 C 
BRANCH  22  23
ATOM     23  N   UNL A   1      38.158  20.663  25.503  1.00  0.00    -0.352 N 
ATOM     24  C   UNL A   1      39.419  20.760  26.061  1.00  0.00     0.251 C 
ATOM     25  H   UNL A   1      37.942  19.803  25.076  1.00  0.00     0.163 HD
ATOM     26  O   UNL A   1      40.217  19.845  25.965  1.00  0.00    -0.269 OA
BRANCH  24  27
ATOM     27  C   UNL A   1      39.785  22.031  26.721  1.00  0.00     0.039 A 
ATOM     28  C   UNL A   1      40.767  22.016  27.714  1.00  0.00     0.014 A 
ATOM     29  C   UNL A   1      39.271  23.235  26.240  1.00  0.00     0.014 A 
ATOM     30  C   UNL A   1      41.321  23.225  28.140  1.00  0.00     0.010 A 
ATOM     31  C   UNL A   1      39.891  24.426  26.595  1.00  0.00     0.010 A 
ATOM     32  C   UNL A   1      40.935  24.431  27.534  1.00  0.00    -0.014 A 
BRANCH  32  33
ATOM     33  C   UNL A   1      41.619  25.714  27.840  1.00  0.00     0.031 A 
ATOM     34  C   UNL A   1      40.883  26.786  28.592  1.00  0.00     0.074 A 
ATOM     35  C   UNL A   1      42.851  25.952  27.346  1.00  0.00     0.049 A 
ATOM     36  N   UNL A   1      41.232  28.023  28.827  1.00  0.00    -0.248 NA
ATOM     37  C   UNL A   1      39.551  26.428  29.104  1.00  0.00     0.031 C 
ATOM     38  C   UNL A   1      43.643  25.011  26.546  1.00  0.00     0.029 A 
ATOM     39  N   UNL A   1      43.649  27.065  27.427  1.00  0.00    -0.354 N 
ATOM     40  C   UNL A   1      40.153  28.599  29.488  1.00  0.00     0.074 A 
ATOM     41  C   UNL A   1      39.115  27.593  29.555  1.00  0.00     0.031 C 
ATOM     42  C   UNL A   1      44.819  25.579  26.234  1.00  0.00     0.029 A 
ATOM     43  C   UNL A   1      44.850  26.936  26.767  1.00  0.00     0.049 A 
ATOM     44  H   UNL A   1      43.387  27.880  27.913  1.00  0.00     0.167 HD
ATOM     45  C   UNL A   1      40.048  29.844  30.015  1.00  0.00     0.034 A 
ATOM     46  C   UNL A   1      45.855  27.819  26.598  1.00  0.00     0.034 A 
ATOM     47  C   UNL A   1      41.107  30.821  29.971  1.00  0.00     0.049 A 
ATOM     48  C   UNL A   1      45.720  29.194  27.198  1.00  0.00     0.074 A 
ATOM     49  C   UNL A   1      41.144  32.081  30.544  1.00  0.00     0.029 A 
ATOM     50  N   UNL A   1      42.318  30.648  29.313  1.00  0.00    -0.354 N 
ATOM     51  N   UNL A   1      44.715  29.707  27.869  1.00  0.00    -0.248 NA
ATOM     52  C   UNL A   1      46.855  30.108  27.020  1.00  0.00     0.031 C 
ATOM     53  C   UNL A   1      42.354  32.688  30.188  1.00  0.00     0.029 A 
ATOM     54  C   UNL A   1      43.098  31.786  29.442  1.00  0.00     0.049 A 
ATOM     55  H   UNL A   1      42.584  29.834  28.826  1.00  0.00     0.167 HD
ATOM     56  C   UNL A   1      45.106  30.998  28.209  1.00  0.00     0.074 A 
ATOM     57  C   UNL A   1      46.444  31.178  27.685  1.00  0.00     0.031 C 
ATOM     58  C   UNL A   1      44.423  31.950  28.894  1.00  0.00     0.034 A 
BRANCH  45  59
ATOM     59  C   UNL A   1      38.735  30.209  30.664  1.00  0.00     0.023 A 
ATOM     60  C   UNL A   1      37.725  30.880  29.951  1.00  0.00     0.031 A 
ATOM     61  C   UNL A   1      38.507  29.931  32.022  1.00  0.00     0.131 A 
ATOM     62  C   UNL A   1      36.578  31.332  30.619  1.00  0.00     0.055 A 
ATOM     63  C   UNL A   1      37.324  30.308  32.662  1.00  0.00     0.041 A 
ATOM     64  F   UNL A   1      39.441  29.309  32.759  1.00  0.00    -0.206 F 
ATOM     65  C   UNL A   1      36.359  31.029  31.965  1.00  0.00     0.022 A 
BRANCH  62  66
ATOM     66  S   UNL A   1      35.457  32.456  29.742  1.00  0.00     0.124 S 
ATOM     67  O   UNL A   1      36.289  33.649  29.599  1.00  0.00    -0.237 OA
ATOM     68  O   UNL A   1      35.172  31.724  28.514  1.00  0.00    -0.237 OA
ATOM     69  O   UNL A   1      34.328  32.599  30.660  1.00  0.00    -0.744 OA
ENDBRANCH  62  66
ENDBRANCH  45  59
BRANCH  46  70
ATOM     70  C   UNL A   1      47.069  27.446  25.819  1.00  0.00     0.023 A 
ATOM     71  C   UNL A   1      47.188  27.788  24.463  1.00  0.00     0.031 A 
ATOM     72  C   UNL A   1      48.112  26.708  26.408  1.00  0.00     0.131 A 
ATOM     73  C   UNL A   1      48.303  27.357  23.727  1.00  0.00     0.055 A 
ATOM     74  C   UNL A   1      49.240  26.320  25.683  1.00  0.00     0.041 A 
ATOM     75  F   UNL A   1      48.051  26.364  27.704  1.00  0.00    -0.206 F 
ATOM     76  C   UNL A   1      49.334  26.634  24.331  1.00  0.00     0.022 A 
BRANCH  73  77
ATOM     77  S   UNL A   1      48.352  27.697  21.946  1.00  0.00     0.124 S 
ATOM     78  O   UNL A   1      49.491  28.602  21.847  1.00  0.00    -0.237 OA
ATOM     79  O   UNL A   1      48.544  26.362  21.389  1.00  0.00    -0.237 OA
ATOM     80  O   UNL A   1      47.049  28.300  21.678  1.00  0.00    -0.744 OA
ENDBRANCH  73  77
ENDBRANCH  46  70
BRANCH  58  81
ATOM     81  C   UNL A   1      45.135  33.257  29.129  1.00  0.00     0.023 A 
ATOM     82  C   UNL A   1      45.133  34.277  28.163  1.00  0.00     0.031 A 
ATOM     83  C   UNL A   1      45.831  33.476  30.330  1.00  0.00     0.131 A 
ATOM     84  C   UNL A   1      45.856  35.457  28.395  1.00  0.00     0.055 A 
ATOM     85  C   UNL A   1      46.506  34.673  30.577  1.00  0.00     0.041 A 
ATOM     86  F   UNL A   1      45.865  32.532  31.283  1.00  0.00    -0.206 F 
ATOM     87  C   UNL A   1      46.530  35.666  29.602  1.00  0.00     0.022 A 
BRANCH  84  88
ATOM     88  S   UNL A   1      45.964  36.687  27.067  1.00  0.00     0.124 S 
ATOM     89  O   UNL A   1      46.130  35.843  25.887  1.00  0.00    -0.237 OA
ATOM     90  O   UNL A   1      44.686  37.382  27.178  1.00  0.00    -0.237 OA
ATOM     91  O   UNL A   1      47.135  37.482  27.431  1.00  0.00    -0.744 OA
ENDBRANCH  84  88
ENDBRANCH  58  81
ENDBRANCH  32  33
ENDBRANCH  24  27
ENDBRANCH  22  23
ENDBRANCH  21  22
ENDBRANCH   1  21
TORSDOF 17
ENDMDL
MODEL 2
REMARK VINA RESULT:     -11.4      5.034      7.758
REMARK SMILES C[C@@H]1CC[N@@H+]1CC1(CC(=O)NCCCCNC(=O)c2ccc(-c3c4nc(c(-c5cc(S(=O)(=O)[O-])ccc5F)c5ccc([nH]5)c(-c5cc(S(=O)(=O)[O-])ccc5F)c5nc(c(-c6cc(S(=O)(=O)[O-])ccc6F)c6ccc3[nH]6)C=C5)C=C4)cc2)CCCCC1
REMARK SMILES IDX 13 1 12 2 11 3 9 4 10 5 8 7 7 8 82 9 86 10 83 11 85 12 84 13
REMARK SMILES IDX 6 14 5 15 1 16 2 17 3 18 4 19 14 21 15 22 16 23 17 24 18 26
REMARK SMILES IDX 19 27 20 28 81 29 21 30 80 31 22 32 23 33 24 34 74 35 25 36
REMARK SMILES IDX 79 37 73 38 75 39 26 40 78 41 72 42 71 43 27 45 59 46 39 47
REMARK SMILES IDX 58 48 40 49 43 50 57 51 76 52 41 53 42 54 56 56 77 57 44 58
REMARK SMILES IDX 28 59 29 60 37 61 30 62 36 63 38 64 35 65 31 66 32 67 33 68
REMARK SMILES IDX 34 69 60 70 61 71 69 72 62 73 68 74 70 75 67 76 63 77 64 78
REMARK SMILES IDX 65 79 66 80 45 81 46 82 54 83 47 84 53 85 55 86 52 87 48 88
REMARK SMILES IDX 49 89 50 90 51 91
REMARK H PARENT 11 6 5 20 16 25 75 44 43 55
REMARK Flexibility Score: inf
ROOT
ATOM      1  C   UNL A   1      32.022  27.805  27.096  1.00  0.00     0.023 C 
ENDROOT
BRANCH   1   2
ATOM      2  C   UNL A   1      31.088  26.799  26.415  1.00  0.00     0.116 C 
BRANCH   2   3
ATOM      3  N   UNL A   1      31.407  25.440  26.807  1.00  0.00    -0.356 N 
ATOM      4  C   UNL A   1      31.665  24.333  26.062  1.00  0.00     0.220 C 
ATOM      5  O   UNL A   1      31.901  23.280  26.659  1.00  0.00    -0.275 OA
ATOM      6  H   UNL A   1      31.442  25.295  27.780  1.00  0.00     0.163 HD
BRANCH   4   7
ATOM      7  C   UNL A   1      31.688  24.367  24.535  1.00  0.00     0.112 C 
BRANCH   7   8
ATOM      8  C   UNL A   1      33.067  24.149  23.783  1.00  0.00     0.028 C 
ATOM      9  C   UNL A   1      34.033  25.276  24.249  1.00  0.00     0.013 C 
ATOM     10  C   UNL A   1      32.890  24.356  22.264  1.00  0.00     0.013 C 
ATOM     11  C   UNL A   1      33.580  26.689  23.865  1.00  0.00     0.001 C 
ATOM     12  C   UNL A   1      32.423  25.750  21.836  1.00  0.00     0.001 C 
ATOM     13  C   UNL A   1      33.368  26.821  22.361  1.00  0.00     0.000 C 
BRANCH   8  14
ATOM     14  C   UNL A   1      33.612  22.704  24.185  1.00  0.00     0.269 C 
BRANCH  14  15
ATOM     15  N   UNL A   1      34.544  22.239  25.221  1.00  0.00    -0.332 N 
ATOM     16  C   UNL A   1      36.706  22.555  23.859  1.00  0.00     0.075 C 
ATOM     17  C   UNL A   1      35.942  21.865  24.962  1.00  0.00     0.186 C 
ATOM     18  C   UNL A   1      35.498  20.387  24.924  1.00  0.00     0.126 C 
ATOM     19  C   UNL A   1      34.280  20.888  25.742  1.00  0.00     0.268 C 
ATOM     20  H   UNL A   1      34.405  23.100  25.751  1.00  0.00     0.348 HD
ENDBRANCH  14  15
ENDBRANCH   8  14
ENDBRANCH   7   8
ENDBRANCH   4   7
ENDBRANCH   2   3
ENDBRANCH   1   2
BRANCH   1  21
ATOM     21  C   UNL A   1      31.580  29.257  27.028  1.00  0.00     0.023 C 
BRANCH  21  22
ATOM     22  C   UNL A   1      32.614  30.199  26.426  1.00  0.00     0.116 C 
BRANCH  22  23
ATOM     23  N   UNL A   1      32.475  31.590  26.846  1.00  0.00    -0.352 N 
ATOM     24  C   UNL A   1      33.391  32.377  27.518  1.00  0.00     0.251 C 
ATOM     25  H   UNL A   1      31.620  32.023  26.621  1.00  0.00     0.163 HD
ATOM     26  O   UNL A   1      33.112  33.514  27.853  1.00  0.00    -0.269 OA
BRANCH  24  27
ATOM     27  C   UNL A   1      34.693  31.772  27.870  1.00  0.00     0.039 A 
ATOM     28  C   UNL A   1      35.771  32.612  28.156  1.00  0.00     0.014 A 
ATOM     29  C   UNL A   1      34.787  30.394  28.067  1.00  0.00     0.014 A 
ATOM     30  C   UNL A   1      36.910  32.075  28.759  1.00  0.00     0.010 A 
ATOM     31  C   UNL A   1      35.879  29.881  28.752  1.00  0.00     0.010 A 
ATOM     32  C   UNL A   1      36.944  30.719  29.123  1.00  0.00    -0.014 A 
BRANCH  32  33
ATOM     33  C   UNL A   1      38.065  30.149  29.914  1.00  0.00     0.031 A 
ATOM     34  C   UNL A   1      38.284  30.609  31.327  1.00  0.00     0.074 A 
ATOM     35  C   UNL A   1      38.942  29.311  29.325  1.00  0.00     0.049 A 
ATOM     36  N   UNL A   1      39.282  30.360  32.134  1.00  0.00    -0.248 NA
ATOM     37  C   UNL A   1      37.267  31.512  31.887  1.00  0.00     0.031 C 
ATOM     38  C   UNL A   1      38.870  28.840  27.939  1.00  0.00     0.029 A 
ATOM     39  N   UNL A   1      40.078  28.716  29.814  1.00  0.00    -0.354 N 
ATOM     40  C   UNL A   1      39.027  31.098  33.285  1.00  0.00     0.074 A 
ATOM     41  C   UNL A   1      37.816  31.853  33.041  1.00  0.00     0.031 C 
ATOM     42  C   UNL A   1      39.901  28.014  27.698  1.00  0.00     0.029 A 
ATOM     43  C   UNL A   1      40.734  27.931  28.893  1.00  0.00     0.049 A 
ATOM     44  H   UNL A   1      40.396  28.841  30.737  1.00  0.00     0.167 HD
ATOM     45  C   UNL A   1      39.724  31.122  34.448  1.00  0.00     0.034 A 
ATOM     46  C   UNL A   1      41.883  27.234  28.996  1.00  0.00     0.034 A 
ATOM     47  C   UNL A   1      40.908  30.335  34.686  1.00  0.00     0.049 A 
ATOM     48  C   UNL A   1      42.637  27.271  30.300  1.00  0.00     0.074 A 
ATOM     49  C   UNL A   1      41.646  30.216  35.850  1.00  0.00     0.029 A 
ATOM     50  N   UNL A   1      41.529  29.534  33.737  1.00  0.00    -0.354 N 
ATOM     51  N   UNL A   1      42.353  27.930  31.399  1.00  0.00    -0.248 NA
ATOM     52  C   UNL A   1      43.864  26.467  30.378  1.00  0.00     0.031 C 
ATOM     53  C   UNL A   1      42.741  29.384  35.591  1.00  0.00     0.029 A 
ATOM     54  C   UNL A   1      42.656  28.937  34.281  1.00  0.00     0.049 A 
ATOM     55  H   UNL A   1      41.215  29.407  32.812  1.00  0.00     0.167 HD
ATOM     56  C   UNL A   1      43.358  27.605  32.305  1.00  0.00     0.074 A 
ATOM     57  C   UNL A   1      44.243  26.678  31.630  1.00  0.00     0.031 C 
ATOM     58  C   UNL A   1      43.535  28.031  33.582  1.00  0.00     0.034 A 
BRANCH  45  59
ATOM     59  C   UNL A   1      39.221  32.045  35.532  1.00  0.00     0.023 A 
ATOM     60  C   UNL A   1      39.643  33.385  35.611  1.00  0.00     0.031 A 
ATOM     61  C   UNL A   1      38.353  31.569  36.529  1.00  0.00     0.131 A 
ATOM     62  C   UNL A   1      39.273  34.172  36.710  1.00  0.00     0.055 A 
ATOM     63  C   UNL A   1      37.917  32.386  37.576  1.00  0.00     0.041 A 
ATOM     64  F   UNL A   1      37.930  30.295  36.517  1.00  0.00    -0.206 F 
ATOM     65  C   UNL A   1      38.392  33.690  37.681  1.00  0.00     0.022 A 
BRANCH  62  66
ATOM     66  S   UNL A   1      40.086  35.778  36.933  1.00  0.00     0.124 S 
ATOM     67  O   UNL A   1      39.478  36.245  38.177  1.00  0.00    -0.237 OA
ATOM     68  O   UNL A   1      41.495  35.412  37.008  1.00  0.00    -0.237 OA
ATOM     69  O   UNL A   1      39.697  36.527  35.739  1.00  0.00    -0.744 OA
ENDBRANCH  62  66
ENDBRANCH  45  59
BRANCH  46  70
ATOM     70  C   UNL A   1      42.406  26.457  27.838  1.00  0.00     0.023 A 
ATOM     71  C   UNL A   1      42.008  25.127  27.625  1.00  0.00     0.031 A 
ATOM     72  C   UNL A   1      43.341  27.017  26.949  1.00  0.00     0.131 A 
ATOM     73  C   UNL A   1      42.575  24.386  26.576  1.00  0.00     0.055 A 
ATOM     74  C   UNL A   1      43.868  26.290  25.881  1.00  0.00     0.041 A 
ATOM     75  F   UNL A   1      43.747  28.287  27.104  1.00  0.00    -0.206 F 
ATOM     76  C   UNL A   1      43.494  24.962  25.697  1.00  0.00     0.022 A 
BRANCH  73  77
ATOM     77  S   UNL A   1      42.143  22.632  26.420  1.00  0.00     0.124 S 
ATOM     78  O   UNL A   1      42.643  22.089  27.678  1.00  0.00    -0.237 OA
ATOM     79  O   UNL A   1      40.691  22.689  26.279  1.00  0.00    -0.237 OA
ATOM     80  O   UNL A   1      42.866  22.207  25.225  1.00  0.00    -0.744 OA
ENDBRANCH  73  77
ENDBRANCH  46  70
BRANCH  58  81
ATOM     81  C   UNL A   1      44.720  27.471  34.326  1.00  0.00     0.023 A 
ATOM     82  C   UNL A   1      44.629  26.272  35.051  1.00  0.00     0.031 A 
ATOM     83  C   UNL A   1      45.948  28.154  34.316  1.00  0.00     0.131 A 
ATOM     84  C   UNL A   1      45.737  25.814  35.780  1.00  0.00     0.055 A 
ATOM     85  C   UNL A   1      47.062  27.666  35.000  1.00  0.00     0.041 A 
ATOM     86  F   UNL A   1      46.085  29.305  33.639  1.00  0.00    -0.206 F 
ATOM     87  C   UNL A   1      46.956  26.496  35.746  1.00  0.00     0.022 A 
BRANCH  84  88
ATOM     88  S   UNL A   1      45.541  24.349  36.832  1.00  0.00     0.124 S 
ATOM     89  O   UNL A   1      44.703  24.862  37.911  1.00  0.00    -0.237 OA
ATOM     90  O   UNL A   1      44.906  23.397  35.929  1.00  0.00    -0.237 OA
ATOM     91  O   UNL A   1      46.912  24.018  37.215  1.00  0.00    -0.744 OA
ENDBRANCH  84  88
ENDBRANCH  58  81
ENDBRANCH  32  33
ENDBRANCH  24  27
ENDBRANCH  22  23
ENDBRANCH  21  22
ENDBRANCH   1  21
TORSDOF 17
ENDMDL
MODEL 3
REMARK VINA RESULT:     -11.3      1.017      2.382
REMARK SMILES C[C@@H]1CC[N@@H+]1CC1(CC(=O)NCCCCNC(=O)c2ccc(-c3c4nc(c(-c5cc(S(=O)(=O)[O-])ccc5F)c5ccc([nH]5)c(-c5cc(S(=O)(=O)[O-])ccc5F)c5nc(c(-c6cc(S(=O)(=O)[O-])ccc6F)c6ccc3[nH]6)C=C5)C=C4)cc2)CCCCC1
REMARK SMILES IDX 13 1 12 2 11 3 9 4 10 5 8 7 7 8 82 9 86 10 83 11 85 12 84 13
REMARK SMILES IDX 6 14 5 15 1 16 2 17 3 18 4 19 14 21 15 22 16 23 17 24 18 26
REMARK SMILES IDX 19 27 20 28 81 29 21 30 80 31 22 32 23 33 24 34 74 35 25 36
REMARK SMILES IDX 79 37 73 38 75 39 26 40 78 41 72 42 71 43 27 45 59 46 39 47
REMARK SMILES IDX 58 48 40 49 43 50 57 51 76 52 41 53 42 54 56 56 77 57 44 58
REMARK SMILES IDX 28 59 29 60 37 61 30 62 36 63 38 64 35 65 31 66 32 67 33 68
REMARK SMILES IDX 34 69 60 70 61 71 69 72 62 73 68 74 70 75 67 76 63 77 64 78
REMARK SMILES IDX 65 79 66 80 45 81 46 82 54 83 47 84 53 85 55 86 52 87 48 88
REMARK SMILES IDX 49 89 50 90 51 91
REMARK H PARENT 11 6 5 20 16 25 75 44 43 55
REMARK Flexibility Score: inf
ROOT
ATOM      1  C   UNL A   1      34.400  21.088  26.254  1.00  0.00     0.023 C 
ENDROOT
BRANCH   1   2
ATOM      2  C   UNL A   1      32.976  21.390  25.776  1.00  0.00     0.116 C 
BRANCH   2   3
ATOM      3  N   UNL A   1      32.336  22.374  26.626  1.00  0.00    -0.356 N 
ATOM      4  C   UNL A   1      31.660  23.514  26.321  1.00  0.00     0.220 C 
ATOM      5  O   UNL A   1      31.217  24.188  27.255  1.00  0.00    -0.275 OA
ATOM      6  H   UNL A   1      32.403  22.185  27.591  1.00  0.00     0.163 HD
BRANCH   4   7
ATOM      7  C   UNL A   1      31.425  23.959  24.879  1.00  0.00     0.112 C 
BRANCH   7   8
ATOM      8  C   UNL A   1      32.084  25.311  24.376  1.00  0.00     0.028 C 
ATOM      9  C   UNL A   1      32.793  25.009  23.025  1.00  0.00     0.013 C 
ATOM     10  C   UNL A   1      33.203  25.754  25.342  1.00  0.00     0.013 C 
ATOM     11  C   UNL A   1      33.950  24.009  23.134  1.00  0.00     0.001 C 
ATOM     12  C   UNL A   1      34.372  24.779  25.494  1.00  0.00     0.001 C 
ATOM     13  C   UNL A   1      34.998  24.471  24.141  1.00  0.00     0.000 C 
BRANCH   8  14
ATOM     14  C   UNL A   1      30.913  26.381  24.199  1.00  0.00     0.269 C 
BRANCH  14  15
ATOM     15  N   UNL A   1      30.552  27.297  23.109  1.00  0.00    -0.332 N 
ATOM     16  C   UNL A   1      32.675  28.750  23.206  1.00  0.00     0.075 C 
ATOM     17  C   UNL A   1      31.214  28.586  22.863  1.00  0.00     0.186 C 
ATOM     18  C   UNL A   1      30.057  29.279  23.615  1.00  0.00     0.126 C 
ATOM     19  C   UNL A   1      29.264  27.991  23.274  1.00  0.00     0.268 C 
ATOM     20  H   UNL A   1      30.729  26.567  22.419  1.00  0.00     0.348 HD
ENDBRANCH  14  15
ENDBRANCH   8  14
ENDBRANCH   7   8
ENDBRANCH   4   7
ENDBRANCH   2   3
ENDBRANCH   1   2
BRANCH   1  21
ATOM     21  C   UNL A   1      35.473  21.125  25.178  1.00  0.00     0.023 C 
BRANCH  21  22
ATOM     22  C   UNL A   1      36.823  21.642  25.658  1.00  0.00     0.116 C 
BRANCH  22  23
ATOM     23  N   UNL A   1      37.908  20.671  25.552  1.00  0.00    -0.352 N 
ATOM     24  C   UNL A   1      39.215  20.798  25.983  1.00  0.00     0.251 C 
ATOM     25  H   UNL A   1      37.680  19.817  25.119  1.00  0.00     0.163 HD
ATOM     26  O   UNL A   1      40.031  19.918  25.776  1.00  0.00    -0.269 OA
BRANCH  24  27
ATOM     27  C   UNL A   1      39.603  22.061  26.647  1.00  0.00     0.039 A 
ATOM     28  C   UNL A   1      40.593  22.028  27.631  1.00  0.00     0.014 A 
ATOM     29  C   UNL A   1      39.100  23.274  26.176  1.00  0.00     0.014 A 
ATOM     30  C   UNL A   1      41.166  23.227  28.059  1.00  0.00     0.010 A 
ATOM     31  C   UNL A   1      39.738  24.455  26.533  1.00  0.00     0.010 A 
ATOM     32  C   UNL A   1      40.790  24.442  27.463  1.00  0.00    -0.014 A 
BRANCH  32  33
ATOM     33  C   UNL A   1      41.493  25.714  27.770  1.00  0.00     0.031 A 
ATOM     34  C   UNL A   1      40.780  26.787  28.544  1.00  0.00     0.074 A 
ATOM     35  C   UNL A   1      42.719  25.943  27.259  1.00  0.00     0.049 A 
ATOM     36  N   UNL A   1      41.147  28.018  28.785  1.00  0.00    -0.248 NA
ATOM     37  C   UNL A   1      39.452  26.439  29.073  1.00  0.00     0.031 C 
ATOM     38  C   UNL A   1      43.488  25.002  26.439  1.00  0.00     0.029 A 
ATOM     39  N   UNL A   1      43.531  27.047  27.338  1.00  0.00    -0.354 N 
ATOM     40  C   UNL A   1      40.084  28.600  29.467  1.00  0.00     0.074 A 
ATOM     41  C   UNL A   1      39.036  27.604  29.541  1.00  0.00     0.031 C 
ATOM     42  C   UNL A   1      44.666  25.560  26.113  1.00  0.00     0.029 A 
ATOM     43  C   UNL A   1      44.720  26.912  26.658  1.00  0.00     0.049 A 
ATOM     44  H   UNL A   1      43.286  27.860  27.835  1.00  0.00     0.167 HD
ATOM     45  C   UNL A   1      40.001  29.841  30.008  1.00  0.00     0.034 A 
ATOM     46  C   UNL A   1      45.732  27.785  26.481  1.00  0.00     0.034 A 
ATOM     47  C   UNL A   1      41.070  30.807  29.956  1.00  0.00     0.049 A 
ATOM     48  C   UNL A   1      45.621  29.156  27.096  1.00  0.00     0.074 A 
ATOM     49  C   UNL A   1      41.130  32.060  30.539  1.00  0.00     0.029 A 
ATOM     50  N   UNL A   1      42.268  30.626  29.278  1.00  0.00    -0.354 N 
ATOM     51  N   UNL A   1      44.632  29.673  27.788  1.00  0.00    -0.248 NA
ATOM     52  C   UNL A   1      46.764  30.059  26.909  1.00  0.00     0.031 C 
ATOM     53  C   UNL A   1      42.341  32.657  30.171  1.00  0.00     0.029 A 
ATOM     54  C   UNL A   1      43.063  31.754  29.405  1.00  0.00     0.049 A 
ATOM     55  H   UNL A   1      42.518  29.814  28.779  1.00  0.00     0.167 HD
ATOM     56  C   UNL A   1      45.042  30.956  28.133  1.00  0.00     0.074 A 
ATOM     57  C   UNL A   1      46.375  31.127  27.590  1.00  0.00     0.031 C 
ATOM     58  C   UNL A   1      44.381  31.910  28.837  1.00  0.00     0.034 A 
BRANCH  45  59
ATOM     59  C   UNL A   1      38.702  30.214  30.680  1.00  0.00     0.023 A 
ATOM     60  C   UNL A   1      37.692  30.910  29.992  1.00  0.00     0.031 A 
ATOM     61  C   UNL A   1      38.489  29.916  32.037  1.00  0.00     0.131 A 
ATOM     62  C   UNL A   1      36.561  31.368  30.683  1.00  0.00     0.055 A 
ATOM     63  C   UNL A   1      37.320  30.300  32.699  1.00  0.00     0.041 A 
ATOM     64  F   UNL A   1      39.424  29.270  32.751  1.00  0.00    -0.206 F 
ATOM     65  C   UNL A   1      36.356  31.046  32.027  1.00  0.00     0.022 A 
BRANCH  62  66
ATOM     66  S   UNL A   1      35.445  32.522  29.840  1.00  0.00     0.124 S 
ATOM     67  O   UNL A   1      35.191  31.820  28.583  1.00  0.00    -0.237 OA
ATOM     68  O   UNL A   1      34.320  32.605  30.764  1.00  0.00    -0.237 OA
ATOM     69  O   UNL A   1      36.242  33.741  29.715  1.00  0.00    -0.744 OA
ENDBRANCH  62  66
ENDBRANCH  45  59
BRANCH  46  70
ATOM     70  C   UNL A   1      46.930  27.406  25.681  1.00  0.00     0.023 A 
ATOM     71  C   UNL A   1      47.054  27.803  24.340  1.00  0.00     0.031 A 
ATOM     72  C   UNL A   1      47.949  26.609  26.231  1.00  0.00     0.131 A 
ATOM     73  C   UNL A   1      48.151  27.368  23.579  1.00  0.00     0.055 A 
ATOM     74  C   UNL A   1      49.061  26.215  25.483  1.00  0.00     0.041 A 
ATOM     75  F   UNL A   1      47.882  26.211  27.511  1.00  0.00    -0.206 F 
ATOM     76  C   UNL A   1      49.160  26.586  24.145  1.00  0.00     0.022 A 
BRANCH  73  77
ATOM     77  S   UNL A   1      48.204  27.783  21.815  1.00  0.00     0.124 S 
ATOM     78  O   UNL A   1      46.904  28.414  21.618  1.00  0.00    -0.237 OA
ATOM     79  O   UNL A   1      49.363  28.667  21.747  1.00  0.00    -0.237 OA
ATOM     80  O   UNL A   1      48.374  26.487  21.164  1.00  0.00    -0.744 OA
ENDBRANCH  73  77
ENDBRANCH  46  70
BRANCH  58  81
ATOM     81  C   UNL A   1      45.111  33.207  29.074  1.00  0.00     0.023 A 
ATOM     82  C   UNL A   1      44.987  34.289  28.187  1.00  0.00     0.031 A 
ATOM     83  C   UNL A   1      45.947  33.353  30.193  1.00  0.00     0.131 A 
ATOM     84  C   UNL A   1      45.728  35.459  28.410  1.00  0.00     0.055 A 
ATOM     85  C   UNL A   1      46.642  34.538  30.438  1.00  0.00     0.041 A 
ATOM     86  F   UNL A   1      46.100  32.347  31.069  1.00  0.00    -0.206 F 
ATOM     87  C   UNL A   1      46.543  35.595  29.537  1.00  0.00     0.022 A 
BRANCH  84  88
ATOM     88  S   UNL A   1      45.668  36.777  27.165  1.00  0.00     0.124 S 
ATOM     89  O   UNL A   1      46.383  37.858  27.836  1.00  0.00    -0.237 OA
ATOM     90  O   UNL A   1      46.351  36.169  26.030  1.00  0.00    -0.237 OA
ATOM     91  O   UNL A   1      44.236  37.005  26.977  1.00  0.00    -0.744 OA
ENDBRANCH  84  88
ENDBRANCH  58  81
ENDBRANCH  32  33
ENDBRANCH  24  27
ENDBRANCH  22  23
ENDBRANCH  21  22
ENDBRANCH   1  21
TORSDOF 17
ENDMDL
