MODEL 1
REMARK VINA RESULT:     -12.5      0.000      0.000
REMARK SMILES O=C(NCCCCNC(=O)c1nccnc1C(=O)Nc1ccc(-n2cncn2)c(Cl)c1)c1ccc(-c2c3nc(c(-c4cc(S(=O)(=O)[O-])ccc4F)c4ccc([nH]4)c(-c4cc(S(=O)(=O)[O-])ccc4F)c4nc(c(-c5cc(S(=O)(=O)[O-])ccc5F)c5ccc2[nH]5)C=C4)C=C3)cc1
REMARK SMILES IDX 5 1 4 2 3 3 1 4 2 5 32 7 33 8 94 9 34 10 93 11 35 12 36 13
REMARK SMILES IDX 37 14 87 15 38 16 92 17 86 18 88 19 39 20 91 21 85 22 84 23
REMARK SMILES IDX 40 25 72 26 52 27 71 28 53 29 56 30 70 31 89 32 54 33 55 34
REMARK SMILES IDX 69 36 90 37 57 38 41 39 42 40 50 41 43 42 49 43 51 44 48 45
REMARK SMILES IDX 44 46 45 47 46 48 47 49 73 50 74 51 82 52 75 53 81 54 83 55
REMARK SMILES IDX 80 56 76 57 77 58 78 59 79 60 58 61 59 62 67 63 60 64 66 65
REMARK SMILES IDX 68 66 65 67 61 68 62 69 63 70 64 71 6 72 7 73 8 74 9 75
REMARK SMILES IDX 10 77 11 78 12 79 16 80 13 81 15 82 14 83 17 84 18 85 19 86
REMARK SMILES IDX 20 88 21 89 31 90 22 91 29 92 23 93 30 94 24 95 25 96 28 97
REMARK SMILES IDX 26 98 27 99
REMARK H PARENT 3 6 88 24 56 35 8 76 19 87
REMARK Flexibility Score: inf
ROOT
ATOM      1  C   UNL A   1      32.134  29.413  26.009  1.00  0.00     0.023 C 
ENDROOT
BRANCH   1   2
ATOM      2  C   UNL A   1      33.492  29.937  26.457  1.00  0.00     0.116 C 
BRANCH   2   3
ATOM      3  N   UNL A   1      33.462  30.977  27.456  1.00  0.00    -0.352 N 
ATOM      4  O   UNL A   1      34.177  32.697  28.659  1.00  0.00    -0.269 OA
ATOM      5  C   UNL A   1      34.459  31.607  28.154  1.00  0.00     0.251 C 
ATOM      6  H   UNL A   1      32.557  31.292  27.679  1.00  0.00     0.163 HD
BRANCH   5   7
ATOM      7  C   UNL A   1      35.781  30.996  28.451  1.00  0.00     0.039 A 
ATOM      8  C   UNL A   1      36.052  29.637  28.627  1.00  0.00     0.014 A 
ATOM      9  C   UNL A   1      36.834  31.919  28.578  1.00  0.00     0.014 A 
ATOM     10  C   UNL A   1      37.321  29.225  29.043  1.00  0.00     0.010 A 
ATOM     11  C   UNL A   1      38.096  31.514  28.985  1.00  0.00     0.010 A 
ATOM     12  C   UNL A   1      38.329  30.169  29.262  1.00  0.00    -0.014 A 
BRANCH  12  13
ATOM     13  C   UNL A   1      39.698  29.719  29.528  1.00  0.00     0.031 A 
ATOM     14  C   UNL A   1      40.049  29.789  30.976  1.00  0.00     0.074 A 
ATOM     15  C   UNL A   1      40.481  29.109  28.611  1.00  0.00     0.049 A 
ATOM     16  N   UNL A   1      40.926  30.547  31.548  1.00  0.00    -0.248 NA
ATOM     17  C   UNL A   1      39.180  29.073  31.932  1.00  0.00     0.031 C 
ATOM     18  C   UNL A   1      40.126  28.767  27.232  1.00  0.00     0.029 A 
ATOM     19  N   UNL A   1      41.728  28.561  28.734  1.00  0.00    -0.354 N 
ATOM     20  C   UNL A   1      40.912  30.183  32.893  1.00  0.00     0.074 A 
ATOM     21  C   UNL A   1      39.671  29.494  33.097  1.00  0.00     0.031 C 
ATOM     22  C   UNL A   1      41.019  27.878  26.740  1.00  0.00     0.029 A 
ATOM     23  C   UNL A   1      42.073  27.660  27.720  1.00  0.00     0.049 A 
ATOM     24  H   UNL A   1      42.335  28.783  29.477  1.00  0.00     0.167 HD
ATOM     25  C   UNL A   1      42.060  30.191  33.629  1.00  0.00     0.034 A 
ATOM     26  C   UNL A   1      43.103  26.761  27.703  1.00  0.00     0.034 A 
ATOM     27  C   UNL A   1      43.066  31.020  32.992  1.00  0.00     0.049 A 
ATOM     28  C   UNL A   1      44.094  27.229  28.705  1.00  0.00     0.074 A 
ATOM     29  C   UNL A   1      43.113  32.334  32.564  1.00  0.00     0.029 A 
ATOM     30  N   UNL A   1      44.120  30.396  32.357  1.00  0.00    -0.354 N 
ATOM     31  N   UNL A   1      44.772  28.335  28.571  1.00  0.00    -0.248 NA
ATOM     32  C   UNL A   1      43.950  26.752  30.072  1.00  0.00     0.031 C 
ATOM     33  C   UNL A   1      43.837  32.296  31.334  1.00  0.00     0.029 A 
ATOM     34  C   UNL A   1      44.278  30.988  31.131  1.00  0.00     0.049 A 
ATOM     35  H   UNL A   1      44.661  29.659  32.720  1.00  0.00     0.167 HD
ATOM     36  C   UNL A   1      44.735  28.925  29.825  1.00  0.00     0.074 A 
ATOM     37  C   UNL A   1      44.289  27.865  30.730  1.00  0.00     0.031 C 
ATOM     38  C   UNL A   1      44.777  30.285  29.967  1.00  0.00     0.034 A 
BRANCH  25  39
ATOM     39  C   UNL A   1      42.437  29.093  34.619  1.00  0.00     0.023 A 
ATOM     40  C   UNL A   1      43.066  29.524  35.802  1.00  0.00     0.031 A 
ATOM     41  C   UNL A   1      42.553  27.712  34.344  1.00  0.00     0.131 A 
ATOM     42  C   UNL A   1      43.940  28.680  36.504  1.00  0.00     0.055 A 
ATOM     43  C   UNL A   1      43.364  26.853  35.095  1.00  0.00     0.041 A 
ATOM     44  F   UNL A   1      41.953  27.113  33.311  1.00  0.00    -0.206 F 
ATOM     45  C   UNL A   1      44.109  27.346  36.149  1.00  0.00     0.022 A 
BRANCH  42  46
ATOM     46  S   UNL A   1      45.034  29.438  37.729  1.00  0.00     0.124 S 
ATOM     47  O   UNL A   1      44.064  30.161  38.550  1.00  0.00    -0.237 OA
ATOM     48  O   UNL A   1      45.649  28.265  38.343  1.00  0.00    -0.237 OA
ATOM     49  O   UNL A   1      45.922  30.266  36.924  1.00  0.00    -0.744 OA
ENDBRANCH  42  46
ENDBRANCH  25  39
BRANCH  26  50
ATOM     50  C   UNL A   1      43.117  25.371  27.132  1.00  0.00     0.023 A 
ATOM     51  C   UNL A   1      44.028  24.927  26.137  1.00  0.00     0.031 A 
ATOM     52  C   UNL A   1      42.356  24.363  27.767  1.00  0.00     0.131 A 
ATOM     53  C   UNL A   1      44.135  23.544  25.821  1.00  0.00     0.055 A 
ATOM     54  C   UNL A   1      42.467  23.006  27.453  1.00  0.00     0.041 A 
ATOM     55  F   UNL A   1      41.531  24.650  28.785  1.00  0.00    -0.206 F 
ATOM     56  C   UNL A   1      43.364  22.588  26.486  1.00  0.00     0.022 A 
BRANCH  53  57
ATOM     57  S   UNL A   1      45.338  22.931  24.585  1.00  0.00     0.124 S 
ATOM     58  O   UNL A   1      46.108  21.961  25.349  1.00  0.00    -0.237 OA
ATOM     59  O   UNL A   1      44.471  22.397  23.537  1.00  0.00    -0.237 OA
ATOM     60  O   UNL A   1      46.079  24.134  24.201  1.00  0.00    -0.744 OA
ENDBRANCH  53  57
ENDBRANCH  26  50
BRANCH  38  61
ATOM     61  C   UNL A   1      45.195  31.126  28.780  1.00  0.00     0.023 A 
ATOM     62  C   UNL A   1      46.525  31.470  28.447  1.00  0.00     0.031 A 
ATOM     63  C   UNL A   1      44.179  31.506  27.885  1.00  0.00     0.131 A 
ATOM     64  C   UNL A   1      46.790  32.185  27.262  1.00  0.00     0.055 A 
ATOM     65  C   UNL A   1      44.448  32.192  26.703  1.00  0.00     0.041 A 
ATOM     66  F   UNL A   1      42.898  31.184  28.131  1.00  0.00    -0.206 F 
ATOM     67  C   UNL A   1      45.755  32.541  26.390  1.00  0.00     0.022 A 
BRANCH  64  68
ATOM     68  S   UNL A   1      48.489  32.687  26.832  1.00  0.00     0.124 S 
ATOM     69  O   UNL A   1      48.966  33.354  28.039  1.00  0.00    -0.237 OA
ATOM     70  O   UNL A   1      49.126  31.411  26.514  1.00  0.00    -0.237 OA
ATOM     71  O   UNL A   1      48.301  33.573  25.681  1.00  0.00    -0.744 OA
ENDBRANCH  64  68
ENDBRANCH  38  61
ENDBRANCH  12  13
ENDBRANCH   5   7
ENDBRANCH   2   3
ENDBRANCH   1   2
BRANCH   1  72
ATOM     72  C   UNL A   1      31.564  28.175  26.731  1.00  0.00     0.023 C 
BRANCH  72  73
ATOM     73  C   UNL A   1      32.150  26.783  26.468  1.00  0.00     0.116 C 
BRANCH  73  74
ATOM     74  N   UNL A   1      31.285  25.644  26.761  1.00  0.00    -0.351 N 
ATOM     75  C   UNL A   1      31.526  24.287  26.611  1.00  0.00     0.272 C 
ATOM     76  H   UNL A   1      30.399  25.875  27.120  1.00  0.00     0.163 HD
ATOM     77  O   UNL A   1      30.791  23.462  27.145  1.00  0.00    -0.267 OA
BRANCH  75  78
ATOM     78  C   UNL A   1      32.745  23.831  25.927  1.00  0.00     0.159 A 
ATOM     79  N   UNL A   1      33.780  23.703  26.835  1.00  0.00    -0.247 NA
ATOM     80  C   UNL A   1      32.859  23.455  24.594  1.00  0.00     0.159 A 
ATOM     81  C   UNL A   1      34.940  23.204  26.380  1.00  0.00     0.132 A 
ATOM     82  N   UNL A   1      34.090  22.984  24.172  1.00  0.00    -0.247 NA
ATOM     83  C   UNL A   1      35.097  22.860  25.063  1.00  0.00     0.132 A 
BRANCH  80  84
ATOM     84  C   UNL A   1      31.855  23.325  23.459  1.00  0.00     0.276 C 
ATOM     85  O   UNL A   1      31.848  22.250  22.835  1.00  0.00    -0.267 OA
ATOM     86  N   UNL A   1      30.823  24.154  23.085  1.00  0.00    -0.321 N 
ATOM     87  H   UNL A   1      30.142  23.693  22.545  1.00  0.00     0.170 HD
BRANCH  86  88
ATOM     88  C   UNL A   1      30.521  25.490  23.293  1.00  0.00     0.043 A 
ATOM     89  C   UNL A   1      29.315  25.901  23.844  1.00  0.00     0.028 A 
ATOM     90  C   UNL A   1      31.506  26.430  22.982  1.00  0.00     0.049 A 
ATOM     91  C   UNL A   1      29.026  27.267  23.892  1.00  0.00     0.032 A 
ATOM     92  C   UNL A   1      31.166  27.782  22.902  1.00  0.00     0.068 A 
ATOM     93  C   UNL A   1      29.880  28.185  23.260  1.00  0.00     0.085 A 
ATOM     94  Cl  UNL A   1      32.396  28.884  22.398  1.00  0.00    -0.082 Cl
BRANCH  93  95
ATOM     95  N   UNL A   1      29.302  29.391  22.790  1.00  0.00    -0.220 N 
ATOM     96  C   UNL A   1      29.154  30.566  23.497  1.00  0.00     0.226 A 
ATOM     97  N   UNL A   1      29.173  29.662  21.467  1.00  0.00    -0.155 NA
ATOM     98  N   UNL A   1      28.885  31.565  22.687  1.00  0.00    -0.223 NA
ATOM     99  C   UNL A   1      28.890  30.966  21.465  1.00  0.00     0.246 A 
ENDBRANCH  93  95
ENDBRANCH  86  88
ENDBRANCH  80  84
ENDBRANCH  75  78
ENDBRANCH  73  74
ENDBRANCH  72  73
ENDBRANCH   1  72
TORSDOF 17
ENDMDL
MODEL 2
REMARK VINA RESULT:     -12.2      3.245      8.983
REMARK SMILES O=C(NCCCCNC(=O)c1nccnc1C(=O)Nc1ccc(-n2cncn2)c(Cl)c1)c1ccc(-c2c3nc(c(-c4cc(S(=O)(=O)[O-])ccc4F)c4ccc([nH]4)c(-c4cc(S(=O)(=O)[O-])ccc4F)c4nc(c(-c5cc(S(=O)(=O)[O-])ccc5F)c5ccc2[nH]5)C=C4)C=C3)cc1
REMARK SMILES IDX 5 1 4 2 3 3 1 4 2 5 32 7 33 8 94 9 34 10 93 11 35 12 36 13
REMARK SMILES IDX 37 14 87 15 38 16 92 17 86 18 88 19 39 20 91 21 85 22 84 23
REMARK SMILES IDX 40 25 72 26 52 27 71 28 53 29 56 30 70 31 89 32 54 33 55 34
REMARK SMILES IDX 69 36 90 37 57 38 41 39 42 40 50 41 43 42 49 43 51 44 48 45
REMARK SMILES IDX 44 46 45 47 46 48 47 49 73 50 74 51 82 52 75 53 81 54 83 55
REMARK SMILES IDX 80 56 76 57 77 58 78 59 79 60 58 61 59 62 67 63 60 64 66 65
REMARK SMILES IDX 68 66 65 67 61 68 62 69 63 70 64 71 6 72 7 73 8 74 9 75
REMARK SMILES IDX 10 77 11 78 12 79 16 80 13 81 15 82 14 83 17 84 18 85 19 86
REMARK SMILES IDX 20 88 21 89 31 90 22 91 29 92 23 93 30 94 24 95 25 96 28 97
REMARK SMILES IDX 26 98 27 99
REMARK H PARENT 3 6 88 24 56 35 8 76 19 87
REMARK Flexibility Score: inf
ROOT
ATOM      1  C   UNL A   1      36.662  22.188  24.412  1.00  0.00     0.023 C 
ENDROOT
BRANCH   1   2
ATOM      2  C   UNL A   1      37.371  22.308  25.753  1.00  0.00     0.116 C 
BRANCH   2   3
ATOM      3  N   UNL A   1      38.712  21.779  25.802  1.00  0.00    -0.352 N 
ATOM      4  O   UNL A   1      40.699  21.281  26.650  1.00  0.00    -0.269 OA
ATOM      5  C   UNL A   1      39.811  22.130  26.541  1.00  0.00     0.251 C 
ATOM      6  H   UNL A   1      38.867  21.026  25.187  1.00  0.00     0.163 HD
BRANCH   5   7
ATOM      7  C   UNL A   1      40.047  23.494  27.084  1.00  0.00     0.039 A 
ATOM      8  C   UNL A   1      39.279  24.634  26.840  1.00  0.00     0.014 A 
ATOM      9  C   UNL A   1      41.183  23.605  27.906  1.00  0.00     0.014 A 
ATOM     10  C   UNL A   1      39.708  25.880  27.307  1.00  0.00     0.010 A 
ATOM     11  C   UNL A   1      41.609  24.838  28.375  1.00  0.00     0.010 A 
ATOM     12  C   UNL A   1      40.896  25.985  28.038  1.00  0.00    -0.014 A 
BRANCH  12  13
ATOM     13  C   UNL A   1      41.248  27.259  28.669  1.00  0.00     0.031 A 
ATOM     14  C   UNL A   1      42.420  27.912  28.018  1.00  0.00     0.074 A 
ATOM     15  C   UNL A   1      40.478  27.881  29.590  1.00  0.00     0.049 A 
ATOM     16  N   UNL A   1      43.590  28.133  28.521  1.00  0.00    -0.248 NA
ATOM     17  C   UNL A   1      42.348  28.171  26.566  1.00  0.00     0.031 C 
ATOM     18  C   UNL A   1      39.179  27.437  30.102  1.00  0.00     0.029 A 
ATOM     19  N   UNL A   1      40.628  29.099  30.194  1.00  0.00    -0.354 N 
ATOM     20  C   UNL A   1      44.295  28.821  27.536  1.00  0.00     0.074 A 
ATOM     21  C   UNL A   1      43.591  28.576  26.310  1.00  0.00     0.031 C 
ATOM     22  C   UNL A   1      38.567  28.463  30.735  1.00  0.00     0.029 A 
ATOM     23  C   UNL A   1      39.461  29.611  30.773  1.00  0.00     0.049 A 
ATOM     24  H   UNL A   1      41.488  29.577  30.220  1.00  0.00     0.167 HD
ATOM     25  C   UNL A   1      45.193  29.791  27.870  1.00  0.00     0.034 A 
ATOM     26  C   UNL A   1      39.218  30.889  31.196  1.00  0.00     0.034 A 
ATOM     27  C   UNL A   1      45.605  29.647  29.254  1.00  0.00     0.049 A 
ATOM     28  C   UNL A   1      40.542  31.526  31.408  1.00  0.00     0.074 A 
ATOM     29  C   UNL A   1      46.155  28.621  30.002  1.00  0.00     0.029 A 
ATOM     30  N   UNL A   1      45.114  30.544  30.179  1.00  0.00    -0.354 N 
ATOM     31  N   UNL A   1      41.374  31.145  32.338  1.00  0.00    -0.248 NA
ATOM     32  C   UNL A   1      41.148  32.217  30.279  1.00  0.00     0.031 C 
ATOM     33  C   UNL A   1      45.510  28.705  31.272  1.00  0.00     0.029 A 
ATOM     34  C   UNL A   1      44.684  29.829  31.267  1.00  0.00     0.049 A 
ATOM     35  H   UNL A   1      45.078  31.522  30.076  1.00  0.00     0.167 HD
ATOM     36  C   UNL A   1      42.613  31.124  31.716  1.00  0.00     0.074 A 
ATOM     37  C   UNL A   1      42.426  31.876  30.474  1.00  0.00     0.031 C 
ATOM     38  C   UNL A   1      43.589  30.253  32.114  1.00  0.00     0.034 A 
BRANCH  25  39
ATOM     39  C   UNL A   1      45.314  31.122  27.134  1.00  0.00     0.023 A 
ATOM     40  C   UNL A   1      46.615  31.495  26.751  1.00  0.00     0.031 A 
ATOM     41  C   UNL A   1      44.357  32.162  27.107  1.00  0.00     0.131 A 
ATOM     42  C   UNL A   1      46.964  32.846  26.599  1.00  0.00     0.055 A 
ATOM     43  C   UNL A   1      44.695  33.500  26.876  1.00  0.00     0.041 A 
ATOM     44  F   UNL A   1      43.058  31.975  27.360  1.00  0.00    -0.206 F 
ATOM     45  C   UNL A   1      46.015  33.858  26.675  1.00  0.00     0.022 A 
BRANCH  42  46
ATOM     46  S   UNL A   1      48.725  33.256  26.551  1.00  0.00     0.124 S 
ATOM     47  O   UNL A   1      49.311  31.926  26.392  1.00  0.00    -0.237 OA
ATOM     48  O   UNL A   1      48.794  34.134  25.387  1.00  0.00    -0.237 OA
ATOM     49  O   UNL A   1      48.959  33.899  27.838  1.00  0.00    -0.744 OA
ENDBRANCH  42  46
ENDBRANCH  25  39
BRANCH  26  50
ATOM     50  C   UNL A   1      37.942  31.676  31.099  1.00  0.00     0.023 A 
ATOM     51  C   UNL A   1      37.228  32.179  32.219  1.00  0.00     0.031 A 
ATOM     52  C   UNL A   1      37.533  32.163  29.837  1.00  0.00     0.131 A 
ATOM     53  C   UNL A   1      36.168  33.111  32.041  1.00  0.00     0.055 A 
ATOM     54  C   UNL A   1      36.492  33.079  29.669  1.00  0.00     0.041 A 
ATOM     55  F   UNL A   1      38.191  31.831  28.716  1.00  0.00    -0.206 F 
ATOM     56  C   UNL A   1      35.810  33.566  30.770  1.00  0.00     0.022 A 
BRANCH  53  57
ATOM     57  S   UNL A   1      35.265  33.822  33.465  1.00  0.00     0.124 S 
ATOM     58  O   UNL A   1      33.879  33.511  33.146  1.00  0.00    -0.237 OA
ATOM     59  O   UNL A   1      35.850  33.110  34.599  1.00  0.00    -0.237 OA
ATOM     60  O   UNL A   1      35.600  35.246  33.408  1.00  0.00    -0.744 OA
ENDBRANCH  53  57
ENDBRANCH  26  50
BRANCH  38  61
ATOM     61  C   UNL A   1      43.431  29.543  33.442  1.00  0.00     0.023 A 
ATOM     62  C   UNL A   1      42.642  28.391  33.666  1.00  0.00     0.031 A 
ATOM     63  C   UNL A   1      44.217  30.014  34.508  1.00  0.00     0.131 A 
ATOM     64  C   UNL A   1      42.650  27.770  34.931  1.00  0.00     0.055 A 
ATOM     65  C   UNL A   1      44.239  29.383  35.750  1.00  0.00     0.041 A 
ATOM     66  F   UNL A   1      45.010  31.086  34.350  1.00  0.00    -0.206 F 
ATOM     67  C   UNL A   1      43.450  28.261  35.969  1.00  0.00     0.022 A 
BRANCH  64  68
ATOM     68  S   UNL A   1      41.604  26.315  35.265  1.00  0.00     0.124 S 
ATOM     69  O   UNL A   1      41.263  26.453  36.677  1.00  0.00    -0.237 OA
ATOM     70  O   UNL A   1      40.502  26.494  34.322  1.00  0.00    -0.237 OA
ATOM     71  O   UNL A   1      42.485  25.185  34.960  1.00  0.00    -0.744 OA
ENDBRANCH  64  68
ENDBRANCH  38  61
ENDBRANCH  12  13
ENDBRANCH   5   7
ENDBRANCH   2   3
ENDBRANCH   1   2
BRANCH   1  72
ATOM     72  C   UNL A   1      36.212  23.488  23.713  1.00  0.00     0.023 C 
BRANCH  72  73
ATOM     73  C   UNL A   1      34.873  24.141  24.072  1.00  0.00     0.116 C 
BRANCH  73  74
ATOM     74  N   UNL A   1      34.143  24.779  22.981  1.00  0.00    -0.351 N 
ATOM     75  C   UNL A   1      33.352  25.918  22.990  1.00  0.00     0.272 C 
ATOM     76  H   UNL A   1      34.226  24.335  22.107  1.00  0.00     0.163 HD
ATOM     77  O   UNL A   1      33.024  26.457  21.938  1.00  0.00    -0.267 OA
BRANCH  75  78
ATOM     78  C   UNL A   1      33.016  26.565  24.267  1.00  0.00     0.159 A 
ATOM     79  N   UNL A   1      33.946  27.546  24.561  1.00  0.00    -0.247 NA
ATOM     80  C   UNL A   1      31.881  26.345  25.038  1.00  0.00     0.159 A 
ATOM     81  C   UNL A   1      33.726  28.296  25.653  1.00  0.00     0.132 A 
ATOM     82  N   UNL A   1      31.727  27.121  26.174  1.00  0.00    -0.247 NA
ATOM     83  C   UNL A   1      32.637  28.078  26.455  1.00  0.00     0.132 A 
BRANCH  80  84
ATOM     84  C   UNL A   1      30.644  25.481  24.847  1.00  0.00     0.276 C 
ATOM     85  O   UNL A   1      29.543  26.047  24.948  1.00  0.00    -0.267 OA
ATOM     86  N   UNL A   1      30.526  24.177  24.424  1.00  0.00    -0.321 N 
ATOM     87  H   UNL A   1      29.627  23.969  24.081  1.00  0.00     0.170 HD
BRANCH  86  88
ATOM     88  C   UNL A   1      31.381  23.088  24.369  1.00  0.00     0.043 A 
ATOM     89  C   UNL A   1      31.589  22.366  23.203  1.00  0.00     0.028 A 
ATOM     90  C   UNL A   1      32.089  22.766  25.529  1.00  0.00     0.049 A 
ATOM     91  C   UNL A   1      32.353  21.198  23.261  1.00  0.00     0.032 A 
ATOM     92  C   UNL A   1      32.737  21.533  25.620  1.00  0.00     0.068 A 
ATOM     93  C   UNL A   1      32.775  20.698  24.503  1.00  0.00     0.085 A 
ATOM     94  Cl  UNL A   1      33.496  21.139  27.120  1.00  0.00    -0.082 Cl
BRANCH  93  95
ATOM     95  N   UNL A   1      32.972  19.298  24.606  1.00  0.00    -0.220 N 
ATOM     96  C   UNL A   1      34.163  18.619  24.451  1.00  0.00     0.226 A 
ATOM     97  N   UNL A   1      32.093  18.490  25.249  1.00  0.00    -0.155 NA
ATOM     98  N   UNL A   1      34.064  17.396  24.921  1.00  0.00    -0.223 NA
ATOM     99  C   UNL A   1      32.785  17.357  25.381  1.00  0.00     0.246 A 
ENDBRANCH  93  95
ENDBRANCH  86  88
ENDBRANCH  80  84
ENDBRANCH  75  78
ENDBRANCH  73  74
ENDBRANCH  72  73
ENDBRANCH   1  72
TORSDOF 17
ENDMDL
MODEL 3
REMARK VINA RESULT:     -11.9      2.331      2.732
REMARK SMILES O=C(NCCCCNC(=O)c1nccnc1C(=O)Nc1ccc(-n2cncn2)c(Cl)c1)c1ccc(-c2c3nc(c(-c4cc(S(=O)(=O)[O-])ccc4F)c4ccc([nH]4)c(-c4cc(S(=O)(=O)[O-])ccc4F)c4nc(c(-c5cc(S(=O)(=O)[O-])ccc5F)c5ccc2[nH]5)C=C4)C=C3)cc1
REMARK SMILES IDX 5 1 4 2 3 3 1 4 2 5 32 7 33 8 94 9 34 10 93 11 35 12 36 13
REMARK SMILES IDX 37 14 87 15 38 16 92 17 86 18 88 19 39 20 91 21 85 22 84 23
REMARK SMILES IDX 40 25 72 26 52 27 71 28 53 29 56 30 70 31 89 32 54 33 55 34
REMARK SMILES IDX 69 36 90 37 57 38 41 39 42 40 50 41 43 42 49 43 51 44 48 45
REMARK SMILES IDX 44 46 45 47 46 48 47 49 73 50 74 51 82 52 75 53 81 54 83 55
REMARK SMILES IDX 80 56 76 57 77 58 78 59 79 60 58 61 59 62 67 63 60 64 66 65
REMARK SMILES IDX 68 66 65 67 61 68 62 69 63 70 64 71 6 72 7 73 8 74 9 75
REMARK SMILES IDX 10 77 11 78 12 79 16 80 13 81 15 82 14 83 17 84 18 85 19 86
REMARK SMILES IDX 20 88 21 89 31 90 22 91 29 92 23 93 30 94 24 95 25 96 28 97
REMARK SMILES IDX 26 98 27 99
REMARK H PARENT 3 6 88 24 56 35 8 76 19 87
REMARK Flexibility Score: inf
ROOT
ATOM      1  C   UNL A   1      33.512  29.065  26.571  1.00  0.00     0.023 C 
ENDROOT
BRANCH   1   2
ATOM      2  C   UNL A   1      33.843  29.552  27.975  1.00  0.00     0.116 C 
BRANCH   2   3
ATOM      3  N   UNL A   1      34.288  30.921  28.074  1.00  0.00    -0.352 N 
ATOM      4  O   UNL A   1      35.545  32.709  27.698  1.00  0.00    -0.269 OA
ATOM      5  C   UNL A   1      35.523  31.497  27.926  1.00  0.00     0.251 C 
ATOM      6  H   UNL A   1      33.572  31.560  28.288  1.00  0.00     0.163 HD
BRANCH   5   7
ATOM      7  C   UNL A   1      36.806  30.785  28.165  1.00  0.00     0.039 A 
ATOM      8  C   UNL A   1      37.121  29.479  27.784  1.00  0.00     0.014 A 
ATOM      9  C   UNL A   1      37.766  31.536  28.866  1.00  0.00     0.014 A 
ATOM     10  C   UNL A   1      38.319  28.897  28.204  1.00  0.00     0.010 A 
ATOM     11  C   UNL A   1      38.960  30.964  29.281  1.00  0.00     0.010 A 
ATOM     12  C   UNL A   1      39.218  29.628  28.988  1.00  0.00    -0.014 A 
BRANCH  12  13
ATOM     13  C   UNL A   1      40.543  29.074  29.277  1.00  0.00     0.031 A 
ATOM     14  C   UNL A   1      40.793  28.931  30.740  1.00  0.00     0.074 A 
ATOM     15  C   UNL A   1      41.362  28.551  28.337  1.00  0.00     0.049 A 
ATOM     16  N   UNL A   1      41.660  29.558  31.465  1.00  0.00    -0.248 NA
ATOM     17  C   UNL A   1      39.829  28.141  31.532  1.00  0.00     0.031 C 
ATOM     18  C   UNL A   1      41.091  28.416  26.905  1.00  0.00     0.029 A 
ATOM     19  N   UNL A   1      42.572  27.926  28.465  1.00  0.00    -0.354 N 
ATOM     20  C   UNL A   1      41.535  29.020  32.745  1.00  0.00     0.074 A 
ATOM     21  C   UNL A   1      40.253  28.376  32.773  1.00  0.00     0.031 C 
ATOM     22  C   UNL A   1      41.976  27.554  26.355  1.00  0.00     0.029 A 
ATOM     23  C   UNL A   1      42.948  27.152  27.360  1.00  0.00     0.049 A 
ATOM     24  H   UNL A   1      43.134  28.014  29.268  1.00  0.00     0.167 HD
ATOM     25  C   UNL A   1      42.628  28.868  33.547  1.00  0.00     0.034 A 
ATOM     26  C   UNL A   1      43.936  26.209  27.288  1.00  0.00     0.034 A 
ATOM     27  C   UNL A   1      43.712  29.720  33.095  1.00  0.00     0.049 A 
ATOM     28  C   UNL A   1      44.873  26.486  28.405  1.00  0.00     0.074 A 
ATOM     29  C   UNL A   1      43.846  31.076  32.855  1.00  0.00     0.029 A 
ATOM     30  N   UNL A   1      44.780  29.132  32.451  1.00  0.00    -0.354 N 
ATOM     31  N   UNL A   1      45.607  27.563  28.468  1.00  0.00    -0.248 NA
ATOM     32  C   UNL A   1      44.611  25.839  29.682  1.00  0.00     0.031 C 
ATOM     33  C   UNL A   1      44.653  31.163  31.681  1.00  0.00     0.029 A 
ATOM     34  C   UNL A   1      45.050  29.873  31.329  1.00  0.00     0.049 A 
ATOM     35  H   UNL A   1      45.261  28.325  32.743  1.00  0.00     0.167 HD
ATOM     36  C   UNL A   1      45.507  27.982  29.786  1.00  0.00     0.074 A 
ATOM     37  C   UNL A   1      44.952  26.835  30.506  1.00  0.00     0.031 C 
ATOM     38  C   UNL A   1      45.599  29.306  30.115  1.00  0.00     0.034 A 
BRANCH  25  39
ATOM     39  C   UNL A   1      42.885  27.630  34.400  1.00  0.00     0.023 A 
ATOM     40  C   UNL A   1      43.903  26.772  33.946  1.00  0.00     0.031 A 
ATOM     41  C   UNL A   1      42.014  27.073  35.363  1.00  0.00     0.131 A 
ATOM     42  C   UNL A   1      43.883  25.403  34.251  1.00  0.00     0.055 A 
ATOM     43  C   UNL A   1      42.046  25.722  35.728  1.00  0.00     0.041 A 
ATOM     44  F   UNL A   1      41.042  27.764  35.966  1.00  0.00    -0.206 F 
ATOM     45  C   UNL A   1      42.950  24.864  35.129  1.00  0.00     0.022 A 
BRANCH  42  46
ATOM     46  S   UNL A   1      44.948  24.311  33.277  1.00  0.00     0.124 S 
ATOM     47  O   UNL A   1      44.020  23.889  32.229  1.00  0.00    -0.237 OA
ATOM     48  O   UNL A   1      46.011  25.223  32.867  1.00  0.00    -0.237 OA
ATOM     49  O   UNL A   1      45.336  23.279  34.230  1.00  0.00    -0.744 OA
ENDBRANCH  42  46
ENDBRANCH  25  39
BRANCH  26  50
ATOM     50  C   UNL A   1      43.930  24.909  26.534  1.00  0.00     0.023 A 
ATOM     51  C   UNL A   1      43.128  23.790  26.881  1.00  0.00     0.031 A 
ATOM     52  C   UNL A   1      44.562  24.848  25.271  1.00  0.00     0.131 A 
ATOM     53  C   UNL A   1      42.997  22.690  25.989  1.00  0.00     0.055 A 
ATOM     54  C   UNL A   1      44.428  23.764  24.398  1.00  0.00     0.041 A 
ATOM     55  F   UNL A   1      45.269  25.883  24.795  1.00  0.00    -0.206 F 
ATOM     56  C   UNL A   1      43.637  22.684  24.748  1.00  0.00     0.022 A 
BRANCH  53  57
ATOM     57  S   UNL A   1      41.928  21.257  26.380  1.00  0.00     0.124 S 
ATOM     58  O   UNL A   1      42.521  20.194  25.584  1.00  0.00    -0.237 OA
ATOM     59  O   UNL A   1      42.067  21.143  27.830  1.00  0.00    -0.237 OA
ATOM     60  O   UNL A   1      40.600  21.687  25.934  1.00  0.00    -0.744 OA
ENDBRANCH  53  57
ENDBRANCH  26  50
BRANCH  38  61
ATOM     61  C   UNL A   1      46.136  30.275  29.084  1.00  0.00     0.023 A 
ATOM     62  C   UNL A   1      45.350  31.099  28.246  1.00  0.00     0.031 A 
ATOM     63  C   UNL A   1      47.532  30.436  29.035  1.00  0.00     0.131 A 
ATOM     64  C   UNL A   1      45.974  32.028  27.389  1.00  0.00     0.055 A 
ATOM     65  C   UNL A   1      48.143  31.371  28.202  1.00  0.00     0.041 A 
ATOM     66  F   UNL A   1      48.332  29.703  29.827  1.00  0.00    -0.206 F 
ATOM     67  C   UNL A   1      47.366  32.166  27.370  1.00  0.00     0.022 A 
BRANCH  64  68
ATOM     68  S   UNL A   1      44.990  33.067  26.260  1.00  0.00     0.124 S 
ATOM     69  O   UNL A   1      45.997  33.784  25.486  1.00  0.00    -0.237 OA
ATOM     70  O   UNL A   1      44.203  32.079  25.526  1.00  0.00    -0.237 OA
ATOM     71  O   UNL A   1      44.208  33.909  27.169  1.00  0.00    -0.744 OA
ENDBRANCH  64  68
ENDBRANCH  38  61
ENDBRANCH  12  13
ENDBRANCH   5   7
ENDBRANCH   2   3
ENDBRANCH   1   2
BRANCH   1  72
ATOM     72  C   UNL A   1      32.742  27.736  26.430  1.00  0.00     0.023 C 
BRANCH  72  73
ATOM     73  C   UNL A   1      33.459  26.467  25.959  1.00  0.00     0.116 C 
BRANCH  73  74
ATOM     74  N   UNL A   1      32.812  25.196  26.271  1.00  0.00    -0.351 N 
ATOM     75  C   UNL A   1      33.163  23.908  25.898  1.00  0.00     0.272 C 
ATOM     76  H   UNL A   1      32.005  25.265  26.830  1.00  0.00     0.163 HD
ATOM     77  O   UNL A   1      32.658  22.939  26.457  1.00  0.00    -0.267 OA
BRANCH  75  78
ATOM     78  C   UNL A   1      34.245  23.697  24.925  1.00  0.00     0.159 A 
ATOM     79  N   UNL A   1      35.455  23.568  25.582  1.00  0.00    -0.247 NA
ATOM     80  C   UNL A   1      34.108  23.522  23.553  1.00  0.00     0.159 A 
ATOM     81  C   UNL A   1      36.533  23.276  24.836  1.00  0.00     0.132 A 
ATOM     82  N   UNL A   1      35.259  23.262  22.830  1.00  0.00    -0.247 NA
ATOM     83  C   UNL A   1      36.437  23.136  23.476  1.00  0.00     0.132 A 
BRANCH  80  84
ATOM     84  C   UNL A   1      32.902  23.431  22.631  1.00  0.00     0.276 C 
ATOM     85  O   UNL A   1      32.822  22.423  21.909  1.00  0.00    -0.267 OA
ATOM     86  N   UNL A   1      31.776  24.218  22.558  1.00  0.00    -0.321 N 
ATOM     87  H   UNL A   1      31.023  23.764  22.115  1.00  0.00     0.170 HD
BRANCH  86  88
ATOM     88  C   UNL A   1      31.457  25.504  22.963  1.00  0.00     0.043 A 
ATOM     89  C   UNL A   1      30.283  25.798  23.642  1.00  0.00     0.028 A 
ATOM     90  C   UNL A   1      32.396  26.509  22.717  1.00  0.00     0.049 A 
ATOM     91  C   UNL A   1      29.966  27.136  23.891  1.00  0.00     0.032 A 
ATOM     92  C   UNL A   1      32.019  27.847  22.842  1.00  0.00     0.068 A 
ATOM     93  C   UNL A   1      30.752  28.157  23.334  1.00  0.00     0.085 A 
ATOM     94  Cl  UNL A   1      33.185  29.047  22.412  1.00  0.00    -0.082 Cl
BRANCH  93  95
ATOM     95  N   UNL A   1      30.114  29.395  23.069  1.00  0.00    -0.220 N 
ATOM     96  C   UNL A   1      29.301  29.691  21.994  1.00  0.00     0.226 A 
ATOM     97  N   UNL A   1      29.909  30.324  24.036  1.00  0.00    -0.155 NA
ATOM     98  N   UNL A   1      28.626  30.796  22.213  1.00  0.00    -0.223 NA
ATOM     99  C   UNL A   1      29.039  31.155  23.459  1.00  0.00     0.246 A 
ENDBRANCH  93  95
ENDBRANCH  86  88
ENDBRANCH  80  84
ENDBRANCH  75  78
ENDBRANCH  73  74
ENDBRANCH  72  73
ENDBRANCH   1  72
TORSDOF 17
ENDMDL
