MODEL 1
REMARK VINA RESULT:     -12.0      0.000      0.000
REMARK SMILES NS(=O)(=O)c1ccc(C#Cc2cc(Cl)cc3c2O[C@H](C(F)(F)F)C(C(=O)NCCCCNC(=O)c2ccc(-c4c5nc(c(-c6cc(S(=O)(=O)[O-])ccc6F)c6ccc([nH]6)c(-c6cc(S(=O)(=O)[O-])ccc6F)c6nc(c(-c7cc(S(=O)(=O)[O-])ccc7F)c7ccc4[nH]7)C=C6)C=C5)cc2)=C3)cc1
REMARK SMILES IDX 29 1 28 2 27 3 25 4 26 5 24 7 11 8 12 9 17 10 13 11 16 12
REMARK SMILES IDX 18 13 14 14 15 15 98 16 19 17 10 18 9 19 8 20 5 21 6 22
REMARK SMILES IDX 100 23 7 24 99 25 2 26 3 27 4 28 1 29 20 32 21 33 22 34
REMARK SMILES IDX 23 35 30 36 31 37 32 38 33 39 34 41 35 42 36 43 97 44 37 45
REMARK SMILES IDX 96 46 38 47 39 48 40 49 90 50 41 51 95 52 89 53 91 54 42 55
REMARK SMILES IDX 94 56 88 57 87 58 43 60 75 61 55 62 74 63 56 64 59 65 73 66
REMARK SMILES IDX 92 67 57 68 58 69 72 71 93 72 60 73 44 74 45 75 53 76 46 77
REMARK SMILES IDX 52 78 54 79 51 80 47 81 48 82 49 83 50 84 76 85 77 86 85 87
REMARK SMILES IDX 78 88 84 89 86 90 83 91 79 92 80 93 81 94 82 95 61 96 62 97
REMARK SMILES IDX 70 98 63 99 69 100 71 101 68 102 64 103 65 104 66 105 67 106
REMARK H PARENT 27 6 1 30 1 31 32 40 91 59 59 70
REMARK Flexibility Score: inf
ROOT
ATOM      1  C   UNL A   1      31.221  32.236  26.304  1.00  0.00     0.023 C 
ENDROOT
BRANCH   1   2
ATOM      2  C   UNL A   1      30.958  30.749  26.108  1.00  0.00     0.116 C 
BRANCH   2   3
ATOM      3  N   UNL A   1      30.967  30.366  24.705  1.00  0.00    -0.352 N 
ATOM      4  C   UNL A   1      31.194  29.238  23.990  1.00  0.00     0.251 C 
ATOM      5  O   UNL A   1      31.045  29.330  22.768  1.00  0.00    -0.270 OA
ATOM      6  H   UNL A   1      30.752  31.129  24.121  1.00  0.00     0.163 HD
BRANCH   4   7
ATOM      7  C   UNL A   1      31.607  27.931  24.583  1.00  0.00     0.067 C 
ATOM      8  C   UNL A   1      32.686  24.106  25.946  1.00  0.00     0.069 A 
ATOM      9  C   UNL A   1      31.721  23.272  26.508  1.00  0.00     0.041 A 
ATOM     10  C   UNL A   1      32.311  25.370  25.472  1.00  0.00     0.143 A 
ATOM     11  C   UNL A   1      30.396  23.706  26.581  1.00  0.00     0.043 A 
ATOM     12  C   UNL A   1      30.982  25.803  25.533  1.00  0.00     0.020 A 
ATOM     13  O   UNL A   1      33.295  26.130  24.909  1.00  0.00    -0.474 OA
ATOM     14  Cl  UNL A   1      29.205  22.672  27.271  1.00  0.00    -0.084 Cl
ATOM     15  C   UNL A   1      30.020  24.961  26.095  1.00  0.00     0.032 A 
ATOM     16  C   UNL A   1      30.622  27.098  24.965  1.00  0.00     0.025 C 
ATOM     17  C   UNL A   1      33.040  27.545  24.778  1.00  0.00     0.314 C 
BRANCH   8  18
ATOM     18  C   UNL A   1      34.055  23.687  25.872  1.00  0.00    -0.058 C 
ATOM     19  C   UNL A   1      35.200  23.312  25.882  1.00  0.00    -0.062 C 
BRANCH  19  20
ATOM     20  C   UNL A   1      36.531  22.791  25.910  1.00  0.00     0.025 A 
ATOM     21  C   UNL A   1      39.091  21.689  26.092  1.00  0.00     0.082 A 
ATOM     22  C   UNL A   1      38.901  23.043  26.382  1.00  0.00     0.023 A 
ATOM     23  C   UNL A   1      38.016  20.893  25.684  1.00  0.00     0.023 A 
ATOM     24  C   UNL A   1      37.615  23.593  26.290  1.00  0.00     0.018 A 
ATOM     25  C   UNL A   1      36.739  21.446  25.596  1.00  0.00     0.018 A 
BRANCH  21  26
ATOM     26  S   UNL A   1      40.675  20.915  26.228  1.00  0.00     0.238 S 
ATOM     27  O   UNL A   1      41.684  21.873  25.840  1.00  0.00    -0.207 OA
ATOM     28  O   UNL A   1      40.586  19.599  25.641  1.00  0.00    -0.207 OA
BRANCH  26  29
ATOM     29  N   UNL A   1      40.909  20.670  27.872  1.00  0.00    -0.225 NA
ATOM     30  H   UNL A   1      41.153  21.554  28.316  1.00  0.00     0.137 HD
ATOM     31  H   UNL A   1      41.666  19.999  28.011  1.00  0.00     0.137 HD
ENDBRANCH  26  29
ENDBRANCH  21  26
ENDBRANCH  19  20
ENDBRANCH   8  18
BRANCH  17  32
ATOM     32  C   UNL A   1      33.694  28.295  25.956  1.00  0.00     0.429 C 
ATOM     33  F   UNL A   1      34.129  29.515  25.555  1.00  0.00    -0.167 F 
ATOM     34  F   UNL A   1      32.837  28.512  26.981  1.00  0.00    -0.167 F 
ATOM     35  F   UNL A   1      34.755  27.631  26.467  1.00  0.00    -0.167 F 
ENDBRANCH  17  32
ENDBRANCH   4   7
ENDBRANCH   2   3
ENDBRANCH   1   2
BRANCH   1  36
ATOM     36  C   UNL A   1      32.247  32.520  27.392  1.00  0.00     0.023 C 
BRANCH  36  37
ATOM     37  C   UNL A   1      32.978  33.847  27.241  1.00  0.00     0.116 C 
BRANCH  37  38
ATOM     38  N   UNL A   1      32.704  34.803  28.310  1.00  0.00    -0.352 N 
ATOM     39  C   UNL A   1      33.366  34.928  29.515  1.00  0.00     0.251 C 
ATOM     40  H   UNL A   1      31.962  35.430  28.154  1.00  0.00     0.163 HD
ATOM     41  O   UNL A   1      32.970  35.705  30.374  1.00  0.00    -0.269 OA
BRANCH  39  42
ATOM     42  C   UNL A   1      34.530  34.050  29.744  1.00  0.00     0.039 A 
ATOM     43  C   UNL A   1      34.350  32.855  30.441  1.00  0.00     0.014 A 
ATOM     44  C   UNL A   1      35.808  34.522  29.446  1.00  0.00     0.014 A 
ATOM     45  C   UNL A   1      35.446  32.260  31.045  1.00  0.00     0.010 A 
ATOM     46  C   UNL A   1      36.918  33.841  29.950  1.00  0.00     0.010 A 
ATOM     47  C   UNL A   1      36.744  32.747  30.815  1.00  0.00    -0.014 A 
BRANCH  47  48
ATOM     48  C   UNL A   1      37.901  32.100  31.492  1.00  0.00     0.031 A 
ATOM     49  C   UNL A   1      38.339  32.531  32.868  1.00  0.00     0.074 A 
ATOM     50  C   UNL A   1      38.533  31.087  30.868  1.00  0.00     0.049 A 
ATOM     51  N   UNL A   1      39.335  32.084  33.589  1.00  0.00    -0.248 NA
ATOM     52  C   UNL A   1      37.569  33.602  33.521  1.00  0.00     0.031 C 
ATOM     53  C   UNL A   1      38.183  30.576  29.542  1.00  0.00     0.029 A 
ATOM     54  N   UNL A   1      39.583  30.296  31.263  1.00  0.00    -0.354 N 
ATOM     55  C   UNL A   1      39.331  32.831  34.762  1.00  0.00     0.074 A 
ATOM     56  C   UNL A   1      38.253  33.787  34.644  1.00  0.00     0.031 C 
ATOM     57  C   UNL A   1      38.964  29.529  29.254  1.00  0.00     0.029 A 
ATOM     58  C   UNL A   1      39.938  29.353  30.326  1.00  0.00     0.049 A 
ATOM     59  H   UNL A   1      40.036  30.393  32.130  1.00  0.00     0.167 HD
ATOM     60  C   UNL A   1      40.142  32.715  35.840  1.00  0.00     0.034 A 
ATOM     61  C   UNL A   1      40.952  28.463  30.307  1.00  0.00     0.034 A 
ATOM     62  C   UNL A   1      41.195  31.734  35.947  1.00  0.00     0.049 A 
ATOM     63  C   UNL A   1      41.867  28.388  31.499  1.00  0.00     0.074 A 
ATOM     64  C   UNL A   1      42.045  31.512  37.016  1.00  0.00     0.029 A 
ATOM     65  N   UNL A   1      41.543  30.817  34.965  1.00  0.00    -0.354 N 
ATOM     66  N   UNL A   1      41.817  29.068  32.620  1.00  0.00    -0.248 NA
ATOM     67  C   UNL A   1      42.973  27.423  31.433  1.00  0.00     0.031 C 
ATOM     68  C   UNL A   1      42.961  30.528  36.648  1.00  0.00     0.029 A 
ATOM     69  C   UNL A   1      42.621  30.055  35.391  1.00  0.00     0.049 A 
ATOM     70  H   UNL A   1      41.092  30.720  34.096  1.00  0.00     0.167 HD
ATOM     71  C   UNL A   1      42.865  28.595  33.402  1.00  0.00     0.074 A 
ATOM     72  C   UNL A   1      43.515  27.552  32.637  1.00  0.00     0.031 C 
ATOM     73  C   UNL A   1      43.255  28.998  34.638  1.00  0.00     0.034 A 
BRANCH  60  74
ATOM     74  C   UNL A   1      39.949  33.649  37.014  1.00  0.00     0.023 A 
ATOM     75  C   UNL A   1      40.859  34.703  37.226  1.00  0.00     0.031 A 
ATOM     76  C   UNL A   1      38.982  33.403  38.005  1.00  0.00     0.131 A 
ATOM     77  C   UNL A   1      40.820  35.432  38.422  1.00  0.00     0.055 A 
ATOM     78  C   UNL A   1      38.911  34.170  39.170  1.00  0.00     0.041 A 
ATOM     79  F   UNL A   1      38.092  32.408  37.859  1.00  0.00    -0.206 F 
ATOM     80  C   UNL A   1      39.845  35.178  39.390  1.00  0.00     0.022 A 
BRANCH  77  81
ATOM     81  S   UNL A   1      42.091  36.669  38.809  1.00  0.00     0.124 S 
ATOM     82  O   UNL A   1      42.706  36.100  40.006  1.00  0.00    -0.237 OA
ATOM     83  O   UNL A   1      42.919  36.640  37.608  1.00  0.00    -0.237 OA
ATOM     84  O   UNL A   1      41.331  37.896  39.025  1.00  0.00    -0.744 OA
ENDBRANCH  77  81
ENDBRANCH  60  74
BRANCH  61  85
ATOM     85  C   UNL A   1      41.107  27.570  29.122  1.00  0.00     0.023 A 
ATOM     86  C   UNL A   1      42.046  27.866  28.116  1.00  0.00     0.031 A 
ATOM     87  C   UNL A   1      40.236  26.489  28.913  1.00  0.00     0.131 A 
ATOM     88  C   UNL A   1      42.030  27.151  26.912  1.00  0.00     0.055 A 
ATOM     89  C   UNL A   1      40.284  25.721  27.748  1.00  0.00     0.041 A 
ATOM     90  F   UNL A   1      39.312  26.176  29.835  1.00  0.00    -0.206 F 
ATOM     91  C   UNL A   1      41.169  26.065  26.731  1.00  0.00     0.022 A 
BRANCH  88  92
ATOM     92  S   UNL A   1      43.009  27.708  25.490  1.00  0.00     0.124 S 
ATOM     93  O   UNL A   1      42.215  28.824  24.991  1.00  0.00    -0.237 OA
ATOM     94  O   UNL A   1      44.275  28.066  26.126  1.00  0.00    -0.237 OA
ATOM     95  O   UNL A   1      43.062  26.533  24.627  1.00  0.00    -0.744 OA
ENDBRANCH  88  92
ENDBRANCH  61  85
BRANCH  73  96
ATOM     96  C   UNL A   1      44.434  28.313  35.290  1.00  0.00     0.023 A 
ATOM     97  C   UNL A   1      44.214  27.367  36.311  1.00  0.00     0.031 A 
ATOM     98  C   UNL A   1      45.755  28.719  35.037  1.00  0.00     0.131 A 
ATOM     99  C   UNL A   1      45.289  26.909  37.083  1.00  0.00     0.055 A 
ATOM    100  C   UNL A   1      46.832  28.207  35.764  1.00  0.00     0.041 A 
ATOM    101  F   UNL A   1      46.020  29.627  34.084  1.00  0.00    -0.206 F 
ATOM    102  C   UNL A   1      46.599  27.314  36.805  1.00  0.00     0.022 A 
BRANCH  99 103
ATOM    103  S   UNL A   1      45.015  25.865  38.542  1.00  0.00     0.124 S 
ATOM    104  O   UNL A   1      46.241  26.086  39.305  1.00  0.00    -0.237 OA
ATOM    105  O   UNL A   1      43.808  26.454  39.116  1.00  0.00    -0.237 OA
ATOM    106  O   UNL A   1      44.859  24.523  37.991  1.00  0.00    -0.744 OA
ENDBRANCH  99 103
ENDBRANCH  73  96
ENDBRANCH  47  48
ENDBRANCH  39  42
ENDBRANCH  37  38
ENDBRANCH  36  37
ENDBRANCH   1  36
TORSDOF 19
ENDMDL
MODEL 2
REMARK VINA RESULT:     -11.8      1.842      7.325
REMARK SMILES NS(=O)(=O)c1ccc(C#Cc2cc(Cl)cc3c2O[C@H](C(F)(F)F)C(C(=O)NCCCCNC(=O)c2ccc(-c4c5nc(c(-c6cc(S(=O)(=O)[O-])ccc6F)c6ccc([nH]6)c(-c6cc(S(=O)(=O)[O-])ccc6F)c6nc(c(-c7cc(S(=O)(=O)[O-])ccc7F)c7ccc4[nH]7)C=C6)C=C5)cc2)=C3)cc1
REMARK SMILES IDX 29 1 28 2 27 3 25 4 26 5 24 7 11 8 12 9 17 10 13 11 16 12
REMARK SMILES IDX 18 13 14 14 15 15 98 16 19 17 10 18 9 19 8 20 5 21 6 22
REMARK SMILES IDX 100 23 7 24 99 25 2 26 3 27 4 28 1 29 20 32 21 33 22 34
REMARK SMILES IDX 23 35 30 36 31 37 32 38 33 39 34 41 35 42 36 43 97 44 37 45
REMARK SMILES IDX 96 46 38 47 39 48 40 49 90 50 41 51 95 52 89 53 91 54 42 55
REMARK SMILES IDX 94 56 88 57 87 58 43 60 75 61 55 62 74 63 56 64 59 65 73 66
REMARK SMILES IDX 92 67 57 68 58 69 72 71 93 72 60 73 44 74 45 75 53 76 46 77
REMARK SMILES IDX 52 78 54 79 51 80 47 81 48 82 49 83 50 84 76 85 77 86 85 87
REMARK SMILES IDX 78 88 84 89 86 90 83 91 79 92 80 93 81 94 82 95 61 96 62 97
REMARK SMILES IDX 70 98 63 99 69 100 71 101 68 102 64 103 65 104 66 105 67 106
REMARK H PARENT 27 6 1 30 1 31 32 40 91 59 59 70
REMARK Flexibility Score: inf
ROOT
ATOM      1  C   UNL A   1      31.190  32.144  26.304  1.00  0.00     0.023 C 
ENDROOT
BRANCH   1   2
ATOM      2  C   UNL A   1      30.849  30.686  26.026  1.00  0.00     0.116 C 
BRANCH   2   3
ATOM      3  N   UNL A   1      31.010  30.339  24.624  1.00  0.00    -0.352 N 
ATOM      4  C   UNL A   1      31.344  29.235  23.911  1.00  0.00     0.251 C 
ATOM      5  O   UNL A   1      31.314  29.353  22.683  1.00  0.00    -0.270 OA
ATOM      6  H   UNL A   1      30.828  31.109  24.037  1.00  0.00     0.163 HD
BRANCH   4   7
ATOM      7  C   UNL A   1      31.741  27.929  24.515  1.00  0.00     0.067 C 
ATOM      8  C   UNL A   1      32.770  24.101  25.909  1.00  0.00     0.069 A 
ATOM      9  C   UNL A   1      31.795  23.284  26.477  1.00  0.00     0.041 A 
ATOM     10  C   UNL A   1      32.412  25.366  25.425  1.00  0.00     0.143 A 
ATOM     11  C   UNL A   1      30.475  23.735  26.546  1.00  0.00     0.043 A 
ATOM     12  C   UNL A   1      31.088  25.816  25.482  1.00  0.00     0.020 A 
ATOM     13  O   UNL A   1      33.405  26.109  24.857  1.00  0.00    -0.474 OA
ATOM     14  Cl  UNL A   1      29.271  22.722  27.244  1.00  0.00    -0.084 Cl
ATOM     15  C   UNL A   1      30.115  24.991  26.050  1.00  0.00     0.032 A 
ATOM     16  C   UNL A   1      30.745  27.111  24.903  1.00  0.00     0.025 C 
ATOM     17  C   UNL A   1      33.168  27.525  24.714  1.00  0.00     0.314 C 
BRANCH   8  18
ATOM     18  C   UNL A   1      34.134  23.664  25.839  1.00  0.00    -0.058 C 
ATOM     19  C   UNL A   1      35.274  23.274  25.852  1.00  0.00    -0.062 C 
BRANCH  19  20
ATOM     20  C   UNL A   1      36.598  22.734  25.883  1.00  0.00     0.025 A 
ATOM     21  C   UNL A   1      39.139  21.589  26.063  1.00  0.00     0.082 A 
ATOM     22  C   UNL A   1      38.956  22.925  26.431  1.00  0.00     0.023 A 
ATOM     23  C   UNL A   1      38.066  20.833  25.579  1.00  0.00     0.023 A 
ATOM     24  C   UNL A   1      37.680  23.496  26.339  1.00  0.00     0.018 A 
ATOM     25  C   UNL A   1      36.798  21.408  25.492  1.00  0.00     0.018 A 
BRANCH  21  26
ATOM     26  S   UNL A   1      40.709  20.786  26.193  1.00  0.00     0.238 S 
ATOM     27  O   UNL A   1      41.716  21.668  25.649  1.00  0.00    -0.207 OA
ATOM     28  O   UNL A   1      40.555  19.419  25.755  1.00  0.00    -0.207 OA
BRANCH  26  29
ATOM     29  N   UNL A   1      41.033  20.709  27.838  1.00  0.00    -0.225 NA
ATOM     30  H   UNL A   1      41.323  21.627  28.171  1.00  0.00     0.137 HD
ATOM     31  H   UNL A   1      41.781  20.034  28.005  1.00  0.00     0.137 HD
ENDBRANCH  26  29
ENDBRANCH  21  26
ENDBRANCH  19  20
ENDBRANCH   8  18
BRANCH  17  32
ATOM     32  C   UNL A   1      33.831  28.277  25.886  1.00  0.00     0.429 C 
ATOM     33  F   UNL A   1      34.471  29.385  25.436  1.00  0.00    -0.167 F 
ATOM     34  F   UNL A   1      32.938  28.700  26.811  1.00  0.00    -0.167 F 
ATOM     35  F   UNL A   1      34.741  27.519  26.538  1.00  0.00    -0.167 F 
ENDBRANCH  17  32
ENDBRANCH   4   7
ENDBRANCH   2   3
ENDBRANCH   1   2
BRANCH   1  36
ATOM     36  C   UNL A   1      32.250  32.313  27.383  1.00  0.00     0.023 C 
BRANCH  36  37
ATOM     37  C   UNL A   1      33.073  33.589  27.267  1.00  0.00     0.116 C 
BRANCH  37  38
ATOM     38  N   UNL A   1      32.828  34.555  28.333  1.00  0.00    -0.352 N 
ATOM     39  C   UNL A   1      33.517  34.686  29.522  1.00  0.00     0.251 C 
ATOM     40  H   UNL A   1      32.086  35.185  28.188  1.00  0.00     0.163 HD
ATOM     41  O   UNL A   1      33.144  35.472  30.384  1.00  0.00    -0.269 OA
BRANCH  39  42
ATOM     42  C   UNL A   1      34.681  33.804  29.734  1.00  0.00     0.039 A 
ATOM     43  C   UNL A   1      34.503  32.598  30.414  1.00  0.00     0.014 A 
ATOM     44  C   UNL A   1      35.958  34.278  29.436  1.00  0.00     0.014 A 
ATOM     45  C   UNL A   1      35.601  31.994  31.004  1.00  0.00     0.010 A 
ATOM     46  C   UNL A   1      37.069  33.588  29.924  1.00  0.00     0.010 A 
ATOM     47  C   UNL A   1      36.898  32.482  30.774  1.00  0.00    -0.014 A 
BRANCH  47  48
ATOM     48  C   UNL A   1      38.057  31.824  31.436  1.00  0.00     0.031 A 
ATOM     49  C   UNL A   1      38.844  30.745  30.739  1.00  0.00     0.074 A 
ATOM     50  C   UNL A   1      38.422  32.238  32.666  1.00  0.00     0.049 A 
ATOM     51  N   UNL A   1      39.867  30.060  31.182  1.00  0.00    -0.248 NA
ATOM     52  C   UNL A   1      38.433  30.380  29.373  1.00  0.00     0.031 C 
ATOM     53  C   UNL A   1      37.743  33.287  33.428  1.00  0.00     0.029 A 
ATOM     54  N   UNL A   1      39.453  31.848  33.483  1.00  0.00    -0.354 N 
ATOM     55  C   UNL A   1      40.205  29.169  30.168  1.00  0.00     0.074 A 
ATOM     56  C   UNL A   1      39.255  29.374  29.098  1.00  0.00     0.031 C 
ATOM     57  C   UNL A   1      38.401  33.495  34.574  1.00  0.00     0.029 A 
ATOM     58  C   UNL A   1      39.489  32.528  34.680  1.00  0.00     0.049 A 
ATOM     59  H   UNL A   1      40.102  31.151  33.238  1.00  0.00     0.167 HD
ATOM     60  C   UNL A   1      41.223  28.276  30.133  1.00  0.00     0.034 A 
ATOM     61  C   UNL A   1      40.283  32.376  35.759  1.00  0.00     0.034 A 
ATOM     62  C   UNL A   1      42.176  28.107  31.203  1.00  0.00     0.049 A 
ATOM     63  C   UNL A   1      41.376  31.344  35.711  1.00  0.00     0.074 A 
ATOM     64  C   UNL A   1      43.266  27.256  31.245  1.00  0.00     0.029 A 
ATOM     65  N   UNL A   1      42.161  28.793  32.410  1.00  0.00    -0.354 N 
ATOM     66  N   UNL A   1      41.712  30.546  34.725  1.00  0.00    -0.248 NA
ATOM     67  C   UNL A   1      42.206  31.192  36.914  1.00  0.00     0.031 C 
ATOM     68  C   UNL A   1      43.853  27.360  32.505  1.00  0.00     0.029 A 
ATOM     69  C   UNL A   1      43.200  28.353  33.216  1.00  0.00     0.049 A 
ATOM     70  H   UNL A   1      41.510  29.488  32.658  1.00  0.00     0.167 HD
ATOM     71  C   UNL A   1      42.806  29.817  35.178  1.00  0.00     0.074 A 
ATOM     72  C   UNL A   1      43.094  30.290  36.516  1.00  0.00     0.031 C 
ATOM     73  C   UNL A   1      43.502  28.841  34.542  1.00  0.00     0.034 A 
BRANCH  60  74
ATOM     74  C   UNL A   1      41.397  27.402  28.911  1.00  0.00     0.023 A 
ATOM     75  C   UNL A   1      42.400  27.706  27.970  1.00  0.00     0.031 A 
ATOM     76  C   UNL A   1      40.480  26.384  28.592  1.00  0.00     0.131 A 
ATOM     77  C   UNL A   1      42.428  27.044  26.737  1.00  0.00     0.055 A 
ATOM     78  C   UNL A   1      40.547  25.687  27.384  1.00  0.00     0.041 A 
ATOM     79  F   UNL A   1      39.500  26.054  29.448  1.00  0.00    -0.206 F 
ATOM     80  C   UNL A   1      41.513  26.029  26.442  1.00  0.00     0.022 A 
BRANCH  77  81
ATOM     81  S   UNL A   1      43.586  27.540  25.430  1.00  0.00     0.124 S 
ATOM     82  O   UNL A   1      42.678  27.870  24.335  1.00  0.00    -0.237 OA
ATOM     83  O   UNL A   1      44.265  28.678  26.042  1.00  0.00    -0.237 OA
ATOM     84  O   UNL A   1      44.406  26.351  25.220  1.00  0.00    -0.744 OA
ENDBRANCH  77  81
ENDBRANCH  60  74
BRANCH  61  85
ATOM     85  C   UNL A   1      40.065  33.256  36.944  1.00  0.00     0.023 A 
ATOM     86  C   UNL A   1      39.416  32.768  38.094  1.00  0.00     0.031 A 
ATOM     87  C   UNL A   1      40.382  34.623  36.897  1.00  0.00     0.131 A 
ATOM     88  C   UNL A   1      39.024  33.654  39.105  1.00  0.00     0.055 A 
ATOM     89  C   UNL A   1      40.069  35.488  37.948  1.00  0.00     0.041 A 
ATOM     90  F   UNL A   1      40.986  35.141  35.816  1.00  0.00    -0.206 F 
ATOM     91  C   UNL A   1      39.366  35.008  39.048  1.00  0.00     0.022 A 
BRANCH  88  92
ATOM     92  S   UNL A   1      37.922  33.109  40.438  1.00  0.00     0.124 S 
ATOM     93  O   UNL A   1      37.980  34.236  41.362  1.00  0.00    -0.237 OA
ATOM     94  O   UNL A   1      36.657  32.939  39.726  1.00  0.00    -0.237 OA
ATOM     95  O   UNL A   1      38.536  31.873  40.911  1.00  0.00    -0.744 OA
ENDBRANCH  88  92
ENDBRANCH  61  85
BRANCH  73  96
ATOM     96  C   UNL A   1      44.673  28.200  35.251  1.00  0.00     0.023 A 
ATOM     97  C   UNL A   1      45.977  28.681  35.020  1.00  0.00     0.031 A 
ATOM     98  C   UNL A   1      44.526  27.019  35.999  1.00  0.00     0.131 A 
ATOM     99  C   UNL A   1      47.082  27.953  35.475  1.00  0.00     0.055 A 
ATOM    100  C   UNL A   1      45.629  26.332  36.509  1.00  0.00     0.041 A 
ATOM    101  F   UNL A   1      43.307  26.509  36.237  1.00  0.00    -0.206 F 
ATOM    102  C   UNL A   1      46.915  26.787  36.230  1.00  0.00     0.022 A 
BRANCH  99 103
ATOM    103  S   UNL A   1      48.771  28.424  35.007  1.00  0.00     0.124 S 
ATOM    104  O   UNL A   1      49.480  27.152  35.112  1.00  0.00    -0.237 OA
ATOM    105  O   UNL A   1      48.582  28.923  33.647  1.00  0.00    -0.237 OA
ATOM    106  O   UNL A   1      49.144  29.427  35.999  1.00  0.00    -0.744 OA
ENDBRANCH  99 103
ENDBRANCH  73  96
ENDBRANCH  47  48
ENDBRANCH  39  42
ENDBRANCH  37  38
ENDBRANCH  36  37
ENDBRANCH   1  36
TORSDOF 19
ENDMDL
MODEL 3
REMARK VINA RESULT:     -11.7      5.430     10.284
REMARK SMILES NS(=O)(=O)c1ccc(C#Cc2cc(Cl)cc3c2O[C@H](C(F)(F)F)C(C(=O)NCCCCNC(=O)c2ccc(-c4c5nc(c(-c6cc(S(=O)(=O)[O-])ccc6F)c6ccc([nH]6)c(-c6cc(S(=O)(=O)[O-])ccc6F)c6nc(c(-c7cc(S(=O)(=O)[O-])ccc7F)c7ccc4[nH]7)C=C6)C=C5)cc2)=C3)cc1
REMARK SMILES IDX 29 1 28 2 27 3 25 4 26 5 24 7 11 8 12 9 17 10 13 11 16 12
REMARK SMILES IDX 18 13 14 14 15 15 98 16 19 17 10 18 9 19 8 20 5 21 6 22
REMARK SMILES IDX 100 23 7 24 99 25 2 26 3 27 4 28 1 29 20 32 21 33 22 34
REMARK SMILES IDX 23 35 30 36 31 37 32 38 33 39 34 41 35 42 36 43 97 44 37 45
REMARK SMILES IDX 96 46 38 47 39 48 40 49 90 50 41 51 95 52 89 53 91 54 42 55
REMARK SMILES IDX 94 56 88 57 87 58 43 60 75 61 55 62 74 63 56 64 59 65 73 66
REMARK SMILES IDX 92 67 57 68 58 69 72 71 93 72 60 73 44 74 45 75 53 76 46 77
REMARK SMILES IDX 52 78 54 79 51 80 47 81 48 82 49 83 50 84 76 85 77 86 85 87
REMARK SMILES IDX 78 88 84 89 86 90 83 91 79 92 80 93 81 94 82 95 61 96 62 97
REMARK SMILES IDX 70 98 63 99 69 100 71 101 68 102 64 103 65 104 66 105 67 106
REMARK H PARENT 27 6 1 30 1 31 32 40 91 59 59 70
REMARK Flexibility Score: inf
ROOT
ATOM      1  C   UNL A   1      39.609  21.524  26.462  1.00  0.00     0.023 C 
ENDROOT
BRANCH   1   2
ATOM      2  C   UNL A   1      38.353  22.025  25.760  1.00  0.00     0.116 C 
BRANCH   2   3
ATOM      3  N   UNL A   1      37.491  20.937  25.327  1.00  0.00    -0.352 N 
ATOM      4  C   UNL A   1      36.165  20.747  25.125  1.00  0.00     0.251 C 
ATOM      5  O   UNL A   1      35.835  19.642  24.686  1.00  0.00    -0.270 OA
ATOM      6  H   UNL A   1      38.009  20.123  25.127  1.00  0.00     0.163 HD
BRANCH   4   7
ATOM      7  C   UNL A   1      35.114  21.770  25.405  1.00  0.00     0.067 C 
ATOM      8  C   UNL A   1      32.205  24.585  26.533  1.00  0.00     0.069 A 
ATOM      9  C   UNL A   1      30.890  24.175  26.746  1.00  0.00     0.041 A 
ATOM     10  C   UNL A   1      33.173  23.634  26.180  1.00  0.00     0.143 A 
ATOM     11  C   UNL A   1      30.560  22.825  26.616  1.00  0.00     0.043 A 
ATOM     12  C   UNL A   1      32.847  22.279  26.061  1.00  0.00     0.020 A 
ATOM     13  O   UNL A   1      34.446  24.091  26.010  1.00  0.00    -0.474 OA
ATOM     14  Cl  UNL A   1      28.936  22.321  26.886  1.00  0.00    -0.084 Cl
ATOM     15  C   UNL A   1      31.529  21.876  26.279  1.00  0.00     0.032 A 
ATOM     16  C   UNL A   1      33.900  21.312  25.761  1.00  0.00     0.025 C 
ATOM     17  C   UNL A   1      35.358  23.242  25.282  1.00  0.00     0.314 C 
BRANCH   8  18
ATOM     18  C   UNL A   1      32.564  25.968  26.649  1.00  0.00    -0.058 C 
ATOM     19  C   UNL A   1      32.798  27.142  26.779  1.00  0.00    -0.062 C 
BRANCH  19  20
ATOM     20  C   UNL A   1      33.070  28.526  27.017  1.00  0.00     0.025 A 
ATOM     21  C   UNL A   1      33.617  31.195  27.634  1.00  0.00     0.082 A 
ATOM     22  C   UNL A   1      32.327  30.828  27.236  1.00  0.00     0.023 A 
ATOM     23  C   UNL A   1      34.638  30.241  27.695  1.00  0.00     0.023 A 
ATOM     24  C   UNL A   1      32.057  29.488  26.928  1.00  0.00     0.018 A 
ATOM     25  C   UNL A   1      34.361  28.909  27.389  1.00  0.00     0.018 A 
BRANCH  21  26
ATOM     26  S   UNL A   1      34.024  32.856  28.081  1.00  0.00     0.238 S 
ATOM     27  O   UNL A   1      35.181  33.262  27.316  1.00  0.00    -0.207 OA
ATOM     28  O   UNL A   1      33.966  32.964  29.519  1.00  0.00    -0.207 OA
BRANCH  26  29
ATOM     29  N   UNL A   1      32.759  33.795  27.498  1.00  0.00    -0.225 NA
ATOM     30  H   UNL A   1      31.920  33.222  27.417  1.00  0.00     0.137 HD
ATOM     31  H   UNL A   1      33.008  34.166  26.581  1.00  0.00     0.137 HD
ENDBRANCH  26  29
ENDBRANCH  21  26
ENDBRANCH  19  20
ENDBRANCH   8  18
BRANCH  17  32
ATOM     32  C   UNL A   1      35.428  23.703  23.812  1.00  0.00     0.429 C 
ATOM     33  F   UNL A   1      34.971  24.975  23.694  1.00  0.00    -0.167 F 
ATOM     34  F   UNL A   1      36.689  23.702  23.321  1.00  0.00    -0.167 F 
ATOM     35  F   UNL A   1      34.687  22.926  22.990  1.00  0.00    -0.167 F 
ENDBRANCH  17  32
ENDBRANCH   4   7
ENDBRANCH   2   3
ENDBRANCH   1   2
BRANCH   1  36
ATOM     36  C   UNL A   1      40.001  20.114  26.044  1.00  0.00     0.023 C 
BRANCH  36  37
ATOM     37  C   UNL A   1      41.227  19.560  26.759  1.00  0.00     0.116 C 
BRANCH  37  38
ATOM     38  N   UNL A   1      42.368  19.315  25.883  1.00  0.00    -0.352 N 
ATOM     39  C   UNL A   1      43.292  20.234  25.431  1.00  0.00     0.251 C 
ATOM     40  H   UNL A   1      42.492  18.387  25.579  1.00  0.00     0.163 HD
ATOM     41  O   UNL A   1      44.146  19.918  24.611  1.00  0.00    -0.269 OA
BRANCH  39  42
ATOM     42  C   UNL A   1      43.175  21.618  25.930  1.00  0.00     0.039 A 
ATOM     43  C   UNL A   1      42.957  22.651  25.017  1.00  0.00     0.014 A 
ATOM     44  C   UNL A   1      43.485  21.891  27.262  1.00  0.00     0.014 A 
ATOM     45  C   UNL A   1      43.285  23.947  25.381  1.00  0.00     0.010 A 
ATOM     46  C   UNL A   1      43.686  23.215  27.654  1.00  0.00     0.010 A 
ATOM     47  C   UNL A   1      43.661  24.247  26.702  1.00  0.00    -0.014 A 
BRANCH  47  48
ATOM     48  C   UNL A   1      44.026  25.645  27.060  1.00  0.00     0.031 A 
ATOM     49  C   UNL A   1      43.020  26.579  27.681  1.00  0.00     0.074 A 
ATOM     50  C   UNL A   1      45.293  26.055  26.856  1.00  0.00     0.049 A 
ATOM     51  N   UNL A   1      43.172  27.830  28.034  1.00  0.00    -0.248 NA
ATOM     52  C   UNL A   1      41.670  26.051  27.934  1.00  0.00     0.031 C 
ATOM     53  C   UNL A   1      46.355  25.230  26.277  1.00  0.00     0.029 A 
ATOM     54  N   UNL A   1      45.911  27.252  27.122  1.00  0.00    -0.354 N 
ATOM     55  C   UNL A   1      41.938  28.246  28.524  1.00  0.00     0.074 A 
ATOM     56  C   UNL A   1      41.036  27.125  28.390  1.00  0.00     0.031 C 
ATOM     57  C   UNL A   1      47.500  25.921  26.279  1.00  0.00     0.029 A 
ATOM     58  C   UNL A   1      47.239  27.273  26.763  1.00  0.00     0.049 A 
ATOM     59  H   UNL A   1      45.449  28.019  27.529  1.00  0.00     0.167 HD
ATOM     60  C   UNL A   1      41.601  29.448  29.050  1.00  0.00     0.034 A 
ATOM     61  C   UNL A   1      48.146  28.271  26.787  1.00  0.00     0.034 A 
ATOM     62  C   UNL A   1      42.526  30.544  29.199  1.00  0.00     0.049 A 
ATOM     63  C   UNL A   1      47.731  29.610  27.333  1.00  0.00     0.074 A 
ATOM     64  C   UNL A   1      42.289  31.788  29.757  1.00  0.00     0.029 A 
ATOM     65  N   UNL A   1      43.855  30.537  28.796  1.00  0.00    -0.354 N 
ATOM     66  N   UNL A   1      46.574  29.970  27.838  1.00  0.00    -0.248 NA
ATOM     67  C   UNL A   1      48.738  30.679  27.322  1.00  0.00     0.031 C 
ATOM     68  C   UNL A   1      43.440  32.560  29.610  1.00  0.00     0.029 A 
ATOM     69  C   UNL A   1      44.435  31.769  29.058  1.00  0.00     0.049 A 
ATOM     70  H   UNL A   1      44.318  29.771  28.386  1.00  0.00     0.167 HD
ATOM     71  C   UNL A   1      46.723  31.296  28.229  1.00  0.00     0.074 A 
ATOM     72  C   UNL A   1      48.090  31.665  27.928  1.00  0.00     0.031 C 
ATOM     73  C   UNL A   1      45.805  32.130  28.780  1.00  0.00     0.034 A 
BRANCH  60  74
ATOM     74  C   UNL A   1      40.182  29.674  29.523  1.00  0.00     0.023 A 
ATOM     75  C   UNL A   1      39.898  29.686  30.903  1.00  0.00     0.031 A 
ATOM     76  C   UNL A   1      39.099  29.710  28.627  1.00  0.00     0.131 A 
ATOM     77  C   UNL A   1      38.569  29.673  31.345  1.00  0.00     0.055 A 
ATOM     78  C   UNL A   1      37.776  29.755  29.073  1.00  0.00     0.041 A 
ATOM     79  F   UNL A   1      39.309  29.696  27.300  1.00  0.00    -0.206 F 
ATOM     80  C   UNL A   1      37.507  29.718  30.437  1.00  0.00     0.022 A 
BRANCH  77  81
ATOM     81  S   UNL A   1      38.167  29.498  33.106  1.00  0.00     0.124 S 
ATOM     82  O   UNL A   1      37.388  30.709  33.356  1.00  0.00    -0.237 OA
ATOM     83  O   UNL A   1      37.406  28.253  33.121  1.00  0.00    -0.237 OA
ATOM     84  O   UNL A   1      39.470  29.452  33.760  1.00  0.00    -0.744 OA
ENDBRANCH  77  81
ENDBRANCH  60  74
BRANCH  61  85
ATOM     85  C   UNL A   1      49.530  28.000  26.301  1.00  0.00     0.023 A 
ATOM     86  C   UNL A   1      49.890  28.271  24.967  1.00  0.00     0.031 A 
ATOM     87  C   UNL A   1      50.469  27.351  27.117  1.00  0.00     0.131 A 
ATOM     88  C   UNL A   1      51.114  27.812  24.466  1.00  0.00     0.055 A 
ATOM     89  C   UNL A   1      51.726  26.976  26.639  1.00  0.00     0.041 A 
ATOM     90  F   UNL A   1      50.169  27.057  28.392  1.00  0.00    -0.206 F 
ATOM     91  C   UNL A   1      52.044  27.185  25.300  1.00  0.00     0.022 A 
BRANCH  88  92
ATOM     92  S   UNL A   1      51.469  27.869  22.688  1.00  0.00     0.124 S 
ATOM     93  O   UNL A   1      52.842  27.379  22.634  1.00  0.00    -0.237 OA
ATOM     94  O   UNL A   1      50.453  26.965  22.154  1.00  0.00    -0.237 OA
ATOM     95  O   UNL A   1      51.287  29.276  22.345  1.00  0.00    -0.744 OA
ENDBRANCH  88  92
ENDBRANCH  61  85
BRANCH  73  96
ATOM     96  C   UNL A   1      46.219  33.541  29.129  1.00  0.00     0.023 A 
ATOM     97  C   UNL A   1      46.074  34.568  28.174  1.00  0.00     0.031 A 
ATOM     98  C   UNL A   1      46.913  33.834  30.316  1.00  0.00     0.131 A 
ATOM     99  C   UNL A   1      46.669  35.816  28.394  1.00  0.00     0.055 A 
ATOM    100  C   UNL A   1      47.447  35.101  30.560  1.00  0.00     0.041 A 
ATOM    101  F   UNL A   1      47.091  32.890  31.253  1.00  0.00    -0.206 F 
ATOM    102  C   UNL A   1      47.344  36.092  29.588  1.00  0.00     0.022 A 
BRANCH  99 103
ATOM    103  S   UNL A   1      46.692  37.083  27.095  1.00  0.00     0.124 S 
ATOM    104  O   UNL A   1      45.520  37.886  27.436  1.00  0.00    -0.237 OA
ATOM    105  O   UNL A   1      47.981  37.731  27.323  1.00  0.00    -0.237 OA
ATOM    106  O   UNL A   1      46.582  36.319  25.856  1.00  0.00    -0.744 OA
ENDBRANCH  99 103
ENDBRANCH  73  96
ENDBRANCH  47  48
ENDBRANCH  39  42
ENDBRANCH  37  38
ENDBRANCH  36  37
ENDBRANCH   1  36
TORSDOF 19
ENDMDL
