MODEL 1
REMARK VINA RESULT:     -12.1      0.000      0.000
REMARK SMILES O=C(NCCCCNC(=O)[C@H](Cc1ccccn1)[C@H]1CCS(=O)(=O)C1)c1ccc(-c2c3nc(c(-c4cc(S(=O)(=O)[O-])ccc4F)c4ccc([nH]4)c(-c4cc(S(=O)(=O)[O-])ccc4F)c4nc(c(-c5cc(S(=O)(=O)[O-])ccc5F)c5ccc2[nH]5)C=C4)C=C3)cc1
REMARK SMILES IDX 5 1 4 2 3 3 1 4 2 5 26 7 27 8 88 9 28 10 87 11 29 12 30 13
REMARK SMILES IDX 31 14 81 15 32 16 86 17 80 18 82 19 33 20 85 21 79 22 78 23
REMARK SMILES IDX 34 25 66 26 46 27 65 28 47 29 50 30 64 31 83 32 48 33 49 34
REMARK SMILES IDX 63 36 84 37 51 38 35 39 36 40 44 41 37 42 43 43 45 44 42 45
REMARK SMILES IDX 38 46 39 47 40 48 41 49 67 50 68 51 76 52 69 53 75 54 77 55
REMARK SMILES IDX 74 56 70 57 71 58 72 59 73 60 52 61 53 62 61 63 54 64 60 65
REMARK SMILES IDX 62 66 59 67 55 68 56 69 57 70 58 71 6 72 7 73 8 74 9 75
REMARK SMILES IDX 10 77 11 78 12 79 13 80 14 81 18 82 15 83 17 84 16 85 19 86
REMARK SMILES IDX 20 87 25 88 21 89 22 90 23 91 24 92
REMARK H PARENT 3 6 82 24 50 35 8 76
REMARK Flexibility Score: inf
ROOT
ATOM      1  C   UNL A   1      35.845  21.745  24.417  1.00  0.00     0.023 C 
ENDROOT
BRANCH   1   2
ATOM      2  C   UNL A   1      36.944  21.945  25.439  1.00  0.00     0.116 C 
BRANCH   2   3
ATOM      3  N   UNL A   1      37.989  20.919  25.425  1.00  0.00    -0.352 N 
ATOM      4  O   UNL A   1      40.060  20.088  25.858  1.00  0.00    -0.269 OA
ATOM      5  C   UNL A   1      39.250  20.999  25.979  1.00  0.00     0.251 C 
ATOM      6  H   UNL A   1      37.766  20.076  24.968  1.00  0.00     0.163 HD
BRANCH   5   7
ATOM      7  C   UNL A   1      39.595  22.251  26.680  1.00  0.00     0.039 A 
ATOM      8  C   UNL A   1      39.051  23.444  26.210  1.00  0.00     0.014 A 
ATOM      9  C   UNL A   1      40.622  22.252  27.624  1.00  0.00     0.014 A 
ATOM     10  C   UNL A   1      39.716  24.626  26.477  1.00  0.00     0.010 A 
ATOM     11  C   UNL A   1      41.180  23.471  28.020  1.00  0.00     0.010 A 
ATOM     12  C   UNL A   1      40.777  24.665  27.400  1.00  0.00    -0.014 A 
BRANCH  12  13
ATOM     13  C   UNL A   1      41.411  25.979  27.698  1.00  0.00     0.031 A 
ATOM     14  C   UNL A   1      42.762  26.353  27.144  1.00  0.00     0.074 A 
ATOM     15  C   UNL A   1      40.708  26.867  28.430  1.00  0.00     0.049 A 
ATOM     16  N   UNL A   1      43.435  27.465  27.303  1.00  0.00    -0.248 NA
ATOM     17  C   UNL A   1      43.455  25.352  26.321  1.00  0.00     0.031 C 
ATOM     18  C   UNL A   1      39.384  26.616  29.010  1.00  0.00     0.029 A 
ATOM     19  N   UNL A   1      40.977  28.163  28.782  1.00  0.00    -0.354 N 
ATOM     20  C   UNL A   1      44.643  27.287  26.634  1.00  0.00     0.074 A 
ATOM     21  C   UNL A   1      44.618  25.945  26.089  1.00  0.00     0.031 C 
ATOM     22  C   UNL A   1      38.920  27.745  29.558  1.00  0.00     0.029 A 
ATOM     23  C   UNL A   1      39.958  28.762  29.484  1.00  0.00     0.049 A 
ATOM     24  H   UNL A   1      41.819  28.621  28.553  1.00  0.00     0.167 HD
ATOM     25  C   UNL A   1      45.671  28.162  26.492  1.00  0.00     0.034 A 
ATOM     26  C   UNL A   1      39.873  29.983  30.042  1.00  0.00     0.034 A 
ATOM     27  C   UNL A   1      45.664  29.503  27.034  1.00  0.00     0.049 A 
ATOM     28  C   UNL A   1      41.045  30.913  29.907  1.00  0.00     0.074 A 
ATOM     29  C   UNL A   1      46.636  30.484  26.921  1.00  0.00     0.029 A 
ATOM     30  N   UNL A   1      44.642  30.052  27.800  1.00  0.00    -0.354 N 
ATOM     31  N   UNL A   1      42.179  30.725  29.272  1.00  0.00    -0.248 NA
ATOM     32  C   UNL A   1      40.925  32.217  30.563  1.00  0.00     0.031 C 
ATOM     33  C   UNL A   1      46.242  31.586  27.687  1.00  0.00     0.029 A 
ATOM     34  C   UNL A   1      44.977  31.339  28.197  1.00  0.00     0.049 A 
ATOM     35  H   UNL A   1      43.800  29.594  28.028  1.00  0.00     0.167 HD
ATOM     36  C   UNL A   1      42.897  31.905  29.429  1.00  0.00     0.074 A 
ATOM     37  C   UNL A   1      42.055  32.801  30.197  1.00  0.00     0.031 C 
ATOM     38  C   UNL A   1      44.137  32.220  28.976  1.00  0.00     0.034 A 
BRANCH  25  39
ATOM     39  C   UNL A   1      46.916  27.680  25.775  1.00  0.00     0.023 A 
ATOM     40  C   UNL A   1      47.178  27.993  24.430  1.00  0.00     0.031 A 
ATOM     41  C   UNL A   1      47.852  26.875  26.452  1.00  0.00     0.131 A 
ATOM     42  C   UNL A   1      48.301  27.446  23.787  1.00  0.00     0.055 A 
ATOM     43  C   UNL A   1      49.014  26.408  25.833  1.00  0.00     0.041 A 
ATOM     44  F   UNL A   1      47.651  26.521  27.732  1.00  0.00    -0.206 F 
ATOM     45  C   UNL A   1      49.235  26.678  24.486  1.00  0.00     0.022 A 
BRANCH  42  46
ATOM     46  S   UNL A   1      48.440  27.620  21.986  1.00  0.00     0.124 S 
ATOM     47  O   UNL A   1      48.653  26.236  21.571  1.00  0.00    -0.237 OA
ATOM     48  O   UNL A   1      47.153  28.204  21.626  1.00  0.00    -0.237 OA
ATOM     49  O   UNL A   1      49.595  28.499  21.815  1.00  0.00    -0.744 OA
ENDBRANCH  42  46
ENDBRANCH  25  39
BRANCH  26  50
ATOM     50  C   UNL A   1      38.656  30.376  30.807  1.00  0.00     0.023 A 
ATOM     51  C   UNL A   1      37.615  31.085  30.191  1.00  0.00     0.031 A 
ATOM     52  C   UNL A   1      38.529  30.072  32.176  1.00  0.00     0.131 A 
ATOM     53  C   UNL A   1      36.515  31.508  30.953  1.00  0.00     0.055 A 
ATOM     54  C   UNL A   1      37.401  30.435  32.911  1.00  0.00     0.041 A 
ATOM     55  F   UNL A   1      39.495  29.393  32.815  1.00  0.00    -0.206 F 
ATOM     56  C   UNL A   1      36.392  31.173  32.303  1.00  0.00     0.022 A 
BRANCH  53  57
ATOM     57  S   UNL A   1      35.293  32.596  30.172  1.00  0.00     0.124 S 
ATOM     58  O   UNL A   1      36.122  33.720  29.755  1.00  0.00    -0.237 OA
ATOM     59  O   UNL A   1      34.774  31.748  29.103  1.00  0.00    -0.237 OA
ATOM     60  O   UNL A   1      34.351  32.878  31.253  1.00  0.00    -0.744 OA
ENDBRANCH  53  57
ENDBRANCH  26  50
BRANCH  38  61
ATOM     61  C   UNL A   1      44.625  33.623  29.257  1.00  0.00     0.023 A 
ATOM     62  C   UNL A   1      44.523  34.651  28.303  1.00  0.00     0.031 A 
ATOM     63  C   UNL A   1      45.245  33.919  30.483  1.00  0.00     0.131 A 
ATOM     64  C   UNL A   1      45.103  35.901  28.561  1.00  0.00     0.055 A 
ATOM     65  C   UNL A   1      45.750  35.190  30.765  1.00  0.00     0.041 A 
ATOM     66  F   UNL A   1      45.379  32.975  31.429  1.00  0.00    -0.206 F 
ATOM     67  C   UNL A   1      45.697  36.184  29.794  1.00  0.00     0.022 A 
BRANCH  64  68
ATOM     68  S   UNL A   1      45.191  37.112  27.213  1.00  0.00     0.124 S 
ATOM     69  O   UNL A   1      43.782  37.294  26.877  1.00  0.00    -0.237 OA
ATOM     70  O   UNL A   1      45.844  38.248  27.856  1.00  0.00    -0.237 OA
ATOM     71  O   UNL A   1      45.989  36.434  26.193  1.00  0.00    -0.744 OA
ENDBRANCH  64  68
ENDBRANCH  38  61
ENDBRANCH  12  13
ENDBRANCH   5   7
ENDBRANCH   2   3
ENDBRANCH   1   2
BRANCH   1  72
ATOM     72  C   UNL A   1      35.605  22.967  23.553  1.00  0.00     0.023 C 
BRANCH  72  73
ATOM     73  C   UNL A   1      34.761  24.068  24.201  1.00  0.00     0.116 C 
BRANCH  73  74
ATOM     74  N   UNL A   1      34.382  25.021  23.181  1.00  0.00    -0.356 N 
ATOM     75  C   UNL A   1      33.151  25.022  22.585  1.00  0.00     0.223 C 
ATOM     76  H   UNL A   1      35.039  25.700  22.904  1.00  0.00     0.163 HD
ATOM     77  O   UNL A   1      33.101  25.086  21.356  1.00  0.00    -0.275 OA
BRANCH  75  78
ATOM     78  C   UNL A   1      31.883  24.994  23.446  1.00  0.00     0.088 C 
BRANCH  78  79
ATOM     79  C   UNL A   1      31.082  23.675  23.250  1.00  0.00     0.070 C 
BRANCH  79  80
ATOM     80  C   UNL A   1      31.653  22.346  23.692  1.00  0.00     0.041 A 
ATOM     81  C   UNL A   1      31.977  21.387  22.728  1.00  0.00     0.024 A 
ATOM     82  N   UNL A   1      31.773  22.093  25.017  1.00  0.00    -0.261 NA
ATOM     83  C   UNL A   1      32.529  20.172  23.129  1.00  0.00     0.003 A 
ATOM     84  C   UNL A   1      32.318  20.903  25.379  1.00  0.00     0.111 A 
ATOM     85  C   UNL A   1      32.724  19.929  24.481  1.00  0.00     0.020 A 
ENDBRANCH  79  80
ENDBRANCH  78  79
BRANCH  78  86
ATOM     86  C   UNL A   1      30.971  26.251  23.118  1.00  0.00     0.018 C 
ATOM     87  C   UNL A   1      29.646  26.414  23.909  1.00  0.00     0.021 C 
ATOM     88  C   UNL A   1      31.663  27.617  23.279  1.00  0.00     0.141 C 
ATOM     89  C   UNL A   1      29.015  27.745  23.501  1.00  0.00     0.137 C 
ATOM     90  S   UNL A   1      30.376  28.842  23.156  1.00  0.00     0.150 S 
ATOM     91  O   UNL A   1      30.280  29.265  21.769  1.00  0.00    -0.229 OA
ATOM     92  O   UNL A   1      30.528  29.793  24.234  1.00  0.00    -0.229 OA
ENDBRANCH  78  86
ENDBRANCH  75  78
ENDBRANCH  73  74
ENDBRANCH  72  73
ENDBRANCH   1  72
TORSDOF 17
ENDMDL
MODEL 2
REMARK VINA RESULT:     -11.9      5.075     10.004
REMARK SMILES O=C(NCCCCNC(=O)[C@H](Cc1ccccn1)[C@H]1CCS(=O)(=O)C1)c1ccc(-c2c3nc(c(-c4cc(S(=O)(=O)[O-])ccc4F)c4ccc([nH]4)c(-c4cc(S(=O)(=O)[O-])ccc4F)c4nc(c(-c5cc(S(=O)(=O)[O-])ccc5F)c5ccc2[nH]5)C=C4)C=C3)cc1
REMARK SMILES IDX 5 1 4 2 3 3 1 4 2 5 26 7 27 8 88 9 28 10 87 11 29 12 30 13
REMARK SMILES IDX 31 14 81 15 32 16 86 17 80 18 82 19 33 20 85 21 79 22 78 23
REMARK SMILES IDX 34 25 66 26 46 27 65 28 47 29 50 30 64 31 83 32 48 33 49 34
REMARK SMILES IDX 63 36 84 37 51 38 35 39 36 40 44 41 37 42 43 43 45 44 42 45
REMARK SMILES IDX 38 46 39 47 40 48 41 49 67 50 68 51 76 52 69 53 75 54 77 55
REMARK SMILES IDX 74 56 70 57 71 58 72 59 73 60 52 61 53 62 61 63 54 64 60 65
REMARK SMILES IDX 62 66 59 67 55 68 56 69 57 70 58 71 6 72 7 73 8 74 9 75
REMARK SMILES IDX 10 77 11 78 12 79 13 80 14 81 18 82 15 83 17 84 16 85 19 86
REMARK SMILES IDX 20 87 25 88 21 89 22 90 23 91 24 92
REMARK H PARENT 3 6 82 24 50 35 8 76
REMARK Flexibility Score: inf
ROOT
ATOM      1  C   UNL A   1      33.022  29.700  24.519  1.00  0.00     0.023 C 
ENDROOT
BRANCH   1   2
ATOM      2  C   UNL A   1      32.759  29.714  26.009  1.00  0.00     0.116 C 
BRANCH   2   3
ATOM      3  N   UNL A   1      32.422  31.028  26.561  1.00  0.00    -0.352 N 
ATOM      4  O   UNL A   1      32.797  32.894  27.802  1.00  0.00    -0.269 OA
ATOM      5  C   UNL A   1      33.211  31.831  27.358  1.00  0.00     0.251 C 
ATOM      6  H   UNL A   1      31.530  31.379  26.337  1.00  0.00     0.163 HD
BRANCH   5   7
ATOM      7  C   UNL A   1      34.558  31.326  27.691  1.00  0.00     0.039 A 
ATOM      8  C   UNL A   1      34.674  30.030  28.189  1.00  0.00     0.014 A 
ATOM      9  C   UNL A   1      35.636  32.210  27.731  1.00  0.00     0.014 A 
ATOM     10  C   UNL A   1      35.772  29.715  28.967  1.00  0.00     0.010 A 
ATOM     11  C   UNL A   1      36.812  31.820  28.376  1.00  0.00     0.010 A 
ATOM     12  C   UNL A   1      36.868  30.593  29.059  1.00  0.00    -0.014 A 
BRANCH  12  13
ATOM     13  C   UNL A   1      38.052  30.171  29.857  1.00  0.00     0.031 A 
ATOM     14  C   UNL A   1      38.248  30.618  31.283  1.00  0.00     0.074 A 
ATOM     15  C   UNL A   1      38.921  29.311  29.289  1.00  0.00     0.049 A 
ATOM     16  N   UNL A   1      39.220  30.321  32.110  1.00  0.00    -0.248 NA
ATOM     17  C   UNL A   1      37.241  31.524  31.852  1.00  0.00     0.031 C 
ATOM     18  C   UNL A   1      38.824  28.802  27.917  1.00  0.00     0.029 A 
ATOM     19  N   UNL A   1      40.028  28.681  29.793  1.00  0.00    -0.354 N 
ATOM     20  C   UNL A   1      38.963  31.029  33.280  1.00  0.00     0.074 A 
ATOM     21  C   UNL A   1      37.755  31.791  33.045  1.00  0.00     0.031 C 
ATOM     22  C   UNL A   1      39.767  27.873  27.721  1.00  0.00     0.029 A 
ATOM     23  C   UNL A   1      40.613  27.810  28.903  1.00  0.00     0.049 A 
ATOM     24  H   UNL A   1      40.371  28.836  30.703  1.00  0.00     0.167 HD
ATOM     25  C   UNL A   1      39.672  31.038  34.440  1.00  0.00     0.034 A 
ATOM     26  C   UNL A   1      41.728  27.065  29.006  1.00  0.00     0.034 A 
ATOM     27  C   UNL A   1      40.868  30.255  34.654  1.00  0.00     0.049 A 
ATOM     28  C   UNL A   1      42.516  27.131  30.283  1.00  0.00     0.074 A 
ATOM     29  C   UNL A   1      41.645  30.162  35.798  1.00  0.00     0.029 A 
ATOM     30  N   UNL A   1      41.470  29.436  33.706  1.00  0.00    -0.354 N 
ATOM     31  N   UNL A   1      42.258  27.808  31.378  1.00  0.00    -0.248 NA
ATOM     32  C   UNL A   1      43.744  26.334  30.337  1.00  0.00     0.031 C 
ATOM     33  C   UNL A   1      42.756  29.362  35.513  1.00  0.00     0.029 A 
ATOM     34  C   UNL A   1      42.626  28.868  34.225  1.00  0.00     0.049 A 
ATOM     35  H   UNL A   1      41.126  29.280  32.795  1.00  0.00     0.167 HD
ATOM     36  C   UNL A   1      43.281  27.491  32.265  1.00  0.00     0.074 A 
ATOM     37  C   UNL A   1      44.142  26.546  31.581  1.00  0.00     0.031 C 
ATOM     38  C   UNL A   1      43.487  27.938  33.530  1.00  0.00     0.034 A 
BRANCH  25  39
ATOM     39  C   UNL A   1      39.211  31.969  35.542  1.00  0.00     0.023 A 
ATOM     40  C   UNL A   1      39.620  33.312  35.612  1.00  0.00     0.031 A 
ATOM     41  C   UNL A   1      38.355  31.494  36.554  1.00  0.00     0.131 A 
ATOM     42  C   UNL A   1      39.235  34.108  36.705  1.00  0.00     0.055 A 
ATOM     43  C   UNL A   1      37.904  32.316  37.590  1.00  0.00     0.041 A 
ATOM     44  F   UNL A   1      37.945  30.215  36.559  1.00  0.00    -0.206 F 
ATOM     45  C   UNL A   1      38.358  33.628  37.679  1.00  0.00     0.022 A 
BRANCH  42  46
ATOM     46  S   UNL A   1      40.025  35.728  36.918  1.00  0.00     0.124 S 
ATOM     47  O   UNL A   1      39.386  36.209  38.141  1.00  0.00    -0.237 OA
ATOM     48  O   UNL A   1      41.436  35.379  37.029  1.00  0.00    -0.237 OA
ATOM     49  O   UNL A   1      39.654  36.453  35.704  1.00  0.00    -0.744 OA
ENDBRANCH  42  46
ENDBRANCH  25  39
BRANCH  26  50
ATOM     50  C   UNL A   1      42.181  26.229  27.858  1.00  0.00     0.023 A 
ATOM     51  C   UNL A   1      41.707  24.921  27.688  1.00  0.00     0.031 A 
ATOM     52  C   UNL A   1      43.119  26.718  26.929  1.00  0.00     0.131 A 
ATOM     53  C   UNL A   1      42.207  24.130  26.642  1.00  0.00     0.055 A 
ATOM     54  C   UNL A   1      43.559  25.951  25.852  1.00  0.00     0.041 A 
ATOM     55  F   UNL A   1      43.604  27.964  27.043  1.00  0.00    -0.206 F 
ATOM     56  C   UNL A   1      43.115  24.640  25.713  1.00  0.00     0.022 A 
BRANCH  53  57
ATOM     57  S   UNL A   1      41.726  22.383  26.576  1.00  0.00     0.124 S 
ATOM     58  O   UNL A   1      42.421  21.931  25.377  1.00  0.00    -0.237 OA
ATOM     59  O   UNL A   1      42.242  21.880  27.846  1.00  0.00    -0.237 OA
ATOM     60  O   UNL A   1      40.269  22.436  26.474  1.00  0.00    -0.744 OA
ENDBRANCH  53  57
ENDBRANCH  26  50
BRANCH  38  61
ATOM     61  C   UNL A   1      44.667  27.354  34.271  1.00  0.00     0.023 A 
ATOM     62  C   UNL A   1      44.587  26.123  34.947  1.00  0.00     0.031 A 
ATOM     63  C   UNL A   1      45.877  28.067  34.340  1.00  0.00     0.131 A 
ATOM     64  C   UNL A   1      45.666  25.683  35.725  1.00  0.00     0.055 A 
ATOM     65  C   UNL A   1      46.977  27.584  35.051  1.00  0.00     0.041 A 
ATOM     66  F   UNL A   1      46.011  29.251  33.722  1.00  0.00    -0.206 F 
ATOM     67  C   UNL A   1      46.868  26.395  35.765  1.00  0.00     0.022 A 
BRANCH  64  68
ATOM     68  S   UNL A   1      45.433  24.236  36.795  1.00  0.00     0.124 S 
ATOM     69  O   UNL A   1      44.972  24.850  38.037  1.00  0.00    -0.237 OA
ATOM     70  O   UNL A   1      44.439  23.462  36.060  1.00  0.00    -0.237 OA
ATOM     71  O   UNL A   1      46.765  23.637  36.857  1.00  0.00    -0.744 OA
ENDBRANCH  64  68
ENDBRANCH  38  61
ENDBRANCH  12  13
ENDBRANCH   5   7
ENDBRANCH   2   3
ENDBRANCH   1   2
BRANCH   1  72
ATOM     72  C   UNL A   1      32.668  28.380  23.863  1.00  0.00     0.023 C 
BRANCH  72  73
ATOM     73  C   UNL A   1      33.500  28.021  22.628  1.00  0.00     0.116 C 
BRANCH  73  74
ATOM     74  N   UNL A   1      32.790  27.017  21.868  1.00  0.00    -0.356 N 
ATOM     75  C   UNL A   1      33.234  25.730  21.737  1.00  0.00     0.223 C 
ATOM     76  H   UNL A   1      31.948  27.271  21.424  1.00  0.00     0.163 HD
ATOM     77  O   UNL A   1      33.263  25.237  20.610  1.00  0.00    -0.275 OA
BRANCH  75  78
ATOM     78  C   UNL A   1      33.633  24.928  22.982  1.00  0.00     0.088 C 
BRANCH  78  79
ATOM     79  C   UNL A   1      34.017  23.463  22.625  1.00  0.00     0.070 C 
BRANCH  79  80
ATOM     80  C   UNL A   1      34.955  22.669  23.506  1.00  0.00     0.041 A 
ATOM     81  C   UNL A   1      34.425  21.738  24.404  1.00  0.00     0.024 A 
ATOM     82  N   UNL A   1      36.283  22.928  23.450  1.00  0.00    -0.261 NA
ATOM     83  C   UNL A   1      35.287  20.984  25.198  1.00  0.00     0.003 A 
ATOM     84  C   UNL A   1      37.100  22.176  24.231  1.00  0.00     0.111 A 
ATOM     85  C   UNL A   1      36.656  21.190  25.098  1.00  0.00     0.020 A 
ENDBRANCH  79  80
ENDBRANCH  78  79
BRANCH  78  86
ATOM     86  C   UNL A   1      32.456  24.950  24.046  1.00  0.00     0.018 C 
ATOM     87  C   UNL A   1      31.457  23.762  24.049  1.00  0.00     0.021 C 
ATOM     88  C   UNL A   1      32.907  25.052  25.514  1.00  0.00     0.141 C 
ATOM     89  C   UNL A   1      30.501  23.954  25.226  1.00  0.00     0.137 C 
ATOM     90  S   UNL A   1      31.454  24.754  26.501  1.00  0.00     0.150 S 
ATOM     91  O   UNL A   1      30.834  26.034  26.798  1.00  0.00    -0.229 OA
ATOM     92  O   UNL A   1      31.780  23.806  27.541  1.00  0.00    -0.229 OA
ENDBRANCH  78  86
ENDBRANCH  75  78
ENDBRANCH  73  74
ENDBRANCH  72  73
ENDBRANCH   1  72
TORSDOF 17
ENDMDL
MODEL 3
REMARK VINA RESULT:     -11.8      5.147     10.208
REMARK SMILES O=C(NCCCCNC(=O)[C@H](Cc1ccccn1)[C@H]1CCS(=O)(=O)C1)c1ccc(-c2c3nc(c(-c4cc(S(=O)(=O)[O-])ccc4F)c4ccc([nH]4)c(-c4cc(S(=O)(=O)[O-])ccc4F)c4nc(c(-c5cc(S(=O)(=O)[O-])ccc5F)c5ccc2[nH]5)C=C4)C=C3)cc1
REMARK SMILES IDX 5 1 4 2 3 3 1 4 2 5 26 7 27 8 88 9 28 10 87 11 29 12 30 13
REMARK SMILES IDX 31 14 81 15 32 16 86 17 80 18 82 19 33 20 85 21 79 22 78 23
REMARK SMILES IDX 34 25 66 26 46 27 65 28 47 29 50 30 64 31 83 32 48 33 49 34
REMARK SMILES IDX 63 36 84 37 51 38 35 39 36 40 44 41 37 42 43 43 45 44 42 45
REMARK SMILES IDX 38 46 39 47 40 48 41 49 67 50 68 51 76 52 69 53 75 54 77 55
REMARK SMILES IDX 74 56 70 57 71 58 72 59 73 60 52 61 53 62 61 63 54 64 60 65
REMARK SMILES IDX 62 66 59 67 55 68 56 69 57 70 58 71 6 72 7 73 8 74 9 75
REMARK SMILES IDX 10 77 11 78 12 79 13 80 14 81 18 82 15 83 17 84 16 85 19 86
REMARK SMILES IDX 20 87 25 88 21 89 22 90 23 91 24 92
REMARK H PARENT 3 6 82 24 50 35 8 76
REMARK Flexibility Score: inf
ROOT
ATOM      1  C   UNL A   1      32.938  29.331  24.795  1.00  0.00     0.023 C 
ENDROOT
BRANCH   1   2
ATOM      2  C   UNL A   1      32.695  29.544  26.273  1.00  0.00     0.116 C 
BRANCH   2   3
ATOM      3  N   UNL A   1      32.382  30.924  26.652  1.00  0.00    -0.352 N 
ATOM      4  O   UNL A   1      32.818  32.947  27.591  1.00  0.00    -0.269 OA
ATOM      5  C   UNL A   1      33.212  31.830  27.279  1.00  0.00     0.251 C 
ATOM      6  H   UNL A   1      31.477  31.241  26.432  1.00  0.00     0.163 HD
BRANCH   5   7
ATOM      7  C   UNL A   1      34.578  31.375  27.602  1.00  0.00     0.039 A 
ATOM      8  C   UNL A   1      34.761  30.048  27.985  1.00  0.00     0.014 A 
ATOM      9  C   UNL A   1      35.601  32.312  27.749  1.00  0.00     0.014 A 
ATOM     10  C   UNL A   1      35.859  29.727  28.761  1.00  0.00     0.010 A 
ATOM     11  C   UNL A   1      36.784  31.932  28.389  1.00  0.00     0.010 A 
ATOM     12  C   UNL A   1      36.898  30.654  28.961  1.00  0.00    -0.014 A 
BRANCH  12  13
ATOM     13  C   UNL A   1      38.087  30.230  29.749  1.00  0.00     0.031 A 
ATOM     14  C   UNL A   1      38.290  30.667  31.177  1.00  0.00     0.074 A 
ATOM     15  C   UNL A   1      38.957  29.377  29.170  1.00  0.00     0.049 A 
ATOM     16  N   UNL A   1      39.266  30.366  31.997  1.00  0.00    -0.248 NA
ATOM     17  C   UNL A   1      37.282  31.565  31.759  1.00  0.00     0.031 C 
ATOM     18  C   UNL A   1      38.854  28.879  27.794  1.00  0.00     0.029 A 
ATOM     19  N   UNL A   1      40.068  28.746  29.663  1.00  0.00    -0.354 N 
ATOM     20  C   UNL A   1      39.014  31.064  33.174  1.00  0.00     0.074 A 
ATOM     21  C   UNL A   1      37.802  31.824  32.951  1.00  0.00     0.031 C 
ATOM     22  C   UNL A   1      39.799  27.954  27.587  1.00  0.00     0.029 A 
ATOM     23  C   UNL A   1      40.651  27.885  28.764  1.00  0.00     0.049 A 
ATOM     24  H   UNL A   1      40.415  28.896  30.573  1.00  0.00     0.167 HD
ATOM     25  C   UNL A   1      39.728  31.067  34.330  1.00  0.00     0.034 A 
ATOM     26  C   UNL A   1      41.769  27.142  28.855  1.00  0.00     0.034 A 
ATOM     27  C   UNL A   1      40.928  30.286  34.532  1.00  0.00     0.049 A 
ATOM     28  C   UNL A   1      42.564  27.201  30.128  1.00  0.00     0.074 A 
ATOM     29  C   UNL A   1      41.711  30.186  35.671  1.00  0.00     0.029 A 
ATOM     30  N   UNL A   1      41.528  29.476  33.574  1.00  0.00    -0.354 N 
ATOM     31  N   UNL A   1      42.309  27.869  31.230  1.00  0.00    -0.248 NA
ATOM     32  C   UNL A   1      43.794  26.407  30.169  1.00  0.00     0.031 C 
ATOM     33  C   UNL A   1      42.823  29.392  35.374  1.00  0.00     0.029 A 
ATOM     34  C   UNL A   1      42.688  28.908  34.083  1.00  0.00     0.049 A 
ATOM     35  H   UNL A   1      41.180  29.326  32.664  1.00  0.00     0.167 HD
ATOM     36  C   UNL A   1      43.338  27.548  32.109  1.00  0.00     0.074 A 
ATOM     37  C   UNL A   1      44.198  26.612  31.413  1.00  0.00     0.031 C 
ATOM     38  C   UNL A   1      43.548  27.986  33.376  1.00  0.00     0.034 A 
BRANCH  25  39
ATOM     39  C   UNL A   1      39.270  31.988  35.442  1.00  0.00     0.023 A 
ATOM     40  C   UNL A   1      39.733  33.309  35.562  1.00  0.00     0.031 A 
ATOM     41  C   UNL A   1      38.361  31.524  36.412  1.00  0.00     0.131 A 
ATOM     42  C   UNL A   1      39.345  34.092  36.663  1.00  0.00     0.055 A 
ATOM     43  C   UNL A   1      37.910  32.336  37.455  1.00  0.00     0.041 A 
ATOM     44  F   UNL A   1      37.898  30.264  36.368  1.00  0.00    -0.206 F 
ATOM     45  C   UNL A   1      38.416  33.625  37.595  1.00  0.00     0.022 A 
BRANCH  42  46
ATOM     46  S   UNL A   1      40.194  35.671  36.946  1.00  0.00     0.124 S 
ATOM     47  O   UNL A   1      41.594  35.286  36.786  1.00  0.00    -0.237 OA
ATOM     48  O   UNL A   1      39.641  36.519  35.897  1.00  0.00    -0.237 OA
ATOM     49  O   UNL A   1      39.806  36.029  38.309  1.00  0.00    -0.744 OA
ENDBRANCH  42  46
ENDBRANCH  25  39
BRANCH  26  50
ATOM     50  C   UNL A   1      42.218  26.317  27.698  1.00  0.00     0.023 A 
ATOM     51  C   UNL A   1      41.798  24.987  27.554  1.00  0.00     0.031 A 
ATOM     52  C   UNL A   1      43.101  26.839  26.733  1.00  0.00     0.131 A 
ATOM     53  C   UNL A   1      42.296  24.210  26.498  1.00  0.00     0.055 A 
ATOM     54  C   UNL A   1      43.538  26.082  25.647  1.00  0.00     0.041 A 
ATOM     55  F   UNL A   1      43.533  28.106  26.821  1.00  0.00    -0.206 F 
ATOM     56  C   UNL A   1      43.148  24.752  25.533  1.00  0.00     0.022 A 
BRANCH  53  57
ATOM     57  S   UNL A   1      41.892  22.443  26.463  1.00  0.00     0.124 S 
ATOM     58  O   UNL A   1      42.611  22.000  25.274  1.00  0.00    -0.237 OA
ATOM     59  O   UNL A   1      42.423  21.986  27.743  1.00  0.00    -0.237 OA
ATOM     60  O   UNL A   1      40.435  22.430  26.354  1.00  0.00    -0.744 OA
ENDBRANCH  53  57
ENDBRANCH  26  50
BRANCH  38  61
ATOM     61  C   UNL A   1      44.734  27.400  34.107  1.00  0.00     0.023 A 
ATOM     62  C   UNL A   1      44.640  26.204  34.839  1.00  0.00     0.031 A 
ATOM     63  C   UNL A   1      45.966  28.079  34.107  1.00  0.00     0.131 A 
ATOM     64  C   UNL A   1      45.731  25.766  35.604  1.00  0.00     0.055 A 
ATOM     65  C   UNL A   1      47.073  27.595  34.805  1.00  0.00     0.041 A 
ATOM     66  F   UNL A   1      46.114  29.230  33.432  1.00  0.00    -0.206 F 
ATOM     67  C   UNL A   1      46.954  26.442  35.575  1.00  0.00     0.022 A 
BRANCH  64  68
ATOM     68  S   UNL A   1      45.491  24.375  36.744  1.00  0.00     0.124 S 
ATOM     69  O   UNL A   1      44.551  24.936  37.711  1.00  0.00    -0.237 OA
ATOM     70  O   UNL A   1      44.958  23.340  35.865  1.00  0.00    -0.237 OA
ATOM     71  O   UNL A   1      46.833  24.120  37.262  1.00  0.00    -0.744 OA
ENDBRANCH  64  68
ENDBRANCH  38  61
ENDBRANCH  12  13
ENDBRANCH   5   7
ENDBRANCH   2   3
ENDBRANCH   1   2
BRANCH   1  72
ATOM     72  C   UNL A   1      33.958  28.247  24.509  1.00  0.00     0.023 C 
BRANCH  72  73
ATOM     73  C   UNL A   1      33.373  26.871  24.177  1.00  0.00     0.116 C 
BRANCH  73  74
ATOM     74  N   UNL A   1      32.981  26.858  22.785  1.00  0.00    -0.356 N 
ATOM     75  C   UNL A   1      32.090  25.956  22.272  1.00  0.00     0.223 C 
ATOM     76  H   UNL A   1      33.372  27.529  22.179  1.00  0.00     0.163 HD
ATOM     77  O   UNL A   1      32.393  25.366  21.234  1.00  0.00    -0.275 OA
BRANCH  75  78
ATOM     78  C   UNL A   1      30.737  25.740  22.959  1.00  0.00     0.088 C 
BRANCH  78  79
ATOM     79  C   UNL A   1      30.286  27.000  23.753  1.00  0.00     0.070 C 
BRANCH  79  80
ATOM     80  C   UNL A   1      29.608  28.158  23.053  1.00  0.00     0.041 A 
ATOM     81  C   UNL A   1      28.229  28.332  23.200  1.00  0.00     0.024 A 
ATOM     82  N   UNL A   1      30.346  28.959  22.248  1.00  0.00    -0.261 NA
ATOM     83  C   UNL A   1      27.605  29.413  22.581  1.00  0.00     0.003 A 
ATOM     84  C   UNL A   1      29.713  30.007  21.661  1.00  0.00     0.111 A 
ATOM     85  C   UNL A   1      28.363  30.283  21.810  1.00  0.00     0.020 A 
ENDBRANCH  79  80
ENDBRANCH  78  79
BRANCH  78  86
ATOM     86  C   UNL A   1      30.805  24.476  23.917  1.00  0.00     0.018 C 
ATOM     87  C   UNL A   1      32.058  23.565  23.828  1.00  0.00     0.021 C 
ATOM     88  C   UNL A   1      30.687  24.790  25.419  1.00  0.00     0.141 C 
ATOM     89  C   UNL A   1      31.942  22.498  24.917  1.00  0.00     0.137 C 
ATOM     90  S   UNL A   1      31.092  23.280  26.274  1.00  0.00     0.150 S 
ATOM     91  O   UNL A   1      29.860  22.551  26.520  1.00  0.00    -0.229 OA
ATOM     92  O   UNL A   1      32.027  23.578  27.335  1.00  0.00    -0.229 OA
ENDBRANCH  78  86
ENDBRANCH  75  78
ENDBRANCH  73  74
ENDBRANCH  72  73
ENDBRANCH   1  72
TORSDOF 17
ENDMDL
