MODEL 1
REMARK VINA RESULT:     -10.2      0.000      0.000
REMARK SMILES CS(=O)(=O)c1ccc(N2N=C(C(=O)NCCCCNC(=O)c3ccc(-c4c5nc(c(-c6cc(S(=O)(=O)[O-])ccc6F)c6ccc([nH]6)c(-c6cc(S(=O)(=O)[O-])ccc6F)c6nc(c(-c7cc(S(=O)(=O)[O-])ccc7F)c7ccc4[nH]7)C=C6)C=C5)cc3)C[C@H]2c2cccs2)cc1
REMARK SMILES IDX 17 1 16 2 15 3 14 4 12 5 13 6 11 8 9 9 10 10 86 11 85 12
REMARK SMILES IDX 8 13 5 14 6 15 93 16 7 17 92 18 2 19 1 20 3 21 4 22 87 23
REMARK SMILES IDX 88 24 91 25 89 26 90 27 18 28 19 29 20 30 21 32 22 33 23 34
REMARK SMILES IDX 84 35 24 36 83 37 25 38 26 39 27 40 77 41 28 42 82 43 76 44
REMARK SMILES IDX 78 45 29 46 81 47 75 48 74 49 30 51 62 52 42 53 61 54 43 55
REMARK SMILES IDX 46 56 60 57 79 58 44 59 45 60 59 62 80 63 47 64 31 65 32 66
REMARK SMILES IDX 40 67 33 68 39 69 41 70 38 71 34 72 35 73 36 74 37 75 63 76
REMARK SMILES IDX 64 77 72 78 65 79 71 80 73 81 70 82 66 83 67 84 68 85 69 86
REMARK SMILES IDX 48 87 49 88 57 89 50 90 56 91 58 92 55 93 51 94 52 95 53 96
REMARK SMILES IDX 54 97
REMARK H PARENT 14 7 19 31 78 50 46 61
REMARK Flexibility Score: inf
ROOT
ATOM      1  C   UNL A   1      38.203  33.637  40.295  1.00  0.00     0.023 C 
ENDROOT
BRANCH   1   2
ATOM      2  C   UNL A   1      37.294  32.870  39.338  1.00  0.00     0.023 C 
BRANCH   2   3
ATOM      3  C   UNL A   1      37.736  32.919  37.880  1.00  0.00     0.116 C 
BRANCH   3   4
ATOM      4  N   UNL A   1      38.296  31.651  37.452  1.00  0.00    -0.351 N 
ATOM      5  C   UNL A   1      38.374  30.990  36.253  1.00  0.00     0.267 C 
ATOM      6  O   UNL A   1      38.852  29.857  36.258  1.00  0.00    -0.268 OA
ATOM      7  H   UNL A   1      38.714  31.153  38.191  1.00  0.00     0.163 HD
BRANCH   5   8
ATOM      8  C   UNL A   1      37.952  31.586  34.918  1.00  0.00     0.128 C 
ATOM      9  N   UNL A   1      36.691  32.554  33.492  1.00  0.00    -0.256 N 
ATOM     10  N   UNL A   1      36.868  32.296  34.815  1.00  0.00    -0.171 NA
ATOM     11  C   UNL A   1      37.816  32.141  32.652  1.00  0.00     0.154 C 
ATOM     12  C   UNL A   1      38.717  31.411  33.651  1.00  0.00     0.097 C 
BRANCH   9  13
ATOM     13  C   UNL A   1      35.791  33.532  33.088  1.00  0.00     0.060 A 
ATOM     14  C   UNL A   1      33.962  35.524  32.351  1.00  0.00     0.067 A 
ATOM     15  C   UNL A   1      34.087  34.377  31.564  1.00  0.00     0.022 A 
ATOM     16  C   UNL A   1      34.759  35.704  33.481  1.00  0.00     0.022 A 
ATOM     17  C   UNL A   1      35.011  33.392  31.933  1.00  0.00     0.029 A 
ATOM     18  C   UNL A   1      35.661  34.706  33.844  1.00  0.00     0.029 A 
BRANCH  14  19
ATOM     19  S   UNL A   1      32.791  36.787  31.922  1.00  0.00     0.175 S 
ATOM     20  C   UNL A   1      33.684  38.297  32.189  1.00  0.00     0.163 C 
ATOM     21  O   UNL A   1      31.712  36.750  32.885  1.00  0.00    -0.224 OA
ATOM     22  O   UNL A   1      32.531  36.664  30.497  1.00  0.00    -0.224 OA
ENDBRANCH  14  19
ENDBRANCH   9  13
BRANCH  11  23
ATOM     23  C   UNL A   1      37.475  31.343  31.400  1.00  0.00     0.030 A 
ATOM     24  C   UNL A   1      36.722  30.181  31.340  1.00  0.00     0.017 A 
ATOM     25  S   UNL A   1      38.043  31.766  29.833  1.00  0.00    -0.147 S 
ATOM     26  C   UNL A   1      36.583  29.674  30.016  1.00  0.00     0.012 A 
ATOM     27  C   UNL A   1      37.215  30.473  29.093  1.00  0.00     0.065 A 
ENDBRANCH  11  23
ENDBRANCH   5   8
ENDBRANCH   3   4
ENDBRANCH   2   3
ENDBRANCH   1   2
BRANCH   1  28
ATOM     28  C   UNL A   1      39.470  34.211  39.668  1.00  0.00     0.116 C 
BRANCH  28  29
ATOM     29  N   UNL A   1      39.451  35.662  39.543  1.00  0.00    -0.352 N 
ATOM     30  C   UNL A   1      39.962  36.442  38.533  1.00  0.00     0.251 C 
ATOM     31  H   UNL A   1      39.016  36.148  40.281  1.00  0.00     0.163 HD
ATOM     32  O   UNL A   1      39.960  37.664  38.638  1.00  0.00    -0.269 OA
BRANCH  30  33
ATOM     33  C   UNL A   1      40.545  35.785  37.347  1.00  0.00     0.039 A 
ATOM     34  C   UNL A   1      41.921  35.554  37.308  1.00  0.00     0.014 A 
ATOM     35  C   UNL A   1      39.720  35.334  36.312  1.00  0.00     0.014 A 
ATOM     36  C   UNL A   1      42.461  34.793  36.269  1.00  0.00     0.010 A 
ATOM     37  C   UNL A   1      40.248  34.513  35.322  1.00  0.00     0.010 A 
ATOM     38  C   UNL A   1      41.622  34.228  35.294  1.00  0.00    -0.014 A 
BRANCH  38  39
ATOM     39  C   UNL A   1      42.155  33.328  34.239  1.00  0.00     0.031 A 
ATOM     40  C   UNL A   1      42.447  33.873  32.868  1.00  0.00     0.074 A 
ATOM     41  C   UNL A   1      42.295  32.010  34.491  1.00  0.00     0.049 A 
ATOM     42  N   UNL A   1      42.812  33.238  31.785  1.00  0.00    -0.248 NA
ATOM     43  C   UNL A   1      42.272  35.321  32.688  1.00  0.00     0.031 C 
ATOM     44  C   UNL A   1      42.000  31.357  35.769  1.00  0.00     0.029 A 
ATOM     45  N   UNL A   1      42.707  30.981  33.682  1.00  0.00    -0.354 N 
ATOM     46  C   UNL A   1      42.891  34.205  30.789  1.00  0.00     0.074 A 
ATOM     47  C   UNL A   1      42.476  35.457  31.386  1.00  0.00     0.031 C 
ATOM     48  C   UNL A   1      42.259  30.044  35.662  1.00  0.00     0.029 A 
ATOM     49  C   UNL A   1      42.691  29.751  34.299  1.00  0.00     0.049 A 
ATOM     50  H   UNL A   1      42.987  31.110  32.748  1.00  0.00     0.167 HD
ATOM     51  C   UNL A   1      43.295  34.066  29.502  1.00  0.00     0.034 A 
ATOM     52  C   UNL A   1      42.978  28.524  33.818  1.00  0.00     0.034 A 
ATOM     53  C   UNL A   1      43.721  32.813  28.929  1.00  0.00     0.049 A 
ATOM     54  C   UNL A   1      43.409  28.392  32.379  1.00  0.00     0.074 A 
ATOM     55  C   UNL A   1      44.209  32.569  27.657  1.00  0.00     0.029 A 
ATOM     56  N   UNL A   1      43.705  31.590  29.588  1.00  0.00    -0.354 N 
ATOM     57  N   UNL A   1      43.531  29.325  31.464  1.00  0.00    -0.248 NA
ATOM     58  C   UNL A   1      43.751  27.042  31.912  1.00  0.00     0.031 C 
ATOM     59  C   UNL A   1      44.425  31.193  27.526  1.00  0.00     0.029 A 
ATOM     60  C   UNL A   1      44.145  30.585  28.740  1.00  0.00     0.049 A 
ATOM     61  H   UNL A   1      43.422  31.457  30.521  1.00  0.00     0.167 HD
ATOM     62  C   UNL A   1      43.994  28.677  30.322  1.00  0.00     0.074 A 
ATOM     63  C   UNL A   1      44.140  27.279  30.668  1.00  0.00     0.031 C 
ATOM     64  C   UNL A   1      44.277  29.193  29.098  1.00  0.00     0.034 A 
BRANCH  51  65
ATOM     65  C   UNL A   1      43.268  35.298  28.630  1.00  0.00     0.023 A 
ATOM     66  C   UNL A   1      44.439  36.020  28.334  1.00  0.00     0.031 A 
ATOM     67  C   UNL A   1      42.054  35.779  28.111  1.00  0.00     0.131 A 
ATOM     68  C   UNL A   1      44.361  37.221  27.615  1.00  0.00     0.055 A 
ATOM     69  C   UNL A   1      41.993  36.931  27.323  1.00  0.00     0.041 A 
ATOM     70  F   UNL A   1      40.899  35.147  28.376  1.00  0.00    -0.206 F 
ATOM     71  C   UNL A   1      43.149  37.669  27.085  1.00  0.00     0.022 A 
BRANCH  68  72
ATOM     72  S   UNL A   1      45.839  38.266  27.514  1.00  0.00     0.124 S 
ATOM     73  O   UNL A   1      45.617  38.970  26.253  1.00  0.00    -0.237 OA
ATOM     74  O   UNL A   1      45.740  39.074  28.724  1.00  0.00    -0.237 OA
ATOM     75  O   UNL A   1      46.939  37.303  27.494  1.00  0.00    -0.744 OA
ENDBRANCH  68  72
ENDBRANCH  51  65
BRANCH  52  76
ATOM     76  C   UNL A   1      42.858  27.322  34.691  1.00  0.00     0.023 A 
ATOM     77  C   UNL A   1      43.941  26.881  35.468  1.00  0.00     0.031 A 
ATOM     78  C   UNL A   1      41.670  26.570  34.731  1.00  0.00     0.131 A 
ATOM     79  C   UNL A   1      43.832  25.698  36.215  1.00  0.00     0.055 A 
ATOM     80  C   UNL A   1      41.548  25.423  35.516  1.00  0.00     0.041 A 
ATOM     81  F   UNL A   1      40.601  26.952  34.013  1.00  0.00    -0.206 F 
ATOM     82  C   UNL A   1      42.639  24.973  36.254  1.00  0.00     0.022 A 
BRANCH  79  83
ATOM     83  S   UNL A   1      45.302  25.075  37.074  1.00  0.00     0.124 S 
ATOM     84  O   UNL A   1      44.713  24.421  38.236  1.00  0.00    -0.237 OA
ATOM     85  O   UNL A   1      45.889  24.194  36.069  1.00  0.00    -0.237 OA
ATOM     86  O   UNL A   1      46.068  26.287  37.361  1.00  0.00    -0.744 OA
ENDBRANCH  79  83
ENDBRANCH  52  76
BRANCH  64  87
ATOM     87  C   UNL A   1      44.823  28.241  28.062  1.00  0.00     0.023 A 
ATOM     88  C   UNL A   1      43.979  27.430  27.283  1.00  0.00     0.031 A 
ATOM     89  C   UNL A   1      46.211  28.145  27.856  1.00  0.00     0.131 A 
ATOM     90  C   UNL A   1      44.535  26.521  26.369  1.00  0.00     0.055 A 
ATOM     91  C   UNL A   1      46.754  27.282  26.904  1.00  0.00     0.041 A 
ATOM     92  F   UNL A   1      47.062  28.895  28.574  1.00  0.00    -0.206 F 
ATOM     93  C   UNL A   1      45.915  26.455  26.162  1.00  0.00     0.022 A 
BRANCH  90  94
ATOM     94  S   UNL A   1      43.432  25.367  25.509  1.00  0.00     0.124 S 
ATOM     95  O   UNL A   1      42.914  24.563  26.611  1.00  0.00    -0.237 OA
ATOM     96  O   UNL A   1      42.476  26.266  24.870  1.00  0.00    -0.237 OA
ATOM     97  O   UNL A   1      44.323  24.660  24.592  1.00  0.00    -0.744 OA
ENDBRANCH  90  94
ENDBRANCH  64  87
ENDBRANCH  38  39
ENDBRANCH  30  33
ENDBRANCH  28  29
ENDBRANCH   1  28
TORSDOF 17
ENDMDL
MODEL 2
REMARK VINA RESULT:      -9.9      6.305     11.953
REMARK SMILES CS(=O)(=O)c1ccc(N2N=C(C(=O)NCCCCNC(=O)c3ccc(-c4c5nc(c(-c6cc(S(=O)(=O)[O-])ccc6F)c6ccc([nH]6)c(-c6cc(S(=O)(=O)[O-])ccc6F)c6nc(c(-c7cc(S(=O)(=O)[O-])ccc7F)c7ccc4[nH]7)C=C6)C=C5)cc3)C[C@H]2c2cccs2)cc1
REMARK SMILES IDX 17 1 16 2 15 3 14 4 12 5 13 6 11 8 9 9 10 10 86 11 85 12
REMARK SMILES IDX 8 13 5 14 6 15 93 16 7 17 92 18 2 19 1 20 3 21 4 22 87 23
REMARK SMILES IDX 88 24 91 25 89 26 90 27 18 28 19 29 20 30 21 32 22 33 23 34
REMARK SMILES IDX 84 35 24 36 83 37 25 38 26 39 27 40 77 41 28 42 82 43 76 44
REMARK SMILES IDX 78 45 29 46 81 47 75 48 74 49 30 51 62 52 42 53 61 54 43 55
REMARK SMILES IDX 46 56 60 57 79 58 44 59 45 60 59 62 80 63 47 64 31 65 32 66
REMARK SMILES IDX 40 67 33 68 39 69 41 70 38 71 34 72 35 73 36 74 37 75 63 76
REMARK SMILES IDX 64 77 72 78 65 79 71 80 73 81 70 82 66 83 67 84 68 85 69 86
REMARK SMILES IDX 48 87 49 88 57 89 50 90 56 91 58 92 55 93 51 94 52 95 53 96
REMARK SMILES IDX 54 97
REMARK H PARENT 14 7 19 31 78 50 46 61
REMARK Flexibility Score: inf
ROOT
ATOM      1  C   UNL A   1      39.042  20.033  25.054  1.00  0.00     0.023 C 
ENDROOT
BRANCH   1   2
ATOM      2  C   UNL A   1      37.537  19.784  25.092  1.00  0.00     0.023 C 
BRANCH   2   3
ATOM      3  C   UNL A   1      36.693  21.052  25.160  1.00  0.00     0.116 C 
BRANCH   3   4
ATOM      4  N   UNL A   1      37.062  21.992  24.120  1.00  0.00    -0.351 N 
ATOM      5  C   UNL A   1      36.376  22.910  23.366  1.00  0.00     0.267 C 
ATOM      6  O   UNL A   1      36.996  23.498  22.482  1.00  0.00    -0.268 OA
ATOM      7  H   UNL A   1      38.022  21.963  23.906  1.00  0.00     0.163 HD
BRANCH   5   8
ATOM      8  C   UNL A   1      34.916  23.278  23.586  1.00  0.00     0.128 C 
ATOM      9  N   UNL A   1      33.213  24.533  23.877  1.00  0.00    -0.256 N 
ATOM     10  N   UNL A   1      34.513  24.510  23.482  1.00  0.00    -0.171 NA
ATOM     11  C   UNL A   1      32.638  23.207  24.102  1.00  0.00     0.154 C 
ATOM     12  C   UNL A   1      33.854  22.292  23.934  1.00  0.00     0.097 C 
BRANCH   9  13
ATOM     13  C   UNL A   1      32.422  25.641  23.601  1.00  0.00     0.060 A 
ATOM     14  C   UNL A   1      30.783  27.863  23.112  1.00  0.00     0.067 A 
ATOM     15  C   UNL A   1      31.273  27.117  22.039  1.00  0.00     0.022 A 
ATOM     16  C   UNL A   1      31.127  27.534  24.423  1.00  0.00     0.022 A 
ATOM     17  C   UNL A   1      32.099  26.015  22.290  1.00  0.00     0.029 A 
ATOM     18  C   UNL A   1      31.936  26.424  24.658  1.00  0.00     0.029 A 
BRANCH  14  19
ATOM     19  S   UNL A   1      29.721  29.257  22.832  1.00  0.00     0.175 S 
ATOM     20  C   UNL A   1      28.089  28.592  23.042  1.00  0.00     0.163 C 
ATOM     21  O   UNL A   1      29.849  29.651  21.445  1.00  0.00    -0.224 OA
ATOM     22  O   UNL A   1      29.963  30.203  23.907  1.00  0.00    -0.224 OA
ENDBRANCH  14  19
ENDBRANCH   9  13
BRANCH  11  23
ATOM     23  C   UNL A   1      31.867  23.008  25.400  1.00  0.00     0.030 A 
ATOM     24  C   UNL A   1      30.491  23.065  25.563  1.00  0.00     0.017 A 
ATOM     25  S   UNL A   1      32.633  22.724  26.914  1.00  0.00    -0.147 S 
ATOM     26  C   UNL A   1      30.078  22.835  26.906  1.00  0.00     0.012 A 
ATOM     27  C   UNL A   1      31.146  22.587  27.736  1.00  0.00     0.065 A 
ENDBRANCH  11  23
ENDBRANCH   5   8
ENDBRANCH   3   4
ENDBRANCH   2   3
ENDBRANCH   1   2
BRANCH   1  28
ATOM     28  C   UNL A   1      39.782  19.739  26.356  1.00  0.00     0.116 C 
BRANCH  28  29
ATOM     29  N   UNL A   1      41.129  19.225  26.156  1.00  0.00    -0.352 N 
ATOM     30  C   UNL A   1      42.322  19.909  26.193  1.00  0.00     0.251 C 
ATOM     31  H   UNL A   1      41.195  18.261  25.967  1.00  0.00     0.163 HD
ATOM     32  O   UNL A   1      43.366  19.342  25.890  1.00  0.00    -0.269 OA
BRANCH  30  33
ATOM     33  C   UNL A   1      42.316  21.338  26.562  1.00  0.00     0.039 A 
ATOM     34  C   UNL A   1      42.501  21.694  27.899  1.00  0.00     0.014 A 
ATOM     35  C   UNL A   1      42.200  22.321  25.575  1.00  0.00     0.014 A 
ATOM     36  C   UNL A   1      42.657  23.040  28.236  1.00  0.00     0.010 A 
ATOM     37  C   UNL A   1      42.432  23.652  25.902  1.00  0.00     0.010 A 
ATOM     38  C   UNL A   1      42.670  24.025  27.235  1.00  0.00    -0.014 A 
BRANCH  38  39
ATOM     39  C   UNL A   1      42.940  25.451  27.552  1.00  0.00     0.031 A 
ATOM     40  C   UNL A   1      44.336  25.995  27.424  1.00  0.00     0.074 A 
ATOM     41  C   UNL A   1      41.948  26.229  28.032  1.00  0.00     0.049 A 
ATOM     42  N   UNL A   1      44.799  27.173  27.752  1.00  0.00    -0.248 NA
ATOM     43  C   UNL A   1      45.351  25.077  26.887  1.00  0.00     0.031 C 
ATOM     44  C   UNL A   1      40.563  25.800  28.243  1.00  0.00     0.029 A 
ATOM     45  N   UNL A   1      41.954  27.538  28.444  1.00  0.00    -0.354 N 
ATOM     46  C   UNL A   1      46.163  27.132  27.480  1.00  0.00     0.074 A 
ATOM     47  C   UNL A   1      46.457  25.792  27.018  1.00  0.00     0.031 C 
ATOM     48  C   UNL A   1      39.852  26.832  28.725  1.00  0.00     0.029 A 
ATOM     49  C   UNL A   1      40.735  27.980  28.904  1.00  0.00     0.049 A 
ATOM     50  H   UNL A   1      42.756  28.107  28.413  1.00  0.00     0.167 HD
ATOM     51  C   UNL A   1      47.078  28.126  27.583  1.00  0.00     0.034 A 
ATOM     52  C   UNL A   1      40.373  29.169  29.426  1.00  0.00     0.034 A 
ATOM     53  C   UNL A   1      46.762  29.461  28.030  1.00  0.00     0.049 A 
ATOM     54  C   UNL A   1      41.412  30.256  29.546  1.00  0.00     0.074 A 
ATOM     55  C   UNL A   1      47.597  30.562  28.113  1.00  0.00     0.029 A 
ATOM     56  N   UNL A   1      45.513  29.876  28.476  1.00  0.00    -0.354 N 
ATOM     57  N   UNL A   1      42.686  30.219  29.233  1.00  0.00    -0.248 NA
ATOM     58  C   UNL A   1      40.961  31.547  30.080  1.00  0.00     0.031 C 
ATOM     59  C   UNL A   1      46.871  31.621  28.670  1.00  0.00     0.029 A 
ATOM     60  C   UNL A   1      45.563  31.207  28.863  1.00  0.00     0.049 A 
ATOM     61  H   UNL A   1      44.710  29.308  28.511  1.00  0.00     0.167 HD
ATOM     62  C   UNL A   1      43.181  31.491  29.505  1.00  0.00     0.074 A 
ATOM     63  C   UNL A   1      42.066  32.274  29.994  1.00  0.00     0.031 C 
ATOM     64  C   UNL A   1      44.442  31.971  29.358  1.00  0.00     0.034 A 
BRANCH  51  65
ATOM     65  C   UNL A   1      48.507  27.793  27.228  1.00  0.00     0.023 A 
ATOM     66  C   UNL A   1      49.006  27.972  25.925  1.00  0.00     0.031 A 
ATOM     67  C   UNL A   1      49.377  27.260  28.196  1.00  0.00     0.131 A 
ATOM     68  C   UNL A   1      50.303  27.545  25.605  1.00  0.00     0.055 A 
ATOM     69  C   UNL A   1      50.696  26.918  27.892  1.00  0.00     0.041 A 
ATOM     70  F   UNL A   1      48.954  27.047  29.452  1.00  0.00    -0.206 F 
ATOM     71  C   UNL A   1      51.162  27.043  26.586  1.00  0.00     0.022 A 
BRANCH  68  72
ATOM     72  S   UNL A   1      50.798  27.517  23.862  1.00  0.00     0.124 S 
ATOM     73  O   UNL A   1      49.621  26.925  23.230  1.00  0.00    -0.237 OA
ATOM     74  O   UNL A   1      51.035  28.928  23.577  1.00  0.00    -0.237 OA
ATOM     75  O   UNL A   1      51.989  26.670  23.857  1.00  0.00    -0.744 OA
ENDBRANCH  68  72
ENDBRANCH  51  65
BRANCH  52  76
ATOM     76  C   UNL A   1      38.974  29.400  29.885  1.00  0.00     0.023 A 
ATOM     77  C   UNL A   1      38.062  30.116  29.094  1.00  0.00     0.031 A 
ATOM     78  C   UNL A   1      38.538  28.942  31.141  1.00  0.00     0.131 A 
ATOM     79  C   UNL A   1      36.776  30.395  29.585  1.00  0.00     0.055 A 
ATOM     80  C   UNL A   1      37.242  29.176  31.604  1.00  0.00     0.041 A 
ATOM     81  F   UNL A   1      39.368  28.245  31.934  1.00  0.00    -0.206 F 
ATOM     82  C   UNL A   1      36.356  29.918  30.828  1.00  0.00     0.022 A 
BRANCH  79  83
ATOM     83  S   UNL A   1      35.685  31.460  28.604  1.00  0.00     0.124 S 
ATOM     84  O   UNL A   1      34.712  31.888  29.603  1.00  0.00    -0.237 OA
ATOM     85  O   UNL A   1      36.609  32.484  28.128  1.00  0.00    -0.237 OA
ATOM     86  O   UNL A   1      35.168  30.562  27.573  1.00  0.00    -0.744 OA
ENDBRANCH  79  83
ENDBRANCH  52  76
BRANCH  64  87
ATOM     87  C   UNL A   1      44.664  33.427  29.685  1.00  0.00     0.023 A 
ATOM     88  C   UNL A   1      44.524  34.435  28.714  1.00  0.00     0.031 A 
ATOM     89  C   UNL A   1      45.025  33.810  30.989  1.00  0.00     0.131 A 
ATOM     90  C   UNL A   1      44.792  35.771  29.051  1.00  0.00     0.055 A 
ATOM     91  C   UNL A   1      45.233  35.145  31.333  1.00  0.00     0.041 A 
ATOM     92  F   UNL A   1      45.174  32.888  31.954  1.00  0.00    -0.206 F 
ATOM     93  C   UNL A   1      45.129  36.134  30.358  1.00  0.00     0.022 A 
BRANCH  90  94
ATOM     94  S   UNL A   1      44.775  37.021  27.738  1.00  0.00     0.124 S 
ATOM     95  O   UNL A   1      45.728  36.469  26.780  1.00  0.00    -0.237 OA
ATOM     96  O   UNL A   1      43.377  37.017  27.321  1.00  0.00    -0.237 OA
ATOM     97  O   UNL A   1      45.214  38.239  28.417  1.00  0.00    -0.744 OA
ENDBRANCH  90  94
ENDBRANCH  64  87
ENDBRANCH  38  39
ENDBRANCH  30  33
ENDBRANCH  28  29
ENDBRANCH   1  28
TORSDOF 17
ENDMDL
MODEL 3
REMARK VINA RESULT:      -9.8      1.666      1.934
REMARK SMILES CS(=O)(=O)c1ccc(N2N=C(C(=O)NCCCCNC(=O)c3ccc(-c4c5nc(c(-c6cc(S(=O)(=O)[O-])ccc6F)c6ccc([nH]6)c(-c6cc(S(=O)(=O)[O-])ccc6F)c6nc(c(-c7cc(S(=O)(=O)[O-])ccc7F)c7ccc4[nH]7)C=C6)C=C5)cc3)C[C@H]2c2cccs2)cc1
REMARK SMILES IDX 17 1 16 2 15 3 14 4 12 5 13 6 11 8 9 9 10 10 86 11 85 12
REMARK SMILES IDX 8 13 5 14 6 15 93 16 7 17 92 18 2 19 1 20 3 21 4 22 87 23
REMARK SMILES IDX 88 24 91 25 89 26 90 27 18 28 19 29 20 30 21 32 22 33 23 34
REMARK SMILES IDX 84 35 24 36 83 37 25 38 26 39 27 40 77 41 28 42 82 43 76 44
REMARK SMILES IDX 78 45 29 46 81 47 75 48 74 49 30 51 62 52 42 53 61 54 43 55
REMARK SMILES IDX 46 56 60 57 79 58 44 59 45 60 59 62 80 63 47 64 31 65 32 66
REMARK SMILES IDX 40 67 33 68 39 69 41 70 38 71 34 72 35 73 36 74 37 75 63 76
REMARK SMILES IDX 64 77 72 78 65 79 71 80 73 81 70 82 66 83 67 84 68 85 69 86
REMARK SMILES IDX 48 87 49 88 57 89 50 90 56 91 58 92 55 93 51 94 52 95 53 96
REMARK SMILES IDX 54 97
REMARK H PARENT 14 7 19 31 78 50 46 61
REMARK Flexibility Score: inf
ROOT
ATOM      1  C   UNL A   1      39.592  34.172  40.071  1.00  0.00     0.023 C 
ENDROOT
BRANCH   1   2
ATOM      2  C   UNL A   1      38.424  33.190  40.031  1.00  0.00     0.023 C 
BRANCH   2   3
ATOM      3  C   UNL A   1      37.775  33.042  38.660  1.00  0.00     0.116 C 
BRANCH   3   4
ATOM      4  N   UNL A   1      38.079  31.755  38.065  1.00  0.00    -0.351 N 
ATOM      5  C   UNL A   1      38.153  31.283  36.779  1.00  0.00     0.267 C 
ATOM      6  O   UNL A   1      38.355  30.080  36.624  1.00  0.00    -0.268 OA
ATOM      7  H   UNL A   1      38.278  31.064  38.737  1.00  0.00     0.163 HD
BRANCH   5   8
ATOM      8  C   UNL A   1      38.047  32.159  35.539  1.00  0.00     0.128 C 
ATOM      9  N   UNL A   1      37.138  33.102  33.853  1.00  0.00    -0.256 N 
ATOM     10  N   UNL A   1      36.892  32.439  35.014  1.00  0.00    -0.171 NA
ATOM     11  C   UNL A   1      38.546  33.451  33.656  1.00  0.00     0.154 C 
ATOM     12  C   UNL A   1      39.222  32.751  34.838  1.00  0.00     0.097 C 
BRANCH   9  13
ATOM     13  C   UNL A   1      36.114  33.790  33.214  1.00  0.00     0.060 A 
ATOM     14  C   UNL A   1      34.014  35.192  31.996  1.00  0.00     0.067 A 
ATOM     15  C   UNL A   1      34.590  34.105  31.337  1.00  0.00     0.022 A 
ATOM     16  C   UNL A   1      34.493  35.608  33.238  1.00  0.00     0.022 A 
ATOM     17  C   UNL A   1      35.646  33.416  31.947  1.00  0.00     0.029 A 
ATOM     18  C   UNL A   1      35.532  34.901  33.840  1.00  0.00     0.029 A 
BRANCH  14  19
ATOM     19  S   UNL A   1      32.664  36.079  31.260  1.00  0.00     0.175 S 
ATOM     20  C   UNL A   1      31.398  36.026  32.502  1.00  0.00     0.163 C 
ATOM     21  O   UNL A   1      32.187  35.317  30.126  1.00  0.00    -0.224 OA
ATOM     22  O   UNL A   1      33.090  37.461  31.111  1.00  0.00    -0.224 OA
ENDBRANCH  14  19
ENDBRANCH   9  13
BRANCH  11  23
ATOM     23  C   UNL A   1      39.145  33.124  32.295  1.00  0.00     0.030 A 
ATOM     24  C   UNL A   1      39.705  31.917  31.905  1.00  0.00     0.017 A 
ATOM     25  S   UNL A   1      39.259  34.271  31.019  1.00  0.00    -0.147 S 
ATOM     26  C   UNL A   1      40.179  31.929  30.563  1.00  0.00     0.012 A 
ATOM     27  C   UNL A   1      39.953  33.140  29.950  1.00  0.00     0.065 A 
ENDBRANCH  11  23
ENDBRANCH   5   8
ENDBRANCH   3   4
ENDBRANCH   2   3
ENDBRANCH   1   2
BRANCH   1  28
ATOM     28  C   UNL A   1      39.623  35.189  38.933  1.00  0.00     0.116 C 
BRANCH  28  29
ATOM     29  N   UNL A   1      40.434  36.362  39.225  1.00  0.00    -0.352 N 
ATOM     30  C   UNL A   1      41.537  36.831  38.550  1.00  0.00     0.251 C 
ATOM     31  H   UNL A   1      40.158  36.888  40.010  1.00  0.00     0.163 HD
ATOM     32  O   UNL A   1      42.176  37.778  38.997  1.00  0.00    -0.269 OA
BRANCH  30  33
ATOM     33  C   UNL A   1      41.959  36.153  37.309  1.00  0.00     0.039 A 
ATOM     34  C   UNL A   1      43.160  35.441  37.300  1.00  0.00     0.014 A 
ATOM     35  C   UNL A   1      41.129  36.162  36.183  1.00  0.00     0.014 A 
ATOM     36  C   UNL A   1      43.489  34.665  36.187  1.00  0.00     0.010 A 
ATOM     37  C   UNL A   1      41.423  35.329  35.110  1.00  0.00     0.010 A 
ATOM     38  C   UNL A   1      42.601  34.566  35.103  1.00  0.00    -0.014 A 
BRANCH  38  39
ATOM     39  C   UNL A   1      42.877  33.666  33.953  1.00  0.00     0.031 A 
ATOM     40  C   UNL A   1      43.050  34.244  32.576  1.00  0.00     0.074 A 
ATOM     41  C   UNL A   1      42.888  32.330  34.137  1.00  0.00     0.049 A 
ATOM     42  N   UNL A   1      43.190  33.628  31.431  1.00  0.00    -0.248 NA
ATOM     43  C   UNL A   1      43.030  35.711  32.473  1.00  0.00     0.031 C 
ATOM     44  C   UNL A   1      42.686  31.650  35.419  1.00  0.00     0.029 A 
ATOM     45  N   UNL A   1      43.061  31.303  33.243  1.00  0.00    -0.354 N 
ATOM     46  C   UNL A   1      43.253  34.630  30.468  1.00  0.00     0.074 A 
ATOM     47  C   UNL A   1      43.077  35.889  31.162  1.00  0.00     0.031 C 
ATOM     48  C   UNL A   1      42.767  30.323  35.231  1.00  0.00     0.029 A 
ATOM     49  C   UNL A   1      42.977  30.053  33.812  1.00  0.00     0.049 A 
ATOM     50  H   UNL A   1      43.229  31.448  32.284  1.00  0.00     0.167 HD
ATOM     51  C   UNL A   1      43.465  34.512  29.135  1.00  0.00     0.034 A 
ATOM     52  C   UNL A   1      43.046  28.828  33.253  1.00  0.00     0.034 A 
ATOM     53  C   UNL A   1      43.656  33.249  28.464  1.00  0.00     0.049 A 
ATOM     54  C   UNL A   1      43.265  28.721  31.764  1.00  0.00     0.074 A 
ATOM     55  C   UNL A   1      43.939  33.017  27.129  1.00  0.00     0.029 A 
ATOM     56  N   UNL A   1      43.577  32.004  29.075  1.00  0.00    -0.354 N 
ATOM     57  N   UNL A   1      43.377  29.680  30.875  1.00  0.00    -0.248 NA
ATOM     58  C   UNL A   1      43.375  27.367  31.207  1.00  0.00     0.031 C 
ATOM     59  C   UNL A   1      43.966  31.634  26.921  1.00  0.00     0.029 A 
ATOM     60  C   UNL A   1      43.776  31.000  28.139  1.00  0.00     0.049 A 
ATOM     61  H   UNL A   1      43.406  31.856  30.033  1.00  0.00     0.167 HD
ATOM     62  C   UNL A   1      43.603  29.043  29.658  1.00  0.00     0.074 A 
ATOM     63  C   UNL A   1      43.623  27.622  29.930  1.00  0.00     0.031 C 
ATOM     64  C   UNL A   1      43.784  29.585  28.426  1.00  0.00     0.034 A 
BRANCH  51  65
ATOM     65  C   UNL A   1      43.474  35.783  28.318  1.00  0.00     0.023 A 
ATOM     66  C   UNL A   1      44.665  36.482  28.054  1.00  0.00     0.031 A 
ATOM     67  C   UNL A   1      42.273  36.321  27.823  1.00  0.00     0.131 A 
ATOM     68  C   UNL A   1      44.621  37.717  27.390  1.00  0.00     0.055 A 
ATOM     69  C   UNL A   1      42.246  37.508  27.088  1.00  0.00     0.041 A 
ATOM     70  F   UNL A   1      41.101  35.711  28.061  1.00  0.00    -0.206 F 
ATOM     71  C   UNL A   1      43.422  38.223  26.882  1.00  0.00     0.022 A 
BRANCH  68  72
ATOM     72  S   UNL A   1      46.129  38.722  27.334  1.00  0.00     0.124 S 
ATOM     73  O   UNL A   1      45.862  39.713  28.374  1.00  0.00    -0.237 OA
ATOM     74  O   UNL A   1      47.171  37.746  27.633  1.00  0.00    -0.237 OA
ATOM     75  O   UNL A   1      46.139  39.249  25.971  1.00  0.00    -0.744 OA
ENDBRANCH  68  72
ENDBRANCH  51  65
BRANCH  52  76
ATOM     76  C   UNL A   1      42.897  27.605  34.090  1.00  0.00     0.023 A 
ATOM     77  C   UNL A   1      44.021  26.926  34.587  1.00  0.00     0.031 A 
ATOM     78  C   UNL A   1      41.627  27.070  34.374  1.00  0.00     0.131 A 
ATOM     79  C   UNL A   1      43.858  25.728  35.300  1.00  0.00     0.055 A 
ATOM     80  C   UNL A   1      41.467  25.907  35.128  1.00  0.00     0.041 A 
ATOM     81  F   UNL A   1      40.518  27.684  33.930  1.00  0.00    -0.206 F 
ATOM     82  C   UNL A   1      42.588  25.221  35.585  1.00  0.00     0.022 A 
BRANCH  79  83
ATOM     83  S   UNL A   1      45.337  24.797  35.783  1.00  0.00     0.124 S 
ATOM     84  O   UNL A   1      45.909  25.660  36.811  1.00  0.00    -0.237 OA
ATOM     85  O   UNL A   1      44.764  23.537  36.247  1.00  0.00    -0.237 OA
ATOM     86  O   UNL A   1      46.105  24.711  34.542  1.00  0.00    -0.744 OA
ENDBRANCH  79  83
ENDBRANCH  52  76
BRANCH  64  87
ATOM     87  C   UNL A   1      44.069  28.632  27.292  1.00  0.00     0.023 A 
ATOM     88  C   UNL A   1      45.382  28.300  26.915  1.00  0.00     0.031 A 
ATOM     89  C   UNL A   1      43.007  28.049  26.578  1.00  0.00     0.131 A 
ATOM     90  C   UNL A   1      45.599  27.449  25.820  1.00  0.00     0.055 A 
ATOM     91  C   UNL A   1      43.229  27.158  25.527  1.00  0.00     0.041 A 
ATOM     92  F   UNL A   1      41.733  28.333  26.895  1.00  0.00    -0.206 F 
ATOM     93  C   UNL A   1      44.531  26.863  25.135  1.00  0.00     0.022 A 
BRANCH  90  94
ATOM     94  S   UNL A   1      47.299  27.181  25.249  1.00  0.00     0.124 S 
ATOM     95  O   UNL A   1      47.934  28.454  25.576  1.00  0.00    -0.237 OA
ATOM     96  O   UNL A   1      47.720  26.035  26.047  1.00  0.00    -0.237 OA
ATOM     97  O   UNL A   1      47.144  26.916  23.820  1.00  0.00    -0.744 OA
ENDBRANCH  90  94
ENDBRANCH  64  87
ENDBRANCH  38  39
ENDBRANCH  30  33
ENDBRANCH  28  29
ENDBRANCH   1  28
TORSDOF 17
ENDMDL
