MODEL 1
REMARK VINA RESULT:     -12.6      0.000      0.000
REMARK SMILES O=C(NCCCCNC(=O)C1(Cc2ccncc2)Cc2ccccc2C1)c1ccc(-c2c3nc(c(-c4cc(S(=O)(=O)[O-])ccc4F)c4ccc([nH]4)c(-c4cc(S(=O)(=O)[O-])ccc4F)c4nc(c(-c5cc(S(=O)(=O)[O-])ccc5F)c5ccc2[nH]5)C=C4)C=C3)cc1
REMARK SMILES IDX 5 1 4 2 3 3 1 4 2 5 27 7 28 8 89 9 29 10 88 11 30 12 31 13
REMARK SMILES IDX 32 14 82 15 33 16 87 17 81 18 83 19 34 20 86 21 80 22 79 23
REMARK SMILES IDX 35 25 67 26 47 27 66 28 48 29 51 30 65 31 84 32 49 33 50 34
REMARK SMILES IDX 64 36 85 37 52 38 36 39 37 40 45 41 38 42 44 43 46 44 43 45
REMARK SMILES IDX 39 46 40 47 41 48 42 49 68 50 69 51 77 52 70 53 76 54 78 55
REMARK SMILES IDX 75 56 71 57 72 58 73 59 74 60 53 61 54 62 62 63 55 64 61 65
REMARK SMILES IDX 63 66 60 67 56 68 57 69 58 70 59 71 6 72 7 73 8 74 9 75
REMARK SMILES IDX 10 77 11 78 19 79 26 80 20 81 25 82 21 83 24 84 22 85 23 86
REMARK SMILES IDX 12 87 13 88 14 89 18 90 15 91 17 92 16 93
REMARK H PARENT 3 6 83 24 51 35 8 76
REMARK Flexibility Score: inf
ROOT
ATOM      1  C   UNL A   1      31.798  31.652  26.584  1.00  0.00     0.023 C 
ENDROOT
BRANCH   1   2
ATOM      2  C   UNL A   1      32.924  32.350  27.318  1.00  0.00     0.116 C 
BRANCH   2   3
ATOM      3  N   UNL A   1      32.586  33.727  27.645  1.00  0.00    -0.352 N 
ATOM      4  O   UNL A   1      32.652  35.623  28.862  1.00  0.00    -0.269 OA
ATOM      5  C   UNL A   1      33.149  34.538  28.601  1.00  0.00     0.251 C 
ATOM      6  H   UNL A   1      31.863  34.130  27.113  1.00  0.00     0.163 HD
BRANCH   5   7
ATOM      7  C   UNL A   1      34.353  34.063  29.313  1.00  0.00     0.039 A 
ATOM      8  C   UNL A   1      34.222  33.246  30.439  1.00  0.00     0.014 A 
ATOM      9  C   UNL A   1      35.616  34.435  28.845  1.00  0.00     0.014 A 
ATOM     10  C   UNL A   1      35.347  32.883  31.160  1.00  0.00     0.010 A 
ATOM     11  C   UNL A   1      36.753  33.985  29.515  1.00  0.00     0.010 A 
ATOM     12  C   UNL A   1      36.622  33.201  30.672  1.00  0.00    -0.014 A 
BRANCH  12  13
ATOM     13  C   UNL A   1      37.798  32.550  31.292  1.00  0.00     0.031 A 
ATOM     14  C   UNL A   1      38.501  31.411  30.622  1.00  0.00     0.074 A 
ATOM     15  C   UNL A   1      38.205  33.028  32.486  1.00  0.00     0.049 A 
ATOM     16  N   UNL A   1      39.517  30.713  31.056  1.00  0.00    -0.248 NA
ATOM     17  C   UNL A   1      38.001  30.993  29.304  1.00  0.00     0.031 C 
ATOM     18  C   UNL A   1      37.564  34.134  33.208  1.00  0.00     0.029 A 
ATOM     19  N   UNL A   1      39.244  32.665  33.300  1.00  0.00    -0.354 N 
ATOM     20  C   UNL A   1      39.766  29.755  30.080  1.00  0.00     0.074 A 
ATOM     21  C   UNL A   1      38.788  29.959  29.032  1.00  0.00     0.031 C 
ATOM     22  C   UNL A   1      38.243  34.381  34.335  1.00  0.00     0.029 A 
ATOM     23  C   UNL A   1      39.306  33.395  34.464  1.00  0.00     0.049 A 
ATOM     24  H   UNL A   1      39.883  31.953  33.074  1.00  0.00     0.167 HD
ATOM     25  C   UNL A   1      40.722  28.795  30.080  1.00  0.00     0.034 A 
ATOM     26  C   UNL A   1      40.099  33.255  35.543  1.00  0.00     0.034 A 
ATOM     27  C   UNL A   1      41.685  28.631  31.142  1.00  0.00     0.049 A 
ATOM     28  C   UNL A   1      41.119  32.152  35.523  1.00  0.00     0.074 A 
ATOM     29  C   UNL A   1      42.745  27.743  31.214  1.00  0.00     0.029 A 
ATOM     30  N   UNL A   1      41.695  29.358  32.327  1.00  0.00    -0.354 N 
ATOM     31  N   UNL A   1      41.374  31.286  34.568  1.00  0.00    -0.248 NA
ATOM     32  C   UNL A   1      41.950  31.999  36.721  1.00  0.00     0.031 C 
ATOM     33  C   UNL A   1      43.345  27.880  32.470  1.00  0.00     0.029 A 
ATOM     34  C   UNL A   1      42.708  28.902  33.157  1.00  0.00     0.049 A 
ATOM     35  H   UNL A   1      41.073  30.088  32.545  1.00  0.00     0.167 HD
ATOM     36  C   UNL A   1      42.399  30.484  35.052  1.00  0.00     0.074 A 
ATOM     37  C   UNL A   1      42.740  30.997  36.365  1.00  0.00     0.031 C 
ATOM     38  C   UNL A   1      43.003  29.416  34.473  1.00  0.00     0.034 A 
BRANCH  25  39
ATOM     39  C   UNL A   1      40.744  27.814  28.936  1.00  0.00     0.023 A 
ATOM     40  C   UNL A   1      41.678  27.902  27.889  1.00  0.00     0.031 A 
ATOM     41  C   UNL A   1      39.830  26.745  28.916  1.00  0.00     0.131 A 
ATOM     42  C   UNL A   1      41.654  26.957  26.850  1.00  0.00     0.055 A 
ATOM     43  C   UNL A   1      39.849  25.776  27.911  1.00  0.00     0.041 A 
ATOM     44  F   UNL A   1      38.903  26.623  29.879  1.00  0.00    -0.206 F 
ATOM     45  C   UNL A   1      40.761  25.882  26.866  1.00  0.00     0.022 A 
BRANCH  42  46
ATOM     46  S   UNL A   1      42.759  27.191  25.430  1.00  0.00     0.124 S 
ATOM     47  O   UNL A   1      44.035  27.455  26.090  1.00  0.00    -0.237 OA
ATOM     48  O   UNL A   1      42.654  25.915  24.733  1.00  0.00    -0.237 OA
ATOM     49  O   UNL A   1      42.180  28.334  24.729  1.00  0.00    -0.744 OA
ENDBRANCH  42  46
ENDBRANCH  25  39
BRANCH  26  50
ATOM     50  C   UNL A   1      39.905  34.117  36.744  1.00  0.00     0.023 A 
ATOM     51  C   UNL A   1      39.356  33.602  37.927  1.00  0.00     0.031 A 
ATOM     52  C   UNL A   1      40.229  35.487  36.710  1.00  0.00     0.131 A 
ATOM     53  C   UNL A   1      39.101  34.459  39.009  1.00  0.00     0.055 A 
ATOM     54  C   UNL A   1      40.036  36.321  37.811  1.00  0.00     0.041 A 
ATOM     55  F   UNL A   1      40.757  36.034  35.603  1.00  0.00    -0.206 F 
ATOM     56  C   UNL A   1      39.452  35.810  38.965  1.00  0.00     0.022 A 
BRANCH  53  57
ATOM     57  S   UNL A   1      38.198  33.803  40.437  1.00  0.00     0.124 S 
ATOM     58  O   UNL A   1      37.110  33.075  39.794  1.00  0.00    -0.237 OA
ATOM     59  O   UNL A   1      39.217  32.988  41.089  1.00  0.00    -0.237 OA
ATOM     60  O   UNL A   1      37.800  35.005  41.167  1.00  0.00    -0.744 OA
ENDBRANCH  53  57
ENDBRANCH  26  50
BRANCH  38  61
ATOM     61  C   UNL A   1      44.092  28.753  35.272  1.00  0.00     0.023 A 
ATOM     62  C   UNL A   1      43.813  27.669  36.122  1.00  0.00     0.031 A 
ATOM     63  C   UNL A   1      45.413  29.226  35.207  1.00  0.00     0.131 A 
ATOM     64  C   UNL A   1      44.832  27.129  36.918  1.00  0.00     0.055 A 
ATOM     65  C   UNL A   1      46.436  28.646  35.956  1.00  0.00     0.041 A 
ATOM     66  F   UNL A   1      45.729  30.263  34.414  1.00  0.00    -0.206 F 
ATOM     67  C   UNL A   1      46.145  27.599  36.828  1.00  0.00     0.022 A 
BRANCH  64  68
ATOM     68  S   UNL A   1      44.399  25.862  38.140  1.00  0.00     0.124 S 
ATOM     69  O   UNL A   1      43.366  25.106  37.438  1.00  0.00    -0.237 OA
ATOM     70  O   UNL A   1      45.669  25.170  38.339  1.00  0.00    -0.237 OA
ATOM     71  O   UNL A   1      43.931  26.637  39.286  1.00  0.00    -0.744 OA
ENDBRANCH  64  68
ENDBRANCH  38  61
ENDBRANCH  12  13
ENDBRANCH   5   7
ENDBRANCH   2   3
ENDBRANCH   1   2
BRANCH   1  72
ATOM     72  C   UNL A   1      31.935  30.130  26.600  1.00  0.00     0.023 C 
BRANCH  72  73
ATOM     73  C   UNL A   1      33.359  29.595  26.427  1.00  0.00     0.116 C 
BRANCH  73  74
ATOM     74  N   UNL A   1      33.749  29.449  25.037  1.00  0.00    -0.356 N 
ATOM     75  C   UNL A   1      33.821  28.396  24.184  1.00  0.00     0.227 C 
ATOM     76  H   UNL A   1      34.021  30.299  24.622  1.00  0.00     0.163 HD
ATOM     77  O   UNL A   1      34.273  28.659  23.064  1.00  0.00    -0.274 OA
BRANCH  75  78
ATOM     78  C   UNL A   1      33.334  26.978  24.516  1.00  0.00     0.061 C 
ATOM     79  C   UNL A   1      33.339  26.149  23.189  1.00  0.00     0.053 C 
ATOM     80  C   UNL A   1      34.385  26.224  25.398  1.00  0.00     0.053 C 
ATOM     81  C   UNL A   1      33.615  24.759  23.689  1.00  0.00    -0.044 A 
ATOM     82  C   UNL A   1      34.171  24.803  24.971  1.00  0.00    -0.044 A 
ATOM     83  C   UNL A   1      33.364  23.550  23.065  1.00  0.00     0.004 A 
ATOM     84  C   UNL A   1      34.429  23.649  25.687  1.00  0.00     0.004 A 
ATOM     85  C   UNL A   1      33.623  22.376  23.777  1.00  0.00     0.000 A 
ATOM     86  C   UNL A   1      34.136  22.425  25.084  1.00  0.00     0.000 A 
BRANCH  78  87
ATOM     87  C   UNL A   1      31.951  26.872  25.220  1.00  0.00     0.053 C 
BRANCH  87  88
ATOM     88  C   UNL A   1      30.667  27.100  24.446  1.00  0.00    -0.044 A 
ATOM     89  C   UNL A   1      29.558  26.248  24.467  1.00  0.00     0.024 A 
ATOM     90  C   UNL A   1      30.537  28.315  23.758  1.00  0.00     0.024 A 
ATOM     91  C   UNL A   1      28.388  26.654  23.842  1.00  0.00     0.111 A 
ATOM     92  C   UNL A   1      29.328  28.630  23.160  1.00  0.00     0.111 A 
ATOM     93  N   UNL A   1      28.248  27.827  23.190  1.00  0.00    -0.265 NA
ENDBRANCH  87  88
ENDBRANCH  78  87
ENDBRANCH  75  78
ENDBRANCH  73  74
ENDBRANCH  72  73
ENDBRANCH   1  72
TORSDOF 16
ENDMDL
MODEL 2
REMARK VINA RESULT:     -12.3      4.456      7.945
REMARK SMILES O=C(NCCCCNC(=O)C1(Cc2ccncc2)Cc2ccccc2C1)c1ccc(-c2c3nc(c(-c4cc(S(=O)(=O)[O-])ccc4F)c4ccc([nH]4)c(-c4cc(S(=O)(=O)[O-])ccc4F)c4nc(c(-c5cc(S(=O)(=O)[O-])ccc5F)c5ccc2[nH]5)C=C4)C=C3)cc1
REMARK SMILES IDX 5 1 4 2 3 3 1 4 2 5 27 7 28 8 89 9 29 10 88 11 30 12 31 13
REMARK SMILES IDX 32 14 82 15 33 16 87 17 81 18 83 19 34 20 86 21 80 22 79 23
REMARK SMILES IDX 35 25 67 26 47 27 66 28 48 29 51 30 65 31 84 32 49 33 50 34
REMARK SMILES IDX 64 36 85 37 52 38 36 39 37 40 45 41 38 42 44 43 46 44 43 45
REMARK SMILES IDX 39 46 40 47 41 48 42 49 68 50 69 51 77 52 70 53 76 54 78 55
REMARK SMILES IDX 75 56 71 57 72 58 73 59 74 60 53 61 54 62 62 63 55 64 61 65
REMARK SMILES IDX 63 66 60 67 56 68 57 69 58 70 59 71 6 72 7 73 8 74 9 75
REMARK SMILES IDX 10 77 11 78 19 79 26 80 20 81 25 82 21 83 24 84 22 85 23 86
REMARK SMILES IDX 12 87 13 88 14 89 18 90 15 91 17 92 16 93
REMARK H PARENT 3 6 83 24 51 35 8 76
REMARK Flexibility Score: inf
ROOT
ATOM      1  C   UNL A   1      35.892  22.660  25.123  1.00  0.00     0.023 C 
ENDROOT
BRANCH   1   2
ATOM      2  C   UNL A   1      37.009  23.269  25.946  1.00  0.00     0.116 C 
BRANCH   2   3
ATOM      3  N   UNL A   1      38.142  22.364  26.075  1.00  0.00    -0.352 N 
ATOM      4  O   UNL A   1      40.312  21.818  26.341  1.00  0.00    -0.269 OA
ATOM      5  C   UNL A   1      39.436  22.664  26.428  1.00  0.00     0.251 C 
ATOM      6  H   UNL A   1      37.958  21.416  25.886  1.00  0.00     0.163 HD
BRANCH   5   7
ATOM      7  C   UNL A   1      39.743  24.031  26.895  1.00  0.00     0.039 A 
ATOM      8  C   UNL A   1      39.599  24.357  28.247  1.00  0.00     0.014 A 
ATOM      9  C   UNL A   1      40.179  24.987  25.974  1.00  0.00     0.014 A 
ATOM     10  C   UNL A   1      39.792  25.663  28.664  1.00  0.00     0.010 A 
ATOM     11  C   UNL A   1      40.470  26.278  26.415  1.00  0.00     0.010 A 
ATOM     12  C   UNL A   1      40.284  26.618  27.764  1.00  0.00    -0.014 A 
BRANCH  12  13
ATOM     13  C   UNL A   1      40.763  27.912  28.300  1.00  0.00     0.031 A 
ATOM     14  C   UNL A   1      42.224  28.194  28.465  1.00  0.00     0.074 A 
ATOM     15  C   UNL A   1      39.826  28.823  28.634  1.00  0.00     0.049 A 
ATOM     16  N   UNL A   1      42.797  29.260  28.956  1.00  0.00    -0.248 NA
ATOM     17  C   UNL A   1      43.164  27.148  28.033  1.00  0.00     0.031 C 
ATOM     18  C   UNL A   1      38.377  28.617  28.509  1.00  0.00     0.029 A 
ATOM     19  N   UNL A   1      39.934  30.092  29.132  1.00  0.00    -0.354 N 
ATOM     20  C   UNL A   1      44.164  29.010  28.919  1.00  0.00     0.074 A 
ATOM     21  C   UNL A   1      44.333  27.684  28.361  1.00  0.00     0.031 C 
ATOM     22  C   UNL A   1      37.737  29.732  28.885  1.00  0.00     0.029 A 
ATOM     23  C   UNL A   1      38.718  30.693  29.366  1.00  0.00     0.049 A 
ATOM     24  H   UNL A   1      40.796  30.533  29.306  1.00  0.00     0.167 HD
ATOM     25  C   UNL A   1      45.170  29.820  29.326  1.00  0.00     0.034 A 
ATOM     26  C   UNL A   1      38.422  31.869  29.951  1.00  0.00     0.034 A 
ATOM     27  C   UNL A   1      44.959  31.141  29.870  1.00  0.00     0.049 A 
ATOM     28  C   UNL A   1      39.564  32.721  30.428  1.00  0.00     0.074 A 
ATOM     29  C   UNL A   1      45.904  32.079  30.245  1.00  0.00     0.029 A 
ATOM     30  N   UNL A   1      43.715  31.703  30.134  1.00  0.00    -0.354 N 
ATOM     31  N   UNL A   1      40.855  32.489  30.338  1.00  0.00    -0.248 NA
ATOM     32  C   UNL A   1      39.217  33.982  31.089  1.00  0.00     0.031 C 
ATOM     33  C   UNL A   1      45.237  33.173  30.805  1.00  0.00     0.029 A 
ATOM     34  C   UNL A   1      43.871  32.952  30.715  1.00  0.00     0.049 A 
ATOM     35  H   UNL A   1      42.851  31.276  29.937  1.00  0.00     0.167 HD
ATOM     36  C   UNL A   1      41.474  33.581  30.933  1.00  0.00     0.074 A 
ATOM     37  C   UNL A   1      40.415  34.486  31.339  1.00  0.00     0.031 C 
ATOM     38  C   UNL A   1      42.794  33.817  31.135  1.00  0.00     0.034 A 
BRANCH  25  39
ATOM     39  C   UNL A   1      46.581  29.292  29.259  1.00  0.00     0.023 A 
ATOM     40  C   UNL A   1      47.370  29.406  28.102  1.00  0.00     0.031 A 
ATOM     41  C   UNL A   1      47.156  28.692  30.395  1.00  0.00     0.131 A 
ATOM     42  C   UNL A   1      48.680  28.897  28.098  1.00  0.00     0.055 A 
ATOM     43  C   UNL A   1      48.477  28.242  30.403  1.00  0.00     0.041 A 
ATOM     44  F   UNL A   1      46.441  28.539  31.520  1.00  0.00    -0.206 F 
ATOM     45  C   UNL A   1      49.246  28.337  29.247  1.00  0.00     0.022 A 
BRANCH  42  46
ATOM     46  S   UNL A   1      49.617  28.908  26.544  1.00  0.00     0.124 S 
ATOM     47  O   UNL A   1      48.603  28.477  25.585  1.00  0.00    -0.237 OA
ATOM     48  O   UNL A   1      50.042  30.299  26.440  1.00  0.00    -0.237 OA
ATOM     49  O   UNL A   1      50.689  27.945  26.782  1.00  0.00    -0.744 OA
ENDBRANCH  42  46
ENDBRANCH  25  39
BRANCH  26  50
ATOM     50  C   UNL A   1      37.003  32.262  30.186  1.00  0.00     0.023 A 
ATOM     51  C   UNL A   1      36.276  32.970  29.219  1.00  0.00     0.031 A 
ATOM     52  C   UNL A   1      36.365  31.969  31.407  1.00  0.00     0.131 A 
ATOM     53  C   UNL A   1      34.973  33.405  29.505  1.00  0.00     0.055 A 
ATOM     54  C   UNL A   1      35.047  32.346  31.662  1.00  0.00     0.041 A 
ATOM     55  F   UNL A   1      37.014  31.294  32.369  1.00  0.00    -0.206 F 
ATOM     56  C   UNL A   1      34.348  33.084  30.713  1.00  0.00     0.022 A 
BRANCH  53  57
ATOM     57  S   UNL A   1      34.145  34.497  28.319  1.00  0.00     0.124 S 
ATOM     58  O   UNL A   1      34.998  34.363  27.144  1.00  0.00    -0.237 OA
ATOM     59  O   UNL A   1      32.823  33.889  28.223  1.00  0.00    -0.237 OA
ATOM     60  O   UNL A   1      34.185  35.802  28.974  1.00  0.00    -0.744 OA
ENDBRANCH  53  57
ENDBRANCH  26  50
BRANCH  38  61
ATOM     61  C   UNL A   1      43.142  35.111  31.821  1.00  0.00     0.023 A 
ATOM     62  C   UNL A   1      43.048  35.241  33.217  1.00  0.00     0.031 A 
ATOM     63  C   UNL A   1      43.543  36.229  31.072  1.00  0.00     0.131 A 
ATOM     64  C   UNL A   1      43.295  36.483  33.818  1.00  0.00     0.055 A 
ATOM     65  C   UNL A   1      43.846  37.447  31.681  1.00  0.00     0.041 A 
ATOM     66  F   UNL A   1      43.643  36.156  29.734  1.00  0.00    -0.206 F 
ATOM     67  C   UNL A   1      43.711  37.581  33.061  1.00  0.00     0.022 A 
BRANCH  64  68
ATOM     68  S   UNL A   1      42.980  36.666  35.593  1.00  0.00     0.124 S 
ATOM     69  O   UNL A   1      41.523  36.732  35.637  1.00  0.00    -0.237 OA
ATOM     70  O   UNL A   1      43.579  35.455  36.145  1.00  0.00    -0.237 OA
ATOM     71  O   UNL A   1      43.669  37.908  35.936  1.00  0.00    -0.744 OA
ENDBRANCH  64  68
ENDBRANCH  38  61
ENDBRANCH  12  13
ENDBRANCH   5   7
ENDBRANCH   2   3
ENDBRANCH   1   2
BRANCH   1  72
ATOM     72  C   UNL A   1      34.516  22.859  25.755  1.00  0.00     0.023 C 
BRANCH  72  73
ATOM     73  C   UNL A   1      33.479  23.557  24.870  1.00  0.00     0.116 C 
BRANCH  73  74
ATOM     74  N   UNL A   1      32.224  23.811  25.552  1.00  0.00    -0.356 N 
ATOM     75  C   UNL A   1      31.599  24.933  25.990  1.00  0.00     0.227 C 
ATOM     76  H   UNL A   1      31.714  22.990  25.738  1.00  0.00     0.163 HD
ATOM     77  O   UNL A   1      30.541  24.740  26.600  1.00  0.00    -0.274 OA
BRANCH  75  78
ATOM     78  C   UNL A   1      32.096  26.361  25.721  1.00  0.00     0.061 C 
ATOM     79  C   UNL A   1      31.286  27.330  26.646  1.00  0.00     0.053 C 
ATOM     80  C   UNL A   1      33.564  26.543  26.233  1.00  0.00     0.053 C 
ATOM     81  C   UNL A   1      32.276  28.433  26.888  1.00  0.00    -0.044 A 
ATOM     82  C   UNL A   1      33.573  27.994  26.608  1.00  0.00    -0.044 A 
ATOM     83  C   UNL A   1      32.039  29.733  27.297  1.00  0.00     0.004 A 
ATOM     84  C   UNL A   1      34.655  28.853  26.664  1.00  0.00     0.004 A 
ATOM     85  C   UNL A   1      33.126  30.611  27.361  1.00  0.00     0.000 A 
ATOM     86  C   UNL A   1      34.420  30.179  27.031  1.00  0.00     0.000 A 
BRANCH  78  87
ATOM     87  C   UNL A   1      32.039  26.844  24.244  1.00  0.00     0.053 C 
BRANCH  87  88
ATOM     88  C   UNL A   1      30.831  27.595  23.718  1.00  0.00    -0.044 A 
ATOM     89  C   UNL A   1      29.554  27.046  23.559  1.00  0.00     0.024 A 
ATOM     90  C   UNL A   1      30.977  28.971  23.491  1.00  0.00     0.024 A 
ATOM     91  C   UNL A   1      28.501  27.884  23.221  1.00  0.00     0.111 A 
ATOM     92  C   UNL A   1      29.865  29.725  23.152  1.00  0.00     0.111 A 
ATOM     93  N   UNL A   1      28.628  29.211  23.015  1.00  0.00    -0.265 NA
ENDBRANCH  87  88
ENDBRANCH  78  87
ENDBRANCH  75  78
ENDBRANCH  73  74
ENDBRANCH  72  73
ENDBRANCH   1  72
TORSDOF 16
ENDMDL
MODEL 3
REMARK VINA RESULT:     -12.2      3.906      9.214
REMARK SMILES O=C(NCCCCNC(=O)C1(Cc2ccncc2)Cc2ccccc2C1)c1ccc(-c2c3nc(c(-c4cc(S(=O)(=O)[O-])ccc4F)c4ccc([nH]4)c(-c4cc(S(=O)(=O)[O-])ccc4F)c4nc(c(-c5cc(S(=O)(=O)[O-])ccc5F)c5ccc2[nH]5)C=C4)C=C3)cc1
REMARK SMILES IDX 5 1 4 2 3 3 1 4 2 5 27 7 28 8 89 9 29 10 88 11 30 12 31 13
REMARK SMILES IDX 32 14 82 15 33 16 87 17 81 18 83 19 34 20 86 21 80 22 79 23
REMARK SMILES IDX 35 25 67 26 47 27 66 28 48 29 51 30 65 31 84 32 49 33 50 34
REMARK SMILES IDX 64 36 85 37 52 38 36 39 37 40 45 41 38 42 44 43 46 44 43 45
REMARK SMILES IDX 39 46 40 47 41 48 42 49 68 50 69 51 77 52 70 53 76 54 78 55
REMARK SMILES IDX 75 56 71 57 72 58 73 59 74 60 53 61 54 62 62 63 55 64 61 65
REMARK SMILES IDX 63 66 60 67 56 68 57 69 58 70 59 71 6 72 7 73 8 74 9 75
REMARK SMILES IDX 10 77 11 78 19 79 26 80 20 81 25 82 21 83 24 84 22 85 23 86
REMARK SMILES IDX 12 87 13 88 14 89 18 90 15 91 17 92 16 93
REMARK H PARENT 3 6 83 24 51 35 8 76
REMARK Flexibility Score: inf
ROOT
ATOM      1  C   UNL A   1      32.341  28.125  26.497  1.00  0.00     0.023 C 
ENDROOT
BRANCH   1   2
ATOM      2  C   UNL A   1      33.735  28.700  26.650  1.00  0.00     0.116 C 
BRANCH   2   3
ATOM      3  N   UNL A   1      33.704  30.134  26.900  1.00  0.00    -0.352 N 
ATOM      4  O   UNL A   1      34.342  32.060  27.881  1.00  0.00    -0.269 OA
ATOM      5  C   UNL A   1      34.587  30.890  27.633  1.00  0.00     0.251 C 
ATOM      6  H   UNL A   1      32.956  30.625  26.491  1.00  0.00     0.163 HD
BRANCH   5   7
ATOM      7  C   UNL A   1      35.825  30.252  28.125  1.00  0.00     0.039 A 
ATOM      8  C   UNL A   1      36.973  30.244  27.327  1.00  0.00     0.014 A 
ATOM      9  C   UNL A   1      35.835  29.663  29.392  1.00  0.00     0.014 A 
ATOM     10  C   UNL A   1      38.100  29.561  27.750  1.00  0.00     0.010 A 
ATOM     11  C   UNL A   1      37.004  29.062  29.858  1.00  0.00     0.010 A 
ATOM     12  C   UNL A   1      38.143  29.014  29.040  1.00  0.00    -0.014 A 
BRANCH  12  13
ATOM     13  C   UNL A   1      39.448  28.561  29.571  1.00  0.00     0.031 A 
ATOM     14  C   UNL A   1      40.136  29.294  30.680  1.00  0.00     0.074 A 
ATOM     15  C   UNL A   1      39.989  27.459  29.011  1.00  0.00     0.049 A 
ATOM     16  N   UNL A   1      41.297  29.045  31.224  1.00  0.00    -0.248 NA
ATOM     17  C   UNL A   1      39.441  30.460  31.248  1.00  0.00     0.031 C 
ATOM     18  C   UNL A   1      39.380  26.691  27.916  1.00  0.00     0.029 A 
ATOM     19  N   UNL A   1      41.150  26.786  29.275  1.00  0.00    -0.354 N 
ATOM     20  C   UNL A   1      41.490  30.033  32.181  1.00  0.00     0.074 A 
ATOM     21  C   UNL A   1      40.325  30.893  32.139  1.00  0.00     0.031 C 
ATOM     22  C   UNL A   1      40.154  25.638  27.630  1.00  0.00     0.029 A 
ATOM     23  C   UNL A   1      41.355  25.705  28.449  1.00  0.00     0.049 A 
ATOM     24  H   UNL A   1      41.777  27.049  29.985  1.00  0.00     0.167 HD
ATOM     25  C   UNL A   1      42.553  30.199  33.006  1.00  0.00     0.034 A 
ATOM     26  C   UNL A   1      42.417  24.887  28.327  1.00  0.00     0.034 A 
ATOM     27  C   UNL A   1      43.692  29.313  33.023  1.00  0.00     0.049 A 
ATOM     28  C   UNL A   1      43.594  25.128  29.230  1.00  0.00     0.074 A 
ATOM     29  C   UNL A   1      44.790  29.339  33.865  1.00  0.00     0.029 A 
ATOM     30  N   UNL A   1      43.890  28.254  32.145  1.00  0.00    -0.354 N 
ATOM     31  N   UNL A   1      43.738  26.039  30.166  1.00  0.00    -0.248 NA
ATOM     32  C   UNL A   1      44.751  24.244  29.058  1.00  0.00     0.031 C 
ATOM     33  C   UNL A   1      45.684  28.347  33.448  1.00  0.00     0.029 A 
ATOM     34  C   UNL A   1      45.115  27.653  32.392  1.00  0.00     0.049 A 
ATOM     35  H   UNL A   1      43.253  27.971  31.450  1.00  0.00     0.167 HD
ATOM     36  C   UNL A   1      45.005  25.835  30.697  1.00  0.00     0.074 A 
ATOM     37  C   UNL A   1      45.564  24.691  30.003  1.00  0.00     0.031 C 
ATOM     38  C   UNL A   1      45.656  26.530  31.663  1.00  0.00     0.034 A 
BRANCH  25  39
ATOM     39  C   UNL A   1      42.569  31.404  33.912  1.00  0.00     0.023 A 
ATOM     40  C   UNL A   1      42.036  31.372  35.212  1.00  0.00     0.031 A 
ATOM     41  C   UNL A   1      43.166  32.600  33.472  1.00  0.00     0.131 A 
ATOM     42  C   UNL A   1      42.081  32.525  36.014  1.00  0.00     0.055 A 
ATOM     43  C   UNL A   1      43.261  33.723  34.295  1.00  0.00     0.041 A 
ATOM     44  F   UNL A   1      43.674  32.692  32.234  1.00  0.00    -0.206 F 
ATOM     45  C   UNL A   1      42.711  33.692  35.572  1.00  0.00     0.022 A 
BRANCH  42  46
ATOM     46  S   UNL A   1      41.239  32.505  37.620  1.00  0.00     0.124 S 
ATOM     47  O   UNL A   1      39.936  31.950  37.264  1.00  0.00    -0.237 OA
ATOM     48  O   UNL A   1      42.102  31.645  38.421  1.00  0.00    -0.237 OA
ATOM     49  O   UNL A   1      41.222  33.912  38.016  1.00  0.00    -0.744 OA
ENDBRANCH  42  46
ENDBRANCH  25  39
BRANCH  26  50
ATOM     50  C   UNL A   1      42.446  23.833  27.273  1.00  0.00     0.023 A 
ATOM     51  C   UNL A   1      41.895  22.564  27.500  1.00  0.00     0.031 A 
ATOM     52  C   UNL A   1      43.064  24.070  26.030  1.00  0.00     0.131 A 
ATOM     53  C   UNL A   1      42.018  21.565  26.522  1.00  0.00     0.055 A 
ATOM     54  C   UNL A   1      43.125  23.095  25.036  1.00  0.00     0.041 A 
ATOM     55  F   UNL A   1      43.608  25.268  25.758  1.00  0.00    -0.206 F 
ATOM     56  C   UNL A   1      42.614  21.826  25.286  1.00  0.00     0.022 A 
BRANCH  53  57
ATOM     57  S   UNL A   1      41.487  19.881  26.934  1.00  0.00     0.124 S 
ATOM     58  O   UNL A   1      40.609  19.562  25.814  1.00  0.00    -0.237 OA
ATOM     59  O   UNL A   1      42.758  19.166  26.975  1.00  0.00    -0.237 OA
ATOM     60  O   UNL A   1      40.820  20.042  28.224  1.00  0.00    -0.744 OA
ENDBRANCH  53  57
ENDBRANCH  26  50
BRANCH  38  61
ATOM     61  C   UNL A   1      47.039  26.050  32.012  1.00  0.00     0.023 A 
ATOM     62  C   UNL A   1      48.141  26.352  31.194  1.00  0.00     0.031 A 
ATOM     63  C   UNL A   1      47.251  25.261  33.155  1.00  0.00     0.131 A 
ATOM     64  C   UNL A   1      49.400  25.818  31.500  1.00  0.00     0.055 A 
ATOM     65  C   UNL A   1      48.518  24.782  33.487  1.00  0.00     0.041 A 
ATOM     66  F   UNL A   1      46.229  24.941  33.965  1.00  0.00    -0.206 F 
ATOM     67  C   UNL A   1      49.599  25.050  32.650  1.00  0.00     0.022 A 
BRANCH  64  68
ATOM     68  S   UNL A   1      50.757  26.067  30.324  1.00  0.00     0.124 S 
ATOM     69  O   UNL A   1      50.420  25.118  29.268  1.00  0.00    -0.237 OA
ATOM     70  O   UNL A   1      50.618  27.479  29.979  1.00  0.00    -0.237 OA
ATOM     71  O   UNL A   1      51.949  25.735  31.102  1.00  0.00    -0.744 OA
ENDBRANCH  64  68
ENDBRANCH  38  61
ENDBRANCH  12  13
ENDBRANCH   5   7
ENDBRANCH   2   3
ENDBRANCH   1   2
BRANCH   1  72
ATOM     72  C   UNL A   1      32.038  27.685  25.065  1.00  0.00     0.023 C 
BRANCH  72  73
ATOM     73  C   UNL A   1      31.886  26.175  24.858  1.00  0.00     0.116 C 
BRANCH  73  74
ATOM     74  N   UNL A   1      32.354  25.726  23.560  1.00  0.00    -0.356 N 
ATOM     75  C   UNL A   1      33.308  24.852  23.152  1.00  0.00     0.227 C 
ATOM     76  H   UNL A   1      31.874  26.148  22.811  1.00  0.00     0.163 HD
ATOM     77  O   UNL A   1      33.463  24.778  21.928  1.00  0.00    -0.274 OA
BRANCH  75  78
ATOM     78  C   UNL A   1      34.120  23.954  24.097  1.00  0.00     0.061 C 
ATOM     79  C   UNL A   1      35.120  23.125  23.225  1.00  0.00     0.053 C 
ATOM     80  C   UNL A   1      35.073  24.812  24.995  1.00  0.00     0.053 C 
ATOM     81  C   UNL A   1      36.272  22.930  24.169  1.00  0.00    -0.044 A 
ATOM     82  C   UNL A   1      36.217  23.866  25.205  1.00  0.00    -0.044 A 
ATOM     83  C   UNL A   1      37.273  21.976  24.127  1.00  0.00     0.004 A 
ATOM     84  C   UNL A   1      37.116  23.836  26.256  1.00  0.00     0.004 A 
ATOM     85  C   UNL A   1      38.190  21.936  25.182  1.00  0.00     0.000 A 
ATOM     86  C   UNL A   1      38.101  22.848  26.246  1.00  0.00     0.000 A 
BRANCH  78  87
ATOM     87  C   UNL A   1      33.300  23.014  25.027  1.00  0.00     0.053 C 
BRANCH  87  88
ATOM     88  C   UNL A   1      33.058  21.566  24.650  1.00  0.00    -0.044 A 
ATOM     89  C   UNL A   1      32.263  21.139  23.582  1.00  0.00     0.024 A 
ATOM     90  C   UNL A   1      33.783  20.589  25.349  1.00  0.00     0.024 A 
ATOM     91  C   UNL A   1      32.255  19.792  23.247  1.00  0.00     0.111 A 
ATOM     92  C   UNL A   1      33.706  19.267  24.943  1.00  0.00     0.111 A 
ATOM     93  N   UNL A   1      32.960  18.847  23.904  1.00  0.00    -0.265 NA
ENDBRANCH  87  88
ENDBRANCH  78  87
ENDBRANCH  75  78
ENDBRANCH  73  74
ENDBRANCH  72  73
ENDBRANCH   1  72
TORSDOF 16
ENDMDL
