MODEL 1
REMARK VINA RESULT:     -11.7      0.000      0.000
REMARK SMILES Cc1cc(CNC(=O)C[C@H](C)CC(=O)NCCCCNC(=O)c2ccc(-c3c4nc(c(-c5cc(S(=O)(=O)[O-])ccc5F)c5ccc([nH]5)c(-c5cc(S(=O)(=O)[O-])ccc5F)c5nc(c(-c6cc(S(=O)(=O)[O-])ccc6F)c6ccc3[nH]6)C=C5)C=C4)cc2)cc(C)c1F
REMARK SMILES IDX 16 1 15 2 13 3 14 4 12 6 10 7 11 8 9 9 7 10 6 11 8 13 5 14
REMARK SMILES IDX 4 15 1 16 2 17 3 18 89 19 87 20 90 21 86 22 88 23 17 24
REMARK SMILES IDX 18 25 19 26 20 27 21 28 22 30 23 31 24 32 85 33 25 34 84 35
REMARK SMILES IDX 26 36 27 37 28 38 78 39 29 40 83 41 77 42 79 43 30 44 82 45
REMARK SMILES IDX 76 46 75 47 31 49 63 50 43 51 62 52 44 53 47 54 61 55 80 56
REMARK SMILES IDX 45 57 46 58 60 60 81 61 48 62 32 63 33 64 41 65 34 66 40 67
REMARK SMILES IDX 42 68 39 69 35 70 36 71 37 72 38 73 64 74 65 75 73 76 66 77
REMARK SMILES IDX 72 78 74 79 71 80 67 81 68 82 69 83 70 84 49 85 50 86 58 87
REMARK SMILES IDX 51 88 57 89 59 90 56 91 52 92 53 93 54 94 55 95
REMARK H PARENT 15 5 6 12 20 29 79 48 47 59
REMARK Flexibility Score: inf
ROOT
ATOM      1  C   UNL A   1      31.257  27.102  27.049  1.00  0.00     0.116 C 
ENDROOT
BRANCH   1   2
ATOM      2  N   UNL A   1      31.110  27.008  25.610  1.00  0.00    -0.356 N 
ATOM      3  C   UNL A   1      32.014  26.606  24.674  1.00  0.00     0.220 C 
ATOM      4  O   UNL A   1      31.715  26.685  23.482  1.00  0.00    -0.275 OA
ATOM      5  H   UNL A   1      30.230  27.271  25.259  1.00  0.00     0.163 HD
BRANCH   3   6
ATOM      6  C   UNL A   1      33.377  26.078  25.095  1.00  0.00     0.103 C 
BRANCH   6   7
ATOM      7  C   UNL A   1      33.445  24.537  25.091  1.00  0.00     0.004 C 
ATOM      8  C   UNL A   1      34.566  24.029  24.175  1.00  0.00     0.009 C 
BRANCH   7   9
ATOM      9  C   UNL A   1      33.636  23.983  26.517  1.00  0.00     0.103 C 
BRANCH   9  10
ATOM     10  C   UNL A   1      32.454  23.144  26.977  1.00  0.00     0.220 C 
ATOM     11  N   UNL A   1      32.586  21.795  27.111  1.00  0.00    -0.352 N 
ATOM     12  H   UNL A   1      31.910  21.351  27.672  1.00  0.00     0.163 HD
ATOM     13  O   UNL A   1      31.386  23.674  27.289  1.00  0.00    -0.275 OA
BRANCH  11  14
ATOM     14  C   UNL A   1      33.593  20.935  26.531  1.00  0.00     0.151 C 
BRANCH  14  15
ATOM     15  C   UNL A   1      33.107  20.172  25.322  1.00  0.00    -0.028 A 
ATOM     16  C   UNL A   1      33.229  16.620  23.937  1.00  0.00     0.047 C 
ATOM     17  C   UNL A   1      32.951  18.088  24.053  1.00  0.00    -0.015 A 
ATOM     18  C   UNL A   1      33.242  18.777  25.238  1.00  0.00     0.012 A 
ATOM     19  C   UNL A   1      32.495  18.811  22.950  1.00  0.00     0.129 A 
ATOM     20  C   UNL A   1      32.317  20.194  23.011  1.00  0.00    -0.015 A 
ATOM     21  F   UNL A   1      32.234  18.163  21.805  1.00  0.00    -0.206 F 
ATOM     22  C   UNL A   1      32.626  20.868  24.202  1.00  0.00     0.012 A 
ATOM     23  C   UNL A   1      31.830  20.959  21.819  1.00  0.00     0.047 C 
ENDBRANCH  14  15
ENDBRANCH  11  14
ENDBRANCH   9  10
ENDBRANCH   7   9
ENDBRANCH   6   7
ENDBRANCH   3   6
ENDBRANCH   1   2
BRANCH   1  24
ATOM     24  C   UNL A   1      31.996  28.383  27.437  1.00  0.00     0.023 C 
BRANCH  24  25
ATOM     25  C   UNL A   1      31.449  29.643  26.778  1.00  0.00     0.023 C 
BRANCH  25  26
ATOM     26  C   UNL A   1      32.530  30.585  26.265  1.00  0.00     0.116 C 
BRANCH  26  27
ATOM     27  N   UNL A   1      32.322  31.972  26.676  1.00  0.00    -0.352 N 
ATOM     28  C   UNL A   1      33.110  32.746  27.495  1.00  0.00     0.251 C 
ATOM     29  H   UNL A   1      31.514  32.407  26.321  1.00  0.00     0.163 HD
ATOM     30  O   UNL A   1      32.746  33.863  27.847  1.00  0.00    -0.269 OA
BRANCH  28  31
ATOM     31  C   UNL A   1      34.391  32.187  27.961  1.00  0.00     0.039 A 
ATOM     32  C   UNL A   1      35.470  33.041  28.184  1.00  0.00     0.014 A 
ATOM     33  C   UNL A   1      34.468  30.828  28.279  1.00  0.00     0.014 A 
ATOM     34  C   UNL A   1      36.617  32.542  28.802  1.00  0.00     0.010 A 
ATOM     35  C   UNL A   1      35.571  30.357  28.973  1.00  0.00     0.010 A 
ATOM     36  C   UNL A   1      36.659  31.206  29.231  1.00  0.00    -0.014 A 
BRANCH  36  37
ATOM     37  C   UNL A   1      37.845  30.648  29.920  1.00  0.00     0.031 A 
ATOM     38  C   UNL A   1      38.129  31.061  31.336  1.00  0.00     0.074 A 
ATOM     39  C   UNL A   1      38.704  29.856  29.251  1.00  0.00     0.049 A 
ATOM     40  N   UNL A   1      39.147  30.757  32.093  1.00  0.00    -0.248 NA
ATOM     41  C   UNL A   1      37.158  31.971  31.969  1.00  0.00     0.031 C 
ATOM     42  C   UNL A   1      38.562  29.445  27.853  1.00  0.00     0.029 A 
ATOM     43  N   UNL A   1      39.874  29.264  29.654  1.00  0.00    -0.354 N 
ATOM     44  C   UNL A   1      38.957  31.460  33.275  1.00  0.00     0.074 A 
ATOM     45  C   UNL A   1      37.758  32.250  33.115  1.00  0.00     0.031 C 
ATOM     46  C   UNL A   1      39.591  28.648  27.524  1.00  0.00     0.029 A 
ATOM     47  C   UNL A   1      40.481  28.512  28.675  1.00  0.00     0.049 A 
ATOM     48  H   UNL A   1      40.247  29.368  30.560  1.00  0.00     0.167 HD
ATOM     49  C   UNL A   1      39.699  31.425  34.405  1.00  0.00     0.034 A 
ATOM     50  C   UNL A   1      41.618  27.789  28.707  1.00  0.00     0.034 A 
ATOM     51  C   UNL A   1      40.853  30.586  34.569  1.00  0.00     0.049 A 
ATOM     52  C   UNL A   1      42.402  27.720  29.994  1.00  0.00     0.074 A 
ATOM     53  C   UNL A   1      41.611  30.394  35.709  1.00  0.00     0.029 A 
ATOM     54  N   UNL A   1      41.407  29.795  33.574  1.00  0.00    -0.354 N 
ATOM     55  N   UNL A   1      42.148  28.302  31.142  1.00  0.00    -0.248 NA
ATOM     56  C   UNL A   1      43.615  26.891  29.997  1.00  0.00     0.031 C 
ATOM     57  C   UNL A   1      42.650  29.515  35.392  1.00  0.00     0.029 A 
ATOM     58  C   UNL A   1      42.512  29.126  34.068  1.00  0.00     0.049 A 
ATOM     59  H   UNL A   1      41.066  29.722  32.654  1.00  0.00     0.167 HD
ATOM     60  C   UNL A   1      43.154  27.890  32.012  1.00  0.00     0.074 A 
ATOM     61  C   UNL A   1      44.013  27.000  31.259  1.00  0.00     0.031 C 
ATOM     62  C   UNL A   1      43.344  28.220  33.313  1.00  0.00     0.034 A 
BRANCH  49  63
ATOM     63  C   UNL A   1      39.276  32.287  35.562  1.00  0.00     0.023 A 
ATOM     64  C   UNL A   1      39.767  33.599  35.677  1.00  0.00     0.031 A 
ATOM     65  C   UNL A   1      38.452  31.787  36.586  1.00  0.00     0.131 A 
ATOM     66  C   UNL A   1      39.439  34.364  36.802  1.00  0.00     0.055 A 
ATOM     67  C   UNL A   1      38.101  32.565  37.688  1.00  0.00     0.041 A 
ATOM     68  F   UNL A   1      37.955  30.541  36.514  1.00  0.00    -0.206 F 
ATOM     69  C   UNL A   1      38.602  33.858  37.803  1.00  0.00     0.022 A 
BRANCH  66  70
ATOM     70  S   UNL A   1      40.102  36.037  37.021  1.00  0.00     0.124 S 
ATOM     71  O   UNL A   1      41.523  35.773  37.239  1.00  0.00    -0.237 OA
ATOM     72  O   UNL A   1      39.773  36.663  35.743  1.00  0.00    -0.237 OA
ATOM     73  O   UNL A   1      39.383  36.550  38.182  1.00  0.00    -0.744 OA
ENDBRANCH  66  70
ENDBRANCH  49  63
BRANCH  50  74
ATOM     74  C   UNL A   1      42.011  27.001  27.506  1.00  0.00     0.023 A 
ATOM     75  C   UNL A   1      41.779  25.616  27.430  1.00  0.00     0.031 A 
ATOM     76  C   UNL A   1      42.726  27.613  26.463  1.00  0.00     0.131 A 
ATOM     77  C   UNL A   1      42.304  24.882  26.357  1.00  0.00     0.055 A 
ATOM     78  C   UNL A   1      43.202  26.887  25.370  1.00  0.00     0.041 A 
ATOM     79  F   UNL A   1      42.981  28.929  26.503  1.00  0.00    -0.206 F 
ATOM     80  C   UNL A   1      43.001  25.511  25.320  1.00  0.00     0.022 A 
BRANCH  77  81
ATOM     81  S   UNL A   1      42.173  23.073  26.314  1.00  0.00     0.124 S 
ATOM     82  O   UNL A   1      42.680  22.758  24.981  1.00  0.00    -0.237 OA
ATOM     83  O   UNL A   1      43.040  22.689  27.425  1.00  0.00    -0.237 OA
ATOM     84  O   UNL A   1      40.749  22.827  26.517  1.00  0.00    -0.744 OA
ENDBRANCH  77  81
ENDBRANCH  50  74
BRANCH  62  85
ATOM     85  C   UNL A   1      44.515  27.621  34.048  1.00  0.00     0.023 A 
ATOM     86  C   UNL A   1      44.319  26.501  34.876  1.00  0.00     0.031 A 
ATOM     87  C   UNL A   1      45.762  28.265  34.073  1.00  0.00     0.131 A 
ATOM     88  C   UNL A   1      45.343  26.086  35.736  1.00  0.00     0.055 A 
ATOM     89  C   UNL A   1      46.795  27.822  34.901  1.00  0.00     0.041 A 
ATOM     90  F   UNL A   1      45.988  29.344  33.307  1.00  0.00    -0.206 F 
ATOM     91  C   UNL A   1      46.581  26.737  35.748  1.00  0.00     0.022 A 
BRANCH  88  92
ATOM     92  S   UNL A   1      45.078  24.741  36.924  1.00  0.00     0.124 S 
ATOM     93  O   UNL A   1      43.882  25.193  37.632  1.00  0.00    -0.237 OA
ATOM     94  O   UNL A   1      44.887  23.591  36.045  1.00  0.00    -0.237 OA
ATOM     95  O   UNL A   1      46.301  24.728  37.720  1.00  0.00    -0.744 OA
ENDBRANCH  88  92
ENDBRANCH  62  85
ENDBRANCH  36  37
ENDBRANCH  28  31
ENDBRANCH  26  27
ENDBRANCH  25  26
ENDBRANCH  24  25
ENDBRANCH   1  24
TORSDOF 19
ENDMDL
MODEL 2
REMARK VINA RESULT:     -11.4      1.544      7.974
REMARK SMILES Cc1cc(CNC(=O)C[C@H](C)CC(=O)NCCCCNC(=O)c2ccc(-c3c4nc(c(-c5cc(S(=O)(=O)[O-])ccc5F)c5ccc([nH]5)c(-c5cc(S(=O)(=O)[O-])ccc5F)c5nc(c(-c6cc(S(=O)(=O)[O-])ccc6F)c6ccc3[nH]6)C=C5)C=C4)cc2)cc(C)c1F
REMARK SMILES IDX 16 1 15 2 13 3 14 4 12 6 10 7 11 8 9 9 7 10 6 11 8 13 5 14
REMARK SMILES IDX 4 15 1 16 2 17 3 18 89 19 87 20 90 21 86 22 88 23 17 24
REMARK SMILES IDX 18 25 19 26 20 27 21 28 22 30 23 31 24 32 85 33 25 34 84 35
REMARK SMILES IDX 26 36 27 37 28 38 78 39 29 40 83 41 77 42 79 43 30 44 82 45
REMARK SMILES IDX 76 46 75 47 31 49 63 50 43 51 62 52 44 53 47 54 61 55 80 56
REMARK SMILES IDX 45 57 46 58 60 60 81 61 48 62 32 63 33 64 41 65 34 66 40 67
REMARK SMILES IDX 42 68 39 69 35 70 36 71 37 72 38 73 64 74 65 75 73 76 66 77
REMARK SMILES IDX 72 78 74 79 71 80 67 81 68 82 69 83 70 84 49 85 50 86 58 87
REMARK SMILES IDX 51 88 57 89 59 90 56 91 52 92 53 93 54 94 55 95
REMARK H PARENT 15 5 6 12 20 29 79 48 47 59
REMARK Flexibility Score: inf
ROOT
ATOM      1  C   UNL A   1      32.661  29.721  25.407  1.00  0.00     0.116 C 
ENDROOT
BRANCH   1   2
ATOM      2  N   UNL A   1      33.302  29.580  24.115  1.00  0.00    -0.356 N 
ATOM      3  C   UNL A   1      33.810  28.465  23.519  1.00  0.00     0.220 C 
ATOM      4  O   UNL A   1      34.399  28.579  22.443  1.00  0.00    -0.275 OA
ATOM      5  H   UNL A   1      33.381  30.410  23.592  1.00  0.00     0.163 HD
BRANCH   3   6
ATOM      6  C   UNL A   1      33.661  27.103  24.178  1.00  0.00     0.103 C 
BRANCH   6   7
ATOM      7  C   UNL A   1      32.314  26.429  23.851  1.00  0.00     0.004 C 
ATOM      8  C   UNL A   1      32.519  25.052  23.205  1.00  0.00     0.009 C 
BRANCH   7   9
ATOM      9  C   UNL A   1      31.437  26.294  25.112  1.00  0.00     0.103 C 
BRANCH   9  10
ATOM     10  C   UNL A   1      30.223  25.406  24.883  1.00  0.00     0.220 C 
ATOM     11  N   UNL A   1      29.903  24.442  25.789  1.00  0.00    -0.352 N 
ATOM     12  H   UNL A   1      28.979  24.104  25.750  1.00  0.00     0.163 HD
ATOM     13  O   UNL A   1      29.484  25.584  23.913  1.00  0.00    -0.275 OA
BRANCH  11  14
ATOM     14  C   UNL A   1      30.750  23.850  26.801  1.00  0.00     0.151 C 
BRANCH  14  15
ATOM     15  C   UNL A   1      31.929  23.097  26.232  1.00  0.00    -0.028 A 
ATOM     16  C   UNL A   1      35.699  23.536  25.862  1.00  0.00     0.047 C 
ATOM     17  C   UNL A   1      34.322  22.954  25.755  1.00  0.00    -0.015 A 
ATOM     18  C   UNL A   1      33.244  23.552  26.422  1.00  0.00     0.012 A 
ATOM     19  C   UNL A   1      34.075  21.873  24.910  1.00  0.00     0.129 A 
ATOM     20  C   UNL A   1      32.783  21.375  24.727  1.00  0.00    -0.015 A 
ATOM     21  F   UNL A   1      35.098  21.309  24.252  1.00  0.00    -0.206 F 
ATOM     22  C   UNL A   1      31.715  21.993  25.392  1.00  0.00     0.012 A 
ATOM     23  C   UNL A   1      32.530  20.215  23.813  1.00  0.00     0.047 C 
ENDBRANCH  14  15
ENDBRANCH  11  14
ENDBRANCH   9  10
ENDBRANCH   7   9
ENDBRANCH   6   7
ENDBRANCH   3   6
ENDBRANCH   1   2
BRANCH   1  24
ATOM     24  C   UNL A   1      31.262  30.321  25.257  1.00  0.00     0.023 C 
BRANCH  24  25
ATOM     25  C   UNL A   1      31.028  31.573  26.093  1.00  0.00     0.023 C 
BRANCH  25  26
ATOM     26  C   UNL A   1      32.262  32.045  26.850  1.00  0.00     0.116 C 
BRANCH  26  27
ATOM     27  N   UNL A   1      32.196  33.454  27.231  1.00  0.00    -0.352 N 
ATOM     28  C   UNL A   1      33.043  34.155  28.056  1.00  0.00     0.251 C 
ATOM     29  H   UNL A   1      31.448  33.967  26.847  1.00  0.00     0.163 HD
ATOM     30  O   UNL A   1      32.794  35.312  28.379  1.00  0.00    -0.269 OA
BRANCH  28  31
ATOM     31  C   UNL A   1      34.244  33.470  28.564  1.00  0.00     0.039 A 
ATOM     32  C   UNL A   1      35.472  34.131  28.534  1.00  0.00     0.014 A 
ATOM     33  C   UNL A   1      34.113  32.218  29.170  1.00  0.00     0.014 A 
ATOM     34  C   UNL A   1      36.567  33.560  29.184  1.00  0.00     0.010 A 
ATOM     35  C   UNL A   1      35.177  31.699  29.891  1.00  0.00     0.010 A 
ATOM     36  C   UNL A   1      36.415  32.360  29.895  1.00  0.00    -0.014 A 
BRANCH  36  37
ATOM     37  C   UNL A   1      37.545  31.741  30.626  1.00  0.00     0.031 A 
ATOM     38  C   UNL A   1      38.398  30.722  29.926  1.00  0.00     0.074 A 
ATOM     39  C   UNL A   1      37.742  32.022  31.928  1.00  0.00     0.049 A 
ATOM     40  N   UNL A   1      39.380  30.005  30.400  1.00  0.00    -0.248 NA
ATOM     41  C   UNL A   1      38.075  30.443  28.515  1.00  0.00     0.031 C 
ATOM     42  C   UNL A   1      36.933  32.945  32.725  1.00  0.00     0.029 A 
ATOM     43  N   UNL A   1      38.677  31.549  32.814  1.00  0.00    -0.354 N 
ATOM     44  C   UNL A   1      39.770  29.171  29.360  1.00  0.00     0.074 A 
ATOM     45  C   UNL A   1      38.883  29.429  28.249  1.00  0.00     0.031 C 
ATOM     46  C   UNL A   1      37.422  32.990  33.975  1.00  0.00     0.029 A 
ATOM     47  C   UNL A   1      38.562  32.080  34.077  1.00  0.00     0.049 A 
ATOM     48  H   UNL A   1      39.366  30.890  32.569  1.00  0.00     0.167 HD
ATOM     49  C   UNL A   1      40.796  28.292  29.326  1.00  0.00     0.034 A 
ATOM     50  C   UNL A   1      39.297  31.865  35.186  1.00  0.00     0.034 A 
ATOM     51  C   UNL A   1      41.707  28.093  30.418  1.00  0.00     0.049 A 
ATOM     52  C   UNL A   1      40.471  30.922  35.111  1.00  0.00     0.074 A 
ATOM     53  C   UNL A   1      42.843  27.307  30.448  1.00  0.00     0.029 A 
ATOM     54  N   UNL A   1      41.593  28.689  31.665  1.00  0.00    -0.354 N 
ATOM     55  N   UNL A   1      40.898  30.223  34.086  1.00  0.00    -0.248 NA
ATOM     56  C   UNL A   1      41.269  30.744  36.332  1.00  0.00     0.031 C 
ATOM     57  C   UNL A   1      43.397  27.398  31.727  1.00  0.00     0.029 A 
ATOM     58  C   UNL A   1      42.630  28.274  32.480  1.00  0.00     0.049 A 
ATOM     59  H   UNL A   1      40.880  29.314  31.930  1.00  0.00     0.167 HD
ATOM     60  C   UNL A   1      42.029  29.543  34.529  1.00  0.00     0.074 A 
ATOM     61  C   UNL A   1      42.226  29.924  35.912  1.00  0.00     0.031 C 
ATOM     62  C   UNL A   1      42.828  28.683  33.850  1.00  0.00     0.034 A 
BRANCH  49  63
ATOM     63  C   UNL A   1      41.015  27.503  28.065  1.00  0.00     0.023 A 
ATOM     64  C   UNL A   1      40.724  26.128  28.037  1.00  0.00     0.031 A 
ATOM     65  C   UNL A   1      41.581  28.091  26.920  1.00  0.00     0.131 A 
ATOM     66  C   UNL A   1      41.014  25.382  26.889  1.00  0.00     0.055 A 
ATOM     67  C   UNL A   1      41.835  27.351  25.766  1.00  0.00     0.041 A 
ATOM     68  F   UNL A   1      41.868  29.403  26.899  1.00  0.00    -0.206 F 
ATOM     69  C   UNL A   1      41.559  25.987  25.750  1.00  0.00     0.022 A 
BRANCH  66  70
ATOM     70  S   UNL A   1      40.714  23.595  26.834  1.00  0.00     0.124 S 
ATOM     71  O   UNL A   1      41.053  23.190  28.196  1.00  0.00    -0.237 OA
ATOM     72  O   UNL A   1      39.293  23.537  26.501  1.00  0.00    -0.237 OA
ATOM     73  O   UNL A   1      41.627  23.118  25.801  1.00  0.00    -0.744 OA
ENDBRANCH  66  70
ENDBRANCH  49  63
BRANCH  50  74
ATOM     74  C   UNL A   1      38.992  32.641  36.421  1.00  0.00     0.023 A 
ATOM     75  C   UNL A   1      39.545  33.915  36.642  1.00  0.00     0.031 A 
ATOM     76  C   UNL A   1      38.227  32.062  37.448  1.00  0.00     0.131 A 
ATOM     77  C   UNL A   1      39.365  34.544  37.881  1.00  0.00     0.055 A 
ATOM     78  C   UNL A   1      38.007  32.715  38.661  1.00  0.00     0.041 A 
ATOM     79  F   UNL A   1      37.693  30.842  37.283  1.00  0.00    -0.206 F 
ATOM     80  C   UNL A   1      38.587  33.959  38.887  1.00  0.00     0.022 A 
BRANCH  77  81
ATOM     81  S   UNL A   1      40.204  36.107  38.262  1.00  0.00     0.124 S 
ATOM     82  O   UNL A   1      39.359  36.663  39.316  1.00  0.00    -0.237 OA
ATOM     83  O   UNL A   1      41.519  35.638  38.691  1.00  0.00    -0.237 OA
ATOM     84  O   UNL A   1      40.180  36.828  36.994  1.00  0.00    -0.744 OA
ENDBRANCH  77  81
ENDBRANCH  50  74
BRANCH  62  85
ATOM     85  C   UNL A   1      44.014  28.084  34.559  1.00  0.00     0.023 A 
ATOM     86  C   UNL A   1      43.882  26.847  35.215  1.00  0.00     0.031 A 
ATOM     87  C   UNL A   1      45.199  28.816  34.737  1.00  0.00     0.131 A 
ATOM     88  C   UNL A   1      44.901  26.400  36.065  1.00  0.00     0.055 A 
ATOM     89  C   UNL A   1      46.230  28.347  35.552  1.00  0.00     0.041 A 
ATOM     90  F   UNL A   1      45.361  30.006  34.138  1.00  0.00    -0.206 F 
ATOM     91  C   UNL A   1      46.076  27.140  36.232  1.00  0.00     0.022 A 
BRANCH  88  92
ATOM     92  S   UNL A   1      44.705  24.886  37.044  1.00  0.00     0.124 S 
ATOM     93  O   UNL A   1      43.538  25.204  37.864  1.00  0.00    -0.237 OA
ATOM     94  O   UNL A   1      44.485  23.880  36.009  1.00  0.00    -0.237 OA
ATOM     95  O   UNL A   1      45.963  24.773  37.775  1.00  0.00    -0.744 OA
ENDBRANCH  88  92
ENDBRANCH  62  85
ENDBRANCH  36  37
ENDBRANCH  28  31
ENDBRANCH  26  27
ENDBRANCH  25  26
ENDBRANCH  24  25
ENDBRANCH   1  24
TORSDOF 19
ENDMDL
MODEL 3
REMARK VINA RESULT:     -11.3      5.459      8.914
REMARK SMILES Cc1cc(CNC(=O)C[C@H](C)CC(=O)NCCCCNC(=O)c2ccc(-c3c4nc(c(-c5cc(S(=O)(=O)[O-])ccc5F)c5ccc([nH]5)c(-c5cc(S(=O)(=O)[O-])ccc5F)c5nc(c(-c6cc(S(=O)(=O)[O-])ccc6F)c6ccc3[nH]6)C=C5)C=C4)cc2)cc(C)c1F
REMARK SMILES IDX 16 1 15 2 13 3 14 4 12 6 10 7 11 8 9 9 7 10 6 11 8 13 5 14
REMARK SMILES IDX 4 15 1 16 2 17 3 18 89 19 87 20 90 21 86 22 88 23 17 24
REMARK SMILES IDX 18 25 19 26 20 27 21 28 22 30 23 31 24 32 85 33 25 34 84 35
REMARK SMILES IDX 26 36 27 37 28 38 78 39 29 40 83 41 77 42 79 43 30 44 82 45
REMARK SMILES IDX 76 46 75 47 31 49 63 50 43 51 62 52 44 53 47 54 61 55 80 56
REMARK SMILES IDX 45 57 46 58 60 60 81 61 48 62 32 63 33 64 41 65 34 66 40 67
REMARK SMILES IDX 42 68 39 69 35 70 36 71 37 72 38 73 64 74 65 75 73 76 66 77
REMARK SMILES IDX 72 78 74 79 71 80 67 81 68 82 69 83 70 84 49 85 50 86 58 87
REMARK SMILES IDX 51 88 57 89 59 90 56 91 52 92 53 93 54 94 55 95
REMARK H PARENT 15 5 6 12 20 29 79 48 47 59
REMARK Flexibility Score: inf
ROOT
ATOM      1  C   UNL A   1      35.847  20.654  24.989  1.00  0.00     0.116 C 
ENDROOT
BRANCH   1   2
ATOM      2  N   UNL A   1      35.516  21.369  26.205  1.00  0.00    -0.356 N 
ATOM      3  C   UNL A   1      34.300  21.775  26.666  1.00  0.00     0.220 C 
ATOM      4  O   UNL A   1      34.246  22.454  27.691  1.00  0.00    -0.275 OA
ATOM      5  H   UNL A   1      36.281  21.594  26.783  1.00  0.00     0.163 HD
BRANCH   3   6
ATOM      6  C   UNL A   1      33.029  21.402  25.918  1.00  0.00     0.103 C 
BRANCH   6   7
ATOM      7  C   UNL A   1      32.483  22.559  25.059  1.00  0.00     0.004 C 
ATOM      8  C   UNL A   1      32.722  22.308  23.564  1.00  0.00     0.009 C 
BRANCH   7   9
ATOM      9  C   UNL A   1      30.982  22.790  25.322  1.00  0.00     0.103 C 
BRANCH   9  10
ATOM     10  C   UNL A   1      30.736  23.798  26.434  1.00  0.00     0.220 C 
ATOM     11  N   UNL A   1      30.030  24.935  26.180  1.00  0.00    -0.352 N 
ATOM     12  H   UNL A   1      29.657  25.394  26.966  1.00  0.00     0.163 HD
ATOM     13  O   UNL A   1      31.116  23.576  27.584  1.00  0.00    -0.275 OA
BRANCH  11  14
ATOM     14  C   UNL A   1      29.761  25.552  24.900  1.00  0.00     0.151 C 
BRANCH  14  15
ATOM     15  C   UNL A   1      31.006  26.018  24.184  1.00  0.00    -0.028 A 
ATOM     16  C   UNL A   1      33.702  28.687  24.571  1.00  0.00     0.047 C 
ATOM     17  C   UNL A   1      32.902  27.551  24.010  1.00  0.00    -0.015 A 
ATOM     18  C   UNL A   1      31.845  26.995  24.743  1.00  0.00     0.012 A 
ATOM     19  C   UNL A   1      33.129  27.100  22.710  1.00  0.00     0.129 A 
ATOM     20  C   UNL A   1      32.335  26.105  22.137  1.00  0.00    -0.015 A 
ATOM     21  F   UNL A   1      34.125  27.641  21.993  1.00  0.00    -0.206 F 
ATOM     22  C   UNL A   1      31.274  25.569  22.882  1.00  0.00     0.012 A 
ATOM     23  C   UNL A   1      32.587  25.631  20.738  1.00  0.00     0.047 C 
ENDBRANCH  14  15
ENDBRANCH  11  14
ENDBRANCH   9  10
ENDBRANCH   7   9
ENDBRANCH   6   7
ENDBRANCH   3   6
ENDBRANCH   1   2
BRANCH   1  24
ATOM     24  C   UNL A   1      37.317  20.862  24.620  1.00  0.00     0.023 C 
BRANCH  24  25
ATOM     25  C   UNL A   1      38.215  19.673  24.937  1.00  0.00     0.023 C 
BRANCH  25  26
ATOM     26  C   UNL A   1      39.148  19.907  26.117  1.00  0.00     0.116 C 
BRANCH  26  27
ATOM     27  N   UNL A   1      40.394  19.151  26.019  1.00  0.00    -0.352 N 
ATOM     28  C   UNL A   1      41.684  19.613  26.137  1.00  0.00     0.251 C 
ATOM     29  H   UNL A   1      40.298  18.187  25.846  1.00  0.00     0.163 HD
ATOM     30  O   UNL A   1      42.640  18.878  25.915  1.00  0.00    -0.269 OA
BRANCH  28  31
ATOM     31  C   UNL A   1      41.886  21.024  26.512  1.00  0.00     0.039 A 
ATOM     32  C   UNL A   1      42.257  21.338  27.820  1.00  0.00     0.014 A 
ATOM     33  C   UNL A   1      41.813  22.011  25.526  1.00  0.00     0.014 A 
ATOM     34  C   UNL A   1      42.631  22.647  28.124  1.00  0.00     0.010 A 
ATOM     35  C   UNL A   1      42.272  23.288  25.810  1.00  0.00     0.010 A 
ATOM     36  C   UNL A   1      42.674  23.620  27.113  1.00  0.00    -0.014 A 
BRANCH  36  37
ATOM     37  C   UNL A   1      43.097  25.011  27.391  1.00  0.00     0.031 A 
ATOM     38  C   UNL A   1      42.126  25.956  28.037  1.00  0.00     0.074 A 
ATOM     39  C   UNL A   1      44.305  25.443  26.981  1.00  0.00     0.049 A 
ATOM     40  N   UNL A   1      42.262  27.228  28.296  1.00  0.00    -0.248 NA
ATOM     41  C   UNL A   1      40.809  25.405  28.406  1.00  0.00     0.031 C 
ATOM     42  C   UNL A   1      45.302  24.630  26.283  1.00  0.00     0.029 A 
ATOM     43  N   UNL A   1      44.895  26.678  27.081  1.00  0.00    -0.354 N 
ATOM     44  C   UNL A   1      41.044  27.635  28.824  1.00  0.00     0.074 A 
ATOM     45  C   UNL A   1      40.162  26.491  28.798  1.00  0.00     0.031 C 
ATOM     46  C   UNL A   1      46.389  25.381  26.041  1.00  0.00     0.029 A 
ATOM     47  C   UNL A   1      46.158  26.735  26.541  1.00  0.00     0.049 A 
ATOM     48  H   UNL A   1      44.454  27.453  27.500  1.00  0.00     0.167 HD
ATOM     49  C   UNL A   1      40.703  28.846  29.317  1.00  0.00     0.034 A 
ATOM     50  C   UNL A   1      47.032  27.759  26.466  1.00  0.00     0.034 A 
ATOM     51  C   UNL A   1      41.612  29.956  29.393  1.00  0.00     0.049 A 
ATOM     52  C   UNL A   1      46.652  29.087  27.071  1.00  0.00     0.074 A 
ATOM     53  C   UNL A   1      41.400  31.192  29.973  1.00  0.00     0.029 A 
ATOM     54  N   UNL A   1      42.902  29.961  28.886  1.00  0.00    -0.354 N 
ATOM     55  N   UNL A   1      45.535  29.427  27.670  1.00  0.00    -0.248 NA
ATOM     56  C   UNL A   1      47.647  30.166  27.001  1.00  0.00     0.031 C 
ATOM     57  C   UNL A   1      42.551  31.961  29.782  1.00  0.00     0.029 A 
ATOM     58  C   UNL A   1      43.494  31.187  29.122  1.00  0.00     0.049 A 
ATOM     59  H   UNL A   1      43.332  29.204  28.426  1.00  0.00     0.167 HD
ATOM     60  C   UNL A   1      45.702  30.748  28.073  1.00  0.00     0.074 A 
ATOM     61  C   UNL A   1      47.033  31.143  27.659  1.00  0.00     0.031 C 
ATOM     62  C   UNL A   1      44.832  31.558  28.726  1.00  0.00     0.034 A 
BRANCH  49  63
ATOM     63  C   UNL A   1      39.306  29.033  29.842  1.00  0.00     0.023 A 
ATOM     64  C   UNL A   1      38.354  29.725  29.074  1.00  0.00     0.031 A 
ATOM     65  C   UNL A   1      38.942  28.598  31.128  1.00  0.00     0.131 A 
ATOM     66  C   UNL A   1      37.084  29.973  29.606  1.00  0.00     0.055 A 
ATOM     67  C   UNL A   1      37.664  28.817  31.640  1.00  0.00     0.041 A 
ATOM     68  F   UNL A   1      39.818  27.927  31.894  1.00  0.00    -0.206 F 
ATOM     69  C   UNL A   1      36.730  29.515  30.881  1.00  0.00     0.022 A 
BRANCH  66  70
ATOM     70  S   UNL A   1      35.847  30.916  28.675  1.00  0.00     0.124 S 
ATOM     71  O   UNL A   1      34.956  31.377  29.738  1.00  0.00    -0.237 OA
ATOM     72  O   UNL A   1      36.663  31.953  28.051  1.00  0.00    -0.237 OA
ATOM     73  O   UNL A   1      35.267  29.933  27.766  1.00  0.00    -0.744 OA
ENDBRANCH  66  70
ENDBRANCH  49  63
BRANCH  50  74
ATOM     74  C   UNL A   1      48.381  27.520  25.882  1.00  0.00     0.023 A 
ATOM     75  C   UNL A   1      48.624  27.682  24.507  1.00  0.00     0.031 A 
ATOM     76  C   UNL A   1      49.419  27.016  26.686  1.00  0.00     0.131 A 
ATOM     77  C   UNL A   1      49.859  27.295  23.970  1.00  0.00     0.055 A 
ATOM     78  C   UNL A   1      50.665  26.682  26.154  1.00  0.00     0.041 A 
ATOM     79  F   UNL A   1      49.225  26.833  28.000  1.00  0.00    -0.206 F 
ATOM     80  C   UNL A   1      50.887  26.810  24.787  1.00  0.00     0.022 A 
BRANCH  77  81
ATOM     81  S   UNL A   1      50.148  27.329  22.179  1.00  0.00     0.124 S 
ATOM     82  O   UNL A   1      50.204  28.762  21.902  1.00  0.00    -0.237 OA
ATOM     83  O   UNL A   1      51.419  26.617  22.073  1.00  0.00    -0.237 OA
ATOM     84  O   UNL A   1      48.991  26.630  21.631  1.00  0.00    -0.744 OA
ENDBRANCH  77  81
ENDBRANCH  50  74
BRANCH  62  85
ATOM     85  C   UNL A   1      45.263  32.960  29.066  1.00  0.00     0.023 A 
ATOM     86  C   UNL A   1      45.122  33.984  28.111  1.00  0.00     0.031 A 
ATOM     87  C   UNL A   1      45.973  33.236  30.246  1.00  0.00     0.131 A 
ATOM     88  C   UNL A   1      45.729  35.226  28.330  1.00  0.00     0.055 A 
ATOM     89  C   UNL A   1      46.540  34.490  30.479  1.00  0.00     0.041 A 
ATOM     90  F   UNL A   1      46.140  32.285  31.178  1.00  0.00    -0.206 F 
ATOM     91  C   UNL A   1      46.432  35.486  29.511  1.00  0.00     0.022 A 
BRANCH  88  92
ATOM     92  S   UNL A   1      45.697  36.519  27.059  1.00  0.00     0.124 S 
ATOM     93  O   UNL A   1      44.264  36.770  26.917  1.00  0.00    -0.237 OA
ATOM     94  O   UNL A   1      46.459  37.590  27.693  1.00  0.00    -0.237 OA
ATOM     95  O   UNL A   1      46.333  35.894  25.903  1.00  0.00    -0.744 OA
ENDBRANCH  88  92
ENDBRANCH  62  85
ENDBRANCH  36  37
ENDBRANCH  28  31
ENDBRANCH  26  27
ENDBRANCH  25  26
ENDBRANCH  24  25
ENDBRANCH   1  24
TORSDOF 19
ENDMDL
