MODEL 1
REMARK VINA RESULT:     -11.9      0.000      0.000
REMARK SMILES CC(C)[NH2+][C@@]1(C(=O)NCCCCNC(=O)c2ccc(-c3c4nc(c(-c5cc(S(=O)(=O)[O-])ccc5F)c5ccc([nH]5)c(-c5cc(S(=O)(=O)[O-])ccc5F)c5nc(c(-c6cc(S(=O)(=O)[O-])ccc6F)c6ccc3[nH]6)C=C5)C=C4)cc2)CCC[C@H](SC2CCCCC2)C1
REMARK SMILES IDX 11 1 10 2 9 3 8 4 6 5 7 6 5 8 79 9 90 10 80 11 82 12 81 13
REMARK SMILES IDX 4 14 2 17 1 18 3 19 83 20 84 21 85 22 89 23 86 24 88 25
REMARK SMILES IDX 87 26 12 27 13 28 14 29 15 31 16 32 17 33 78 34 18 35 77 36
REMARK SMILES IDX 19 37 20 38 21 39 71 40 22 41 76 42 70 43 72 44 23 45 75 46
REMARK SMILES IDX 69 47 68 48 24 50 56 51 36 52 55 53 37 54 40 55 54 56 73 57
REMARK SMILES IDX 38 58 39 59 53 61 74 62 41 63 25 64 26 65 34 66 27 67 33 68
REMARK SMILES IDX 35 69 32 70 28 71 29 72 30 73 31 74 57 75 58 76 66 77 59 78
REMARK SMILES IDX 65 79 67 80 64 81 60 82 61 83 62 84 63 85 42 86 43 87 51 88
REMARK SMILES IDX 44 89 50 90 52 91 49 92 45 93 46 94 47 95 48 96
REMARK H PARENT 8 7 4 15 4 16 13 30 72 49 40 60
REMARK Flexibility Score: inf
ROOT
ATOM      1  C   UNL A   1      38.011  19.791  25.332  1.00  0.00     0.023 C 
ENDROOT
BRANCH   1   2
ATOM      2  C   UNL A   1      37.274  20.857  24.542  1.00  0.00     0.023 C 
BRANCH   2   3
ATOM      3  C   UNL A   1      36.938  22.146  25.270  1.00  0.00     0.116 C 
BRANCH   3   4
ATOM      4  N   UNL A   1      36.055  21.850  26.379  1.00  0.00    -0.351 N 
ATOM      5  C   UNL A   1      34.716  21.680  26.481  1.00  0.00     0.281 C 
ATOM      6  O   UNL A   1      34.282  21.877  27.635  1.00  0.00    -0.268 OA
ATOM      7  H   UNL A   1      36.528  21.753  27.238  1.00  0.00     0.163 HD
BRANCH   5   8
ATOM      8  C   UNL A   1      33.669  21.189  25.356  1.00  0.00     0.176 C 
ATOM      9  C   UNL A   1      33.999  21.647  23.926  1.00  0.00     0.079 C 
ATOM     10  C   UNL A   1      32.193  21.439  25.768  1.00  0.00     0.093 C 
ATOM     11  C   UNL A   1      33.264  22.891  23.430  1.00  0.00     0.008 C 
ATOM     12  C   UNL A   1      31.379  22.632  25.199  1.00  0.00     0.053 C 
ATOM     13  C   UNL A   1      31.782  22.908  23.751  1.00  0.00     0.015 C 
BRANCH   8  14
ATOM     14  N   UNL A   1      33.970  19.697  25.401  1.00  0.00    -0.332 N 
ATOM     15  H   UNL A   1      34.966  19.621  25.610  1.00  0.00     0.347 HD
ATOM     16  H   UNL A   1      33.273  19.376  26.072  1.00  0.00     0.347 HD
BRANCH  14  17
ATOM     17  C   UNL A   1      33.728  18.786  24.284  1.00  0.00     0.176 C 
ATOM     18  C   UNL A   1      34.875  17.763  24.335  1.00  0.00     0.075 C 
ATOM     19  C   UNL A   1      32.420  17.977  24.367  1.00  0.00     0.075 C 
ENDBRANCH  14  17
ENDBRANCH   8  14
BRANCH  12  20
ATOM     20  S   UNL A   1      31.112  23.801  26.595  1.00  0.00    -0.155 SA
BRANCH  20  21
ATOM     21  C   UNL A   1      31.888  25.439  26.314  1.00  0.00     0.047 C 
ATOM     22  C   UNL A   1      33.363  25.548  25.964  1.00  0.00     0.014 C 
ATOM     23  C   UNL A   1      31.021  26.229  25.315  1.00  0.00     0.014 C 
ATOM     24  C   UNL A   1      33.793  27.013  25.881  1.00  0.00     0.001 C 
ATOM     25  C   UNL A   1      31.476  27.685  25.198  1.00  0.00     0.001 C 
ATOM     26  C   UNL A   1      32.961  27.789  24.869  1.00  0.00     0.000 C 
ENDBRANCH  20  21
ENDBRANCH  12  20
ENDBRANCH   5   8
ENDBRANCH   3   4
ENDBRANCH   2   3
ENDBRANCH   1   2
BRANCH   1  27
ATOM     27  C   UNL A   1      39.312  20.259  25.952  1.00  0.00     0.116 C 
BRANCH  27  28
ATOM     28  N   UNL A   1      40.432  19.342  25.767  1.00  0.00    -0.352 N 
ATOM     29  C   UNL A   1      41.776  19.568  25.999  1.00  0.00     0.251 C 
ATOM     30  H   UNL A   1      40.200  18.444  25.434  1.00  0.00     0.163 HD
ATOM     31  O   UNL A   1      42.603  18.693  25.822  1.00  0.00    -0.269 OA
BRANCH  29  32
ATOM     32  C   UNL A   1      42.193  20.911  26.443  1.00  0.00     0.039 A 
ATOM     33  C   UNL A   1      42.423  21.154  27.801  1.00  0.00     0.014 A 
ATOM     34  C   UNL A   1      42.421  21.901  25.490  1.00  0.00     0.014 A 
ATOM     35  C   UNL A   1      42.953  22.385  28.194  1.00  0.00     0.010 A 
ATOM     36  C   UNL A   1      43.049  23.073  25.870  1.00  0.00     0.010 A 
ATOM     37  C   UNL A   1      43.303  23.337  27.227  1.00  0.00    -0.014 A 
BRANCH  37  38
ATOM     38  C   UNL A   1      43.870  24.665  27.564  1.00  0.00     0.031 A 
ATOM     39  C   UNL A   1      42.933  25.715  28.102  1.00  0.00     0.074 A 
ATOM     40  C   UNL A   1      45.147  24.961  27.251  1.00  0.00     0.049 A 
ATOM     41  N   UNL A   1      43.095  27.006  28.195  1.00  0.00    -0.248 NA
ATOM     42  C   UNL A   1      41.600  25.245  28.525  1.00  0.00     0.031 C 
ATOM     43  C   UNL A   1      46.126  24.026  26.691  1.00  0.00     0.029 A 
ATOM     44  N   UNL A   1      45.831  26.148  27.328  1.00  0.00    -0.354 N 
ATOM     45  C   UNL A   1      41.867  27.508  28.617  1.00  0.00     0.074 A 
ATOM     46  C   UNL A   1      40.960  26.388  28.720  1.00  0.00     0.031 C 
ATOM     47  C   UNL A   1      47.284  24.674  26.481  1.00  0.00     0.029 A 
ATOM     48  C   UNL A   1      47.116  26.079  26.836  1.00  0.00     0.049 A 
ATOM     49  H   UNL A   1      45.441  26.971  27.699  1.00  0.00     0.167 HD
ATOM     50  C   UNL A   1      41.538  28.791  28.902  1.00  0.00     0.034 A 
ATOM     51  C   UNL A   1      48.036  27.050  26.669  1.00  0.00     0.034 A 
ATOM     52  C   UNL A   1      42.491  29.871  28.864  1.00  0.00     0.049 A 
ATOM     53  C   UNL A   1      47.661  28.460  27.061  1.00  0.00     0.074 A 
ATOM     54  C   UNL A   1      42.312  31.191  29.231  1.00  0.00     0.029 A 
ATOM     55  N   UNL A   1      43.810  29.745  28.447  1.00  0.00    -0.354 N 
ATOM     56  N   UNL A   1      46.512  28.915  27.506  1.00  0.00    -0.248 NA
ATOM     57  C   UNL A   1      48.707  29.484  26.941  1.00  0.00     0.031 C 
ATOM     58  C   UNL A   1      43.507  31.876  28.985  1.00  0.00     0.029 A 
ATOM     59  C   UNL A   1      44.452  30.968  28.531  1.00  0.00     0.049 A 
ATOM     60  H   UNL A   1      44.227  28.908  28.136  1.00  0.00     0.167 HD
ATOM     61  C   UNL A   1      46.711  30.270  27.756  1.00  0.00     0.074 A 
ATOM     62  C   UNL A   1      48.094  30.551  27.428  1.00  0.00     0.031 C 
ATOM     63  C   UNL A   1      45.838  31.204  28.211  1.00  0.00     0.034 A 
BRANCH  50  64
ATOM     64  C   UNL A   1      40.103  29.093  29.258  1.00  0.00     0.023 A 
ATOM     65  C   UNL A   1      39.665  29.179  30.591  1.00  0.00     0.031 A 
ATOM     66  C   UNL A   1      39.151  29.291  28.241  1.00  0.00     0.131 A 
ATOM     67  C   UNL A   1      38.306  29.388  30.871  1.00  0.00     0.055 A 
ATOM     68  C   UNL A   1      37.815  29.578  28.525  1.00  0.00     0.041 A 
ATOM     69  F   UNL A   1      39.503  29.198  26.948  1.00  0.00    -0.206 F 
ATOM     70  C   UNL A   1      37.383  29.616  29.848  1.00  0.00     0.022 A 
BRANCH  67  71
ATOM     71  S   UNL A   1      37.741  29.244  32.588  1.00  0.00     0.124 S 
ATOM     72  O   UNL A   1      36.426  29.874  32.517  1.00  0.00    -0.237 OA
ATOM     73  O   UNL A   1      37.747  27.801  32.804  1.00  0.00    -0.237 OA
ATOM     74  O   UNL A   1      38.744  29.992  33.343  1.00  0.00    -0.744 OA
ENDBRANCH  67  71
ENDBRANCH  50  64
BRANCH  51  75
ATOM     75  C   UNL A   1      49.387  26.749  26.106  1.00  0.00     0.023 A 
ATOM     76  C   UNL A   1      49.769  27.253  24.853  1.00  0.00     0.031 A 
ATOM     77  C   UNL A   1      50.288  25.901  26.774  1.00  0.00     0.131 A 
ATOM     78  C   UNL A   1      50.985  26.853  24.274  1.00  0.00     0.055 A 
ATOM     79  C   UNL A   1      51.525  25.556  26.222  1.00  0.00     0.041 A 
ATOM     80  F   UNL A   1      49.981  25.393  27.978  1.00  0.00    -0.206 F 
ATOM     81  C   UNL A   1      51.871  26.017  24.956  1.00  0.00     0.022 A 
BRANCH  78  82
ATOM     82  S   UNL A   1      51.330  27.345  22.562  1.00  0.00     0.124 S 
ATOM     83  O   UNL A   1      50.264  26.666  21.837  1.00  0.00    -0.237 OA
ATOM     84  O   UNL A   1      51.228  28.799  22.641  1.00  0.00    -0.237 OA
ATOM     85  O   UNL A   1      52.677  26.828  22.326  1.00  0.00    -0.744 OA
ENDBRANCH  78  82
ENDBRANCH  51  75
BRANCH  63  86
ATOM     86  C   UNL A   1      46.383  32.590  28.440  1.00  0.00     0.023 A 
ATOM     87  C   UNL A   1      46.551  33.500  27.384  1.00  0.00     0.031 A 
ATOM     88  C   UNL A   1      46.741  32.999  29.736  1.00  0.00     0.131 A 
ATOM     89  C   UNL A   1      47.122  34.755  27.633  1.00  0.00     0.055 A 
ATOM     90  C   UNL A   1      47.251  34.271  29.988  1.00  0.00     0.041 A 
ATOM     91  F   UNL A   1      46.598  32.165  30.780  1.00  0.00    -0.206 F 
ATOM     92  C   UNL A   1      47.457  35.153  28.930  1.00  0.00     0.022 A 
BRANCH  89  93
ATOM     93  S   UNL A   1      47.507  35.827  26.223  1.00  0.00     0.124 S 
ATOM     94  O   UNL A   1      47.557  34.873  25.120  1.00  0.00    -0.237 OA
ATOM     95  O   UNL A   1      46.377  36.750  26.215  1.00  0.00    -0.237 OA
ATOM     96  O   UNL A   1      48.791  36.424  26.587  1.00  0.00    -0.744 OA
ENDBRANCH  89  93
ENDBRANCH  63  86
ENDBRANCH  37  38
ENDBRANCH  29  32
ENDBRANCH  27  28
ENDBRANCH   1  27
TORSDOF 18
ENDMDL
MODEL 2
REMARK VINA RESULT:     -11.8      5.865     10.441
REMARK SMILES CC(C)[NH2+][C@@]1(C(=O)NCCCCNC(=O)c2ccc(-c3c4nc(c(-c5cc(S(=O)(=O)[O-])ccc5F)c5ccc([nH]5)c(-c5cc(S(=O)(=O)[O-])ccc5F)c5nc(c(-c6cc(S(=O)(=O)[O-])ccc6F)c6ccc3[nH]6)C=C5)C=C4)cc2)CCC[C@H](SC2CCCCC2)C1
REMARK SMILES IDX 11 1 10 2 9 3 8 4 6 5 7 6 5 8 79 9 90 10 80 11 82 12 81 13
REMARK SMILES IDX 4 14 2 17 1 18 3 19 83 20 84 21 85 22 89 23 86 24 88 25
REMARK SMILES IDX 87 26 12 27 13 28 14 29 15 31 16 32 17 33 78 34 18 35 77 36
REMARK SMILES IDX 19 37 20 38 21 39 71 40 22 41 76 42 70 43 72 44 23 45 75 46
REMARK SMILES IDX 69 47 68 48 24 50 56 51 36 52 55 53 37 54 40 55 54 56 73 57
REMARK SMILES IDX 38 58 39 59 53 61 74 62 41 63 25 64 26 65 34 66 27 67 33 68
REMARK SMILES IDX 35 69 32 70 28 71 29 72 30 73 31 74 57 75 58 76 66 77 59 78
REMARK SMILES IDX 65 79 67 80 64 81 60 82 61 83 62 84 63 85 42 86 43 87 51 88
REMARK SMILES IDX 44 89 50 90 52 91 49 92 45 93 46 94 47 95 48 96
REMARK H PARENT 8 7 4 15 4 16 13 30 72 49 40 60
REMARK Flexibility Score: inf
ROOT
ATOM      1  C   UNL A   1      33.373  27.817  26.155  1.00  0.00     0.023 C 
ENDROOT
BRANCH   1   2
ATOM      2  C   UNL A   1      32.039  27.730  26.874  1.00  0.00     0.023 C 
BRANCH   2   3
ATOM      3  C   UNL A   1      31.095  26.621  26.446  1.00  0.00     0.116 C 
BRANCH   3   4
ATOM      4  N   UNL A   1      31.613  25.350  26.909  1.00  0.00    -0.351 N 
ATOM      5  C   UNL A   1      31.758  24.137  26.325  1.00  0.00     0.281 C 
ATOM      6  O   UNL A   1      31.821  23.200  27.148  1.00  0.00    -0.268 OA
ATOM      7  H   UNL A   1      31.925  25.374  27.844  1.00  0.00     0.163 HD
BRANCH   5   8
ATOM      8  C   UNL A   1      31.936  23.781  24.763  1.00  0.00     0.176 C 
ATOM      9  C   UNL A   1      33.183  24.390  24.101  1.00  0.00     0.079 C 
ATOM     10  C   UNL A   1      30.630  23.996  23.951  1.00  0.00     0.093 C 
ATOM     11  C   UNL A   1      32.968  25.687  23.323  1.00  0.00     0.008 C 
ATOM     12  C   UNL A   1      30.420  25.251  23.061  1.00  0.00     0.053 C 
ATOM     13  C   UNL A   1      31.743  25.680  22.428  1.00  0.00     0.015 C 
BRANCH   8  14
ATOM     14  N   UNL A   1      32.216  22.291  24.900  1.00  0.00    -0.332 N 
ATOM     15  H   UNL A   1      32.730  22.183  25.774  1.00  0.00     0.347 HD
ATOM     16  H   UNL A   1      31.278  21.904  24.797  1.00  0.00     0.347 HD
BRANCH  14  17
ATOM     17  C   UNL A   1      32.954  21.508  23.909  1.00  0.00     0.176 C 
ATOM     18  C   UNL A   1      33.304  20.186  24.610  1.00  0.00     0.075 C 
ATOM     19  C   UNL A   1      32.159  21.133  22.643  1.00  0.00     0.075 C 
ENDBRANCH  14  17
ENDBRANCH   8  14
BRANCH  12  20
ATOM     20  S   UNL A   1      29.116  26.262  23.875  1.00  0.00    -0.155 SA
BRANCH  20  21
ATOM     21  C   UNL A   1      28.927  27.925  23.122  1.00  0.00     0.047 C 
ATOM     22  C   UNL A   1      27.585  28.639  23.150  1.00  0.00     0.014 C 
ATOM     23  C   UNL A   1      30.051  28.834  23.652  1.00  0.00     0.014 C 
ATOM     24  C   UNL A   1      27.658  29.955  22.373  1.00  0.00     0.001 C 
ATOM     25  C   UNL A   1      30.098  30.169  22.905  1.00  0.00     0.001 C 
ATOM     26  C   UNL A   1      28.745  30.871  22.916  1.00  0.00     0.000 C 
ENDBRANCH  20  21
ENDBRANCH  12  20
ENDBRANCH   5   8
ENDBRANCH   3   4
ENDBRANCH   2   3
ENDBRANCH   1   2
BRANCH   1  27
ATOM     27  C   UNL A   1      33.652  29.161  25.514  1.00  0.00     0.116 C 
BRANCH  27  28
ATOM     28  N   UNL A   1      32.935  30.278  26.121  1.00  0.00    -0.352 N 
ATOM     29  C   UNL A   1      33.374  31.155  27.095  1.00  0.00     0.251 C 
ATOM     30  H   UNL A   1      32.018  30.428  25.791  1.00  0.00     0.163 HD
ATOM     31  O   UNL A   1      32.669  32.063  27.491  1.00  0.00    -0.269 OA
BRANCH  29  32
ATOM     32  C   UNL A   1      34.717  30.948  27.669  1.00  0.00     0.039 A 
ATOM     33  C   UNL A   1      35.657  31.982  27.627  1.00  0.00     0.014 A 
ATOM     34  C   UNL A   1      35.004  29.744  28.309  1.00  0.00     0.014 A 
ATOM     35  C   UNL A   1      36.873  31.826  28.297  1.00  0.00     0.010 A 
ATOM     36  C   UNL A   1      36.158  29.638  29.063  1.00  0.00     0.010 A 
ATOM     37  C   UNL A   1      37.114  30.667  29.049  1.00  0.00    -0.014 A 
BRANCH  37  38
ATOM     38  C   UNL A   1      38.379  30.428  29.786  1.00  0.00     0.031 A 
ATOM     39  C   UNL A   1      39.357  29.441  29.206  1.00  0.00     0.074 A 
ATOM     40  C   UNL A   1      38.566  30.963  31.009  1.00  0.00     0.049 A 
ATOM     41  N   UNL A   1      40.367  28.840  29.772  1.00  0.00    -0.248 NA
ATOM     42  C   UNL A   1      39.111  29.021  27.813  1.00  0.00     0.031 C 
ATOM     43  C   UNL A   1      37.661  31.901  31.678  1.00  0.00     0.029 A 
ATOM     44  N   UNL A   1      39.568  30.764  31.925  1.00  0.00    -0.354 N 
ATOM     45  C   UNL A   1      40.831  27.924  28.832  1.00  0.00     0.074 A 
ATOM     46  C   UNL A   1      39.966  28.019  27.679  1.00  0.00     0.031 C 
ATOM     47  C   UNL A   1      38.153  32.200  32.892  1.00  0.00     0.029 A 
ATOM     48  C   UNL A   1      39.374  31.434  33.113  1.00  0.00     0.049 A 
ATOM     49  H   UNL A   1      40.353  30.196  31.750  1.00  0.00     0.167 HD
ATOM     50  C   UNL A   1      41.894  27.089  28.929  1.00  0.00     0.034 A 
ATOM     51  C   UNL A   1      40.091  31.404  34.254  1.00  0.00     0.034 A 
ATOM     52  C   UNL A   1      42.782  27.078  30.063  1.00  0.00     0.049 A 
ATOM     53  C   UNL A   1      41.310  30.514  34.306  1.00  0.00     0.074 A 
ATOM     54  C   UNL A   1      43.950  26.360  30.237  1.00  0.00     0.029 A 
ATOM     55  N   UNL A   1      42.603  27.838  31.212  1.00  0.00    -0.354 N 
ATOM     56  N   UNL A   1      41.769  29.688  33.392  1.00  0.00    -0.248 NA
ATOM     57  C   UNL A   1      42.116  30.560  35.533  1.00  0.00     0.031 C 
ATOM     58  C   UNL A   1      44.449  26.644  31.512  1.00  0.00     0.029 A 
ATOM     59  C   UNL A   1      43.630  27.593  32.106  1.00  0.00     0.049 A 
ATOM     60  H   UNL A   1      41.855  28.460  31.368  1.00  0.00     0.167 HD
ATOM     61  C   UNL A   1      42.938  29.148  33.922  1.00  0.00     0.074 A 
ATOM     62  C   UNL A   1      43.120  29.755  35.224  1.00  0.00     0.031 C 
ATOM     63  C   UNL A   1      43.786  28.232  33.389  1.00  0.00     0.034 A 
BRANCH  50  64
ATOM     64  C   UNL A   1      42.140  26.120  27.797  1.00  0.00     0.023 A 
ATOM     65  C   UNL A   1      41.624  24.813  27.807  1.00  0.00     0.031 A 
ATOM     66  C   UNL A   1      42.913  26.512  26.690  1.00  0.00     0.131 A 
ATOM     67  C   UNL A   1      41.942  23.925  26.767  1.00  0.00     0.055 A 
ATOM     68  C   UNL A   1      43.160  25.650  25.619  1.00  0.00     0.041 A 
ATOM     69  F   UNL A   1      43.453  27.740  26.633  1.00  0.00    -0.206 F 
ATOM     70  C   UNL A   1      42.683  24.343  25.660  1.00  0.00     0.022 A 
BRANCH  67  71
ATOM     71  S   UNL A   1      41.468  22.183  26.938  1.00  0.00     0.124 S 
ATOM     72  O   UNL A   1      40.031  22.293  27.178  1.00  0.00    -0.237 OA
ATOM     73  O   UNL A   1      41.859  21.620  25.650  1.00  0.00    -0.237 OA
ATOM     74  O   UNL A   1      42.252  21.725  28.083  1.00  0.00    -0.744 OA
ENDBRANCH  67  71
ENDBRANCH  50  64
BRANCH  51  75
ATOM     75  C   UNL A   1      39.692  32.220  35.441  1.00  0.00     0.023 A 
ATOM     76  C   UNL A   1      38.905  31.663  36.462  1.00  0.00     0.031 A 
ATOM     77  C   UNL A   1      40.029  33.581  35.543  1.00  0.00     0.131 A 
ATOM     78  C   UNL A   1      38.423  32.474  37.502  1.00  0.00     0.055 A 
ATOM     79  C   UNL A   1      39.599  34.371  36.613  1.00  0.00     0.041 A 
ATOM     80  F   UNL A   1      40.783  34.169  34.601  1.00  0.00    -0.206 F 
ATOM     81  C   UNL A   1      38.775  33.822  37.591  1.00  0.00     0.022 A 
BRANCH  78  82
ATOM     82  S   UNL A   1      37.227  31.765  38.667  1.00  0.00     0.124 S 
ATOM     83  O   UNL A   1      36.100  32.682  38.531  1.00  0.00    -0.237 OA
ATOM     84  O   UNL A   1      37.034  30.426  38.122  1.00  0.00    -0.237 OA
ATOM     85  O   UNL A   1      37.928  31.821  39.949  1.00  0.00    -0.744 OA
ENDBRANCH  78  82
ENDBRANCH  51  75
BRANCH  63  86
ATOM     86  C   UNL A   1      45.014  27.894  34.195  1.00  0.00     0.023 A 
ATOM     87  C   UNL A   1      45.029  26.823  35.103  1.00  0.00     0.031 A 
ATOM     88  C   UNL A   1      46.182  28.663  34.050  1.00  0.00     0.131 A 
ATOM     89  C   UNL A   1      46.172  26.586  35.878  1.00  0.00     0.055 A 
ATOM     90  C   UNL A   1      47.337  28.383  34.779  1.00  0.00     0.041 A 
ATOM     91  F   UNL A   1      46.219  29.697  33.193  1.00  0.00    -0.206 F 
ATOM     92  C   UNL A   1      47.332  27.348  35.709  1.00  0.00     0.022 A 
BRANCH  89  93
ATOM     93  S   UNL A   1      46.091  25.325  37.178  1.00  0.00     0.124 S 
ATOM     94  O   UNL A   1      47.290  24.536  36.910  1.00  0.00    -0.237 OA
ATOM     95  O   UNL A   1      46.118  26.129  38.395  1.00  0.00    -0.237 OA
ATOM     96  O   UNL A   1      44.826  24.642  36.915  1.00  0.00    -0.744 OA
ENDBRANCH  89  93
ENDBRANCH  63  86
ENDBRANCH  37  38
ENDBRANCH  29  32
ENDBRANCH  27  28
ENDBRANCH   1  27
TORSDOF 18
ENDMDL
MODEL 3
REMARK VINA RESULT:     -11.8      6.024     11.936
REMARK SMILES CC(C)[NH2+][C@@]1(C(=O)NCCCCNC(=O)c2ccc(-c3c4nc(c(-c5cc(S(=O)(=O)[O-])ccc5F)c5ccc([nH]5)c(-c5cc(S(=O)(=O)[O-])ccc5F)c5nc(c(-c6cc(S(=O)(=O)[O-])ccc6F)c6ccc3[nH]6)C=C5)C=C4)cc2)CCC[C@H](SC2CCCCC2)C1
REMARK SMILES IDX 11 1 10 2 9 3 8 4 6 5 7 6 5 8 79 9 90 10 80 11 82 12 81 13
REMARK SMILES IDX 4 14 2 17 1 18 3 19 83 20 84 21 85 22 89 23 86 24 88 25
REMARK SMILES IDX 87 26 12 27 13 28 14 29 15 31 16 32 17 33 78 34 18 35 77 36
REMARK SMILES IDX 19 37 20 38 21 39 71 40 22 41 76 42 70 43 72 44 23 45 75 46
REMARK SMILES IDX 69 47 68 48 24 50 56 51 36 52 55 53 37 54 40 55 54 56 73 57
REMARK SMILES IDX 38 58 39 59 53 61 74 62 41 63 25 64 26 65 34 66 27 67 33 68
REMARK SMILES IDX 35 69 32 70 28 71 29 72 30 73 31 74 57 75 58 76 66 77 59 78
REMARK SMILES IDX 65 79 67 80 64 81 60 82 61 83 62 84 63 85 42 86 43 87 51 88
REMARK SMILES IDX 44 89 50 90 52 91 49 92 45 93 46 94 47 95 48 96
REMARK H PARENT 8 7 4 15 4 16 13 30 72 49 40 60
REMARK Flexibility Score: inf
ROOT
ATOM      1  C   UNL A   1      31.736  31.698  27.184  1.00  0.00     0.023 C 
ENDROOT
BRANCH   1   2
ATOM      2  C   UNL A   1      31.757  30.830  25.939  1.00  0.00     0.023 C 
BRANCH   2   3
ATOM      3  C   UNL A   1      32.877  29.811  25.827  1.00  0.00     0.116 C 
BRANCH   3   4
ATOM      4  N   UNL A   1      33.239  29.653  24.434  1.00  0.00    -0.351 N 
ATOM      5  C   UNL A   1      32.771  28.869  23.434  1.00  0.00     0.281 C 
ATOM      6  O   UNL A   1      33.601  28.691  22.519  1.00  0.00    -0.268 OA
ATOM      7  H   UNL A   1      33.982  30.238  24.156  1.00  0.00     0.163 HD
BRANCH   5   8
ATOM      8  C   UNL A   1      31.300  28.234  23.251  1.00  0.00     0.176 C 
ATOM      9  C   UNL A   1      30.618  27.801  24.560  1.00  0.00     0.079 C 
ATOM     10  C   UNL A   1      31.252  27.156  22.135  1.00  0.00     0.093 C 
ATOM     11  C   UNL A   1      30.726  26.320  24.918  1.00  0.00     0.008 C 
ATOM     12  C   UNL A   1      31.249  25.639  22.466  1.00  0.00     0.053 C 
ATOM     13  C   UNL A   1      30.473  25.378  23.756  1.00  0.00     0.015 C 
BRANCH   8  14
ATOM     14  N   UNL A   1      30.568  29.486  22.789  1.00  0.00    -0.332 N 
ATOM     15  H   UNL A   1      31.069  30.271  23.205  1.00  0.00     0.347 HD
ATOM     16  H   UNL A   1      30.564  29.350  21.778  1.00  0.00     0.347 HD
BRANCH  14  17
ATOM     17  C   UNL A   1      29.150  29.740  23.045  1.00  0.00     0.176 C 
ATOM     18  C   UNL A   1      29.093  31.144  23.667  1.00  0.00     0.075 C 
ATOM     19  C   UNL A   1      28.253  29.781  21.793  1.00  0.00     0.075 C 
ENDBRANCH  14  17
ENDBRANCH   8  14
BRANCH  12  20
ATOM     20  S   UNL A   1      32.872  24.976  21.908  1.00  0.00    -0.155 SA
BRANCH  20  21
ATOM     21  C   UNL A   1      33.888  24.318  23.287  1.00  0.00     0.047 C 
ATOM     22  C   UNL A   1      34.233  25.193  24.481  1.00  0.00     0.014 C 
ATOM     23  C   UNL A   1      33.289  22.973  23.739  1.00  0.00     0.014 C 
ATOM     24  C   UNL A   1      35.168  24.455  25.440  1.00  0.00     0.001 C 
ATOM     25  C   UNL A   1      34.203  22.252  24.733  1.00  0.00     0.001 C 
ATOM     26  C   UNL A   1      34.565  23.141  25.917  1.00  0.00     0.000 C 
ENDBRANCH  20  21
ENDBRANCH  12  20
ENDBRANCH   5   8
ENDBRANCH   3   4
ENDBRANCH   2   3
ENDBRANCH   1   2
BRANCH   1  27
ATOM     27  C   UNL A   1      32.863  32.707  27.261  1.00  0.00     0.116 C 
BRANCH  27  28
ATOM     28  N   UNL A   1      32.507  33.960  27.919  1.00  0.00    -0.352 N 
ATOM     29  C   UNL A   1      33.204  34.648  28.895  1.00  0.00     0.251 C 
ATOM     30  H   UNL A   1      31.660  34.370  27.628  1.00  0.00     0.163 HD
ATOM     31  O   UNL A   1      32.794  35.704  29.337  1.00  0.00    -0.269 OA
BRANCH  29  32
ATOM     32  C   UNL A   1      34.452  34.055  29.413  1.00  0.00     0.039 A 
ATOM     33  C   UNL A   1      35.681  34.442  28.870  1.00  0.00     0.014 A 
ATOM     34  C   UNL A   1      34.389  33.169  30.486  1.00  0.00     0.014 A 
ATOM     35  C   UNL A   1      36.862  33.984  29.461  1.00  0.00     0.010 A 
ATOM     36  C   UNL A   1      35.556  32.810  31.134  1.00  0.00     0.010 A 
ATOM     37  C   UNL A   1      36.805  33.195  30.618  1.00  0.00    -0.014 A 
BRANCH  37  38
ATOM     38  C   UNL A   1      38.012  32.671  31.302  1.00  0.00     0.031 A 
ATOM     39  C   UNL A   1      38.759  31.540  30.644  1.00  0.00     0.074 A 
ATOM     40  C   UNL A   1      38.330  33.092  32.542  1.00  0.00     0.049 A 
ATOM     41  N   UNL A   1      39.641  30.721  31.149  1.00  0.00    -0.248 NA
ATOM     42  C   UNL A   1      38.403  31.252  29.242  1.00  0.00     0.031 C 
ATOM     43  C   UNL A   1      37.646  34.155  33.283  1.00  0.00     0.029 A 
ATOM     44  N   UNL A   1      39.292  32.650  33.414  1.00  0.00    -0.354 N 
ATOM     45  C   UNL A   1      39.891  29.781  30.152  1.00  0.00     0.074 A 
ATOM     46  C   UNL A   1      39.036  30.108  29.033  1.00  0.00     0.031 C 
ATOM     47  C   UNL A   1      38.215  34.286  34.493  1.00  0.00     0.029 A 
ATOM     48  C   UNL A   1      39.263  33.281  34.638  1.00  0.00     0.049 A 
ATOM     49  H   UNL A   1      39.943  31.947  33.187  1.00  0.00     0.167 HD
ATOM     50  C   UNL A   1      40.766  28.748  30.174  1.00  0.00     0.034 A 
ATOM     51  C   UNL A   1      39.985  33.050  35.753  1.00  0.00     0.034 A 
ATOM     52  C   UNL A   1      41.659  28.501  31.277  1.00  0.00     0.049 A 
ATOM     53  C   UNL A   1      41.002  31.934  35.723  1.00  0.00     0.074 A 
ATOM     54  C   UNL A   1      42.663  27.556  31.379  1.00  0.00     0.029 A 
ATOM     55  N   UNL A   1      41.662  29.220  32.466  1.00  0.00    -0.354 N 
ATOM     56  N   UNL A   1      41.265  31.082  34.757  1.00  0.00    -0.248 NA
ATOM     57  C   UNL A   1      41.828  31.754  36.923  1.00  0.00     0.031 C 
ATOM     58  C   UNL A   1      43.237  27.669  32.649  1.00  0.00     0.029 A 
ATOM     59  C   UNL A   1      42.639  28.729  33.314  1.00  0.00     0.049 A 
ATOM     60  H   UNL A   1      41.057  29.969  32.675  1.00  0.00     0.167 HD
ATOM     61  C   UNL A   1      42.313  30.293  35.222  1.00  0.00     0.074 A 
ATOM     62  C   UNL A   1      42.643  30.782  36.545  1.00  0.00     0.031 C 
ATOM     63  C   UNL A   1      42.949  29.255  34.620  1.00  0.00     0.034 A 
BRANCH  50  64
ATOM     64  C   UNL A   1      40.787  27.811  28.991  1.00  0.00     0.023 A 
ATOM     65  C   UNL A   1      41.730  27.933  27.956  1.00  0.00     0.031 A 
ATOM     66  C   UNL A   1      39.837  26.777  28.894  1.00  0.00     0.131 A 
ATOM     67  C   UNL A   1      41.662  27.084  26.841  1.00  0.00     0.055 A 
ATOM     68  C   UNL A   1      39.824  25.884  27.821  1.00  0.00     0.041 A 
ATOM     69  F   UNL A   1      38.896  26.623  29.840  1.00  0.00    -0.206 F 
ATOM     70  C   UNL A   1      40.734  26.043  26.780  1.00  0.00     0.022 A 
BRANCH  67  71
ATOM     71  S   UNL A   1      42.732  27.432  25.419  1.00  0.00     0.124 S 
ATOM     72  O   UNL A   1      42.668  26.169  24.689  1.00  0.00    -0.237 OA
ATOM     73  O   UNL A   1      42.066  28.567  24.790  1.00  0.00    -0.237 OA
ATOM     74  O   UNL A   1      44.027  27.728  26.028  1.00  0.00    -0.744 OA
ENDBRANCH  67  71
ENDBRANCH  50  64
BRANCH  51  75
ATOM     75  C   UNL A   1      39.784  33.866  36.988  1.00  0.00     0.023 A 
ATOM     76  C   UNL A   1      39.338  33.267  38.177  1.00  0.00     0.031 A 
ATOM     77  C   UNL A   1      39.968  35.259  36.986  1.00  0.00     0.131 A 
ATOM     78  C   UNL A   1      39.023  34.062  39.291  1.00  0.00     0.055 A 
ATOM     79  C   UNL A   1      39.714  36.040  38.117  1.00  0.00     0.041 A 
ATOM     80  F   UNL A   1      40.400  35.888  35.881  1.00  0.00    -0.206 F 
ATOM     81  C   UNL A   1      39.219  35.444  39.273  1.00  0.00     0.022 A 
BRANCH  78  82
ATOM     82  S   UNL A   1      38.234  33.272  40.722  1.00  0.00     0.124 S 
ATOM     83  O   UNL A   1      36.952  33.966  40.775  1.00  0.00    -0.237 OA
ATOM     84  O   UNL A   1      38.191  31.874  40.307  1.00  0.00    -0.237 OA
ATOM     85  O   UNL A   1      39.151  33.567  41.821  1.00  0.00    -0.744 OA
ENDBRANCH  78  82
ENDBRANCH  51  75
BRANCH  63  86
ATOM     86  C   UNL A   1      44.102  28.638  35.368  1.00  0.00     0.023 A 
ATOM     87  C   UNL A   1      43.909  27.603  36.297  1.00  0.00     0.031 A 
ATOM     88  C   UNL A   1      45.411  29.101  35.147  1.00  0.00     0.131 A 
ATOM     89  C   UNL A   1      45.002  27.104  37.017  1.00  0.00     0.055 A 
ATOM     90  C   UNL A   1      46.503  28.558  35.821  1.00  0.00     0.041 A 
ATOM     91  F   UNL A   1      45.647  30.089  34.268  1.00  0.00    -0.206 F 
ATOM     92  C   UNL A   1      46.300  27.561  36.773  1.00  0.00     0.022 A 
BRANCH  89  93
ATOM     93  S   UNL A   1      44.692  25.909  38.345  1.00  0.00     0.124 S 
ATOM     94  O   UNL A   1      43.597  26.543  39.073  1.00  0.00    -0.237 OA
ATOM     95  O   UNL A   1      44.349  24.700  37.604  1.00  0.00    -0.237 OA
ATOM     96  O   UNL A   1      45.965  25.856  39.062  1.00  0.00    -0.744 OA
ENDBRANCH  89  93
ENDBRANCH  63  86
ENDBRANCH  37  38
ENDBRANCH  29  32
ENDBRANCH  27  28
ENDBRANCH   1  27
TORSDOF 18
ENDMDL
