MODEL 1
REMARK VINA RESULT:     -12.6      0.000      0.000
REMARK SMILES C[C@H](NC(=O)c1cccc(NC(=O)c2ccccc2C(=O)NCCCCNC(=O)c2ccc(-c3c4nc(c(-c5cc(S(=O)(=O)[O-])ccc5F)c5ccc([nH]5)c(-c5cc(S(=O)(=O)[O-])ccc5F)c5nc(c(-c6cc(S(=O)(=O)[O-])ccc6F)c6ccc3[nH]6)C=C5)C=C4)cc2)c1)c1ccccc1
REMARK SMILES IDX 23 1 22 2 20 3 21 4 19 6 14 7 15 8 16 9 18 10 17 11 12 12
REMARK SMILES IDX 11 13 13 15 10 16 6 17 7 18 93 19 8 20 9 21 4 22 3 23 5 25
REMARK SMILES IDX 2 26 1 27 94 28 95 29 99 30 96 31 98 32 97 33 24 34 25 35
REMARK SMILES IDX 26 36 27 37 28 38 29 40 30 41 31 42 92 43 32 44 91 45 33 46
REMARK SMILES IDX 34 47 35 48 85 49 36 50 90 51 84 52 86 53 37 54 89 55 83 56
REMARK SMILES IDX 82 57 38 59 70 60 50 61 69 62 51 63 54 64 68 65 87 66 52 67
REMARK SMILES IDX 53 68 67 70 88 71 55 72 39 73 40 74 48 75 41 76 47 77 49 78
REMARK SMILES IDX 46 79 42 80 43 81 44 82 45 83 71 84 72 85 80 86 73 87 79 88
REMARK SMILES IDX 81 89 78 90 74 91 75 92 76 93 77 94 56 95 57 96 65 97 58 98
REMARK SMILES IDX 64 99 66 100 63 101 59 102 60 103 61 104 62 105
REMARK H PARENT 22 5 11 14 3 24 27 39 86 58 54 69
REMARK Flexibility Score: inf
ROOT
ATOM      1  C   UNL A   1      32.082  30.202  26.693  1.00  0.00     0.116 C 
ENDROOT
BRANCH   1   2
ATOM      2  N   UNL A   1      33.045  29.660  25.758  1.00  0.00    -0.352 N 
ATOM      3  C   UNL A   1      32.886  28.799  24.704  1.00  0.00     0.252 C 
ATOM      4  O   UNL A   1      33.891  28.471  24.071  1.00  0.00    -0.269 OA
ATOM      5  H   UNL A   1      33.972  29.962  25.904  1.00  0.00     0.163 HD
BRANCH   3   6
ATOM      6  C   UNL A   1      31.590  28.170  24.338  1.00  0.00     0.052 A 
ATOM      7  C   UNL A   1      30.960  27.094  24.980  1.00  0.00     0.052 A 
ATOM      8  C   UNL A   1      29.740  26.597  24.478  1.00  0.00     0.014 A 
ATOM      9  C   UNL A   1      29.097  27.218  23.409  1.00  0.00     0.001 A 
ATOM     10  C   UNL A   1      30.903  28.807  23.281  1.00  0.00     0.014 A 
ATOM     11  C   UNL A   1      29.667  28.342  22.826  1.00  0.00     0.001 A 
BRANCH   7  12
ATOM     12  C   UNL A   1      31.458  26.395  26.179  1.00  0.00     0.256 C 
ATOM     13  N   UNL A   1      32.212  25.247  26.134  1.00  0.00    -0.322 N 
ATOM     14  H   UNL A   1      32.332  24.814  27.010  1.00  0.00     0.170 HD
ATOM     15  O   UNL A   1      31.122  26.850  27.275  1.00  0.00    -0.269 OA
BRANCH  13  16
ATOM     16  C   UNL A   1      32.842  24.575  25.076  1.00  0.00     0.042 A 
ATOM     17  C   UNL A   1      32.854  22.652  23.613  1.00  0.00     0.041 A 
ATOM     18  C   UNL A   1      33.928  23.196  22.901  1.00  0.00     0.014 A 
ATOM     19  C   UNL A   1      32.325  23.320  24.719  1.00  0.00     0.040 A 
ATOM     20  C   UNL A   1      34.476  24.411  23.291  1.00  0.00     0.003 A 
ATOM     21  C   UNL A   1      33.943  25.091  24.386  1.00  0.00     0.026 A 
BRANCH  17  22
ATOM     22  C   UNL A   1      32.368  21.339  23.166  1.00  0.00     0.251 C 
ATOM     23  N   UNL A   1      32.413  20.234  23.967  1.00  0.00    -0.346 N 
ATOM     24  H   UNL A   1      31.911  19.470  23.602  1.00  0.00     0.164 HD
ATOM     25  O   UNL A   1      31.813  21.276  22.070  1.00  0.00    -0.269 OA
BRANCH  23  26
ATOM     26  C   UNL A   1      33.052  19.939  25.259  1.00  0.00     0.109 C 
ATOM     27  C   UNL A   1      32.711  18.515  25.722  1.00  0.00     0.036 C 
BRANCH  26  28
ATOM     28  C   UNL A   1      34.570  20.206  25.210  1.00  0.00    -0.026 A 
ATOM     29  C   UNL A   1      35.479  19.229  24.754  1.00  0.00     0.006 A 
ATOM     30  C   UNL A   1      35.131  21.412  25.682  1.00  0.00     0.006 A 
ATOM     31  C   UNL A   1      36.859  19.471  24.705  1.00  0.00     0.000 A 
ATOM     32  C   UNL A   1      36.509  21.660  25.616  1.00  0.00     0.000 A 
ATOM     33  C   UNL A   1      37.371  20.692  25.122  1.00  0.00     0.000 A 
ENDBRANCH  26  28
ENDBRANCH  23  26
ENDBRANCH  17  22
ENDBRANCH  13  16
ENDBRANCH   7  12
ENDBRANCH   3   6
ENDBRANCH   1   2
BRANCH   1  34
ATOM     34  C   UNL A   1      31.222  31.323  26.119  1.00  0.00     0.023 C 
BRANCH  34  35
ATOM     35  C   UNL A   1      31.401  32.705  26.759  1.00  0.00     0.023 C 
BRANCH  35  36
ATOM     36  C   UNL A   1      32.823  33.107  27.145  1.00  0.00     0.116 C 
BRANCH  36  37
ATOM     37  N   UNL A   1      32.898  34.263  28.022  1.00  0.00    -0.352 N 
ATOM     38  C   UNL A   1      33.781  34.559  29.040  1.00  0.00     0.251 C 
ATOM     39  H   UNL A   1      32.208  34.947  27.863  1.00  0.00     0.163 HD
ATOM     40  O   UNL A   1      33.611  35.569  29.708  1.00  0.00    -0.269 OA
BRANCH  38  41
ATOM     41  C   UNL A   1      34.896  33.636  29.361  1.00  0.00     0.039 A 
ATOM     42  C   UNL A   1      36.186  33.977  28.945  1.00  0.00     0.014 A 
ATOM     43  C   UNL A   1      34.685  32.459  30.080  1.00  0.00     0.014 A 
ATOM     44  C   UNL A   1      37.276  33.197  29.347  1.00  0.00     0.010 A 
ATOM     45  C   UNL A   1      35.779  31.728  30.542  1.00  0.00     0.010 A 
ATOM     46  C   UNL A   1      37.088  32.100  30.203  1.00  0.00    -0.014 A 
BRANCH  46  47
ATOM     47  C   UNL A   1      38.242  31.358  30.783  1.00  0.00     0.031 A 
ATOM     48  C   UNL A   1      38.786  31.724  32.137  1.00  0.00     0.074 A 
ATOM     49  C   UNL A   1      38.852  30.402  30.053  1.00  0.00     0.049 A 
ATOM     50  N   UNL A   1      39.828  31.248  32.768  1.00  0.00    -0.248 NA
ATOM     51  C   UNL A   1      38.075  32.785  32.866  1.00  0.00     0.031 C 
ATOM     52  C   UNL A   1      38.457  29.987  28.705  1.00  0.00     0.029 A 
ATOM     53  N   UNL A   1      39.938  29.609  30.334  1.00  0.00    -0.354 N 
ATOM     54  C   UNL A   1      39.907  31.955  33.963  1.00  0.00     0.074 A 
ATOM     55  C   UNL A   1      38.842  32.935  33.936  1.00  0.00     0.031 C 
ATOM     56  C   UNL A   1      39.267  29.000  28.290  1.00  0.00     0.029 A 
ATOM     57  C   UNL A   1      40.271  28.741  29.319  1.00  0.00     0.049 A 
ATOM     58  H   UNL A   1      40.433  29.657  31.184  1.00  0.00     0.167 HD
ATOM     59  C   UNL A   1      40.770  31.786  34.998  1.00  0.00     0.034 A 
ATOM     60  C   UNL A   1      41.274  27.846  29.218  1.00  0.00     0.034 A 
ATOM     61  C   UNL A   1      41.819  30.796  35.019  1.00  0.00     0.049 A 
ATOM     62  C   UNL A   1      42.234  27.693  30.371  1.00  0.00     0.074 A 
ATOM     63  C   UNL A   1      42.713  30.508  36.037  1.00  0.00     0.029 A 
ATOM     64  N   UNL A   1      42.121  29.933  33.974  1.00  0.00    -0.354 N 
ATOM     65  N   UNL A   1      42.264  28.340  31.512  1.00  0.00    -0.248 NA
ATOM     66  C   UNL A   1      43.288  26.680  30.223  1.00  0.00     0.031 C 
ATOM     67  C   UNL A   1      43.594  29.520  35.584  1.00  0.00     0.029 A 
ATOM     68  C   UNL A   1      43.207  29.136  34.311  1.00  0.00     0.049 A 
ATOM     69  H   UNL A   1      41.637  29.892  33.118  1.00  0.00     0.167 HD
ATOM     70  C   UNL A   1      43.323  27.790  32.231  1.00  0.00     0.074 A 
ATOM     71  C   UNL A   1      43.895  26.751  31.399  1.00  0.00     0.031 C 
ATOM     72  C   UNL A   1      43.778  28.112  33.468  1.00  0.00     0.034 A 
BRANCH  59  73
ATOM     73  C   UNL A   1      40.621  32.715  36.181  1.00  0.00     0.023 A 
ATOM     74  C   UNL A   1      39.725  32.436  37.228  1.00  0.00     0.031 A 
ATOM     75  C   UNL A   1      41.362  33.907  36.250  1.00  0.00     0.131 A 
ATOM     76  C   UNL A   1      39.532  33.373  38.254  1.00  0.00     0.055 A 
ATOM     77  C   UNL A   1      41.227  34.796  37.318  1.00  0.00     0.041 A 
ATOM     78  F   UNL A   1      42.220  34.236  35.271  1.00  0.00    -0.206 F 
ATOM     79  C   UNL A   1      40.296  34.540  38.320  1.00  0.00     0.022 A 
BRANCH  76  80
ATOM     80  S   UNL A   1      38.166  33.112  39.417  1.00  0.00     0.124 S 
ATOM     81  O   UNL A   1      38.307  34.269  40.299  1.00  0.00    -0.237 OA
ATOM     82  O   UNL A   1      37.000  33.116  38.540  1.00  0.00    -0.237 OA
ATOM     83  O   UNL A   1      38.480  31.826  40.033  1.00  0.00    -0.744 OA
ENDBRANCH  76  80
ENDBRANCH  59  73
BRANCH  60  84
ATOM     84  C   UNL A   1      41.437  27.030  27.982  1.00  0.00     0.023 A 
ATOM     85  C   UNL A   1      41.093  25.669  27.963  1.00  0.00     0.031 A 
ATOM     86  C   UNL A   1      41.982  27.588  26.811  1.00  0.00     0.131 A 
ATOM     87  C   UNL A   1      41.341  24.899  26.816  1.00  0.00     0.055 A 
ATOM     88  C   UNL A   1      42.179  26.831  25.655  1.00  0.00     0.041 A 
ATOM     89  F   UNL A   1      42.323  28.886  26.774  1.00  0.00    -0.206 F 
ATOM     90  C   UNL A   1      41.869  25.475  25.658  1.00  0.00     0.022 A 
BRANCH  87  91
ATOM     91  S   UNL A   1      41.037  23.112  26.886  1.00  0.00     0.124 S 
ATOM     92  O   UNL A   1      41.510  22.783  28.225  1.00  0.00    -0.237 OA
ATOM     93  O   UNL A   1      39.594  23.043  26.679  1.00  0.00    -0.237 OA
ATOM     94  O   UNL A   1      41.848  22.587  25.789  1.00  0.00    -0.744 OA
ENDBRANCH  87  91
ENDBRANCH  60  84
BRANCH  72  95
ATOM     95  C   UNL A   1      44.928  27.298  34.008  1.00  0.00     0.023 A 
ATOM     96  C   UNL A   1      44.720  26.190  34.850  1.00  0.00     0.031 A 
ATOM     97  C   UNL A   1      46.252  27.646  33.688  1.00  0.00     0.131 A 
ATOM     98  C   UNL A   1      45.821  25.503  35.385  1.00  0.00     0.055 A 
ATOM     99  C   UNL A   1      47.341  26.924  34.176  1.00  0.00     0.041 A 
ATOM    100  F   UNL A   1      46.509  28.697  32.891  1.00  0.00    -0.206 F 
ATOM    101  C   UNL A   1      47.129  25.853  35.040  1.00  0.00     0.022 A 
BRANCH  98 102
ATOM    102  S   UNL A   1      45.523  24.198  36.608  1.00  0.00     0.124 S 
ATOM    103  O   UNL A   1      46.830  24.076  37.246  1.00  0.00    -0.237 OA
ATOM    104  O   UNL A   1      44.464  24.776  37.430  1.00  0.00    -0.237 OA
ATOM    105  O   UNL A   1      45.120  23.052  35.796  1.00  0.00    -0.744 OA
ENDBRANCH  98 102
ENDBRANCH  72  95
ENDBRANCH  46  47
ENDBRANCH  38  41
ENDBRANCH  36  37
ENDBRANCH  35  36
ENDBRANCH  34  35
ENDBRANCH   1  34
TORSDOF 19
ENDMDL
MODEL 2
REMARK VINA RESULT:     -12.5      1.783      2.402
REMARK SMILES C[C@H](NC(=O)c1cccc(NC(=O)c2ccccc2C(=O)NCCCCNC(=O)c2ccc(-c3c4nc(c(-c5cc(S(=O)(=O)[O-])ccc5F)c5ccc([nH]5)c(-c5cc(S(=O)(=O)[O-])ccc5F)c5nc(c(-c6cc(S(=O)(=O)[O-])ccc6F)c6ccc3[nH]6)C=C5)C=C4)cc2)c1)c1ccccc1
REMARK SMILES IDX 23 1 22 2 20 3 21 4 19 6 14 7 15 8 16 9 18 10 17 11 12 12
REMARK SMILES IDX 11 13 13 15 10 16 6 17 7 18 93 19 8 20 9 21 4 22 3 23 5 25
REMARK SMILES IDX 2 26 1 27 94 28 95 29 99 30 96 31 98 32 97 33 24 34 25 35
REMARK SMILES IDX 26 36 27 37 28 38 29 40 30 41 31 42 92 43 32 44 91 45 33 46
REMARK SMILES IDX 34 47 35 48 85 49 36 50 90 51 84 52 86 53 37 54 89 55 83 56
REMARK SMILES IDX 82 57 38 59 70 60 50 61 69 62 51 63 54 64 68 65 87 66 52 67
REMARK SMILES IDX 53 68 67 70 88 71 55 72 39 73 40 74 48 75 41 76 47 77 49 78
REMARK SMILES IDX 46 79 42 80 43 81 44 82 45 83 71 84 72 85 80 86 73 87 79 88
REMARK SMILES IDX 81 89 78 90 74 91 75 92 76 93 77 94 56 95 57 96 65 97 58 98
REMARK SMILES IDX 64 99 66 100 63 101 59 102 60 103 61 104 62 105
REMARK H PARENT 22 5 11 14 3 24 27 39 86 58 54 69
REMARK Flexibility Score: inf
ROOT
ATOM      1  C   UNL A   1      32.911  29.921  26.520  1.00  0.00     0.116 C 
ENDROOT
BRANCH   1   2
ATOM      2  N   UNL A   1      33.697  29.375  25.433  1.00  0.00    -0.352 N 
ATOM      3  C   UNL A   1      33.336  28.582  24.376  1.00  0.00     0.252 C 
ATOM      4  O   UNL A   1      34.220  28.231  23.592  1.00  0.00    -0.269 OA
ATOM      5  H   UNL A   1      34.652  29.615  25.459  1.00  0.00     0.163 HD
BRANCH   3   6
ATOM      6  C   UNL A   1      31.963  28.050  24.170  1.00  0.00     0.052 A 
ATOM      7  C   UNL A   1      31.279  27.137  24.986  1.00  0.00     0.052 A 
ATOM      8  C   UNL A   1      29.985  26.709  24.624  1.00  0.00     0.014 A 
ATOM      9  C   UNL A   1      29.332  27.251  23.518  1.00  0.00     0.001 A 
ATOM     10  C   UNL A   1      31.270  28.614  23.077  1.00  0.00     0.014 A 
ATOM     11  C   UNL A   1      29.966  28.226  22.758  1.00  0.00     0.001 A 
BRANCH   7  12
ATOM     12  C   UNL A   1      31.789  26.549  26.239  1.00  0.00     0.256 C 
ATOM     13  N   UNL A   1      32.559  25.413  26.290  1.00  0.00    -0.322 N 
ATOM     14  H   UNL A   1      32.687  25.058  27.199  1.00  0.00     0.170 HD
ATOM     15  O   UNL A   1      31.448  27.092  27.292  1.00  0.00    -0.269 OA
BRANCH  13  16
ATOM     16  C   UNL A   1      33.196  24.662  25.291  1.00  0.00     0.042 A 
ATOM     17  C   UNL A   1      33.078  22.782  23.778  1.00  0.00     0.041 A 
ATOM     18  C   UNL A   1      34.302  23.154  23.214  1.00  0.00     0.014 A 
ATOM     19  C   UNL A   1      32.533  23.512  24.836  1.00  0.00     0.040 A 
ATOM     20  C   UNL A   1      34.986  24.259  23.704  1.00  0.00     0.003 A 
ATOM     21  C   UNL A   1      34.440  25.001  24.751  1.00  0.00     0.026 A 
BRANCH  17  22
ATOM     22  C   UNL A   1      32.446  21.571  23.235  1.00  0.00     0.251 C 
ATOM     23  N   UNL A   1      32.662  20.333  23.771  1.00  0.00    -0.346 N 
ATOM     24  H   UNL A   1      32.056  19.645  23.414  1.00  0.00     0.164 HD
ATOM     25  O   UNL A   1      31.621  21.709  22.334  1.00  0.00    -0.269 OA
BRANCH  23  26
ATOM     26  C   UNL A   1      33.609  19.808  24.767  1.00  0.00     0.109 C 
ATOM     27  C   UNL A   1      33.382  20.471  26.135  1.00  0.00     0.036 C 
BRANCH  26  28
ATOM     28  C   UNL A   1      33.561  18.268  24.833  1.00  0.00    -0.026 A 
ATOM     29  C   UNL A   1      34.387  17.465  24.020  1.00  0.00     0.006 A 
ATOM     30  C   UNL A   1      32.643  17.585  25.660  1.00  0.00     0.006 A 
ATOM     31  C   UNL A   1      34.348  16.065  24.082  1.00  0.00     0.000 A 
ATOM     32  C   UNL A   1      32.617  16.186  25.735  1.00  0.00     0.000 A 
ATOM     33  C   UNL A   1      33.473  15.427  24.950  1.00  0.00     0.000 A 
ENDBRANCH  26  28
ENDBRANCH  23  26
ENDBRANCH  17  22
ENDBRANCH  13  16
ENDBRANCH   7  12
ENDBRANCH   3   6
ENDBRANCH   1   2
BRANCH   1  34
ATOM     34  C   UNL A   1      31.757  30.811  26.066  1.00  0.00     0.023 C 
BRANCH  34  35
ATOM     35  C   UNL A   1      31.470  32.038  26.938  1.00  0.00     0.023 C 
BRANCH  35  36
ATOM     36  C   UNL A   1      32.678  32.768  27.522  1.00  0.00     0.116 C 
BRANCH  36  37
ATOM     37  N   UNL A   1      32.439  34.168  27.826  1.00  0.00    -0.352 N 
ATOM     38  C   UNL A   1      33.068  35.011  28.720  1.00  0.00     0.251 C 
ATOM     39  H   UNL A   1      31.710  34.584  27.311  1.00  0.00     0.163 HD
ATOM     40  O   UNL A   1      32.648  36.149  28.870  1.00  0.00    -0.269 OA
BRANCH  38  41
ATOM     41  C   UNL A   1      34.210  34.528  29.533  1.00  0.00     0.039 A 
ATOM     42  C   UNL A   1      33.943  33.768  30.676  1.00  0.00     0.014 A 
ATOM     43  C   UNL A   1      35.530  34.797  29.169  1.00  0.00     0.014 A 
ATOM     44  C   UNL A   1      34.998  33.186  31.386  1.00  0.00     0.010 A 
ATOM     45  C   UNL A   1      36.573  34.153  29.834  1.00  0.00     0.010 A 
ATOM     46  C   UNL A   1      36.320  33.321  30.934  1.00  0.00    -0.014 A 
BRANCH  46  47
ATOM     47  C   UNL A   1      37.441  32.573  31.570  1.00  0.00     0.031 A 
ATOM     48  C   UNL A   1      37.994  33.005  32.901  1.00  0.00     0.074 A 
ATOM     49  C   UNL A   1      38.014  31.546  30.908  1.00  0.00     0.049 A 
ATOM     50  N   UNL A   1      39.014  32.529  33.568  1.00  0.00    -0.248 NA
ATOM     51  C   UNL A   1      37.325  34.139  33.553  1.00  0.00     0.031 C 
ATOM     52  C   UNL A   1      37.607  31.060  29.587  1.00  0.00     0.029 A 
ATOM     53  N   UNL A   1      39.065  30.730  31.248  1.00  0.00    -0.354 N 
ATOM     54  C   UNL A   1      39.117  33.310  34.714  1.00  0.00     0.074 A 
ATOM     55  C   UNL A   1      38.093  34.329  34.616  1.00  0.00     0.031 C 
ATOM     56  C   UNL A   1      38.378  30.015  29.244  1.00  0.00     0.029 A 
ATOM     57  C   UNL A   1      39.366  29.784  30.294  1.00  0.00     0.049 A 
ATOM     58  H   UNL A   1      39.558  30.813  32.096  1.00  0.00     0.167 HD
ATOM     59  C   UNL A   1      39.968  33.175  35.764  1.00  0.00     0.034 A 
ATOM     60  C   UNL A   1      40.331  28.844  30.259  1.00  0.00     0.034 A 
ATOM     61  C   UNL A   1      40.975  32.146  35.857  1.00  0.00     0.049 A 
ATOM     62  C   UNL A   1      41.280  28.728  31.425  1.00  0.00     0.074 A 
ATOM     63  C   UNL A   1      41.853  31.889  36.897  1.00  0.00     0.029 A 
ATOM     64  N   UNL A   1      41.246  31.204  34.873  1.00  0.00    -0.354 N 
ATOM     65  N   UNL A   1      41.333  29.448  32.522  1.00  0.00    -0.248 NA
ATOM     66  C   UNL A   1      42.292  27.666  31.352  1.00  0.00     0.031 C 
ATOM     67  C   UNL A   1      42.694  30.839  36.516  1.00  0.00     0.029 A 
ATOM     68  C   UNL A   1      42.297  30.388  35.268  1.00  0.00     0.049 A 
ATOM     69  H   UNL A   1      40.763  31.126  34.018  1.00  0.00     0.167 HD
ATOM     70  C   UNL A   1      42.365  28.904  33.282  1.00  0.00     0.074 A 
ATOM     71  C   UNL A   1      42.897  27.790  32.524  1.00  0.00     0.031 C 
ATOM     72  C   UNL A   1      42.828  29.288  34.499  1.00  0.00     0.034 A 
BRANCH  59  73
ATOM     73  C   UNL A   1      39.853  34.184  36.882  1.00  0.00     0.023 A 
ATOM     74  C   UNL A   1      39.382  33.821  38.156  1.00  0.00     0.031 A 
ATOM     75  C   UNL A   1      40.190  35.531  36.664  1.00  0.00     0.131 A 
ATOM     76  C   UNL A   1      39.184  34.805  39.136  1.00  0.00     0.055 A 
ATOM     77  C   UNL A   1      40.070  36.491  37.671  1.00  0.00     0.041 A 
ATOM     78  F   UNL A   1      40.628  35.941  35.464  1.00  0.00    -0.206 F 
ATOM     79  C   UNL A   1      39.549  36.134  38.911  1.00  0.00     0.022 A 
BRANCH  76  80
ATOM     80  S   UNL A   1      38.306  34.347  40.655  1.00  0.00     0.124 S 
ATOM     81  O   UNL A   1      37.237  33.498  40.132  1.00  0.00    -0.237 OA
ATOM     82  O   UNL A   1      39.341  33.669  41.427  1.00  0.00    -0.237 OA
ATOM     83  O   UNL A   1      37.864  35.630  41.196  1.00  0.00    -0.744 OA
ENDBRANCH  76  80
ENDBRANCH  59  73
BRANCH  60  84
ATOM     84  C   UNL A   1      40.465  27.942  29.080  1.00  0.00     0.023 A 
ATOM     85  C   UNL A   1      41.397  28.212  28.065  1.00  0.00     0.031 A 
ATOM     86  C   UNL A   1      39.632  26.819  28.929  1.00  0.00     0.131 A 
ATOM     87  C   UNL A   1      41.442  27.400  26.921  1.00  0.00     0.055 A 
ATOM     88  C   UNL A   1      39.716  25.983  27.814  1.00  0.00     0.041 A 
ATOM     89  F   UNL A   1      38.729  26.512  29.873  1.00  0.00    -0.206 F 
ATOM     90  C   UNL A   1      40.616  26.280  26.795  1.00  0.00     0.022 A 
BRANCH  87  91
ATOM     91  S   UNL A   1      42.541  27.877  25.560  1.00  0.00     0.124 S 
ATOM     92  O   UNL A   1      41.871  29.062  25.039  1.00  0.00    -0.237 OA
ATOM     93  O   UNL A   1      43.803  28.106  26.256  1.00  0.00    -0.237 OA
ATOM     94  O   UNL A   1      42.519  26.709  24.681  1.00  0.00    -0.744 OA
ENDBRANCH  87  91
ENDBRANCH  60  84
BRANCH  72  95
ATOM     95  C   UNL A   1      43.941  28.465  35.099  1.00  0.00     0.023 A 
ATOM     96  C   UNL A   1      43.686  27.277  35.807  1.00  0.00     0.031 A 
ATOM     97  C   UNL A   1      45.278  28.885  34.972  1.00  0.00     0.131 A 
ATOM     98  C   UNL A   1      44.745  26.579  36.408  1.00  0.00     0.055 A 
ATOM     99  C   UNL A   1      46.333  28.156  35.522  1.00  0.00     0.041 A 
ATOM    100  F   UNL A   1      45.579  30.013  34.309  1.00  0.00    -0.206 F 
ATOM    101  C   UNL A   1      46.068  27.003  36.255  1.00  0.00     0.022 A 
BRANCH  98 102
ATOM    102  S   UNL A   1      44.364  25.156  37.464  1.00  0.00     0.124 S 
ATOM    103  O   UNL A   1      45.219  25.399  38.621  1.00  0.00    -0.237 OA
ATOM    104  O   UNL A   1      42.930  25.309  37.688  1.00  0.00    -0.237 OA
ATOM    105  O   UNL A   1      44.743  24.007  36.644  1.00  0.00    -0.744 OA
ENDBRANCH  98 102
ENDBRANCH  72  95
ENDBRANCH  46  47
ENDBRANCH  38  41
ENDBRANCH  36  37
ENDBRANCH  35  36
ENDBRANCH  34  35
ENDBRANCH   1  34
TORSDOF 19
ENDMDL
MODEL 3
REMARK VINA RESULT:     -12.5      2.024      7.524
REMARK SMILES C[C@H](NC(=O)c1cccc(NC(=O)c2ccccc2C(=O)NCCCCNC(=O)c2ccc(-c3c4nc(c(-c5cc(S(=O)(=O)[O-])ccc5F)c5ccc([nH]5)c(-c5cc(S(=O)(=O)[O-])ccc5F)c5nc(c(-c6cc(S(=O)(=O)[O-])ccc6F)c6ccc3[nH]6)C=C5)C=C4)cc2)c1)c1ccccc1
REMARK SMILES IDX 23 1 22 2 20 3 21 4 19 6 14 7 15 8 16 9 18 10 17 11 12 12
REMARK SMILES IDX 11 13 13 15 10 16 6 17 7 18 93 19 8 20 9 21 4 22 3 23 5 25
REMARK SMILES IDX 2 26 1 27 94 28 95 29 99 30 96 31 98 32 97 33 24 34 25 35
REMARK SMILES IDX 26 36 27 37 28 38 29 40 30 41 31 42 92 43 32 44 91 45 33 46
REMARK SMILES IDX 34 47 35 48 85 49 36 50 90 51 84 52 86 53 37 54 89 55 83 56
REMARK SMILES IDX 82 57 38 59 70 60 50 61 69 62 51 63 54 64 68 65 87 66 52 67
REMARK SMILES IDX 53 68 67 70 88 71 55 72 39 73 40 74 48 75 41 76 47 77 49 78
REMARK SMILES IDX 46 79 42 80 43 81 44 82 45 83 71 84 72 85 80 86 73 87 79 88
REMARK SMILES IDX 81 89 78 90 74 91 75 92 76 93 77 94 56 95 57 96 65 97 58 98
REMARK SMILES IDX 64 99 66 100 63 101 59 102 60 103 61 104 62 105
REMARK H PARENT 22 5 11 14 3 24 27 39 86 58 54 69
REMARK Flexibility Score: inf
ROOT
ATOM      1  C   UNL A   1      32.498  30.183  26.563  1.00  0.00     0.116 C 
ENDROOT
BRANCH   1   2
ATOM      2  N   UNL A   1      33.355  29.676  25.512  1.00  0.00    -0.352 N 
ATOM      3  C   UNL A   1      33.093  28.822  24.474  1.00  0.00     0.252 C 
ATOM      4  O   UNL A   1      34.023  28.526  23.722  1.00  0.00    -0.269 OA
ATOM      5  H   UNL A   1      34.285  30.000  25.551  1.00  0.00     0.163 HD
BRANCH   3   6
ATOM      6  C   UNL A   1      31.778  28.163  24.256  1.00  0.00     0.052 A 
ATOM      7  C   UNL A   1      31.202  27.146  25.031  1.00  0.00     0.052 A 
ATOM      8  C   UNL A   1      29.953  26.607  24.662  1.00  0.00     0.014 A 
ATOM      9  C   UNL A   1      29.231  27.135  23.592  1.00  0.00     0.001 A 
ATOM     10  C   UNL A   1      31.013  28.708  23.201  1.00  0.00     0.014 A 
ATOM     11  C   UNL A   1      29.751  28.206  22.876  1.00  0.00     0.001 A 
BRANCH   7  12
ATOM     12  C   UNL A   1      31.789  26.551  26.246  1.00  0.00     0.256 C 
ATOM     13  N   UNL A   1      32.590  25.435  26.238  1.00  0.00    -0.322 N 
ATOM     14  H   UNL A   1      32.772  25.068  27.133  1.00  0.00     0.170 HD
ATOM     15  O   UNL A   1      31.487  27.066  27.325  1.00  0.00    -0.269 OA
BRANCH  13  16
ATOM     16  C   UNL A   1      33.197  24.719  25.195  1.00  0.00     0.042 A 
ATOM     17  C   UNL A   1      33.073  22.837  23.685  1.00  0.00     0.041 A 
ATOM     18  C   UNL A   1      34.237  23.272  23.042  1.00  0.00     0.014 A 
ATOM     19  C   UNL A   1      32.564  23.537  24.780  1.00  0.00     0.040 A 
ATOM     20  C   UNL A   1      34.895  24.410  23.492  1.00  0.00     0.003 A 
ATOM     21  C   UNL A   1      34.383  25.122  24.576  1.00  0.00     0.026 A 
BRANCH  17  22
ATOM     22  C   UNL A   1      32.469  21.596  23.179  1.00  0.00     0.251 C 
ATOM     23  N   UNL A   1      32.734  20.377  23.736  1.00  0.00    -0.346 N 
ATOM     24  H   UNL A   1      32.143  19.663  23.405  1.00  0.00     0.164 HD
ATOM     25  O   UNL A   1      31.622  21.691  22.293  1.00  0.00    -0.269 OA
BRANCH  23  26
ATOM     26  C   UNL A   1      33.716  19.902  24.723  1.00  0.00     0.109 C 
ATOM     27  C   UNL A   1      33.560  20.657  26.052  1.00  0.00     0.036 C 
BRANCH  26  28
ATOM     28  C   UNL A   1      33.648  18.370  24.893  1.00  0.00    -0.026 A 
ATOM     29  C   UNL A   1      34.667  17.525  24.406  1.00  0.00     0.006 A 
ATOM     30  C   UNL A   1      32.535  17.734  25.482  1.00  0.00     0.006 A 
ATOM     31  C   UNL A   1      34.610  16.134  24.565  1.00  0.00     0.000 A 
ATOM     32  C   UNL A   1      32.486  16.344  25.656  1.00  0.00     0.000 A 
ATOM     33  C   UNL A   1      33.526  15.546  25.203  1.00  0.00     0.000 A 
ENDBRANCH  26  28
ENDBRANCH  23  26
ENDBRANCH  17  22
ENDBRANCH  13  16
ENDBRANCH   7  12
ENDBRANCH   3   6
ENDBRANCH   1   2
BRANCH   1  34
ATOM     34  C   UNL A   1      31.418  31.144  26.073  1.00  0.00     0.023 C 
BRANCH  34  35
ATOM     35  C   UNL A   1      31.430  32.544  26.697  1.00  0.00     0.023 C 
BRANCH  35  36
ATOM     36  C   UNL A   1      32.783  33.084  27.155  1.00  0.00     0.116 C 
BRANCH  36  37
ATOM     37  N   UNL A   1      32.704  34.307  27.935  1.00  0.00    -0.352 N 
ATOM     38  C   UNL A   1      33.478  34.751  28.988  1.00  0.00     0.251 C 
ATOM     39  H   UNL A   1      31.980  34.920  27.670  1.00  0.00     0.163 HD
ATOM     40  O   UNL A   1      33.183  35.793  29.555  1.00  0.00    -0.269 OA
BRANCH  38  41
ATOM     41  C   UNL A   1      34.628  33.946  29.466  1.00  0.00     0.039 A 
ATOM     42  C   UNL A   1      35.919  34.347  29.108  1.00  0.00     0.014 A 
ATOM     43  C   UNL A   1      34.449  32.823  30.273  1.00  0.00     0.014 A 
ATOM     44  C   UNL A   1      37.028  33.691  29.652  1.00  0.00     0.010 A 
ATOM     45  C   UNL A   1      35.554  32.220  30.872  1.00  0.00     0.010 A 
ATOM     46  C   UNL A   1      36.855  32.660  30.589  1.00  0.00    -0.014 A 
BRANCH  46  47
ATOM     47  C   UNL A   1      38.013  32.061  31.311  1.00  0.00     0.031 A 
ATOM     48  C   UNL A   1      38.821  30.960  30.683  1.00  0.00     0.074 A 
ATOM     49  C   UNL A   1      38.288  32.460  32.571  1.00  0.00     0.049 A 
ATOM     50  N   UNL A   1      39.809  30.265  31.187  1.00  0.00    -0.248 NA
ATOM     51  C   UNL A   1      38.452  30.572  29.314  1.00  0.00     0.031 C 
ATOM     52  C   UNL A   1      37.549  33.482  33.314  1.00  0.00     0.029 A 
ATOM     53  N   UNL A   1      39.258  32.050  33.453  1.00  0.00    -0.354 N 
ATOM     54  C   UNL A   1      40.174  29.351  30.204  1.00  0.00     0.074 A 
ATOM     55  C   UNL A   1      39.257  29.542  29.100  1.00  0.00     0.031 C 
ATOM     56  C   UNL A   1      38.109  33.640  34.525  1.00  0.00     0.029 A 
ATOM     57  C   UNL A   1      39.216  32.699  34.666  1.00  0.00     0.049 A 
ATOM     58  H   UNL A   1      39.923  31.357  33.237  1.00  0.00     0.167 HD
ATOM     59  C   UNL A   1      41.193  28.455  30.210  1.00  0.00     0.034 A 
ATOM     60  C   UNL A   1      39.972  32.549  35.772  1.00  0.00     0.034 A 
ATOM     61  C   UNL A   1      42.110  28.284  31.312  1.00  0.00     0.049 A 
ATOM     62  C   UNL A   1      41.084  31.531  35.764  1.00  0.00     0.074 A 
ATOM     63  C   UNL A   1      43.206  27.442  31.400  1.00  0.00     0.029 A 
ATOM     64  N   UNL A   1      42.037  28.962  32.522  1.00  0.00    -0.354 N 
ATOM     65  N   UNL A   1      41.442  30.707  34.807  1.00  0.00    -0.248 NA
ATOM     66  C   UNL A   1      41.898  31.431  36.982  1.00  0.00     0.031 C 
ATOM     67  C   UNL A   1      43.754  27.564  32.682  1.00  0.00     0.029 A 
ATOM     68  C   UNL A   1      43.047  28.535  33.371  1.00  0.00     0.049 A 
ATOM     69  H   UNL A   1      41.365  29.647  32.745  1.00  0.00     0.167 HD
ATOM     70  C   UNL A   1      42.545  30.012  35.299  1.00  0.00     0.074 A 
ATOM     71  C   UNL A   1      42.798  30.524  36.630  1.00  0.00     0.031 C 
ATOM     72  C   UNL A   1      43.283  29.042  34.703  1.00  0.00     0.034 A 
BRANCH  59  73
ATOM     73  C   UNL A   1      41.350  27.577  28.991  1.00  0.00     0.023 A 
ATOM     74  C   UNL A   1      42.361  27.810  28.041  1.00  0.00     0.031 A 
ATOM     75  C   UNL A   1      40.462  26.513  28.758  1.00  0.00     0.131 A 
ATOM     76  C   UNL A   1      42.408  27.045  26.866  1.00  0.00     0.055 A 
ATOM     77  C   UNL A   1      40.567  25.701  27.627  1.00  0.00     0.041 A 
ATOM     78  F   UNL A   1      39.467  26.253  29.620  1.00  0.00    -0.206 F 
ATOM     79  C   UNL A   1      41.534  25.975  26.664  1.00  0.00     0.022 A 
BRANCH  76  80
ATOM     80  S   UNL A   1      43.533  27.564  25.541  1.00  0.00     0.124 S 
ATOM     81  O   UNL A   1      42.609  27.728  24.419  1.00  0.00    -0.237 OA
ATOM     82  O   UNL A   1      44.110  28.791  26.079  1.00  0.00    -0.237 OA
ATOM     83  O   UNL A   1      44.458  26.440  25.417  1.00  0.00    -0.744 OA
ENDBRANCH  76  80
ENDBRANCH  59  73
BRANCH  60  84
ATOM     84  C   UNL A   1      39.704  33.369  36.987  1.00  0.00     0.023 A 
ATOM     85  C   UNL A   1      40.473  34.508  37.275  1.00  0.00     0.031 A 
ATOM     86  C   UNL A   1      38.703  33.001  37.904  1.00  0.00     0.131 A 
ATOM     87  C   UNL A   1      40.262  35.211  38.471  1.00  0.00     0.055 A 
ATOM     88  C   UNL A   1      38.462  33.733  39.068  1.00  0.00     0.041 A 
ATOM     89  F   UNL A   1      37.935  31.923  37.674  1.00  0.00    -0.206 F 
ATOM     90  C   UNL A   1      39.253  34.839  39.363  1.00  0.00     0.022 A 
BRANCH  87  91
ATOM     91  S   UNL A   1      41.383  36.576  38.886  1.00  0.00     0.124 S 
ATOM     92  O   UNL A   1      42.339  35.917  39.768  1.00  0.00    -0.237 OA
ATOM     93  O   UNL A   1      41.884  36.965  37.571  1.00  0.00    -0.237 OA
ATOM     94  O   UNL A   1      40.506  37.552  39.530  1.00  0.00    -0.744 OA
ENDBRANCH  87  91
ENDBRANCH  60  84
BRANCH  72  95
ATOM     95  C   UNL A   1      44.461  28.505  35.476  1.00  0.00     0.023 A 
ATOM     96  C   UNL A   1      44.341  27.399  36.336  1.00  0.00     0.031 A 
ATOM     97  C   UNL A   1      45.722  29.120  35.362  1.00  0.00     0.131 A 
ATOM     98  C   UNL A   1      45.447  26.975  37.089  1.00  0.00     0.055 A 
ATOM     99  C   UNL A   1      46.832  28.658  36.069  1.00  0.00     0.041 A 
ATOM    100  F   UNL A   1      45.893  30.182  34.558  1.00  0.00    -0.206 F 
ATOM    101  C   UNL A   1      46.696  27.588  36.948  1.00  0.00     0.022 A 
BRANCH  98 102
ATOM    102  S   UNL A   1      45.213  25.665  38.321  1.00  0.00     0.124 S 
ATOM    103  O   UNL A   1      44.285  24.769  37.638  1.00  0.00    -0.237 OA
ATOM    104  O   UNL A   1      46.570  25.160  38.501  1.00  0.00    -0.237 OA
ATOM    105  O   UNL A   1      44.657  26.371  39.473  1.00  0.00    -0.744 OA
ENDBRANCH  98 102
ENDBRANCH  72  95
ENDBRANCH  46  47
ENDBRANCH  38  41
ENDBRANCH  36  37
ENDBRANCH  35  36
ENDBRANCH  34  35
ENDBRANCH   1  34
TORSDOF 19
ENDMDL
