MODEL 1
REMARK VINA RESULT:     -12.7      0.000      0.000
REMARK SMILES Cc1cnn([C@H]2CC[C@@]([NH3+])(C(=O)NCCCCNC(=O)c3ccc(-c4c5nc(c(-c6cc(S(=O)(=O)[O-])ccc6F)c6ccc([nH]6)c(-c6cc(S(=O)(=O)[O-])ccc6F)c6nc(c(-c7cc(S(=O)(=O)[O-])ccc7F)c7ccc4[nH]7)C=C6)C=C5)cc3)C2)c1
REMARK SMILES IDX 16 1 15 2 14 3 13 4 11 5 12 6 9 8 6 9 7 10 84 11 8 12 5 13
REMARK SMILES IDX 1 14 2 15 3 16 85 17 4 18 10 19 17 23 18 24 19 25 20 27
REMARK SMILES IDX 21 28 22 29 83 30 23 31 82 32 24 33 25 34 26 35 76 36 27 37
REMARK SMILES IDX 81 38 75 39 77 40 28 41 80 42 74 43 73 44 29 46 61 47 41 48
REMARK SMILES IDX 60 49 42 50 45 51 59 52 78 53 43 54 44 55 58 57 79 58 46 59
REMARK SMILES IDX 30 60 31 61 39 62 32 63 38 64 40 65 37 66 33 67 34 68 35 69
REMARK SMILES IDX 36 70 62 71 63 72 71 73 64 74 70 75 72 76 69 77 65 78 66 79
REMARK SMILES IDX 67 80 68 81 47 82 48 83 56 84 49 85 55 86 57 87 54 88 50 89
REMARK SMILES IDX 51 90 52 91 53 92
REMARK H PARENT 13 7 10 20 10 21 10 22 18 26 77 45 45 56
REMARK Flexibility Score: inf
ROOT
ATOM      1  C   UNL A   1      34.363  28.981  27.331  1.00  0.00     0.023 C 
ENDROOT
BRANCH   1   2
ATOM      2  C   UNL A   1      32.941  29.509  27.101  1.00  0.00     0.023 C 
BRANCH   2   3
ATOM      3  C   UNL A   1      32.607  29.969  25.679  1.00  0.00     0.116 C 
BRANCH   3   4
ATOM      4  N   UNL A   1      33.509  29.427  24.678  1.00  0.00    -0.351 N 
ATOM      5  C   UNL A   1      33.244  28.965  23.420  1.00  0.00     0.281 C 
ATOM      6  O   UNL A   1      34.206  28.878  22.651  1.00  0.00    -0.268 OA
ATOM      7  H   UNL A   1      34.455  29.388  24.946  1.00  0.00     0.163 HD
BRANCH   5   8
ATOM      8  C   UNL A   1      31.785  28.667  22.937  1.00  0.00     0.176 C 
ATOM      9  C   UNL A   1      31.367  26.313  23.498  1.00  0.00     0.114 C 
ATOM     10  C   UNL A   1      30.501  27.177  24.432  1.00  0.00     0.034 C 
ATOM     11  C   UNL A   1      31.633  27.262  22.316  1.00  0.00     0.106 C 
ATOM     12  C   UNL A   1      30.758  28.644  24.075  1.00  0.00     0.081 C 
BRANCH   9  13
ATOM     13  N   UNL A   1      32.540  25.735  24.137  1.00  0.00    -0.269 N 
ATOM     14  C   UNL A   1      35.575  23.753  24.394  1.00  0.00     0.048 C 
ATOM     15  C   UNL A   1      34.373  24.596  24.558  1.00  0.00    -0.013 A 
ATOM     16  C   UNL A   1      34.067  25.516  25.581  1.00  0.00     0.138 A 
ATOM     17  C   UNL A   1      33.289  24.674  23.712  1.00  0.00     0.112 A 
ATOM     18  N   UNL A   1      32.922  26.167  25.360  1.00  0.00    -0.181 NA
ENDBRANCH   9  13
BRANCH   8  19
ATOM     19  N   UNL A   1      31.456  29.686  21.915  1.00  0.00    -0.345 N 
ATOM     20  H   UNL A   1      30.449  29.698  21.758  1.00  0.00     0.345 HD
ATOM     21  H   UNL A   1      31.933  29.460  21.043  1.00  0.00     0.345 HD
ATOM     22  H   UNL A   1      31.761  30.603  22.241  1.00  0.00     0.345 HD
ENDBRANCH   8  19
ENDBRANCH   5   8
ENDBRANCH   3   4
ENDBRANCH   2   3
ENDBRANCH   1   2
BRANCH   1  23
ATOM     23  C   UNL A   1      35.399  30.051  27.647  1.00  0.00     0.116 C 
BRANCH  23  24
ATOM     24  N   UNL A   1      35.484  30.354  29.072  1.00  0.00    -0.352 N 
ATOM     25  C   UNL A   1      36.320  29.763  30.006  1.00  0.00     0.251 C 
ATOM     26  H   UNL A   1      34.881  31.056  29.407  1.00  0.00     0.163 HD
ATOM     27  O   UNL A   1      36.052  29.803  31.194  1.00  0.00    -0.269 OA
BRANCH  25  28
ATOM     28  C   UNL A   1      37.535  29.079  29.518  1.00  0.00     0.039 A 
ATOM     29  C   UNL A   1      38.055  29.360  28.254  1.00  0.00     0.014 A 
ATOM     30  C   UNL A   1      38.180  28.190  30.377  1.00  0.00     0.014 A 
ATOM     31  C   UNL A   1      39.290  28.817  27.900  1.00  0.00     0.010 A 
ATOM     32  C   UNL A   1      39.444  27.738  30.066  1.00  0.00     0.010 A 
ATOM     33  C   UNL A   1      40.002  28.033  28.824  1.00  0.00    -0.014 A 
BRANCH  33  34
ATOM     34  C   UNL A   1      41.405  27.683  28.568  1.00  0.00     0.031 A 
ATOM     35  C   UNL A   1      41.589  26.385  27.860  1.00  0.00     0.074 A 
ATOM     36  C   UNL A   1      42.442  28.537  28.723  1.00  0.00     0.049 A 
ATOM     37  N   UNL A   1      42.102  25.294  28.324  1.00  0.00    -0.248 NA
ATOM     38  C   UNL A   1      40.990  26.227  26.523  1.00  0.00     0.031 C 
ATOM     39  C   UNL A   1      42.375  29.946  29.127  1.00  0.00     0.029 A 
ATOM     40  N   UNL A   1      43.769  28.368  28.440  1.00  0.00    -0.354 N 
ATOM     41  C   UNL A   1      42.136  24.400  27.255  1.00  0.00     0.074 A 
ATOM     42  C   UNL A   1      41.248  24.944  26.264  1.00  0.00     0.031 C 
ATOM     43  C   UNL A   1      43.544  30.559  28.843  1.00  0.00     0.029 A 
ATOM     44  C   UNL A   1      44.500  29.556  28.409  1.00  0.00     0.049 A 
ATOM     45  H   UNL A   1      44.173  27.486  28.274  1.00  0.00     0.167 HD
ATOM     46  C   UNL A   1      43.110  23.450  27.174  1.00  0.00     0.034 A 
ATOM     47  C   UNL A   1      45.804  29.724  28.068  1.00  0.00     0.034 A 
ATOM     48  C   UNL A   1      43.797  23.327  28.440  1.00  0.00     0.049 A 
ATOM     49  C   UNL A   1      46.477  28.429  28.298  1.00  0.00     0.074 A 
ATOM     50  C   UNL A   1      43.484  22.886  29.708  1.00  0.00     0.029 A 
ATOM     51  N   UNL A   1      44.938  24.085  28.552  1.00  0.00    -0.354 N 
ATOM     52  N   UNL A   1      46.585  27.887  29.479  1.00  0.00    -0.248 NA
ATOM     53  C   UNL A   1      46.711  27.525  27.180  1.00  0.00     0.031 C 
ATOM     54  C   UNL A   1      44.280  23.672  30.595  1.00  0.00     0.029 A 
ATOM     55  C   UNL A   1      45.093  24.521  29.841  1.00  0.00     0.049 A 
ATOM     56  H   UNL A   1      45.554  24.286  27.810  1.00  0.00     0.167 HD
ATOM     57  C   UNL A   1      46.442  26.532  29.254  1.00  0.00     0.074 A 
ATOM     58  C   UNL A   1      46.715  26.358  27.832  1.00  0.00     0.031 C 
ATOM     59  C   UNL A   1      45.817  25.737  30.172  1.00  0.00     0.034 A 
BRANCH  46  60
ATOM     60  C   UNL A   1      43.776  22.971  25.889  1.00  0.00     0.023 A 
ATOM     61  C   UNL A   1      43.889  21.574  25.706  1.00  0.00     0.031 A 
ATOM     62  C   UNL A   1      44.558  23.759  25.016  1.00  0.00     0.131 A 
ATOM     63  C   UNL A   1      44.811  21.029  24.793  1.00  0.00     0.055 A 
ATOM     64  C   UNL A   1      45.434  23.212  24.072  1.00  0.00     0.041 A 
ATOM     65  F   UNL A   1      44.598  25.094  25.079  1.00  0.00    -0.206 F 
ATOM     66  C   UNL A   1      45.590  21.841  23.977  1.00  0.00     0.022 A 
BRANCH  63  67
ATOM     67  S   UNL A   1      45.102  19.238  24.812  1.00  0.00     0.124 S 
ATOM     68  O   UNL A   1      46.459  19.164  25.341  1.00  0.00    -0.237 OA
ATOM     69  O   UNL A   1      44.037  18.772  25.693  1.00  0.00    -0.237 OA
ATOM     70  O   UNL A   1      44.958  18.858  23.408  1.00  0.00    -0.744 OA
ENDBRANCH  63  67
ENDBRANCH  46  60
BRANCH  47  71
ATOM     71  C   UNL A   1      46.433  30.863  27.346  1.00  0.00     0.023 A 
ATOM     72  C   UNL A   1      45.688  31.906  26.756  1.00  0.00     0.031 A 
ATOM     73  C   UNL A   1      47.826  31.064  27.466  1.00  0.00     0.131 A 
ATOM     74  C   UNL A   1      46.334  33.093  26.335  1.00  0.00     0.055 A 
ATOM     75  C   UNL A   1      48.458  32.239  27.050  1.00  0.00     0.041 A 
ATOM     76  F   UNL A   1      48.608  30.160  28.075  1.00  0.00    -0.206 F 
ATOM     77  C   UNL A   1      47.711  33.265  26.494  1.00  0.00     0.022 A 
BRANCH  74  78
ATOM     78  S   UNL A   1      45.367  34.485  25.659  1.00  0.00     0.124 S 
ATOM     79  O   UNL A   1      44.089  34.338  26.345  1.00  0.00    -0.237 OA
ATOM     80  O   UNL A   1      46.178  35.639  26.031  1.00  0.00    -0.237 OA
ATOM     81  O   UNL A   1      45.327  34.205  24.223  1.00  0.00    -0.744 OA
ENDBRANCH  74  78
ENDBRANCH  47  71
BRANCH  59  82
ATOM     82  C   UNL A   1      45.753  26.237  31.598  1.00  0.00     0.023 A 
ATOM     83  C   UNL A   1      44.646  26.884  32.193  1.00  0.00     0.031 A 
ATOM     84  C   UNL A   1      46.878  25.993  32.407  1.00  0.00     0.131 A 
ATOM     85  C   UNL A   1      44.703  27.274  33.545  1.00  0.00     0.055 A 
ATOM     86  C   UNL A   1      46.920  26.359  33.750  1.00  0.00     0.041 A 
ATOM     87  F   UNL A   1      47.956  25.370  31.903  1.00  0.00    -0.206 F 
ATOM     88  C   UNL A   1      45.835  27.008  34.323  1.00  0.00     0.022 A 
BRANCH  85  89
ATOM     89  S   UNL A   1      43.312  28.166  34.316  1.00  0.00     0.124 S 
ATOM     90  O   UNL A   1      43.471  27.887  35.738  1.00  0.00    -0.237 OA
ATOM     91  O   UNL A   1      43.552  29.545  33.904  1.00  0.00    -0.237 OA
ATOM     92  O   UNL A   1      42.132  27.549  33.705  1.00  0.00    -0.744 OA
ENDBRANCH  85  89
ENDBRANCH  59  82
ENDBRANCH  33  34
ENDBRANCH  25  28
ENDBRANCH  23  24
ENDBRANCH   1  23
TORSDOF 16
ENDMDL
MODEL 2
REMARK VINA RESULT:     -12.3      2.699      7.023
REMARK SMILES Cc1cnn([C@H]2CC[C@@]([NH3+])(C(=O)NCCCCNC(=O)c3ccc(-c4c5nc(c(-c6cc(S(=O)(=O)[O-])ccc6F)c6ccc([nH]6)c(-c6cc(S(=O)(=O)[O-])ccc6F)c6nc(c(-c7cc(S(=O)(=O)[O-])ccc7F)c7ccc4[nH]7)C=C6)C=C5)cc3)C2)c1
REMARK SMILES IDX 16 1 15 2 14 3 13 4 11 5 12 6 9 8 6 9 7 10 84 11 8 12 5 13
REMARK SMILES IDX 1 14 2 15 3 16 85 17 4 18 10 19 17 23 18 24 19 25 20 27
REMARK SMILES IDX 21 28 22 29 83 30 23 31 82 32 24 33 25 34 26 35 76 36 27 37
REMARK SMILES IDX 81 38 75 39 77 40 28 41 80 42 74 43 73 44 29 46 61 47 41 48
REMARK SMILES IDX 60 49 42 50 45 51 59 52 78 53 43 54 44 55 58 57 79 58 46 59
REMARK SMILES IDX 30 60 31 61 39 62 32 63 38 64 40 65 37 66 33 67 34 68 35 69
REMARK SMILES IDX 36 70 62 71 63 72 71 73 64 74 70 75 72 76 69 77 65 78 66 79
REMARK SMILES IDX 67 80 68 81 47 82 48 83 56 84 49 85 55 86 57 87 54 88 50 89
REMARK SMILES IDX 51 90 52 91 53 92
REMARK H PARENT 13 7 10 20 10 21 10 22 18 26 77 45 45 56
REMARK Flexibility Score: inf
ROOT
ATOM      1  C   UNL A   1      33.334  30.490  27.467  1.00  0.00     0.023 C 
ENDROOT
BRANCH   1   2
ATOM      2  C   UNL A   1      31.974  30.883  26.875  1.00  0.00     0.023 C 
BRANCH   2   3
ATOM      3  C   UNL A   1      31.707  30.440  25.433  1.00  0.00     0.116 C 
BRANCH   3   4
ATOM      4  N   UNL A   1      32.818  29.715  24.843  1.00  0.00    -0.351 N 
ATOM      5  C   UNL A   1      32.878  28.999  23.681  1.00  0.00     0.281 C 
ATOM      6  O   UNL A   1      34.005  28.769  23.234  1.00  0.00    -0.268 OA
ATOM      7  H   UNL A   1      33.656  29.745  25.358  1.00  0.00     0.163 HD
BRANCH   5   8
ATOM      8  C   UNL A   1      31.588  28.588  22.894  1.00  0.00     0.176 C 
ATOM      9  C   UNL A   1      31.348  26.168  23.232  1.00  0.00     0.114 C 
ATOM     10  C   UNL A   1      30.219  26.863  24.014  1.00  0.00     0.034 C 
ATOM     11  C   UNL A   1      31.729  27.227  22.182  1.00  0.00     0.106 C 
ATOM     12  C   UNL A   1      30.367  28.371  23.795  1.00  0.00     0.081 C 
BRANCH   9  13
ATOM     13  N   UNL A   1      32.431  25.668  24.066  1.00  0.00    -0.269 N 
ATOM     14  C   UNL A   1      35.606  24.072  24.827  1.00  0.00     0.048 C 
ATOM     15  C   UNL A   1      34.283  24.729  24.788  1.00  0.00    -0.013 A 
ATOM     16  C   UNL A   1      33.629  25.467  25.795  1.00  0.00     0.138 A 
ATOM     17  C   UNL A   1      33.406  24.773  23.727  1.00  0.00     0.112 A 
ATOM     18  N   UNL A   1      32.472  25.990  25.379  1.00  0.00    -0.181 NA
ENDBRANCH   9  13
BRANCH   8  19
ATOM     19  N   UNL A   1      31.350  29.642  21.883  1.00  0.00    -0.345 N 
ATOM     20  H   UNL A   1      32.234  30.087  21.640  1.00  0.00     0.345 HD
ATOM     21  H   UNL A   1      30.712  30.340  22.263  1.00  0.00     0.345 HD
ATOM     22  H   UNL A   1      30.938  29.224  21.048  1.00  0.00     0.345 HD
ENDBRANCH   8  19
ENDBRANCH   5   8
ENDBRANCH   3   4
ENDBRANCH   2   3
ENDBRANCH   1   2
BRANCH   1  23
ATOM     23  C   UNL A   1      34.344  31.626  27.560  1.00  0.00     0.116 C 
BRANCH  23  24
ATOM     24  N   UNL A   1      34.354  32.269  28.869  1.00  0.00    -0.352 N 
ATOM     25  C   UNL A   1      35.140  31.935  29.960  1.00  0.00     0.251 C 
ATOM     26  H   UNL A   1      33.736  33.025  28.991  1.00  0.00     0.163 HD
ATOM     27  O   UNL A   1      34.810  32.261  31.088  1.00  0.00    -0.269 OA
BRANCH  25  28
ATOM     28  C   UNL A   1      36.377  31.166  29.718  1.00  0.00     0.039 A 
ATOM     29  C   UNL A   1      37.581  31.817  29.441  1.00  0.00     0.014 A 
ATOM     30  C   UNL A   1      36.324  29.778  29.832  1.00  0.00     0.014 A 
ATOM     31  C   UNL A   1      38.753  31.065  29.382  1.00  0.00     0.010 A 
ATOM     32  C   UNL A   1      37.494  29.051  29.874  1.00  0.00     0.010 A 
ATOM     33  C   UNL A   1      38.713  29.682  29.635  1.00  0.00    -0.014 A 
BRANCH  33  34
ATOM     34  C   UNL A   1      39.960  28.933  29.840  1.00  0.00     0.031 A 
ATOM     35  C   UNL A   1      40.296  28.693  31.271  1.00  0.00     0.074 A 
ATOM     36  C   UNL A   1      40.634  28.297  28.856  1.00  0.00     0.049 A 
ATOM     37  N   UNL A   1      41.274  29.194  31.951  1.00  0.00    -0.248 NA
ATOM     38  C   UNL A   1      39.344  27.925  32.093  1.00  0.00     0.031 C 
ATOM     39  C   UNL A   1      40.253  28.197  27.442  1.00  0.00     0.029 A 
ATOM     40  N   UNL A   1      41.745  27.502  28.924  1.00  0.00    -0.354 N 
ATOM     41  C   UNL A   1      41.215  28.593  33.208  1.00  0.00     0.074 A 
ATOM     42  C   UNL A   1      39.903  28.014  33.302  1.00  0.00     0.031 C 
ATOM     43  C   UNL A   1      40.965  27.218  26.845  1.00  0.00     0.029 A 
ATOM     44  C   UNL A   1      41.975  26.745  27.775  1.00  0.00     0.049 A 
ATOM     45  H   UNL A   1      42.330  27.467  29.715  1.00  0.00     0.167 HD
ATOM     46  C   UNL A   1      42.351  28.385  33.932  1.00  0.00     0.034 A 
ATOM     47  C   UNL A   1      42.932  25.802  27.576  1.00  0.00     0.034 A 
ATOM     48  C   UNL A   1      43.447  29.145  33.376  1.00  0.00     0.049 A 
ATOM     49  C   UNL A   1      44.032  26.103  28.514  1.00  0.00     0.074 A 
ATOM     50  C   UNL A   1      43.779  30.477  33.255  1.00  0.00     0.029 A 
ATOM     51  N   UNL A   1      44.229  28.456  32.480  1.00  0.00    -0.354 N 
ATOM     52  N   UNL A   1      44.733  27.201  28.455  1.00  0.00    -0.248 NA
ATOM     53  C   UNL A   1      44.133  25.372  29.770  1.00  0.00     0.031 C 
ATOM     54  C   UNL A   1      44.531  30.577  32.045  1.00  0.00     0.029 A 
ATOM     55  C   UNL A   1      44.685  29.300  31.502  1.00  0.00     0.049 A 
ATOM     56  H   UNL A   1      44.432  27.494  32.534  1.00  0.00     0.167 HD
ATOM     57  C   UNL A   1      44.979  27.528  29.774  1.00  0.00     0.074 A 
ATOM     58  C   UNL A   1      44.761  26.290  30.513  1.00  0.00     0.031 C 
ATOM     59  C   UNL A   1      45.030  28.834  30.168  1.00  0.00     0.034 A 
BRANCH  46  60
ATOM     60  C   UNL A   1      42.627  27.176  34.820  1.00  0.00     0.023 A 
ATOM     61  C   UNL A   1      43.447  26.158  34.283  1.00  0.00     0.031 A 
ATOM     62  C   UNL A   1      41.912  26.823  35.986  1.00  0.00     0.131 A 
ATOM     63  C   UNL A   1      43.446  24.858  34.821  1.00  0.00     0.055 A 
ATOM     64  C   UNL A   1      41.955  25.542  36.549  1.00  0.00     0.041 A 
ATOM     65  F   UNL A   1      41.062  27.653  36.599  1.00  0.00    -0.206 F 
ATOM     66  C   UNL A   1      42.699  24.541  35.950  1.00  0.00     0.022 A 
BRANCH  63  67
ATOM     67  S   UNL A   1      44.301  23.539  33.917  1.00  0.00     0.124 S 
ATOM     68  O   UNL A   1      45.351  24.283  33.229  1.00  0.00    -0.237 OA
ATOM     69  O   UNL A   1      44.733  22.664  35.001  1.00  0.00    -0.237 OA
ATOM     70  O   UNL A   1      43.258  22.990  33.053  1.00  0.00    -0.744 OA
ENDBRANCH  63  67
ENDBRANCH  46  60
BRANCH  47  71
ATOM     71  C   UNL A   1      42.840  24.542  26.790  1.00  0.00     0.023 A 
ATOM     72  C   UNL A   1      43.875  24.084  25.946  1.00  0.00     0.031 A 
ATOM     73  C   UNL A   1      41.804  23.627  27.080  1.00  0.00     0.131 A 
ATOM     74  C   UNL A   1      43.855  22.759  25.449  1.00  0.00     0.055 A 
ATOM     75  C   UNL A   1      41.791  22.320  26.588  1.00  0.00     0.041 A 
ATOM     76  F   UNL A   1      40.814  23.947  27.928  1.00  0.00    -0.206 F 
ATOM     77  C   UNL A   1      42.825  21.875  25.780  1.00  0.00     0.022 A 
BRANCH  74  78
ATOM     78  S   UNL A   1      45.235  22.128  24.436  1.00  0.00     0.124 S 
ATOM     79  O   UNL A   1      46.145  21.600  25.445  1.00  0.00    -0.237 OA
ATOM     80  O   UNL A   1      44.573  21.149  23.581  1.00  0.00    -0.237 OA
ATOM     81  O   UNL A   1      45.718  23.320  23.738  1.00  0.00    -0.744 OA
ENDBRANCH  74  78
ENDBRANCH  47  71
BRANCH  59  82
ATOM     82  C   UNL A   1      45.322  29.872  29.107  1.00  0.00     0.023 A 
ATOM     83  C   UNL A   1      46.608  30.251  28.660  1.00  0.00     0.031 A 
ATOM     84  C   UNL A   1      44.212  30.472  28.486  1.00  0.00     0.131 A 
ATOM     85  C   UNL A   1      46.743  31.212  27.638  1.00  0.00     0.055 A 
ATOM     86  C   UNL A   1      44.349  31.403  27.459  1.00  0.00     0.041 A 
ATOM     87  F   UNL A   1      42.964  30.143  28.857  1.00  0.00    -0.206 F 
ATOM     88  C   UNL A   1      45.616  31.783  27.036  1.00  0.00     0.022 A 
BRANCH  85  89
ATOM     89  S   UNL A   1      48.392  31.763  27.089  1.00  0.00     0.124 S 
ATOM     90  O   UNL A   1      48.994  30.553  26.542  1.00  0.00    -0.237 OA
ATOM     91  O   UNL A   1      48.071  32.810  26.125  1.00  0.00    -0.237 OA
ATOM     92  O   UNL A   1      49.016  32.247  28.323  1.00  0.00    -0.744 OA
ENDBRANCH  85  89
ENDBRANCH  59  82
ENDBRANCH  33  34
ENDBRANCH  25  28
ENDBRANCH  23  24
ENDBRANCH   1  23
TORSDOF 16
ENDMDL
MODEL 3
REMARK VINA RESULT:     -12.3      2.823      7.273
REMARK SMILES Cc1cnn([C@H]2CC[C@@]([NH3+])(C(=O)NCCCCNC(=O)c3ccc(-c4c5nc(c(-c6cc(S(=O)(=O)[O-])ccc6F)c6ccc([nH]6)c(-c6cc(S(=O)(=O)[O-])ccc6F)c6nc(c(-c7cc(S(=O)(=O)[O-])ccc7F)c7ccc4[nH]7)C=C6)C=C5)cc3)C2)c1
REMARK SMILES IDX 16 1 15 2 14 3 13 4 11 5 12 6 9 8 6 9 7 10 84 11 8 12 5 13
REMARK SMILES IDX 1 14 2 15 3 16 85 17 4 18 10 19 17 23 18 24 19 25 20 27
REMARK SMILES IDX 21 28 22 29 83 30 23 31 82 32 24 33 25 34 26 35 76 36 27 37
REMARK SMILES IDX 81 38 75 39 77 40 28 41 80 42 74 43 73 44 29 46 61 47 41 48
REMARK SMILES IDX 60 49 42 50 45 51 59 52 78 53 43 54 44 55 58 57 79 58 46 59
REMARK SMILES IDX 30 60 31 61 39 62 32 63 38 64 40 65 37 66 33 67 34 68 35 69
REMARK SMILES IDX 36 70 62 71 63 72 71 73 64 74 70 75 72 76 69 77 65 78 66 79
REMARK SMILES IDX 67 80 68 81 47 82 48 83 56 84 49 85 55 86 57 87 54 88 50 89
REMARK SMILES IDX 51 90 52 91 53 92
REMARK H PARENT 13 7 10 20 10 21 10 22 18 26 77 45 45 56
REMARK Flexibility Score: inf
ROOT
ATOM      1  C   UNL A   1      33.614  30.759  27.531  1.00  0.00     0.023 C 
ENDROOT
BRANCH   1   2
ATOM      2  C   UNL A   1      32.221  30.882  26.900  1.00  0.00     0.023 C 
BRANCH   2   3
ATOM      3  C   UNL A   1      31.858  29.835  25.843  1.00  0.00     0.116 C 
BRANCH   3   4
ATOM      4  N   UNL A   1      32.760  29.835  24.706  1.00  0.00    -0.351 N 
ATOM      5  C   UNL A   1      33.035  28.845  23.806  1.00  0.00     0.281 C 
ATOM      6  O   UNL A   1      33.567  29.194  22.748  1.00  0.00    -0.268 OA
ATOM      7  H   UNL A   1      33.248  30.678  24.560  1.00  0.00     0.163 HD
BRANCH   5   8
ATOM      8  C   UNL A   1      32.599  27.361  24.048  1.00  0.00     0.176 C 
ATOM      9  C   UNL A   1      30.237  27.248  23.386  1.00  0.00     0.114 C 
ATOM     10  C   UNL A   1      31.052  26.463  22.342  1.00  0.00     0.034 C 
ATOM     11  C   UNL A   1      31.168  27.241  24.612  1.00  0.00     0.106 C 
ATOM     12  C   UNL A   1      32.524  26.529  22.762  1.00  0.00     0.081 C 
BRANCH   9  13
ATOM     13  N   UNL A   1      29.781  28.552  22.929  1.00  0.00    -0.269 N 
ATOM     14  C   UNL A   1      28.278  31.851  23.187  1.00  0.00     0.048 C 
ATOM     15  C   UNL A   1      28.902  30.564  22.815  1.00  0.00    -0.013 A 
ATOM     16  C   UNL A   1      29.646  30.239  21.663  1.00  0.00     0.138 A 
ATOM     17  C   UNL A   1      28.903  29.396  23.546  1.00  0.00     0.112 A 
ATOM     18  N   UNL A   1      30.132  28.995  21.700  1.00  0.00    -0.181 NA
ENDBRANCH   9  13
BRANCH   8  19
ATOM     19  N   UNL A   1      33.553  26.788  25.023  1.00  0.00    -0.345 N 
ATOM     20  H   UNL A   1      33.045  26.239  25.715  1.00  0.00     0.345 HD
ATOM     21  H   UNL A   1      34.056  27.542  25.490  1.00  0.00     0.345 HD
ATOM     22  H   UNL A   1      34.218  26.188  24.534  1.00  0.00     0.345 HD
ENDBRANCH   8  19
ENDBRANCH   5   8
ENDBRANCH   3   4
ENDBRANCH   2   3
ENDBRANCH   1   2
BRANCH   1  23
ATOM     23  C   UNL A   1      34.359  32.076  27.698  1.00  0.00     0.116 C 
BRANCH  23  24
ATOM     24  N   UNL A   1      34.334  32.571  29.070  1.00  0.00    -0.352 N 
ATOM     25  C   UNL A   1      35.091  32.118  30.138  1.00  0.00     0.251 C 
ATOM     26  H   UNL A   1      33.711  33.309  29.258  1.00  0.00     0.163 HD
ATOM     27  O   UNL A   1      34.732  32.319  31.286  1.00  0.00    -0.269 OA
BRANCH  25  28
ATOM     28  C   UNL A   1      36.337  31.380  29.845  1.00  0.00     0.039 A 
ATOM     29  C   UNL A   1      37.547  32.056  29.681  1.00  0.00     0.014 A 
ATOM     30  C   UNL A   1      36.282  29.988  29.797  1.00  0.00     0.014 A 
ATOM     31  C   UNL A   1      38.721  31.313  29.570  1.00  0.00     0.010 A 
ATOM     32  C   UNL A   1      37.451  29.259  29.789  1.00  0.00     0.010 A 
ATOM     33  C   UNL A   1      38.676  29.911  29.660  1.00  0.00    -0.014 A 
BRANCH  33  34
ATOM     34  C   UNL A   1      39.916  29.140  29.814  1.00  0.00     0.031 A 
ATOM     35  C   UNL A   1      40.280  28.848  31.229  1.00  0.00     0.074 A 
ATOM     36  C   UNL A   1      40.563  28.529  28.795  1.00  0.00     0.049 A 
ATOM     37  N   UNL A   1      41.278  29.314  31.904  1.00  0.00    -0.248 NA
ATOM     38  C   UNL A   1      39.335  28.065  32.045  1.00  0.00     0.031 C 
ATOM     39  C   UNL A   1      40.151  28.482  27.387  1.00  0.00     0.029 A 
ATOM     40  N   UNL A   1      41.664  27.719  28.813  1.00  0.00    -0.354 N 
ATOM     41  C   UNL A   1      41.237  28.672  33.141  1.00  0.00     0.074 A 
ATOM     42  C   UNL A   1      39.920  28.106  33.244  1.00  0.00     0.031 C 
ATOM     43  C   UNL A   1      40.838  27.515  26.743  1.00  0.00     0.029 A 
ATOM     44  C   UNL A   1      41.861  26.999  27.635  1.00  0.00     0.049 A 
ATOM     45  H   UNL A   1      42.265  27.651  29.590  1.00  0.00     0.167 HD
ATOM     46  C   UNL A   1      42.385  28.426  33.834  1.00  0.00     0.034 A 
ATOM     47  C   UNL A   1      42.801  26.051  27.384  1.00  0.00     0.034 A 
ATOM     48  C   UNL A   1      43.479  29.192  33.280  1.00  0.00     0.049 A 
ATOM     49  C   UNL A   1      43.925  26.308  28.309  1.00  0.00     0.074 A 
ATOM     50  C   UNL A   1      43.825  30.523  33.197  1.00  0.00     0.029 A 
ATOM     51  N   UNL A   1      44.233  28.524  32.345  1.00  0.00    -0.354 N 
ATOM     52  N   UNL A   1      44.638  27.398  28.271  1.00  0.00    -0.248 NA
ATOM     53  C   UNL A   1      44.042  25.534  29.537  1.00  0.00     0.031 C 
ATOM     54  C   UNL A   1      44.553  30.654  31.975  1.00  0.00     0.029 A 
ATOM     55  C   UNL A   1      44.679  29.394  31.387  1.00  0.00     0.049 A 
ATOM     56  H   UNL A   1      44.425  27.558  32.363  1.00  0.00     0.167 HD
ATOM     57  C   UNL A   1      44.915  27.678  29.595  1.00  0.00     0.074 A 
ATOM     58  C   UNL A   1      44.696  26.418  30.297  1.00  0.00     0.031 C 
ATOM     59  C   UNL A   1      44.991  28.970  30.031  1.00  0.00     0.034 A 
BRANCH  46  60
ATOM     60  C   UNL A   1      42.664  27.185  34.675  1.00  0.00     0.023 A 
ATOM     61  C   UNL A   1      43.510  26.204  34.111  1.00  0.00     0.031 A 
ATOM     62  C   UNL A   1      41.934  26.773  35.811  1.00  0.00     0.131 A 
ATOM     63  C   UNL A   1      43.519  24.882  34.594  1.00  0.00     0.055 A 
ATOM     64  C   UNL A   1      41.987  25.470  36.321  1.00  0.00     0.041 A 
ATOM     65  F   UNL A   1      41.060  27.562  36.442  1.00  0.00    -0.206 F 
ATOM     66  C   UNL A   1      42.757  24.506  35.694  1.00  0.00     0.022 A 
BRANCH  63  67
ATOM     67  S   UNL A   1      44.412  23.615  33.651  1.00  0.00     0.124 S 
ATOM     68  O   UNL A   1      45.180  22.952  34.698  1.00  0.00    -0.237 OA
ATOM     69  O   UNL A   1      43.316  22.849  33.068  1.00  0.00    -0.237 OA
ATOM     70  O   UNL A   1      45.199  24.396  32.699  1.00  0.00    -0.744 OA
ENDBRANCH  63  67
ENDBRANCH  46  60
BRANCH  47  71
ATOM     71  C   UNL A   1      42.678  24.819  26.559  1.00  0.00     0.023 A 
ATOM     72  C   UNL A   1      43.667  24.405  25.642  1.00  0.00     0.031 A 
ATOM     73  C   UNL A   1      41.668  23.883  26.873  1.00  0.00     0.131 A 
ATOM     74  C   UNL A   1      43.632  23.098  25.099  1.00  0.00     0.055 A 
ATOM     75  C   UNL A   1      41.640  22.594  26.335  1.00  0.00     0.041 A 
ATOM     76  F   UNL A   1      40.724  24.160  27.786  1.00  0.00    -0.206 F 
ATOM     77  C   UNL A   1      42.631  22.191  25.454  1.00  0.00     0.022 A 
BRANCH  74  78
ATOM     78  S   UNL A   1      44.958  22.520  23.987  1.00  0.00     0.124 S 
ATOM     79  O   UNL A   1      44.225  22.211  22.765  1.00  0.00    -0.237 OA
ATOM     80  O   UNL A   1      45.850  23.673  23.937  1.00  0.00    -0.237 OA
ATOM     81  O   UNL A   1      45.504  21.356  24.685  1.00  0.00    -0.744 OA
ENDBRANCH  74  78
ENDBRANCH  47  71
BRANCH  59  82
ATOM     82  C   UNL A   1      45.274  30.039  28.999  1.00  0.00     0.023 A 
ATOM     83  C   UNL A   1      46.557  30.440  28.562  1.00  0.00     0.031 A 
ATOM     84  C   UNL A   1      44.159  30.647  28.395  1.00  0.00     0.131 A 
ATOM     85  C   UNL A   1      46.683  31.430  27.568  1.00  0.00     0.055 A 
ATOM     86  C   UNL A   1      44.288  31.607  27.395  1.00  0.00     0.041 A 
ATOM     87  F   UNL A   1      42.914  30.297  28.757  1.00  0.00    -0.206 F 
ATOM     88  C   UNL A   1      45.552  32.009  26.982  1.00  0.00     0.022 A 
BRANCH  85  89
ATOM     89  S   UNL A   1      48.328  32.009  27.034  1.00  0.00     0.124 S 
ATOM     90  O   UNL A   1      48.922  32.531  28.258  1.00  0.00    -0.237 OA
ATOM     91  O   UNL A   1      48.932  30.794  26.497  1.00  0.00    -0.237 OA
ATOM     92  O   UNL A   1      48.018  33.027  26.027  1.00  0.00    -0.744 OA
ENDBRANCH  85  89
ENDBRANCH  59  82
ENDBRANCH  33  34
ENDBRANCH  25  28
ENDBRANCH  23  24
ENDBRANCH   1  23
TORSDOF 16
ENDMDL
