MODEL 1
REMARK VINA RESULT:     -12.0      0.000      0.000
REMARK SMILES COc1ccc(OC)c(-c2cc(C(=O)NCCCCNC(=O)c3ccc(-c4c5nc(c(-c6cc(S(=O)(=O)[O-])ccc6F)c6ccc([nH]6)c(-c6cc(S(=O)(=O)[O-])ccc6F)c6nc(c(-c7cc(S(=O)(=O)[O-])ccc7F)c7ccc4[nH]7)C=C6)C=C5)cc3)ccn2)c1
REMARK SMILES IDX 18 1 17 2 16 3 15 4 13 5 14 6 12 8 10 9 11 10 88 11 87 12
REMARK SMILES IDX 86 13 9 14 3 15 4 16 89 17 5 18 6 19 2 20 1 21 7 22 8 23
REMARK SMILES IDX 19 24 20 25 21 26 22 28 23 29 24 30 85 31 25 32 84 33 26 34
REMARK SMILES IDX 27 35 28 36 78 37 29 38 83 39 77 40 79 41 30 42 82 43 76 44
REMARK SMILES IDX 75 45 31 47 63 48 43 49 62 50 44 51 47 52 61 53 80 54 45 55
REMARK SMILES IDX 46 56 60 58 81 59 48 60 32 61 33 62 41 63 34 64 40 65 42 66
REMARK SMILES IDX 39 67 35 68 36 69 37 70 38 71 64 72 65 73 73 74 66 75 72 76
REMARK SMILES IDX 74 77 71 78 67 79 68 80 69 81 70 82 49 83 50 84 58 85 51 86
REMARK SMILES IDX 57 87 59 88 56 89 52 90 53 91 54 92 55 93
REMARK H PARENT 15 7 20 27 79 46 47 57
REMARK Flexibility Score: inf
ROOT
ATOM      1  C   UNL A   1      31.368  31.663  26.467  1.00  0.00     0.023 C 
ENDROOT
BRANCH   1   2
ATOM      2  C   UNL A   1      31.531  30.296  25.795  1.00  0.00     0.023 C 
BRANCH   2   3
ATOM      3  C   UNL A   1      32.918  29.673  25.972  1.00  0.00     0.116 C 
BRANCH   3   4
ATOM      4  N   UNL A   1      33.617  29.606  24.701  1.00  0.00    -0.352 N 
ATOM      5  C   UNL A   1      33.727  28.609  23.763  1.00  0.00     0.251 C 
ATOM      6  O   UNL A   1      34.357  28.840  22.733  1.00  0.00    -0.269 OA
ATOM      7  H   UNL A   1      34.104  30.429  24.468  1.00  0.00     0.163 HD
BRANCH   5   8
ATOM      8  C   UNL A   1      33.069  27.286  23.910  1.00  0.00     0.043 A 
ATOM      9  C   UNL A   1      32.826  25.085  24.829  1.00  0.00     0.075 A 
ATOM     10  C   UNL A   1      33.584  26.240  24.666  1.00  0.00     0.043 A 
ATOM     11  N   UNL A   1      31.634  24.903  24.215  1.00  0.00    -0.256 NA
ATOM     12  C   UNL A   1      31.198  25.892  23.406  1.00  0.00     0.112 A 
ATOM     13  C   UNL A   1      31.864  27.090  23.233  1.00  0.00     0.034 A 
BRANCH   9  14
ATOM     14  C   UNL A   1      33.240  24.065  25.796  1.00  0.00     0.046 A 
ATOM     15  C   UNL A   1      34.941  22.351  26.287  1.00  0.00     0.119 A 
ATOM     16  C   UNL A   1      34.151  21.886  27.330  1.00  0.00     0.050 A 
ATOM     17  C   UNL A   1      34.492  23.440  25.542  1.00  0.00     0.060 A 
ATOM     18  C   UNL A   1      32.931  22.501  27.619  1.00  0.00     0.051 A 
ATOM     19  C   UNL A   1      32.460  23.587  26.864  1.00  0.00     0.128 A 
BRANCH  15  20
ATOM     20  O   UNL A   1      36.093  21.647  26.082  1.00  0.00    -0.497 OA
ATOM     21  C   UNL A   1      36.074  20.636  25.080  1.00  0.00     0.278 C 
ENDBRANCH  15  20
BRANCH  19  22
ATOM     22  O   UNL A   1      31.213  23.979  27.271  1.00  0.00    -0.496 OA
ATOM     23  C   UNL A   1      30.083  23.210  26.891  1.00  0.00     0.278 C 
ENDBRANCH  19  22
ENDBRANCH   9  14
ENDBRANCH   5   8
ENDBRANCH   3   4
ENDBRANCH   2   3
ENDBRANCH   1   2
BRANCH   1  24
ATOM     24  C   UNL A   1      32.655  32.256  27.031  1.00  0.00     0.116 C 
BRANCH  24  25
ATOM     25  N   UNL A   1      32.491  33.613  27.526  1.00  0.00    -0.352 N 
ATOM     26  C   UNL A   1      33.244  34.275  28.471  1.00  0.00     0.251 C 
ATOM     27  H   UNL A   1      31.745  34.125  27.136  1.00  0.00     0.163 HD
ATOM     28  O   UNL A   1      32.908  35.383  28.856  1.00  0.00    -0.269 OA
BRANCH  26  29
ATOM     29  C   UNL A   1      34.431  33.602  29.042  1.00  0.00     0.039 A 
ATOM     30  C   UNL A   1      35.696  34.121  28.760  1.00  0.00     0.014 A 
ATOM     31  C   UNL A   1      34.293  32.493  29.881  1.00  0.00     0.014 A 
ATOM     32  C   UNL A   1      36.822  33.569  29.376  1.00  0.00     0.010 A 
ATOM     33  C   UNL A   1      35.407  31.985  30.542  1.00  0.00     0.010 A 
ATOM     34  C   UNL A   1      36.681  32.521  30.300  1.00  0.00    -0.014 A 
BRANCH  34  35
ATOM     35  C   UNL A   1      37.854  31.975  31.029  1.00  0.00     0.031 A 
ATOM     36  C   UNL A   1      38.664  30.862  30.424  1.00  0.00     0.074 A 
ATOM     37  C   UNL A   1      38.141  32.429  32.266  1.00  0.00     0.049 A 
ATOM     38  N   UNL A   1      39.666  30.194  30.935  1.00  0.00    -0.248 NA
ATOM     39  C   UNL A   1      38.272  30.422  29.076  1.00  0.00     0.031 C 
ATOM     40  C   UNL A   1      37.399  33.477  32.975  1.00  0.00     0.029 A 
ATOM     41  N   UNL A   1      39.122  32.063  33.153  1.00  0.00    -0.354 N 
ATOM     42  C   UNL A   1      40.010  29.240  29.982  1.00  0.00     0.074 A 
ATOM     43  C   UNL A   1      39.077  29.387  28.886  1.00  0.00     0.031 C 
ATOM     44  C   UNL A   1      37.964  33.680  34.176  1.00  0.00     0.029 A 
ATOM     45  C   UNL A   1      39.079  32.753  34.343  1.00  0.00     0.049 A 
ATOM     46  H   UNL A   1      39.794  31.371  32.955  1.00  0.00     0.167 HD
ATOM     47  C   UNL A   1      41.023  28.339  30.013  1.00  0.00     0.034 A 
ATOM     48  C   UNL A   1      39.844  32.642  35.447  1.00  0.00     0.034 A 
ATOM     49  C   UNL A   1      41.961  28.226  31.104  1.00  0.00     0.049 A 
ATOM     50  C   UNL A   1      40.961  31.627  35.458  1.00  0.00     0.074 A 
ATOM     51  C   UNL A   1      43.072  27.407  31.203  1.00  0.00     0.029 A 
ATOM     52  N   UNL A   1      41.895  28.950  32.288  1.00  0.00    -0.354 N 
ATOM     53  N   UNL A   1      41.316  30.779  34.521  1.00  0.00    -0.248 NA
ATOM     54  C   UNL A   1      41.786  31.565  36.672  1.00  0.00     0.031 C 
ATOM     55  C   UNL A   1      43.639  27.587  32.470  1.00  0.00     0.029 A 
ATOM     56  C   UNL A   1      42.925  28.571  33.136  1.00  0.00     0.049 A 
ATOM     57  H   UNL A   1      41.217  29.631  32.495  1.00  0.00     0.167 HD
ATOM     58  C   UNL A   1      42.428  30.108  35.021  1.00  0.00     0.074 A 
ATOM     59  C   UNL A   1      42.690  30.658  36.334  1.00  0.00     0.031 C 
ATOM     60  C   UNL A   1      43.170  29.128  34.444  1.00  0.00     0.034 A 
BRANCH  47  61
ATOM     61  C   UNL A   1      41.148  27.388  28.848  1.00  0.00     0.023 A 
ATOM     62  C   UNL A   1      42.143  27.543  27.868  1.00  0.00     0.031 A 
ATOM     63  C   UNL A   1      40.245  26.320  28.705  1.00  0.00     0.131 A 
ATOM     64  C   UNL A   1      42.167  26.692  26.753  1.00  0.00     0.055 A 
ATOM     65  C   UNL A   1      40.323  25.427  27.634  1.00  0.00     0.041 A 
ATOM     66  F   UNL A   1      39.260  26.133  29.599  1.00  0.00    -0.206 F 
ATOM     67  C   UNL A   1      41.280  25.619  26.641  1.00  0.00     0.022 A 
BRANCH  64  68
ATOM     68  S   UNL A   1      43.289  27.089  25.384  1.00  0.00     0.124 S 
ATOM     69  O   UNL A   1      42.454  27.963  24.563  1.00  0.00    -0.237 OA
ATOM     70  O   UNL A   1      44.407  27.730  26.068  1.00  0.00    -0.237 OA
ATOM     71  O   UNL A   1      43.583  25.785  24.793  1.00  0.00    -0.744 OA
ENDBRANCH  64  68
ENDBRANCH  47  61
BRANCH  48  72
ATOM     72  C   UNL A   1      39.590  33.500  36.639  1.00  0.00     0.023 A 
ATOM     73  C   UNL A   1      38.961  32.978  37.781  1.00  0.00     0.031 A 
ATOM     74  C   UNL A   1      39.918  34.867  36.634  1.00  0.00     0.131 A 
ATOM     75  C   UNL A   1      38.630  33.828  38.848  1.00  0.00     0.055 A 
ATOM     76  C   UNL A   1      39.636  35.698  37.721  1.00  0.00     0.041 A 
ATOM     77  F   UNL A   1      40.526  35.416  35.570  1.00  0.00    -0.206 F 
ATOM     78  C   UNL A   1      38.973  35.182  38.831  1.00  0.00     0.022 A 
BRANCH  75  79
ATOM     79  S   UNL A   1      37.656  33.153  40.222  1.00  0.00     0.124 S 
ATOM     80  O   UNL A   1      36.399  32.824  39.561  1.00  0.00    -0.237 OA
ATOM     81  O   UNL A   1      38.475  32.023  40.647  1.00  0.00    -0.237 OA
ATOM     82  O   UNL A   1      37.591  34.265  41.169  1.00  0.00    -0.744 OA
ENDBRANCH  75  79
ENDBRANCH  48  72
BRANCH  60  83
ATOM     83  C   UNL A   1      44.367  28.632  35.218  1.00  0.00     0.023 A 
ATOM     84  C   UNL A   1      44.254  27.621  36.188  1.00  0.00     0.031 A 
ATOM     85  C   UNL A   1      45.635  29.192  34.987  1.00  0.00     0.131 A 
ATOM     86  C   UNL A   1      45.381  27.239  36.931  1.00  0.00     0.055 A 
ATOM     87  C   UNL A   1      46.764  28.767  35.689  1.00  0.00     0.041 A 
ATOM     88  F   UNL A   1      45.798  30.162  34.072  1.00  0.00    -0.206 F 
ATOM     89  C   UNL A   1      46.638  27.794  36.676  1.00  0.00     0.022 A 
BRANCH  86  90
ATOM     90  S   UNL A   1      45.167  26.064  38.297  1.00  0.00     0.124 S 
ATOM     91  O   UNL A   1      44.318  26.816  39.214  1.00  0.00    -0.237 OA
ATOM     92  O   UNL A   1      44.538  24.926  37.634  1.00  0.00    -0.237 OA
ATOM     93  O   UNL A   1      46.532  25.830  38.765  1.00  0.00    -0.744 OA
ENDBRANCH  86  90
ENDBRANCH  60  83
ENDBRANCH  34  35
ENDBRANCH  26  29
ENDBRANCH  24  25
ENDBRANCH   1  24
TORSDOF 17
ENDMDL
MODEL 2
REMARK VINA RESULT:     -11.7      5.898     11.250
REMARK SMILES COc1ccc(OC)c(-c2cc(C(=O)NCCCCNC(=O)c3ccc(-c4c5nc(c(-c6cc(S(=O)(=O)[O-])ccc6F)c6ccc([nH]6)c(-c6cc(S(=O)(=O)[O-])ccc6F)c6nc(c(-c7cc(S(=O)(=O)[O-])ccc7F)c7ccc4[nH]7)C=C6)C=C5)cc3)ccn2)c1
REMARK SMILES IDX 18 1 17 2 16 3 15 4 13 5 14 6 12 8 10 9 11 10 88 11 87 12
REMARK SMILES IDX 86 13 9 14 3 15 4 16 89 17 5 18 6 19 2 20 1 21 7 22 8 23
REMARK SMILES IDX 19 24 20 25 21 26 22 28 23 29 24 30 85 31 25 32 84 33 26 34
REMARK SMILES IDX 27 35 28 36 78 37 29 38 83 39 77 40 79 41 30 42 82 43 76 44
REMARK SMILES IDX 75 45 31 47 63 48 43 49 62 50 44 51 47 52 61 53 80 54 45 55
REMARK SMILES IDX 46 56 60 58 81 59 48 60 32 61 33 62 41 63 34 64 40 65 42 66
REMARK SMILES IDX 39 67 35 68 36 69 37 70 38 71 64 72 65 73 73 74 66 75 72 76
REMARK SMILES IDX 74 77 71 78 67 79 68 80 69 81 70 82 49 83 50 84 58 85 51 86
REMARK SMILES IDX 57 87 59 88 56 89 52 90 53 91 54 92 55 93
REMARK H PARENT 15 7 20 27 79 46 47 57
REMARK Flexibility Score: inf
ROOT
ATOM      1  C   UNL A   1      37.495  19.584  24.988  1.00  0.00     0.023 C 
ENDROOT
BRANCH   1   2
ATOM      2  C   UNL A   1      36.337  20.547  24.713  1.00  0.00     0.023 C 
BRANCH   2   3
ATOM      3  C   UNL A   1      36.399  21.847  25.518  1.00  0.00     0.116 C 
BRANCH   3   4
ATOM      4  N   UNL A   1      35.532  21.774  26.681  1.00  0.00    -0.352 N 
ATOM      5  C   UNL A   1      34.260  22.237  26.910  1.00  0.00     0.251 C 
ATOM      6  O   UNL A   1      33.733  21.991  27.994  1.00  0.00    -0.269 OA
ATOM      7  H   UNL A   1      35.931  21.305  27.448  1.00  0.00     0.163 HD
BRANCH   5   8
ATOM      8  C   UNL A   1      33.469  22.967  25.887  1.00  0.00     0.043 A 
ATOM      9  C   UNL A   1      32.950  24.853  24.502  1.00  0.00     0.075 A 
ATOM     10  C   UNL A   1      33.669  24.302  25.557  1.00  0.00     0.043 A 
ATOM     11  N   UNL A   1      32.001  24.164  23.827  1.00  0.00    -0.256 NA
ATOM     12  C   UNL A   1      31.754  22.898  24.229  1.00  0.00     0.112 A 
ATOM     13  C   UNL A   1      32.460  22.261  25.232  1.00  0.00     0.034 A 
BRANCH   9  14
ATOM     14  C   UNL A   1      33.299  26.181  23.989  1.00  0.00     0.046 A 
ATOM     15  C   UNL A   1      33.363  28.582  24.541  1.00  0.00     0.119 A 
ATOM     16  C   UNL A   1      33.642  28.866  23.211  1.00  0.00     0.050 A 
ATOM     17  C   UNL A   1      33.210  27.250  24.923  1.00  0.00     0.060 A 
ATOM     18  C   UNL A   1      33.762  27.833  22.280  1.00  0.00     0.051 A 
ATOM     19  C   UNL A   1      33.593  26.488  22.649  1.00  0.00     0.128 A 
BRANCH  15  20
ATOM     20  O   UNL A   1      33.236  29.677  25.347  1.00  0.00    -0.497 OA
ATOM     21  C   UNL A   1      31.919  30.062  25.726  1.00  0.00     0.278 C 
ENDBRANCH  15  20
BRANCH  19  22
ATOM     22  O   UNL A   1      33.677  25.655  21.566  1.00  0.00    -0.496 OA
ATOM     23  C   UNL A   1      32.593  25.589  20.652  1.00  0.00     0.278 C 
ENDBRANCH  19  22
ENDBRANCH   9  14
ENDBRANCH   5   8
ENDBRANCH   3   4
ENDBRANCH   2   3
ENDBRANCH   1   2
BRANCH   1  24
ATOM     24  C   UNL A   1      38.668  20.194  25.748  1.00  0.00     0.116 C 
BRANCH  24  25
ATOM     25  N   UNL A   1      39.817  19.308  25.837  1.00  0.00    -0.352 N 
ATOM     26  C   UNL A   1      41.117  19.624  26.166  1.00  0.00     0.251 C 
ATOM     27  H   UNL A   1      39.644  18.360  25.634  1.00  0.00     0.163 HD
ATOM     28  O   UNL A   1      41.992  18.776  26.090  1.00  0.00    -0.269 OA
BRANCH  26  29
ATOM     29  C   UNL A   1      41.439  21.012  26.563  1.00  0.00     0.039 A 
ATOM     30  C   UNL A   1      42.211  21.219  27.708  1.00  0.00     0.014 A 
ATOM     31  C   UNL A   1      41.016  22.096  25.789  1.00  0.00     0.014 A 
ATOM     32  C   UNL A   1      42.619  22.514  28.040  1.00  0.00     0.010 A 
ATOM     33  C   UNL A   1      41.475  23.376  26.086  1.00  0.00     0.010 A 
ATOM     34  C   UNL A   1      42.285  23.597  27.210  1.00  0.00    -0.014 A 
BRANCH  34  35
ATOM     35  C   UNL A   1      42.778  24.968  27.498  1.00  0.00     0.031 A 
ATOM     36  C   UNL A   1      41.867  25.974  28.146  1.00  0.00     0.074 A 
ATOM     37  C   UNL A   1      44.017  25.326  27.107  1.00  0.00     0.049 A 
ATOM     38  N   UNL A   1      42.077  27.239  28.400  1.00  0.00    -0.248 NA
ATOM     39  C   UNL A   1      40.528  25.497  28.528  1.00  0.00     0.031 C 
ATOM     40  C   UNL A   1      44.977  24.449  26.430  1.00  0.00     0.029 A 
ATOM     41  N   UNL A   1      44.681  26.523  27.209  1.00  0.00    -0.354 N 
ATOM     42  C   UNL A   1      40.892  27.717  28.952  1.00  0.00     0.074 A 
ATOM     43  C   UNL A   1      39.954  26.615  28.947  1.00  0.00     0.031 C 
ATOM     44  C   UNL A   1      46.109  25.132  26.197  1.00  0.00     0.029 A 
ATOM     45  C   UNL A   1      45.946  26.504  26.667  1.00  0.00     0.049 A 
ATOM     46  H   UNL A   1      44.288  27.321  27.632  1.00  0.00     0.167 HD
ATOM     47  C   UNL A   1      40.621  28.955  29.433  1.00  0.00     0.034 A 
ATOM     48  C   UNL A   1      46.863  27.485  26.550  1.00  0.00     0.034 A 
ATOM     49  C   UNL A   1      41.579  30.034  29.454  1.00  0.00     0.049 A 
ATOM     50  C   UNL A   1      46.534  28.855  27.089  1.00  0.00     0.074 A 
ATOM     51  C   UNL A   1      41.438  31.301  29.992  1.00  0.00     0.029 A 
ATOM     52  N   UNL A   1      42.856  29.976  28.907  1.00  0.00    -0.354 N 
ATOM     53  N   UNL A   1      45.432  29.273  27.669  1.00  0.00    -0.248 NA
ATOM     54  C   UNL A   1      47.577  29.882  26.967  1.00  0.00     0.031 C 
ATOM     55  C   UNL A   1      42.601  32.029  29.714  1.00  0.00     0.029 A 
ATOM     56  C   UNL A   1      43.498  31.194  29.066  1.00  0.00     0.049 A 
ATOM     57  H   UNL A   1      43.246  29.185  28.471  1.00  0.00     0.167 HD
ATOM     58  C   UNL A   1      45.666  30.601  28.012  1.00  0.00     0.074 A 
ATOM     59  C   UNL A   1      47.015  30.909  27.584  1.00  0.00     0.031 C 
ATOM     60  C   UNL A   1      44.842  31.486  28.629  1.00  0.00     0.034 A 
BRANCH  47  61
ATOM     61  C   UNL A   1      39.226  29.215  29.947  1.00  0.00     0.023 A 
ATOM     62  C   UNL A   1      38.281  29.933  29.194  1.00  0.00     0.031 A 
ATOM     63  C   UNL A   1      38.841  28.753  31.218  1.00  0.00     0.131 A 
ATOM     64  C   UNL A   1      37.026  30.230  29.746  1.00  0.00     0.055 A 
ATOM     65  C   UNL A   1      37.563  28.984  31.730  1.00  0.00     0.041 A 
ATOM     66  F   UNL A   1      39.708  28.079  31.991  1.00  0.00    -0.206 F 
ATOM     67  C   UNL A   1      36.650  29.740  30.998  1.00  0.00     0.022 A 
BRANCH  64  68
ATOM     68  S   UNL A   1      35.940  31.382  28.860  1.00  0.00     0.124 S 
ATOM     69  O   UNL A   1      36.884  32.420  28.450  1.00  0.00    -0.237 OA
ATOM     70  O   UNL A   1      35.402  30.549  27.791  1.00  0.00    -0.237 OA
ATOM     71  O   UNL A   1      34.975  31.795  29.876  1.00  0.00    -0.744 OA
ENDBRANCH  64  68
ENDBRANCH  47  61
BRANCH  48  72
ATOM     72  C   UNL A   1      48.177  27.225  25.896  1.00  0.00     0.023 A 
ATOM     73  C   UNL A   1      48.350  27.435  24.519  1.00  0.00     0.031 A 
ATOM     74  C   UNL A   1      49.262  26.707  26.626  1.00  0.00     0.131 A 
ATOM     75  C   UNL A   1      49.560  27.079  23.903  1.00  0.00     0.055 A 
ATOM     76  C   UNL A   1      50.483  26.405  26.017  1.00  0.00     0.041 A 
ATOM     77  F   UNL A   1      49.152  26.492  27.947  1.00  0.00    -0.206 F 
ATOM     78  C   UNL A   1      50.631  26.575  24.645  1.00  0.00     0.022 A 
BRANCH  75  79
ATOM     79  S   UNL A   1      49.678  27.194  22.096  1.00  0.00     0.124 S 
ATOM     80  O   UNL A   1      48.698  26.201  21.671  1.00  0.00    -0.237 OA
ATOM     81  O   UNL A   1      49.325  28.589  21.858  1.00  0.00    -0.237 OA
ATOM     82  O   UNL A   1      51.073  26.850  21.825  1.00  0.00    -0.744 OA
ENDBRANCH  75  79
ENDBRANCH  48  72
BRANCH  60  83
ATOM     83  C   UNL A   1      45.406  32.854  28.923  1.00  0.00     0.023 A 
ATOM     84  C   UNL A   1      45.414  33.875  27.957  1.00  0.00     0.031 A 
ATOM     85  C   UNL A   1      45.955  33.133  30.187  1.00  0.00     0.131 A 
ATOM     86  C   UNL A   1      46.009  35.110  28.252  1.00  0.00     0.055 A 
ATOM     87  C   UNL A   1      46.495  34.383  30.494  1.00  0.00     0.041 A 
ATOM     88  F   UNL A   1      45.974  32.193  31.146  1.00  0.00    -0.206 F 
ATOM     89  C   UNL A   1      46.535  35.376  29.520  1.00  0.00     0.022 A 
BRANCH  86  90
ATOM     90  S   UNL A   1      46.164  36.341  26.928  1.00  0.00     0.124 S 
ATOM     91  O   UNL A   1      44.938  37.117  27.090  1.00  0.00    -0.237 OA
ATOM     92  O   UNL A   1      47.403  37.027  27.284  1.00  0.00    -0.237 OA
ATOM     93  O   UNL A   1      46.232  35.532  25.713  1.00  0.00    -0.744 OA
ENDBRANCH  86  90
ENDBRANCH  60  83
ENDBRANCH  34  35
ENDBRANCH  26  29
ENDBRANCH  24  25
ENDBRANCH   1  24
TORSDOF 17
ENDMDL
MODEL 3
REMARK VINA RESULT:     -11.6      5.451      8.869
REMARK SMILES COc1ccc(OC)c(-c2cc(C(=O)NCCCCNC(=O)c3ccc(-c4c5nc(c(-c6cc(S(=O)(=O)[O-])ccc6F)c6ccc([nH]6)c(-c6cc(S(=O)(=O)[O-])ccc6F)c6nc(c(-c7cc(S(=O)(=O)[O-])ccc7F)c7ccc4[nH]7)C=C6)C=C5)cc3)ccn2)c1
REMARK SMILES IDX 18 1 17 2 16 3 15 4 13 5 14 6 12 8 10 9 11 10 88 11 87 12
REMARK SMILES IDX 86 13 9 14 3 15 4 16 89 17 5 18 6 19 2 20 1 21 7 22 8 23
REMARK SMILES IDX 19 24 20 25 21 26 22 28 23 29 24 30 85 31 25 32 84 33 26 34
REMARK SMILES IDX 27 35 28 36 78 37 29 38 83 39 77 40 79 41 30 42 82 43 76 44
REMARK SMILES IDX 75 45 31 47 63 48 43 49 62 50 44 51 47 52 61 53 80 54 45 55
REMARK SMILES IDX 46 56 60 58 81 59 48 60 32 61 33 62 41 63 34 64 40 65 42 66
REMARK SMILES IDX 39 67 35 68 36 69 37 70 38 71 64 72 65 73 73 74 66 75 72 76
REMARK SMILES IDX 74 77 71 78 67 79 68 80 69 81 70 82 49 83 50 84 58 85 51 86
REMARK SMILES IDX 57 87 59 88 56 89 52 90 53 91 54 92 55 93
REMARK H PARENT 15 7 20 27 79 46 47 57
REMARK Flexibility Score: inf
ROOT
ATOM      1  C   UNL A   1      36.731  20.450  24.948  1.00  0.00     0.023 C 
ENDROOT
BRANCH   1   2
ATOM      2  C   UNL A   1      35.464  21.216  25.337  1.00  0.00     0.023 C 
BRANCH   2   3
ATOM      3  C   UNL A   1      35.458  22.682  24.899  1.00  0.00     0.116 C 
BRANCH   3   4
ATOM      4  N   UNL A   1      35.065  22.801  23.506  1.00  0.00    -0.352 N 
ATOM      5  C   UNL A   1      33.942  23.318  22.908  1.00  0.00     0.251 C 
ATOM      6  O   UNL A   1      33.887  23.334  21.680  1.00  0.00    -0.269 OA
ATOM      7  H   UNL A   1      35.727  22.445  22.871  1.00  0.00     0.163 HD
BRANCH   5   8
ATOM      8  C   UNL A   1      32.819  23.912  23.677  1.00  0.00     0.043 A 
ATOM      9  C   UNL A   1      31.421  25.717  24.409  1.00  0.00     0.075 A 
ATOM     10  C   UNL A   1      32.569  25.276  23.759  1.00  0.00     0.043 A 
ATOM     11  N   UNL A   1      30.571  24.872  25.039  1.00  0.00    -0.256 NA
ATOM     12  C   UNL A   1      30.886  23.559  25.031  1.00  0.00     0.112 A 
ATOM     13  C   UNL A   1      31.976  23.036  24.363  1.00  0.00     0.034 A 
BRANCH   9  14
ATOM     14  C   UNL A   1      31.017  27.122  24.318  1.00  0.00     0.046 A 
ATOM     15  C   UNL A   1      29.877  28.785  22.901  1.00  0.00     0.119 A 
ATOM     16  C   UNL A   1      30.327  29.791  23.744  1.00  0.00     0.050 A 
ATOM     17  C   UNL A   1      30.208  27.464  23.198  1.00  0.00     0.060 A 
ATOM     18  C   UNL A   1      31.098  29.479  24.865  1.00  0.00     0.051 A 
ATOM     19  C   UNL A   1      31.454  28.154  25.166  1.00  0.00     0.128 A 
BRANCH  15  20
ATOM     20  O   UNL A   1      29.161  29.218  21.821  1.00  0.00    -0.497 OA
ATOM     21  C   UNL A   1      27.997  29.995  22.076  1.00  0.00     0.278 C 
ENDBRANCH  15  20
BRANCH  19  22
ATOM     22  O   UNL A   1      32.275  28.091  26.260  1.00  0.00    -0.496 OA
ATOM     23  C   UNL A   1      32.367  29.209  27.127  1.00  0.00     0.278 C 
ENDBRANCH  19  22
ENDBRANCH   9  14
ENDBRANCH   5   8
ENDBRANCH   3   4
ENDBRANCH   2   3
ENDBRANCH   1   2
BRANCH   1  24
ATOM     24  C   UNL A   1      38.037  21.132  25.344  1.00  0.00     0.116 C 
BRANCH  24  25
ATOM     25  N   UNL A   1      39.018  20.213  25.897  1.00  0.00    -0.352 N 
ATOM     26  C   UNL A   1      40.160  20.508  26.609  1.00  0.00     0.251 C 
ATOM     27  H   UNL A   1      38.846  19.256  25.742  1.00  0.00     0.163 HD
ATOM     28  O   UNL A   1      40.940  19.620  26.913  1.00  0.00    -0.269 OA
BRANCH  26  29
ATOM     29  C   UNL A   1      40.446  21.919  26.954  1.00  0.00     0.039 A 
ATOM     30  C   UNL A   1      41.340  22.186  27.993  1.00  0.00     0.014 A 
ATOM     31  C   UNL A   1      39.866  22.965  26.232  1.00  0.00     0.014 A 
ATOM     32  C   UNL A   1      41.708  23.506  28.262  1.00  0.00     0.010 A 
ATOM     33  C   UNL A   1      40.282  24.273  26.460  1.00  0.00     0.010 A 
ATOM     34  C   UNL A   1      41.210  24.556  27.473  1.00  0.00    -0.014 A 
BRANCH  34  35
ATOM     35  C   UNL A   1      41.652  25.958  27.689  1.00  0.00     0.031 A 
ATOM     36  C   UNL A   1      42.985  26.415  27.164  1.00  0.00     0.074 A 
ATOM     37  C   UNL A   1      40.888  26.793  28.422  1.00  0.00     0.049 A 
ATOM     38  N   UNL A   1      43.588  27.565  27.321  1.00  0.00    -0.248 NA
ATOM     39  C   UNL A   1      43.756  25.432  26.385  1.00  0.00     0.031 C 
ATOM     40  C   UNL A   1      39.595  26.449  29.021  1.00  0.00     0.029 A 
ATOM     41  N   UNL A   1      41.090  28.096  28.801  1.00  0.00    -0.354 N 
ATOM     42  C   UNL A   1      44.817  27.439  26.681  1.00  0.00     0.074 A 
ATOM     43  C   UNL A   1      44.891  26.084  26.179  1.00  0.00     0.031 C 
ATOM     44  C   UNL A   1      39.113  27.519  29.672  1.00  0.00     0.029 A 
ATOM     45  C   UNL A   1      40.076  28.611  29.577  1.00  0.00     0.049 A 
ATOM     46  H   UNL A   1      41.886  28.614  28.541  1.00  0.00     0.167 HD
ATOM     47  C   UNL A   1      45.784  28.375  26.515  1.00  0.00     0.034 A 
ATOM     48  C   UNL A   1      39.946  29.822  30.155  1.00  0.00     0.034 A 
ATOM     49  C   UNL A   1      45.680  29.730  27.001  1.00  0.00     0.049 A 
ATOM     50  C   UNL A   1      41.039  30.843  29.959  1.00  0.00     0.074 A 
ATOM     51  C   UNL A   1      46.562  30.781  26.817  1.00  0.00     0.029 A 
ATOM     52  N   UNL A   1      44.634  30.221  27.772  1.00  0.00    -0.354 N 
ATOM     53  N   UNL A   1      42.165  30.730  29.293  1.00  0.00    -0.248 NA
ATOM     54  C   UNL A   1      40.837  32.157  30.582  1.00  0.00     0.031 C 
ATOM     55  C   UNL A   1      46.083  31.886  27.529  1.00  0.00     0.029 A 
ATOM     56  C   UNL A   1      44.865  31.548  28.099  1.00  0.00     0.049 A 
ATOM     57  H   UNL A   1      43.844  29.702  28.046  1.00  0.00     0.167 HD
ATOM     58  C   UNL A   1      42.787  31.971  29.390  1.00  0.00     0.074 A 
ATOM     59  C   UNL A   1      41.906  32.818  30.167  1.00  0.00     0.031 C 
ATOM     60  C   UNL A   1      43.977  32.377  28.879  1.00  0.00     0.034 A 
BRANCH  47  61
ATOM     61  C   UNL A   1      47.047  27.954  25.804  1.00  0.00     0.023 A 
ATOM     62  C   UNL A   1      47.215  28.136  24.421  1.00  0.00     0.031 A 
ATOM     63  C   UNL A   1      48.093  27.344  26.519  1.00  0.00     0.131 A 
ATOM     64  C   UNL A   1      48.366  27.648  23.784  1.00  0.00     0.055 A 
ATOM     65  C   UNL A   1      49.271  26.932  25.893  1.00  0.00     0.041 A 
ATOM     66  F   UNL A   1      47.982  27.125  27.839  1.00  0.00    -0.206 F 
ATOM     67  C   UNL A   1      49.407  27.070  24.513  1.00  0.00     0.022 A 
BRANCH  64  68
ATOM     68  S   UNL A   1      48.424  27.659  21.971  1.00  0.00     0.124 S 
ATOM     69  O   UNL A   1      48.663  26.248  21.676  1.00  0.00    -0.237 OA
ATOM     70  O   UNL A   1      47.106  28.173  21.617  1.00  0.00    -0.237 OA
ATOM     71  O   UNL A   1      49.543  28.550  21.669  1.00  0.00    -0.744 OA
ENDBRANCH  64  68
ENDBRANCH  47  61
BRANCH  48  72
ATOM     72  C   UNL A   1      38.747  30.146  30.979  1.00  0.00     0.023 A 
ATOM     73  C   UNL A   1      37.674  30.871  30.437  1.00  0.00     0.031 A 
ATOM     74  C   UNL A   1      38.680  29.786  32.337  1.00  0.00     0.131 A 
ATOM     75  C   UNL A   1      36.607  31.262  31.259  1.00  0.00     0.055 A 
ATOM     76  C   UNL A   1      37.589  30.132  33.139  1.00  0.00     0.041 A 
ATOM     77  F   UNL A   1      39.675  29.087  32.906  1.00  0.00    -0.206 F 
ATOM     78  C   UNL A   1      36.551  30.888  32.604  1.00  0.00     0.022 A 
BRANCH  75  79
ATOM     79  S   UNL A   1      35.334  32.354  30.565  1.00  0.00     0.124 S 
ATOM     80  O   UNL A   1      34.985  31.656  29.333  1.00  0.00    -0.237 OA
ATOM     81  O   UNL A   1      34.323  32.345  31.616  1.00  0.00    -0.237 OA
ATOM     82  O   UNL A   1      36.036  33.623  30.386  1.00  0.00    -0.744 OA
ENDBRANCH  75  79
ENDBRANCH  48  72
BRANCH  60  83
ATOM     83  C   UNL A   1      44.362  33.819  29.104  1.00  0.00     0.023 A 
ATOM     84  C   UNL A   1      43.811  34.860  28.338  1.00  0.00     0.031 A 
ATOM     85  C   UNL A   1      45.304  34.150  30.092  1.00  0.00     0.131 A 
ATOM     86  C   UNL A   1      44.247  36.178  28.536  1.00  0.00     0.055 A 
ATOM     87  C   UNL A   1      45.693  35.470  30.324  1.00  0.00     0.041 A 
ATOM     88  F   UNL A   1      45.863  33.193  30.852  1.00  0.00    -0.206 F 
ATOM     89  C   UNL A   1      45.173  36.491  29.535  1.00  0.00     0.022 A 
BRANCH  86  90
ATOM     90  S   UNL A   1      43.652  37.472  27.412  1.00  0.00     0.124 S 
ATOM     91  O   UNL A   1      42.853  36.705  26.462  1.00  0.00    -0.237 OA
ATOM     92  O   UNL A   1      42.906  38.347  28.311  1.00  0.00    -0.237 OA
ATOM     93  O   UNL A   1      44.881  38.046  26.868  1.00  0.00    -0.744 OA
ENDBRANCH  86  90
ENDBRANCH  60  83
ENDBRANCH  34  35
ENDBRANCH  26  29
ENDBRANCH  24  25
ENDBRANCH   1  24
TORSDOF 17
ENDMDL
