MODEL 1
REMARK VINA RESULT:     -13.3      0.000      0.000
REMARK SMILES CC[C@@]1(C)NC(=O)N(/N=C/c2ccccc2C(=O)NCCCCNC(=O)c2ccc(-c3c4nc(c(-c5cc(S(=O)(=O)[O-])ccc5F)c5ccc([nH]5)c(-c5cc(S(=O)(=O)[O-])ccc5F)c5nc(c(-c6cc(S(=O)(=O)[O-])ccc6F)c6ccc3[nH]6)C=C5)C=C4)cc2)C1=O
REMARK SMILES IDX 21 1 20 2 19 3 17 4 18 5 16 7 11 8 12 9 13 10 15 11 14 12
REMARK SMILES IDX 10 13 9 14 8 15 3 16 4 17 5 18 90 19 6 20 91 22 7 23 2 24
REMARK SMILES IDX 1 25 22 26 23 27 24 28 25 29 26 31 27 32 28 33 89 34 29 35
REMARK SMILES IDX 88 36 30 37 31 38 32 39 82 40 33 41 87 42 81 43 83 44 34 45
REMARK SMILES IDX 86 46 80 47 79 48 35 50 67 51 47 52 66 53 48 54 51 55 65 56
REMARK SMILES IDX 84 57 49 58 50 59 64 61 85 62 52 63 36 64 37 65 45 66 38 67
REMARK SMILES IDX 44 68 46 69 43 70 39 71 40 72 41 73 42 74 68 75 69 76 77 77
REMARK SMILES IDX 70 78 76 79 78 80 75 81 71 82 72 83 73 84 74 85 53 86 54 87
REMARK SMILES IDX 62 88 55 89 61 90 63 91 60 92 56 93 57 94 58 95 59 96
REMARK H PARENT 19 6 5 21 24 30 83 49 51 60
REMARK Flexibility Score: inf
ROOT
ATOM      1  C   UNL A   1      32.692  29.975  25.594  1.00  0.00     0.023 C 
ENDROOT
BRANCH   1   2
ATOM      2  C   UNL A   1      32.615  28.424  25.498  1.00  0.00     0.116 C 
BRANCH   2   3
ATOM      3  N   UNL A   1      32.913  27.831  24.196  1.00  0.00    -0.352 N 
ATOM      4  C   UNL A   1      32.044  27.642  23.132  1.00  0.00     0.251 C 
ATOM      5  O   UNL A   1      32.372  26.985  22.149  1.00  0.00    -0.269 OA
ATOM      6  H   UNL A   1      33.840  27.530  24.057  1.00  0.00     0.163 HD
BRANCH   4   7
ATOM      7  C   UNL A   1      30.638  28.074  23.265  1.00  0.00     0.048 A 
ATOM      8  C   UNL A   1      29.612  27.277  23.791  1.00  0.00     0.007 A 
ATOM      9  C   UNL A   1      28.283  27.639  23.494  1.00  0.00     0.010 A 
ATOM     10  C   UNL A   1      27.994  28.813  22.783  1.00  0.00     0.001 A 
ATOM     11  C   UNL A   1      30.342  29.298  22.632  1.00  0.00     0.014 A 
ATOM     12  C   UNL A   1      29.021  29.665  22.389  1.00  0.00     0.001 A 
BRANCH   8  13
ATOM     13  C   UNL A   1      29.822  25.951  24.448  1.00  0.00     0.143 C 
ATOM     14  N   UNL A   1      30.746  25.701  25.328  1.00  0.00    -0.169 NA
BRANCH  14  15
ATOM     15  N   UNL A   1      31.247  24.356  25.319  1.00  0.00    -0.146 N 
ATOM     16  C   UNL A   1      33.627  22.497  25.744  1.00  0.00     0.120 C 
ATOM     17  C   UNL A   1      33.684  21.580  24.352  1.00  0.00     0.045 C 
ATOM     18  N   UNL A   1      32.209  22.191  27.072  1.00  0.00    -0.322 N 
ATOM     19  C   UNL A   1      32.984  24.118  24.788  1.00  0.00     0.276 C 
ATOM     20  C   UNL A   1      30.635  23.225  26.687  1.00  0.00     0.346 C 
ATOM     21  H   UNL A   1      32.294  21.582  27.841  1.00  0.00     0.166 HD
ATOM     22  O   UNL A   1      33.665  24.882  24.116  1.00  0.00    -0.270 OA
ATOM     23  O   UNL A   1      29.644  23.330  27.393  1.00  0.00    -0.246 OA
BRANCH  16  24
ATOM     24  C   UNL A   1      35.049  22.147  26.334  1.00  0.00     0.035 C 
ATOM     25  C   UNL A   1      36.005  21.182  25.602  1.00  0.00     0.007 C 
ENDBRANCH  16  24
ENDBRANCH  14  15
ENDBRANCH   8  13
ENDBRANCH   4   7
ENDBRANCH   2   3
ENDBRANCH   1   2
BRANCH   1  26
ATOM     26  C   UNL A   1      31.378  30.813  25.715  1.00  0.00     0.023 C 
BRANCH  26  27
ATOM     27  C   UNL A   1      31.411  31.966  26.842  1.00  0.00     0.116 C 
BRANCH  27  28
ATOM     28  N   UNL A   1      32.488  33.715  27.397  1.00  0.00    -0.352 N 
ATOM     29  C   UNL A   1      33.902  34.206  27.824  1.00  0.00     0.251 C 
ATOM     30  H   UNL A   1      31.876  34.486  27.376  1.00  0.00     0.163 HD
ATOM     31  O   UNL A   1      34.068  35.429  27.831  1.00  0.00    -0.269 OA
BRANCH  29  32
ATOM     32  C   UNL A   1      35.091  33.312  28.190  1.00  0.00     0.039 A 
ATOM     33  C   UNL A   1      36.426  33.764  28.232  1.00  0.00     0.014 A 
ATOM     34  C   UNL A   1      34.818  32.042  28.704  1.00  0.00     0.014 A 
ATOM     35  C   UNL A   1      37.439  32.994  28.866  1.00  0.00     0.010 A 
ATOM     36  C   UNL A   1      35.807  31.318  29.390  1.00  0.00     0.010 A 
ATOM     37  C   UNL A   1      37.139  31.768  29.483  1.00  0.00    -0.014 A 
BRANCH  37  38
ATOM     38  C   UNL A   1      38.163  30.853  30.117  1.00  0.00     0.031 A 
ATOM     39  C   UNL A   1      38.528  31.089  31.570  1.00  0.00     0.074 A 
ATOM     40  C   UNL A   1      38.847  29.897  29.446  1.00  0.00     0.049 A 
ATOM     41  N   UNL A   1      39.521  30.614  32.281  1.00  0.00    -0.248 NA
ATOM     42  C   UNL A   1      37.663  32.024  32.303  1.00  0.00     0.031 C 
ATOM     43  C   UNL A   1      38.628  29.503  28.056  1.00  0.00     0.029 A 
ATOM     44  N   UNL A   1      39.900  29.092  29.847  1.00  0.00    -0.354 N 
ATOM     45  C   UNL A   1      39.424  31.225  33.530  1.00  0.00     0.074 A 
ATOM     46  C   UNL A   1      38.307  32.145  33.452  1.00  0.00     0.031 C 
ATOM     47  C   UNL A   1      39.514  28.545  27.721  1.00  0.00     0.029 A 
ATOM     48  C   UNL A   1      40.409  28.282  28.850  1.00  0.00     0.049 A 
ATOM     49  H   UNL A   1      40.257  29.097  30.764  1.00  0.00     0.167 HD
ATOM     50  C   UNL A   1      40.172  31.039  34.647  1.00  0.00     0.034 A 
ATOM     51  C   UNL A   1      41.480  27.451  28.827  1.00  0.00     0.034 A 
ATOM     52  C   UNL A   1      41.273  30.111  34.743  1.00  0.00     0.049 A 
ATOM     53  C   UNL A   1      42.358  27.312  30.058  1.00  0.00     0.074 A 
ATOM     54  C   UNL A   1      42.056  29.819  35.849  1.00  0.00     0.029 A 
ATOM     55  N   UNL A   1      41.759  29.337  33.701  1.00  0.00    -0.354 N 
ATOM     56  N   UNL A   1      42.234  27.884  31.234  1.00  0.00    -0.248 NA
ATOM     57  C   UNL A   1      43.525  26.417  29.956  1.00  0.00     0.031 C 
ATOM     58  C   UNL A   1      43.062  28.932  35.455  1.00  0.00     0.029 A 
ATOM     59  C   UNL A   1      42.856  28.600  34.126  1.00  0.00     0.049 A 
ATOM     60  H   UNL A   1      41.382  29.313  32.791  1.00  0.00     0.167 HD
ATOM     61  C   UNL A   1      43.284  27.394  32.013  1.00  0.00     0.074 A 
ATOM     62  C   UNL A   1      44.025  26.470  31.183  1.00  0.00     0.031 C 
ATOM     63  C   UNL A   1      43.602  27.680  33.301  1.00  0.00     0.034 A 
BRANCH  50  64
ATOM     64  C   UNL A   1      39.840  31.887  35.854  1.00  0.00     0.023 A 
ATOM     65  C   UNL A   1      38.924  31.456  36.830  1.00  0.00     0.031 A 
ATOM     66  C   UNL A   1      40.420  33.158  36.014  1.00  0.00     0.131 A 
ATOM     67  C   UNL A   1      38.544  32.322  37.866  1.00  0.00     0.055 A 
ATOM     68  C   UNL A   1      40.109  33.978  37.101  1.00  0.00     0.041 A 
ATOM     69  F   UNL A   1      41.290  33.632  35.110  1.00  0.00    -0.206 F 
ATOM     70  C   UNL A   1      39.151  33.569  38.025  1.00  0.00     0.022 A 
BRANCH  67  71
ATOM     71  S   UNL A   1      37.129  31.859  38.900  1.00  0.00     0.124 S 
ATOM     72  O   UNL A   1      37.663  32.069  40.244  1.00  0.00    -0.237 OA
ATOM     73  O   UNL A   1      36.102  32.800  38.468  1.00  0.00    -0.237 OA
ATOM     74  O   UNL A   1      36.886  30.463  38.545  1.00  0.00    -0.744 OA
ENDBRANCH  67  71
ENDBRANCH  50  64
BRANCH  51  75
ATOM     75  C   UNL A   1      41.847  26.696  27.582  1.00  0.00     0.023 A 
ATOM     76  C   UNL A   1      41.618  25.312  27.470  1.00  0.00     0.031 A 
ATOM     77  C   UNL A   1      42.513  27.331  26.518  1.00  0.00     0.131 A 
ATOM     78  C   UNL A   1      42.083  24.606  26.345  1.00  0.00     0.055 A 
ATOM     79  C   UNL A   1      42.922  26.636  25.376  1.00  0.00     0.041 A 
ATOM     80  F   UNL A   1      42.779  28.646  26.571  1.00  0.00    -0.206 F 
ATOM     81  C   UNL A   1      42.717  25.263  25.289  1.00  0.00     0.022 A 
BRANCH  78  82
ATOM     82  S   UNL A   1      41.928  22.796  26.316  1.00  0.00     0.124 S 
ATOM     83  O   UNL A   1      40.482  22.621  26.379  1.00  0.00    -0.237 OA
ATOM     84  O   UNL A   1      42.563  22.459  25.045  1.00  0.00    -0.237 OA
ATOM     85  O   UNL A   1      42.662  22.372  27.507  1.00  0.00    -0.744 OA
ENDBRANCH  78  82
ENDBRANCH  51  75
BRANCH  63  86
ATOM     86  C   UNL A   1      44.776  26.956  33.923  1.00  0.00     0.023 A 
ATOM     87  C   UNL A   1      44.631  25.716  34.570  1.00  0.00     0.031 A 
ATOM     88  C   UNL A   1      46.069  27.504  33.838  1.00  0.00     0.131 A 
ATOM     89  C   UNL A   1      45.750  25.085  35.138  1.00  0.00     0.055 A 
ATOM     90  C   UNL A   1      47.187  26.844  34.353  1.00  0.00     0.041 A 
ATOM     91  F   UNL A   1      46.273  28.687  33.235  1.00  0.00    -0.206 F 
ATOM     92  C   UNL A   1      47.030  25.632  35.015  1.00  0.00     0.022 A 
BRANCH  89  93
ATOM     93  S   UNL A   1      45.504  23.573  36.111  1.00  0.00     0.124 S 
ATOM     94  O   UNL A   1      46.805  22.922  35.994  1.00  0.00    -0.237 OA
ATOM     95  O   UNL A   1      45.171  24.100  37.431  1.00  0.00    -0.237 OA
ATOM     96  O   UNL A   1      44.408  22.895  35.422  1.00  0.00    -0.744 OA
ENDBRANCH  89  93
ENDBRANCH  63  86
ENDBRANCH  37  38
ENDBRANCH  29  32
ENDBRANCH  27  28
ENDBRANCH  26  27
ENDBRANCH   1  26
TORSDOF 17
ENDMDL
MODEL 2
REMARK VINA RESULT:     -12.9      1.794      3.790
REMARK SMILES CC[C@@]1(C)NC(=O)N(/N=C/c2ccccc2C(=O)NCCCCNC(=O)c2ccc(-c3c4nc(c(-c5cc(S(=O)(=O)[O-])ccc5F)c5ccc([nH]5)c(-c5cc(S(=O)(=O)[O-])ccc5F)c5nc(c(-c6cc(S(=O)(=O)[O-])ccc6F)c6ccc3[nH]6)C=C5)C=C4)cc2)C1=O
REMARK SMILES IDX 21 1 20 2 19 3 17 4 18 5 16 7 11 8 12 9 13 10 15 11 14 12
REMARK SMILES IDX 10 13 9 14 8 15 3 16 4 17 5 18 90 19 6 20 91 22 7 23 2 24
REMARK SMILES IDX 1 25 22 26 23 27 24 28 25 29 26 31 27 32 28 33 89 34 29 35
REMARK SMILES IDX 88 36 30 37 31 38 32 39 82 40 33 41 87 42 81 43 83 44 34 45
REMARK SMILES IDX 86 46 80 47 79 48 35 50 67 51 47 52 66 53 48 54 51 55 65 56
REMARK SMILES IDX 84 57 49 58 50 59 64 61 85 62 52 63 36 64 37 65 45 66 38 67
REMARK SMILES IDX 44 68 46 69 43 70 39 71 40 72 41 73 42 74 68 75 69 76 77 77
REMARK SMILES IDX 70 78 76 79 78 80 75 81 71 82 72 83 73 84 74 85 53 86 54 87
REMARK SMILES IDX 62 88 55 89 61 90 63 91 60 92 56 93 57 94 58 95 59 96
REMARK H PARENT 19 6 5 21 24 30 83 49 51 60
REMARK Flexibility Score: inf
ROOT
ATOM      1  C   UNL A   1      33.123  29.982  26.235  1.00  0.00     0.023 C 
ENDROOT
BRANCH   1   2
ATOM      2  C   UNL A   1      33.663  28.606  25.750  1.00  0.00     0.116 C 
BRANCH   2   3
ATOM      3  N   UNL A   1      33.663  28.371  24.308  1.00  0.00    -0.352 N 
ATOM      4  C   UNL A   1      33.539  27.159  23.646  1.00  0.00     0.251 C 
ATOM      5  O   UNL A   1      33.717  27.072  22.435  1.00  0.00    -0.269 OA
ATOM      6  H   UNL A   1      33.764  29.168  23.738  1.00  0.00     0.163 HD
BRANCH   4   7
ATOM      7  C   UNL A   1      33.378  25.922  24.436  1.00  0.00     0.048 A 
ATOM      8  C   UNL A   1      32.190  25.539  25.074  1.00  0.00     0.007 A 
ATOM      9  C   UNL A   1      32.278  24.580  26.102  1.00  0.00     0.010 A 
ATOM     10  C   UNL A   1      33.496  23.954  26.407  1.00  0.00     0.001 A 
ATOM     11  C   UNL A   1      34.580  25.226  24.681  1.00  0.00     0.014 A 
ATOM     12  C   UNL A   1      34.639  24.246  25.668  1.00  0.00     0.001 A 
BRANCH   8  13
ATOM     13  C   UNL A   1      30.877  26.232  24.905  1.00  0.00     0.143 C 
ATOM     14  N   UNL A   1      30.344  26.535  23.759  1.00  0.00    -0.169 NA
BRANCH  14  15
ATOM     15  N   UNL A   1      29.538  27.722  23.757  1.00  0.00    -0.146 N 
ATOM     16  C   UNL A   1      28.530  30.143  22.198  1.00  0.00     0.120 C 
ATOM     17  C   UNL A   1      28.855  31.438  23.199  1.00  0.00     0.045 C 
ATOM     18  N   UNL A   1      27.076  28.895  22.639  1.00  0.00    -0.322 N 
ATOM     19  C   UNL A   1      30.150  29.143  22.775  1.00  0.00     0.276 C 
ATOM     20  C   UNL A   1      27.677  27.473  23.783  1.00  0.00     0.346 C 
ATOM     21  H   UNL A   1      26.151  28.986  22.312  1.00  0.00     0.166 HD
ATOM     22  O   UNL A   1      31.299  29.351  22.408  1.00  0.00    -0.270 OA
ATOM     23  O   UNL A   1      27.033  26.493  24.125  1.00  0.00    -0.246 OA
BRANCH  16  24
ATOM     24  C   UNL A   1      28.227  30.927  20.862  1.00  0.00     0.035 C 
ATOM     25  C   UNL A   1      27.816  32.414  20.881  1.00  0.00     0.007 C 
ENDBRANCH  16  24
ENDBRANCH  14  15
ENDBRANCH   8  13
ENDBRANCH   4   7
ENDBRANCH   2   3
ENDBRANCH   1   2
BRANCH   1  26
ATOM     26  C   UNL A   1      31.644  30.386  25.935  1.00  0.00     0.023 C 
BRANCH  26  27
ATOM     27  C   UNL A   1      31.260  31.900  26.339  1.00  0.00     0.116 C 
BRANCH  27  28
ATOM     28  N   UNL A   1      32.089  33.638  27.246  1.00  0.00    -0.352 N 
ATOM     29  C   UNL A   1      33.391  34.179  27.904  1.00  0.00     0.251 C 
ATOM     30  H   UNL A   1      31.409  34.349  27.252  1.00  0.00     0.163 HD
ATOM     31  O   UNL A   1      33.432  35.399  28.092  1.00  0.00    -0.269 OA
BRANCH  29  32
ATOM     32  C   UNL A   1      34.617  33.346  28.292  1.00  0.00     0.039 A 
ATOM     33  C   UNL A   1      35.926  33.864  28.358  1.00  0.00     0.014 A 
ATOM     34  C   UNL A   1      34.397  32.065  28.803  1.00  0.00     0.014 A 
ATOM     35  C   UNL A   1      36.964  33.145  29.010  1.00  0.00     0.010 A 
ATOM     36  C   UNL A   1      35.408  31.391  29.508  1.00  0.00     0.010 A 
ATOM     37  C   UNL A   1      36.715  31.906  29.624  1.00  0.00    -0.014 A 
BRANCH  37  38
ATOM     38  C   UNL A   1      37.771  31.043  30.277  1.00  0.00     0.031 A 
ATOM     39  C   UNL A   1      38.093  31.294  31.739  1.00  0.00     0.074 A 
ATOM     40  C   UNL A   1      38.518  30.126  29.619  1.00  0.00     0.049 A 
ATOM     41  N   UNL A   1      39.094  30.868  32.469  1.00  0.00    -0.248 NA
ATOM     42  C   UNL A   1      37.165  32.180  32.455  1.00  0.00     0.031 C 
ATOM     43  C   UNL A   1      38.348  29.726  28.224  1.00  0.00     0.029 A 
ATOM     44  N   UNL A   1      39.603  29.375  30.040  1.00  0.00    -0.354 N 
ATOM     45  C   UNL A   1      38.939  31.470  33.717  1.00  0.00     0.074 A 
ATOM     46  C   UNL A   1      37.778  32.330  33.618  1.00  0.00     0.031 C 
ATOM     47  C   UNL A   1      39.290  28.816  27.905  1.00  0.00     0.029 A 
ATOM     48  C   UNL A   1      40.173  28.596  29.052  1.00  0.00     0.049 A 
ATOM     49  H   UNL A   1      39.939  29.396  30.965  1.00  0.00     0.167 HD
ATOM     50  C   UNL A   1      39.672  31.318  34.849  1.00  0.00     0.034 A 
ATOM     51  C   UNL A   1      41.286  27.822  29.050  1.00  0.00     0.034 A 
ATOM     52  C   UNL A   1      40.818  30.449  34.966  1.00  0.00     0.049 A 
ATOM     53  C   UNL A   1      42.144  27.724  30.299  1.00  0.00     0.074 A 
ATOM     54  C   UNL A   1      41.591  30.195  36.088  1.00  0.00     0.029 A 
ATOM     55  N   UNL A   1      41.365  29.704  33.933  1.00  0.00    -0.354 N 
ATOM     56  N   UNL A   1      41.966  28.285  31.474  1.00  0.00    -0.248 NA
ATOM     57  C   UNL A   1      43.358  26.892  30.221  1.00  0.00     0.031 C 
ATOM     58  C   UNL A   1      42.651  29.362  35.713  1.00  0.00     0.029 A 
ATOM     59  C   UNL A   1      42.489  29.024  34.380  1.00  0.00     0.049 A 
ATOM     60  H   UNL A   1      41.009  29.664  33.016  1.00  0.00     0.167 HD
ATOM     61  C   UNL A   1      43.024  27.848  32.273  1.00  0.00     0.074 A 
ATOM     62  C   UNL A   1      43.829  26.967  31.457  1.00  0.00     0.031 C 
ATOM     63  C   UNL A   1      43.300  28.147  33.569  1.00  0.00     0.034 A 
BRANCH  50  64
ATOM     64  C   UNL A   1      39.272  32.145  36.051  1.00  0.00     0.023 A 
ATOM     65  C   UNL A   1      39.831  33.411  36.295  1.00  0.00     0.031 A 
ATOM     66  C   UNL A   1      38.345  31.646  36.983  1.00  0.00     0.131 A 
ATOM     67  C   UNL A   1      39.533  34.091  37.486  1.00  0.00     0.055 A 
ATOM     68  C   UNL A   1      37.980  32.371  38.119  1.00  0.00     0.041 A 
ATOM     69  F   UNL A   1      37.786  30.438  36.813  1.00  0.00    -0.206 F 
ATOM     70  C   UNL A   1      38.590  33.593  38.386  1.00  0.00     0.022 A 
BRANCH  67  71
ATOM     71  S   UNL A   1      40.521  35.549  37.915  1.00  0.00     0.124 S 
ATOM     72  O   UNL A   1      41.848  35.157  37.447  1.00  0.00    -0.237 OA
ATOM     73  O   UNL A   1      39.865  36.609  37.158  1.00  0.00    -0.237 OA
ATOM     74  O   UNL A   1      40.383  35.642  39.367  1.00  0.00    -0.744 OA
ENDBRANCH  67  71
ENDBRANCH  50  64
BRANCH  51  75
ATOM     75  C   UNL A   1      41.718  27.091  27.812  1.00  0.00     0.023 A 
ATOM     76  C   UNL A   1      41.529  25.703  27.677  1.00  0.00     0.031 A 
ATOM     77  C   UNL A   1      42.405  27.755  26.779  1.00  0.00     0.131 A 
ATOM     78  C   UNL A   1      42.053  25.022  26.562  1.00  0.00     0.055 A 
ATOM     79  C   UNL A   1      42.873  27.084  25.646  1.00  0.00     0.041 A 
ATOM     80  F   UNL A   1      42.635  29.076  26.856  1.00  0.00    -0.206 F 
ATOM     81  C   UNL A   1      42.708  25.707  25.538  1.00  0.00     0.022 A 
BRANCH  78  82
ATOM     82  S   UNL A   1      41.946  23.209  26.508  1.00  0.00     0.124 S 
ATOM     83  O   UNL A   1      42.607  22.911  25.244  1.00  0.00    -0.237 OA
ATOM     84  O   UNL A   1      42.668  22.827  27.718  1.00  0.00    -0.237 OA
ATOM     85  O   UNL A   1      40.508  22.951  26.538  1.00  0.00    -0.744 OA
ENDBRANCH  78  82
ENDBRANCH  51  75
BRANCH  63  86
ATOM     86  C   UNL A   1      44.496  27.482  34.213  1.00  0.00     0.023 A 
ATOM     87  C   UNL A   1      44.415  26.208  34.804  1.00  0.00     0.031 A 
ATOM     88  C   UNL A   1      45.748  28.124  34.208  1.00  0.00     0.131 A 
ATOM     89  C   UNL A   1      45.552  25.635  35.397  1.00  0.00     0.055 A 
ATOM     90  C   UNL A   1      46.889  27.524  34.746  1.00  0.00     0.041 A 
ATOM     91  F   UNL A   1      45.889  29.343  33.663  1.00  0.00    -0.206 F 
ATOM     92  C   UNL A   1      46.793  26.277  35.353  1.00  0.00     0.022 A 
BRANCH  89  93
ATOM     93  S   UNL A   1      45.377  24.069  36.297  1.00  0.00     0.124 S 
ATOM     94  O   UNL A   1      45.018  24.526  37.635  1.00  0.00    -0.237 OA
ATOM     95  O   UNL A   1      44.323  23.393  35.548  1.00  0.00    -0.237 OA
ATOM     96  O   UNL A   1      46.702  23.459  36.186  1.00  0.00    -0.744 OA
ENDBRANCH  89  93
ENDBRANCH  63  86
ENDBRANCH  37  38
ENDBRANCH  29  32
ENDBRANCH  27  28
ENDBRANCH  26  27
ENDBRANCH   1  26
TORSDOF 17
ENDMDL
MODEL 3
REMARK VINA RESULT:     -12.9      1.392      2.237
REMARK SMILES CC[C@@]1(C)NC(=O)N(/N=C/c2ccccc2C(=O)NCCCCNC(=O)c2ccc(-c3c4nc(c(-c5cc(S(=O)(=O)[O-])ccc5F)c5ccc([nH]5)c(-c5cc(S(=O)(=O)[O-])ccc5F)c5nc(c(-c6cc(S(=O)(=O)[O-])ccc6F)c6ccc3[nH]6)C=C5)C=C4)cc2)C1=O
REMARK SMILES IDX 21 1 20 2 19 3 17 4 18 5 16 7 11 8 12 9 13 10 15 11 14 12
REMARK SMILES IDX 10 13 9 14 8 15 3 16 4 17 5 18 90 19 6 20 91 22 7 23 2 24
REMARK SMILES IDX 1 25 22 26 23 27 24 28 25 29 26 31 27 32 28 33 89 34 29 35
REMARK SMILES IDX 88 36 30 37 31 38 32 39 82 40 33 41 87 42 81 43 83 44 34 45
REMARK SMILES IDX 86 46 80 47 79 48 35 50 67 51 47 52 66 53 48 54 51 55 65 56
REMARK SMILES IDX 84 57 49 58 50 59 64 61 85 62 52 63 36 64 37 65 45 66 38 67
REMARK SMILES IDX 44 68 46 69 43 70 39 71 40 72 41 73 42 74 68 75 69 76 77 77
REMARK SMILES IDX 70 78 76 79 78 80 75 81 71 82 72 83 73 84 74 85 53 86 54 87
REMARK SMILES IDX 62 88 55 89 61 90 63 91 60 92 56 93 57 94 58 95 59 96
REMARK H PARENT 19 6 5 21 24 30 83 49 51 60
REMARK Flexibility Score: inf
ROOT
ATOM      1  C   UNL A   1      31.532  29.296  27.129  1.00  0.00     0.023 C 
ENDROOT
BRANCH   1   2
ATOM      2  C   UNL A   1      32.248  27.918  27.027  1.00  0.00     0.116 C 
BRANCH   2   3
ATOM      3  N   UNL A   1      31.400  26.730  27.111  1.00  0.00    -0.352 N 
ATOM      4  C   UNL A   1      31.057  25.859  26.088  1.00  0.00     0.251 C 
ATOM      5  O   UNL A   1      30.207  24.990  26.248  1.00  0.00    -0.269 OA
ATOM      6  H   UNL A   1      31.028  26.524  27.999  1.00  0.00     0.163 HD
BRANCH   4   7
ATOM      7  C   UNL A   1      31.583  26.102  24.730  1.00  0.00     0.048 A 
ATOM      8  C   UNL A   1      32.708  25.463  24.190  1.00  0.00     0.007 A 
ATOM      9  C   UNL A   1      33.332  26.061  23.078  1.00  0.00     0.010 A 
ATOM     10  C   UNL A   1      32.786  27.201  22.468  1.00  0.00     0.001 A 
ATOM     11  C   UNL A   1      30.988  27.191  24.060  1.00  0.00     0.014 A 
ATOM     12  C   UNL A   1      31.591  27.741  22.933  1.00  0.00     0.001 A 
BRANCH   8  13
ATOM     13  C   UNL A   1      33.427  24.325  24.840  1.00  0.00     0.143 C 
ATOM     14  N   UNL A   1      34.069  23.394  24.198  1.00  0.00    -0.169 NA
BRANCH  14  15
ATOM     15  N   UNL A   1      34.076  22.109  24.837  1.00  0.00    -0.146 N 
ATOM     16  C   UNL A   1      33.922  19.079  24.519  1.00  0.00     0.120 C 
ATOM     17  C   UNL A   1      32.733  18.616  25.594  1.00  0.00     0.045 C 
ATOM     18  N   UNL A   1      35.680  19.660  25.181  1.00  0.00    -0.322 N 
ATOM     19  C   UNL A   1      33.026  20.804  24.095  1.00  0.00     0.276 C 
ATOM     20  C   UNL A   1      35.712  21.543  25.564  1.00  0.00     0.346 C 
ATOM     21  H   UNL A   1      36.451  19.060  25.302  1.00  0.00     0.166 HD
ATOM     22  O   UNL A   1      32.064  20.959  23.353  1.00  0.00    -0.270 OA
ATOM     23  O   UNL A   1      36.691  22.205  25.875  1.00  0.00    -0.246 OA
BRANCH  16  24
ATOM     24  C   UNL A   1      34.037  17.747  23.681  1.00  0.00     0.035 C 
ATOM     25  C   UNL A   1      34.285  16.387  24.367  1.00  0.00     0.007 C 
ENDBRANCH  16  24
ENDBRANCH  14  15
ENDBRANCH   8  13
ENDBRANCH   4   7
ENDBRANCH   2   3
ENDBRANCH   1   2
BRANCH   1  26
ATOM     26  C   UNL A   1      31.851  30.417  26.087  1.00  0.00     0.023 C 
BRANCH  26  27
ATOM     27  C   UNL A   1      31.528  31.916  26.586  1.00  0.00     0.116 C 
BRANCH  27  28
ATOM     28  N   UNL A   1      32.485  33.650  27.365  1.00  0.00    -0.352 N 
ATOM     29  C   UNL A   1      33.847  34.157  27.922  1.00  0.00     0.251 C 
ATOM     30  H   UNL A   1      31.839  34.392  27.378  1.00  0.00     0.163 HD
ATOM     31  O   UNL A   1      33.953  35.380  28.052  1.00  0.00    -0.269 OA
BRANCH  29  32
ATOM     32  C   UNL A   1      35.055  33.284  28.277  1.00  0.00     0.039 A 
ATOM     33  C   UNL A   1      36.384  33.753  28.284  1.00  0.00     0.014 A 
ATOM     34  C   UNL A   1      34.808  32.020  28.817  1.00  0.00     0.014 A 
ATOM     35  C   UNL A   1      37.420  33.006  28.908  1.00  0.00     0.010 A 
ATOM     36  C   UNL A   1      35.820  31.319  29.494  1.00  0.00     0.010 A 
ATOM     37  C   UNL A   1      37.148  31.786  29.552  1.00  0.00    -0.014 A 
BRANCH  37  38
ATOM     38  C   UNL A   1      38.196  30.895  30.178  1.00  0.00     0.031 A 
ATOM     39  C   UNL A   1      38.585  31.157  31.621  1.00  0.00     0.074 A 
ATOM     40  C   UNL A   1      38.881  29.939  29.508  1.00  0.00     0.049 A 
ATOM     41  N   UNL A   1      39.598  30.704  32.320  1.00  0.00    -0.248 NA
ATOM     42  C   UNL A   1      37.721  32.090  32.358  1.00  0.00     0.031 C 
ATOM     43  C   UNL A   1      38.642  29.523  28.127  1.00  0.00     0.029 A 
ATOM     44  N   UNL A   1      39.953  29.154  29.899  1.00  0.00    -0.354 N 
ATOM     45  C   UNL A   1      39.516  31.332  33.561  1.00  0.00     0.074 A 
ATOM     46  C   UNL A   1      38.385  32.235  33.492  1.00  0.00     0.031 C 
ATOM     47  C   UNL A   1      39.535  28.573  27.789  1.00  0.00     0.029 A 
ATOM     48  C   UNL A   1      40.455  28.338  28.904  1.00  0.00     0.049 A 
ATOM     49  H   UNL A   1      40.327  29.177  30.810  1.00  0.00     0.167 HD
ATOM     50  C   UNL A   1      40.287  31.171  34.666  1.00  0.00     0.034 A 
ATOM     51  C   UNL A   1      41.536  27.521  28.872  1.00  0.00     0.034 A 
ATOM     52  C   UNL A   1      41.404  30.261  34.754  1.00  0.00     0.049 A 
ATOM     53  C   UNL A   1      42.439  27.411  30.088  1.00  0.00     0.074 A 
ATOM     54  C   UNL A   1      42.211  29.995  35.849  1.00  0.00     0.029 A 
ATOM     55  N   UNL A   1      41.880  29.478  33.714  1.00  0.00    -0.354 N 
ATOM     56  N   UNL A   1      42.329  27.998  31.258  1.00  0.00    -0.248 NA
ATOM     57  C   UNL A   1      43.616  26.532  29.977  1.00  0.00     0.031 C 
ATOM     58  C   UNL A   1      43.222  29.116  35.448  1.00  0.00     0.029 A 
ATOM     59  C   UNL A   1      42.995  28.763  34.128  1.00  0.00     0.049 A 
ATOM     60  H   UNL A   1      41.487  29.437  32.812  1.00  0.00     0.167 HD
ATOM     61  C   UNL A   1      43.401  27.533  32.024  1.00  0.00     0.074 A 
ATOM     62  C   UNL A   1      44.139  26.609  31.193  1.00  0.00     0.031 C 
ATOM     63  C   UNL A   1      43.739  27.842  33.302  1.00  0.00     0.034 A 
BRANCH  50  64
ATOM     64  C   UNL A   1      39.966  32.032  35.868  1.00  0.00     0.023 A 
ATOM     65  C   UNL A   1      38.998  31.649  36.813  1.00  0.00     0.031 A 
ATOM     66  C   UNL A   1      40.611  33.267  36.054  1.00  0.00     0.131 A 
ATOM     67  C   UNL A   1      38.635  32.530  37.842  1.00  0.00     0.055 A 
ATOM     68  C   UNL A   1      40.314  34.098  37.136  1.00  0.00     0.041 A 
ATOM     69  F   UNL A   1      41.535  33.696  35.180  1.00  0.00    -0.206 F 
ATOM     70  C   UNL A   1      39.306  33.740  38.027  1.00  0.00     0.022 A 
BRANCH  67  71
ATOM     71  S   UNL A   1      37.165  32.144  38.829  1.00  0.00     0.124 S 
ATOM     72  O   UNL A   1      37.074  30.694  38.671  1.00  0.00    -0.237 OA
ATOM     73  O   UNL A   1      37.541  32.618  40.155  1.00  0.00    -0.237 OA
ATOM     74  O   UNL A   1      36.102  32.902  38.173  1.00  0.00    -0.744 OA
ENDBRANCH  67  71
ENDBRANCH  50  64
BRANCH  51  75
ATOM     75  C   UNL A   1      41.891  26.754  27.631  1.00  0.00     0.023 A 
ATOM     76  C   UNL A   1      41.643  25.373  27.528  1.00  0.00     0.031 A 
ATOM     77  C   UNL A   1      42.562  27.374  26.561  1.00  0.00     0.131 A 
ATOM     78  C   UNL A   1      42.096  24.654  26.406  1.00  0.00     0.055 A 
ATOM     79  C   UNL A   1      42.960  26.667  25.423  1.00  0.00     0.041 A 
ATOM     80  F   UNL A   1      42.847  28.686  26.607  1.00  0.00    -0.206 F 
ATOM     81  C   UNL A   1      42.737  25.296  25.345  1.00  0.00     0.022 A 
BRANCH  78  82
ATOM     82  S   UNL A   1      41.916  22.846  26.387  1.00  0.00     0.124 S 
ATOM     83  O   UNL A   1      42.425  22.511  25.063  1.00  0.00    -0.237 OA
ATOM     84  O   UNL A   1      42.751  22.448  27.517  1.00  0.00    -0.237 OA
ATOM     85  O   UNL A   1      40.481  22.644  26.575  1.00  0.00    -0.744 OA
ENDBRANCH  78  82
ENDBRANCH  51  75
BRANCH  63  86
ATOM     86  C   UNL A   1      44.934  27.143  33.911  1.00  0.00     0.023 A 
ATOM     87  C   UNL A   1      44.873  25.810  34.355  1.00  0.00     0.031 A 
ATOM     88  C   UNL A   1      46.166  27.815  34.019  1.00  0.00     0.131 A 
ATOM     89  C   UNL A   1      46.008  25.206  34.921  1.00  0.00     0.055 A 
ATOM     90  C   UNL A   1      47.307  27.190  34.528  1.00  0.00     0.041 A 
ATOM     91  F   UNL A   1      46.287  29.090  33.616  1.00  0.00    -0.206 F 
ATOM     92  C   UNL A   1      47.230  25.881  34.991  1.00  0.00     0.022 A 
BRANCH  89  93
ATOM     93  S   UNL A   1      45.853  23.545  35.638  1.00  0.00     0.124 S 
ATOM     94  O   UNL A   1      46.747  23.626  36.788  1.00  0.00    -0.237 OA
ATOM     95  O   UNL A   1      44.428  23.468  35.941  1.00  0.00    -0.237 OA
ATOM     96  O   UNL A   1      46.305  22.663  34.563  1.00  0.00    -0.744 OA
ENDBRANCH  89  93
ENDBRANCH  63  86
ENDBRANCH  37  38
ENDBRANCH  29  32
ENDBRANCH  27  28
ENDBRANCH  26  27
ENDBRANCH   1  26
TORSDOF 17
ENDMDL
