MODEL 1
REMARK VINA RESULT:     -13.0      0.000      0.000
REMARK SMILES Cc1ccn2c([C@@H]3CCCC[C@@H]3C(=O)NCCCCNC(=O)c3ccc(-c4c5nc(c(-c6cc(S(=O)(=O)[O-])ccc6F)c6ccc([nH]6)c(-c6cc(S(=O)(=O)[O-])ccc6F)c6nc(c(-c7cc(S(=O)(=O)[O-])ccc7F)c7ccc4[nH]7)C=C6)C=C5)cc3)nnc2c1
REMARK SMILES IDX 18 1 17 2 16 3 15 4 13 5 14 6 12 8 7 9 8 10 9 11 11 12 10 13
REMARK SMILES IDX 6 14 1 15 2 16 3 17 89 18 4 19 88 20 5 21 87 22 86 23 19 24
REMARK SMILES IDX 20 25 21 26 22 28 23 29 24 30 85 31 25 32 84 33 26 34 27 35
REMARK SMILES IDX 28 36 78 37 29 38 83 39 77 40 79 41 30 42 82 43 76 44 75 45
REMARK SMILES IDX 31 47 63 48 43 49 62 50 44 51 47 52 61 53 80 54 45 55 46 56
REMARK SMILES IDX 60 58 81 59 48 60 32 61 33 62 41 63 34 64 40 65 42 66 39 67
REMARK SMILES IDX 35 68 36 69 37 70 38 71 64 72 65 73 73 74 66 75 72 76 74 77
REMARK SMILES IDX 71 78 67 79 68 80 69 81 70 82 49 83 50 84 58 85 51 86 57 87
REMARK SMILES IDX 59 88 56 89 52 90 53 91 54 92 55 93
REMARK H PARENT 15 7 20 27 79 46 47 57
REMARK Flexibility Score: inf
ROOT
ATOM      1  C   UNL A   1      33.495  30.075  27.453  1.00  0.00     0.023 C 
ENDROOT
BRANCH   1   2
ATOM      2  C   UNL A   1      32.081  29.798  26.927  1.00  0.00     0.023 C 
BRANCH   2   3
ATOM      3  C   UNL A   1      31.897  30.018  25.435  1.00  0.00     0.116 C 
BRANCH   3   4
ATOM      4  N   UNL A   1      33.049  29.640  24.641  1.00  0.00    -0.356 N 
ATOM      5  C   UNL A   1      33.198  28.720  23.662  1.00  0.00     0.223 C 
ATOM      6  O   UNL A   1      33.961  29.058  22.744  1.00  0.00    -0.275 OA
ATOM      7  H   UNL A   1      33.867  30.143  24.852  1.00  0.00     0.163 HD
BRANCH   5   8
ATOM      8  C   UNL A   1      32.660  27.286  23.655  1.00  0.00     0.089 C 
ATOM      9  C   UNL A   1      31.337  26.768  24.227  1.00  0.00     0.071 C 
ATOM     10  C   UNL A   1      31.292  26.564  25.757  1.00  0.00     0.012 C 
ATOM     11  C   UNL A   1      32.546  25.901  26.328  1.00  0.00     0.001 C 
ATOM     12  C   UNL A   1      33.813  26.415  24.212  1.00  0.00     0.014 C 
ATOM     13  C   UNL A   1      33.846  26.428  25.737  1.00  0.00     0.001 C 
BRANCH   9  14
ATOM     14  C   UNL A   1      30.004  27.208  23.659  1.00  0.00     0.141 A 
ATOM     15  C   UNL A   1      27.782  31.899  21.595  1.00  0.00     0.044 C 
ATOM     16  C   UNL A   1      28.354  30.572  21.991  1.00  0.00    -0.046 A 
ATOM     17  C   UNL A   1      29.765  30.355  21.700  1.00  0.00     0.022 A 
ATOM     18  C   UNL A   1      27.630  29.603  22.591  1.00  0.00     0.053 A 
ATOM     19  C   UNL A   1      30.366  29.241  22.150  1.00  0.00     0.095 A 
ATOM     20  C   UNL A   1      28.271  28.416  23.046  1.00  0.00     0.161 A 
ATOM     21  N   UNL A   1      29.654  28.317  22.904  1.00  0.00    -0.286 N 
ATOM     22  N   UNL A   1      27.808  27.332  23.618  1.00  0.00    -0.130 NA
ATOM     23  N   UNL A   1      28.885  26.571  23.984  1.00  0.00    -0.134 NA
ENDBRANCH   9  14
ENDBRANCH   5   8
ENDBRANCH   3   4
ENDBRANCH   2   3
ENDBRANCH   1   2
BRANCH   1  24
ATOM     24  C   UNL A   1      33.876  31.551  27.626  1.00  0.00     0.116 C 
BRANCH  24  25
ATOM     25  N   UNL A   1      34.066  31.979  28.998  1.00  0.00    -0.352 N 
ATOM     26  C   UNL A   1      35.128  31.970  29.865  1.00  0.00     0.251 C 
ATOM     27  H   UNL A   1      33.250  32.361  29.396  1.00  0.00     0.163 HD
ATOM     28  O   UNL A   1      34.985  32.647  30.887  1.00  0.00    -0.269 OA
BRANCH  26  29
ATOM     29  C   UNL A   1      36.379  31.176  29.693  1.00  0.00     0.039 A 
ATOM     30  C   UNL A   1      36.452  29.787  29.697  1.00  0.00     0.014 A 
ATOM     31  C   UNL A   1      37.584  31.902  29.586  1.00  0.00     0.014 A 
ATOM     32  C   UNL A   1      37.687  29.144  29.696  1.00  0.00     0.010 A 
ATOM     33  C   UNL A   1      38.825  31.261  29.552  1.00  0.00     0.010 A 
ATOM     34  C   UNL A   1      38.880  29.875  29.646  1.00  0.00    -0.014 A 
BRANCH  34  35
ATOM     35  C   UNL A   1      40.121  29.102  29.570  1.00  0.00     0.031 A 
ATOM     36  C   UNL A   1      40.794  28.895  30.879  1.00  0.00     0.074 A 
ATOM     37  C   UNL A   1      40.657  28.540  28.468  1.00  0.00     0.049 A 
ATOM     38  N   UNL A   1      41.884  29.447  31.305  1.00  0.00    -0.248 NA
ATOM     39  C   UNL A   1      40.096  28.080  31.881  1.00  0.00     0.031 C 
ATOM     40  C   UNL A   1      40.019  28.331  27.168  1.00  0.00     0.029 A 
ATOM     41  N   UNL A   1      41.888  27.958  28.311  1.00  0.00    -0.354 N 
ATOM     42  C   UNL A   1      42.128  28.881  32.554  1.00  0.00     0.074 A 
ATOM     43  C   UNL A   1      40.918  28.189  32.926  1.00  0.00     0.031 C 
ATOM     44  C   UNL A   1      40.775  27.483  26.433  1.00  0.00     0.029 A 
ATOM     45  C   UNL A   1      42.026  27.239  27.133  1.00  0.00     0.049 A 
ATOM     46  H   UNL A   1      42.610  28.044  28.974  1.00  0.00     0.167 HD
ATOM     47  C   UNL A   1      43.386  28.818  33.073  1.00  0.00     0.034 A 
ATOM     48  C   UNL A   1      43.078  26.477  26.754  1.00  0.00     0.034 A 
ATOM     49  C   UNL A   1      44.308  29.637  32.336  1.00  0.00     0.049 A 
ATOM     50  C   UNL A   1      44.295  26.910  27.472  1.00  0.00     0.074 A 
ATOM     51  C   UNL A   1      44.692  30.958  32.308  1.00  0.00     0.029 A 
ATOM     52  N   UNL A   1      44.797  29.044  31.205  1.00  0.00    -0.354 N 
ATOM     53  N   UNL A   1      44.900  28.044  27.260  1.00  0.00    -0.248 NA
ATOM     54  C   UNL A   1      44.746  26.169  28.646  1.00  0.00     0.031 C 
ATOM     55  C   UNL A   1      45.320  31.168  31.045  1.00  0.00     0.029 A 
ATOM     56  C   UNL A   1      45.316  29.969  30.337  1.00  0.00     0.049 A 
ATOM     57  H   UNL A   1      44.778  28.074  31.036  1.00  0.00     0.167 HD
ATOM     58  C   UNL A   1      45.455  28.355  28.482  1.00  0.00     0.074 A 
ATOM     59  C   UNL A   1      45.514  27.100  29.216  1.00  0.00     0.031 C 
ATOM     60  C   UNL A   1      45.484  29.640  28.935  1.00  0.00     0.034 A 
BRANCH  47  61
ATOM     61  C   UNL A   1      43.883  27.702  33.965  1.00  0.00     0.023 A 
ATOM     62  C   UNL A   1      44.008  27.844  35.359  1.00  0.00     0.031 A 
ATOM     63  C   UNL A   1      44.007  26.386  33.471  1.00  0.00     0.131 A 
ATOM     64  C   UNL A   1      44.273  26.750  36.193  1.00  0.00     0.055 A 
ATOM     65  C   UNL A   1      44.201  25.280  34.312  1.00  0.00     0.041 A 
ATOM     66  F   UNL A   1      43.894  26.125  32.159  1.00  0.00    -0.206 F 
ATOM     67  C   UNL A   1      44.338  25.460  35.683  1.00  0.00     0.022 A 
BRANCH  64  68
ATOM     68  S   UNL A   1      44.525  27.011  37.971  1.00  0.00     0.124 S 
ATOM     69  O   UNL A   1      44.625  28.469  38.048  1.00  0.00    -0.237 OA
ATOM     70  O   UNL A   1      43.302  26.433  38.527  1.00  0.00    -0.237 OA
ATOM     71  O   UNL A   1      45.742  26.272  38.256  1.00  0.00    -0.744 OA
ENDBRANCH  64  68
ENDBRANCH  47  61
BRANCH  48  72
ATOM     72  C   UNL A   1      43.062  25.211  25.994  1.00  0.00     0.023 A 
ATOM     73  C   UNL A   1      42.202  24.177  26.404  1.00  0.00     0.031 A 
ATOM     74  C   UNL A   1      44.101  24.885  25.105  1.00  0.00     0.131 A 
ATOM     75  C   UNL A   1      42.435  22.862  25.986  1.00  0.00     0.055 A 
ATOM     76  C   UNL A   1      44.320  23.573  24.676  1.00  0.00     0.041 A 
ATOM     77  F   UNL A   1      44.969  25.823  24.697  1.00  0.00    -0.206 F 
ATOM     78  C   UNL A   1      43.496  22.549  25.132  1.00  0.00     0.022 A 
BRANCH  75  79
ATOM     79  S   UNL A   1      41.417  21.502  26.622  1.00  0.00     0.124 S 
ATOM     80  O   UNL A   1      40.155  21.705  25.913  1.00  0.00    -0.237 OA
ATOM     81  O   UNL A   1      42.189  20.336  26.209  1.00  0.00    -0.237 OA
ATOM     82  O   UNL A   1      41.365  21.760  28.058  1.00  0.00    -0.744 OA
ENDBRANCH  75  79
ENDBRANCH  48  72
BRANCH  60  83
ATOM     83  C   UNL A   1      45.483  30.760  27.934  1.00  0.00     0.023 A 
ATOM     84  C   UNL A   1      46.728  31.332  27.620  1.00  0.00     0.031 A 
ATOM     85  C   UNL A   1      44.334  31.350  27.380  1.00  0.00     0.131 A 
ATOM     86  C   UNL A   1      46.802  32.473  26.817  1.00  0.00     0.055 A 
ATOM     87  C   UNL A   1      44.418  32.446  26.515  1.00  0.00     0.041 A 
ATOM     88  F   UNL A   1      43.103  30.930  27.705  1.00  0.00    -0.206 F 
ATOM     89  C   UNL A   1      45.654  33.023  26.241  1.00  0.00     0.022 A 
BRANCH  86  90
ATOM     90  S   UNL A   1      48.375  33.348  26.620  1.00  0.00     0.124 S 
ATOM     91  O   UNL A   1      48.499  34.055  27.892  1.00  0.00    -0.237 OA
ATOM     92  O   UNL A   1      49.318  32.248  26.421  1.00  0.00    -0.237 OA
ATOM     93  O   UNL A   1      48.164  34.195  25.450  1.00  0.00    -0.744 OA
ENDBRANCH  86  90
ENDBRANCH  60  83
ENDBRANCH  34  35
ENDBRANCH  26  29
ENDBRANCH  24  25
ENDBRANCH   1  24
TORSDOF 15
ENDMDL
MODEL 2
REMARK VINA RESULT:     -12.7      2.536      3.998
REMARK SMILES Cc1ccn2c([C@@H]3CCCC[C@@H]3C(=O)NCCCCNC(=O)c3ccc(-c4c5nc(c(-c6cc(S(=O)(=O)[O-])ccc6F)c6ccc([nH]6)c(-c6cc(S(=O)(=O)[O-])ccc6F)c6nc(c(-c7cc(S(=O)(=O)[O-])ccc7F)c7ccc4[nH]7)C=C6)C=C5)cc3)nnc2c1
REMARK SMILES IDX 18 1 17 2 16 3 15 4 13 5 14 6 12 8 7 9 8 10 9 11 11 12 10 13
REMARK SMILES IDX 6 14 1 15 2 16 3 17 89 18 4 19 88 20 5 21 87 22 86 23 19 24
REMARK SMILES IDX 20 25 21 26 22 28 23 29 24 30 85 31 25 32 84 33 26 34 27 35
REMARK SMILES IDX 28 36 78 37 29 38 83 39 77 40 79 41 30 42 82 43 76 44 75 45
REMARK SMILES IDX 31 47 63 48 43 49 62 50 44 51 47 52 61 53 80 54 45 55 46 56
REMARK SMILES IDX 60 58 81 59 48 60 32 61 33 62 41 63 34 64 40 65 42 66 39 67
REMARK SMILES IDX 35 68 36 69 37 70 38 71 64 72 65 73 73 74 66 75 72 76 74 77
REMARK SMILES IDX 71 78 67 79 68 80 69 81 70 82 49 83 50 84 58 85 51 86 57 87
REMARK SMILES IDX 59 88 56 89 52 90 53 91 54 92 55 93
REMARK H PARENT 15 7 20 27 79 46 47 57
REMARK Flexibility Score: inf
ROOT
ATOM      1  C   UNL A   1      32.378  29.792  26.755  1.00  0.00     0.023 C 
ENDROOT
BRANCH   1   2
ATOM      2  C   UNL A   1      32.159  28.466  27.495  1.00  0.00     0.023 C 
BRANCH   2   3
ATOM      3  C   UNL A   1      32.267  27.222  26.629  1.00  0.00     0.116 C 
BRANCH   3   4
ATOM      4  N   UNL A   1      31.094  26.373  26.673  1.00  0.00    -0.356 N 
ATOM      5  C   UNL A   1      30.667  25.392  25.847  1.00  0.00     0.223 C 
ATOM      6  O   UNL A   1      30.119  24.436  26.416  1.00  0.00    -0.275 OA
ATOM      7  H   UNL A   1      30.503  26.541  27.441  1.00  0.00     0.163 HD
BRANCH   5   8
ATOM      8  C   UNL A   1      30.652  25.418  24.315  1.00  0.00     0.089 C 
ATOM      9  C   UNL A   1      31.835  25.606  23.361  1.00  0.00     0.071 C 
ATOM     10  C   UNL A   1      32.340  27.053  23.180  1.00  0.00     0.012 C 
ATOM     11  C   UNL A   1      31.219  28.083  23.031  1.00  0.00     0.001 C 
ATOM     12  C   UNL A   1      29.545  26.433  23.935  1.00  0.00     0.014 C 
ATOM     13  C   UNL A   1      30.053  27.870  23.985  1.00  0.00     0.001 C 
BRANCH   9  14
ATOM     14  C   UNL A   1      32.950  24.585  23.273  1.00  0.00     0.141 A 
ATOM     15  C   UNL A   1      37.775  23.561  25.895  1.00  0.00     0.044 C 
ATOM     16  C   UNL A   1      36.427  23.682  25.252  1.00  0.00    -0.046 A 
ATOM     17  C   UNL A   1      35.352  24.211  26.081  1.00  0.00     0.022 A 
ATOM     18  C   UNL A   1      36.184  23.332  23.971  1.00  0.00     0.053 A 
ATOM     19  C   UNL A   1      34.157  24.468  25.525  1.00  0.00     0.095 A 
ATOM     20  C   UNL A   1      34.907  23.588  23.395  1.00  0.00     0.161 A 
ATOM     21  N   UNL A   1      33.956  24.252  24.167  1.00  0.00    -0.286 N 
ATOM     22  N   UNL A   1      34.409  23.326  22.211  1.00  0.00    -0.130 NA
ATOM     23  N   UNL A   1      33.183  23.931  22.141  1.00  0.00    -0.134 NA
ENDBRANCH   9  14
ENDBRANCH   5   8
ENDBRANCH   3   4
ENDBRANCH   2   3
ENDBRANCH   1   2
BRANCH   1  24
ATOM     24  C   UNL A   1      33.834  30.253  26.612  1.00  0.00     0.116 C 
BRANCH  24  25
ATOM     25  N   UNL A   1      34.171  31.455  27.349  1.00  0.00    -0.352 N 
ATOM     26  C   UNL A   1      35.286  31.884  28.024  1.00  0.00     0.251 C 
ATOM     27  H   UNL A   1      33.436  32.110  27.372  1.00  0.00     0.163 HD
ATOM     28  O   UNL A   1      35.296  33.080  28.327  1.00  0.00    -0.269 OA
BRANCH  26  29
ATOM     29  C   UNL A   1      36.422  31.019  28.455  1.00  0.00     0.039 A 
ATOM     30  C   UNL A   1      37.626  31.480  28.976  1.00  0.00     0.014 A 
ATOM     31  C   UNL A   1      36.278  29.630  28.250  1.00  0.00     0.014 A 
ATOM     32  C   UNL A   1      38.685  30.603  29.192  1.00  0.00     0.010 A 
ATOM     33  C   UNL A   1      37.327  28.741  28.496  1.00  0.00     0.010 A 
ATOM     34  C   UNL A   1      38.551  29.233  28.933  1.00  0.00    -0.014 A 
BRANCH  34  35
ATOM     35  C   UNL A   1      39.698  28.387  29.268  1.00  0.00     0.031 A 
ATOM     36  C   UNL A   1      40.063  28.394  30.708  1.00  0.00     0.074 A 
ATOM     37  C   UNL A   1      40.392  27.595  28.425  1.00  0.00     0.049 A 
ATOM     38  N   UNL A   1      41.090  28.951  31.263  1.00  0.00    -0.248 NA
ATOM     39  C   UNL A   1      39.095  27.826  31.657  1.00  0.00     0.031 C 
ATOM     40  C   UNL A   1      40.018  27.182  27.073  1.00  0.00     0.029 A 
ATOM     41  N   UNL A   1      41.566  26.922  28.648  1.00  0.00    -0.354 N 
ATOM     42  C   UNL A   1      41.014  28.619  32.614  1.00  0.00     0.074 A 
ATOM     43  C   UNL A   1      39.691  28.083  32.823  1.00  0.00     0.031 C 
ATOM     44  C   UNL A   1      40.823  26.166  26.682  1.00  0.00     0.029 A 
ATOM     45  C   UNL A   1      41.871  25.985  27.672  1.00  0.00     0.049 A 
ATOM     46  H   UNL A   1      42.140  27.090  29.429  1.00  0.00     0.167 HD
ATOM     47  C   UNL A   1      42.125  28.582  33.401  1.00  0.00     0.034 A 
ATOM     48  C   UNL A   1      42.899  25.104  27.673  1.00  0.00     0.034 A 
ATOM     49  C   UNL A   1      43.256  29.189  32.756  1.00  0.00     0.049 A 
ATOM     50  C   UNL A   1      43.978  25.593  28.556  1.00  0.00     0.074 A 
ATOM     51  C   UNL A   1      43.766  30.455  32.586  1.00  0.00     0.029 A 
ATOM     52  N   UNL A   1      43.907  28.364  31.882  1.00  0.00    -0.354 N 
ATOM     53  N   UNL A   1      44.722  26.628  28.291  1.00  0.00    -0.248 NA
ATOM     54  C   UNL A   1      44.101  25.063  29.911  1.00  0.00     0.031 C 
ATOM     55  C   UNL A   1      44.659  30.384  31.476  1.00  0.00     0.029 A 
ATOM     56  C   UNL A   1      44.683  29.074  31.004  1.00  0.00     0.049 A 
ATOM     57  H   UNL A   1      43.827  27.382  31.882  1.00  0.00     0.167 HD
ATOM     58  C   UNL A   1      45.041  27.132  29.532  1.00  0.00     0.074 A 
ATOM     59  C   UNL A   1      44.823  26.038  30.466  1.00  0.00     0.031 C 
ATOM     60  C   UNL A   1      45.104  28.476  29.752  1.00  0.00     0.034 A 
BRANCH  47  61
ATOM     61  C   UNL A   1      42.314  27.628  34.561  1.00  0.00     0.023 A 
ATOM     62  C   UNL A   1      42.992  26.402  34.431  1.00  0.00     0.031 A 
ATOM     63  C   UNL A   1      42.038  28.037  35.883  1.00  0.00     0.131 A 
ATOM     64  C   UNL A   1      43.337  25.626  35.545  1.00  0.00     0.055 A 
ATOM     65  C   UNL A   1      42.446  27.297  37.002  1.00  0.00     0.041 A 
ATOM     66  F   UNL A   1      41.407  29.196  36.131  1.00  0.00    -0.206 F 
ATOM     67  C   UNL A   1      43.098  26.081  36.836  1.00  0.00     0.022 A 
BRANCH  64  68
ATOM     68  S   UNL A   1      44.119  24.006  35.311  1.00  0.00     0.124 S 
ATOM     69  O   UNL A   1      43.039  23.240  34.687  1.00  0.00    -0.237 OA
ATOM     70  O   UNL A   1      45.238  24.347  34.432  1.00  0.00    -0.237 OA
ATOM     71  O   UNL A   1      44.490  23.607  36.656  1.00  0.00    -0.744 OA
ENDBRANCH  64  68
ENDBRANCH  47  61
BRANCH  48  72
ATOM     72  C   UNL A   1      42.914  23.720  27.159  1.00  0.00     0.023 A 
ATOM     73  C   UNL A   1      43.962  23.313  26.316  1.00  0.00     0.031 A 
ATOM     74  C   UNL A   1      41.760  22.917  27.203  1.00  0.00     0.131 A 
ATOM     75  C   UNL A   1      43.813  22.184  25.502  1.00  0.00     0.055 A 
ATOM     76  C   UNL A   1      41.621  21.780  26.402  1.00  0.00     0.041 A 
ATOM     77  F   UNL A   1      40.715  23.266  27.970  1.00  0.00    -0.206 F 
ATOM     78  C   UNL A   1      42.644  21.419  25.531  1.00  0.00     0.022 A 
BRANCH  75  79
ATOM     79  S   UNL A   1      45.104  21.735  24.310  1.00  0.00     0.124 S 
ATOM     80  O   UNL A   1      45.215  22.949  23.504  1.00  0.00    -0.237 OA
ATOM     81  O   UNL A   1      46.235  21.460  25.189  1.00  0.00    -0.237 OA
ATOM     82  O   UNL A   1      44.538  20.583  23.615  1.00  0.00    -0.744 OA
ENDBRANCH  75  79
ENDBRANCH  48  72
BRANCH  60  83
ATOM     83  C   UNL A   1      45.420  29.383  28.597  1.00  0.00     0.023 A 
ATOM     84  C   UNL A   1      46.779  29.636  28.343  1.00  0.00     0.031 A 
ATOM     85  C   UNL A   1      44.470  30.082  27.832  1.00  0.00     0.131 A 
ATOM     86  C   UNL A   1      47.158  30.583  27.387  1.00  0.00     0.055 A 
ATOM     87  C   UNL A   1      44.854  30.973  26.824  1.00  0.00     0.041 A 
ATOM     88  F   UNL A   1      43.156  29.976  28.077  1.00  0.00    -0.206 F 
ATOM     89  C   UNL A   1      46.202  31.239  26.607  1.00  0.00     0.022 A 
BRANCH  86  90
ATOM     90  S   UNL A   1      48.891  31.084  27.238  1.00  0.00     0.124 S 
ATOM     91  O   UNL A   1      49.306  31.187  28.634  1.00  0.00    -0.237 OA
ATOM     92  O   UNL A   1      49.473  29.968  26.493  1.00  0.00    -0.237 OA
ATOM     93  O   UNL A   1      48.832  32.346  26.507  1.00  0.00    -0.744 OA
ENDBRANCH  86  90
ENDBRANCH  60  83
ENDBRANCH  34  35
ENDBRANCH  26  29
ENDBRANCH  24  25
ENDBRANCH   1  24
TORSDOF 15
ENDMDL
MODEL 3
REMARK VINA RESULT:     -12.7      3.318      8.772
REMARK SMILES Cc1ccn2c([C@@H]3CCCC[C@@H]3C(=O)NCCCCNC(=O)c3ccc(-c4c5nc(c(-c6cc(S(=O)(=O)[O-])ccc6F)c6ccc([nH]6)c(-c6cc(S(=O)(=O)[O-])ccc6F)c6nc(c(-c7cc(S(=O)(=O)[O-])ccc7F)c7ccc4[nH]7)C=C6)C=C5)cc3)nnc2c1
REMARK SMILES IDX 18 1 17 2 16 3 15 4 13 5 14 6 12 8 7 9 8 10 9 11 11 12 10 13
REMARK SMILES IDX 6 14 1 15 2 16 3 17 89 18 4 19 88 20 5 21 87 22 86 23 19 24
REMARK SMILES IDX 20 25 21 26 22 28 23 29 24 30 85 31 25 32 84 33 26 34 27 35
REMARK SMILES IDX 28 36 78 37 29 38 83 39 77 40 79 41 30 42 82 43 76 44 75 45
REMARK SMILES IDX 31 47 63 48 43 49 62 50 44 51 47 52 61 53 80 54 45 55 46 56
REMARK SMILES IDX 60 58 81 59 48 60 32 61 33 62 41 63 34 64 40 65 42 66 39 67
REMARK SMILES IDX 35 68 36 69 37 70 38 71 64 72 65 73 73 74 66 75 72 76 74 77
REMARK SMILES IDX 71 78 67 79 68 80 69 81 70 82 49 83 50 84 58 85 51 86 57 87
REMARK SMILES IDX 59 88 56 89 52 90 53 91 54 92 55 93
REMARK H PARENT 15 7 20 27 79 46 47 57
REMARK Flexibility Score: inf
ROOT
ATOM      1  C   UNL A   1      36.468  21.632  25.414  1.00  0.00     0.023 C 
ENDROOT
BRANCH   1   2
ATOM      2  C   UNL A   1      35.284  22.500  25.858  1.00  0.00     0.023 C 
BRANCH   2   3
ATOM      3  C   UNL A   1      34.927  23.633  24.911  1.00  0.00     0.116 C 
BRANCH   3   4
ATOM      4  N   UNL A   1      34.709  23.207  23.543  1.00  0.00    -0.356 N 
ATOM      5  C   UNL A   1      33.588  23.157  22.789  1.00  0.00     0.223 C 
ATOM      6  O   UNL A   1      33.755  23.439  21.592  1.00  0.00    -0.275 OA
ATOM      7  H   UNL A   1      35.521  22.899  23.082  1.00  0.00     0.163 HD
BRANCH   5   8
ATOM      8  C   UNL A   1      32.209  22.650  23.219  1.00  0.00     0.089 C 
ATOM      9  C   UNL A   1      31.588  22.669  24.619  1.00  0.00     0.071 C 
ATOM     10  C   UNL A   1      32.073  21.574  25.593  1.00  0.00     0.012 C 
ATOM     11  C   UNL A   1      32.187  20.189  24.956  1.00  0.00     0.001 C 
ATOM     12  C   UNL A   1      32.109  21.211  22.656  1.00  0.00     0.014 C 
ATOM     13  C   UNL A   1      32.800  20.197  23.563  1.00  0.00     0.001 C 
BRANCH   9  14
ATOM     14  C   UNL A   1      31.262  23.971  25.322  1.00  0.00     0.141 A 
ATOM     15  C   UNL A   1      30.723  29.352  23.922  1.00  0.00     0.044 C 
ATOM     16  C   UNL A   1      30.699  27.913  24.341  1.00  0.00    -0.046 A 
ATOM     17  C   UNL A   1      30.255  26.949  23.343  1.00  0.00     0.022 A 
ATOM     18  C   UNL A   1      31.067  27.494  25.571  1.00  0.00     0.053 A 
ATOM     19  C   UNL A   1      30.339  25.636  23.614  1.00  0.00     0.095 A 
ATOM     20  C   UNL A   1      31.133  26.101  25.856  1.00  0.00     0.161 A 
ATOM     21  N   UNL A   1      30.866  25.203  24.824  1.00  0.00    -0.286 N 
ATOM     22  N   UNL A   1      31.423  25.441  26.951  1.00  0.00    -0.130 NA
ATOM     23  N   UNL A   1      31.486  24.114  26.623  1.00  0.00    -0.134 NA
ENDBRANCH   9  14
ENDBRANCH   5   8
ENDBRANCH   3   4
ENDBRANCH   2   3
ENDBRANCH   1   2
BRANCH   1  24
ATOM     24  C   UNL A   1      37.785  22.371  25.144  1.00  0.00     0.116 C 
BRANCH  24  25
ATOM     25  N   UNL A   1      38.956  21.783  25.764  1.00  0.00    -0.352 N 
ATOM     26  C   UNL A   1      39.812  22.177  26.760  1.00  0.00     0.251 C 
ATOM     27  H   UNL A   1      39.189  20.905  25.385  1.00  0.00     0.163 HD
ATOM     28  O   UNL A   1      40.562  21.299  27.194  1.00  0.00    -0.269 OA
BRANCH  26  29
ATOM     29  C   UNL A   1      39.935  23.564  27.296  1.00  0.00     0.039 A 
ATOM     30  C   UNL A   1      38.978  24.563  27.158  1.00  0.00     0.014 A 
ATOM     31  C   UNL A   1      41.151  23.894  27.930  1.00  0.00     0.014 A 
ATOM     32  C   UNL A   1      39.259  25.870  27.548  1.00  0.00     0.010 A 
ATOM     33  C   UNL A   1      41.426  25.198  28.353  1.00  0.00     0.010 A 
ATOM     34  C   UNL A   1      40.491  26.200  28.126  1.00  0.00    -0.014 A 
BRANCH  34  35
ATOM     35  C   UNL A   1      40.655  27.585  28.572  1.00  0.00     0.031 A 
ATOM     36  C   UNL A   1      41.877  28.253  28.053  1.00  0.00     0.074 A 
ATOM     37  C   UNL A   1      39.804  28.294  29.340  1.00  0.00     0.049 A 
ATOM     38  N   UNL A   1      42.951  28.560  28.706  1.00  0.00    -0.248 NA
ATOM     39  C   UNL A   1      41.962  28.485  26.604  1.00  0.00     0.031 C 
ATOM     40  C   UNL A   1      38.420  27.966  29.681  1.00  0.00     0.029 A 
ATOM     41  N   UNL A   1      39.988  29.522  29.921  1.00  0.00    -0.354 N 
ATOM     42  C   UNL A   1      43.769  29.222  27.794  1.00  0.00     0.074 A 
ATOM     43  C   UNL A   1      43.191  28.993  26.493  1.00  0.00     0.031 C 
ATOM     44  C   UNL A   1      37.823  29.057  30.215  1.00  0.00     0.029 A 
ATOM     45  C   UNL A   1      38.826  30.090  30.420  1.00  0.00     0.049 A 
ATOM     46  H   UNL A   1      40.867  29.961  29.981  1.00  0.00     0.167 HD
ATOM     47  C   UNL A   1      44.717  30.111  28.203  1.00  0.00     0.034 A 
ATOM     48  C   UNL A   1      38.676  31.327  30.949  1.00  0.00     0.034 A 
ATOM     49  C   UNL A   1      44.940  30.038  29.621  1.00  0.00     0.049 A 
ATOM     50  C   UNL A   1      39.979  31.823  31.439  1.00  0.00     0.074 A 
ATOM     51  C   UNL A   1      45.684  29.276  30.491  1.00  0.00     0.029 A 
ATOM     52  N   UNL A   1      44.030  30.739  30.363  1.00  0.00    -0.354 N 
ATOM     53  N   UNL A   1      40.601  31.335  32.474  1.00  0.00    -0.248 NA
ATOM     54  C   UNL A   1      40.757  32.748  30.619  1.00  0.00     0.031 C 
ATOM     55  C   UNL A   1      45.097  29.447  31.780  1.00  0.00     0.029 A 
ATOM     56  C   UNL A   1      44.016  30.317  31.667  1.00  0.00     0.049 A 
ATOM     57  H   UNL A   1      43.458  31.456  30.006  1.00  0.00     0.167 HD
ATOM     58  C   UNL A   1      41.933  31.527  32.181  1.00  0.00     0.074 A 
ATOM     59  C   UNL A   1      41.962  32.566  31.161  1.00  0.00     0.031 C 
ATOM     60  C   UNL A   1      42.869  30.594  32.511  1.00  0.00     0.034 A 
BRANCH  47  61
ATOM     61  C   UNL A   1      45.132  31.336  27.416  1.00  0.00     0.023 A 
ATOM     62  C   UNL A   1      44.318  32.477  27.305  1.00  0.00     0.031 A 
ATOM     63  C   UNL A   1      46.460  31.486  26.965  1.00  0.00     0.131 A 
ATOM     64  C   UNL A   1      44.792  33.672  26.750  1.00  0.00     0.055 A 
ATOM     65  C   UNL A   1      46.957  32.703  26.475  1.00  0.00     0.041 A 
ATOM     66  F   UNL A   1      47.333  30.468  27.033  1.00  0.00    -0.206 F 
ATOM     67  C   UNL A   1      46.120  33.805  26.362  1.00  0.00     0.022 A 
BRANCH  64  68
ATOM     68  S   UNL A   1      43.666  35.080  26.539  1.00  0.00     0.124 S 
ATOM     69  O   UNL A   1      44.594  36.211  26.563  1.00  0.00    -0.237 OA
ATOM     70  O   UNL A   1      43.068  34.782  25.238  1.00  0.00    -0.237 OA
ATOM     71  O   UNL A   1      42.765  34.970  27.672  1.00  0.00    -0.744 OA
ENDBRANCH  64  68
ENDBRANCH  47  61
BRANCH  48  72
ATOM     72  C   UNL A   1      37.520  32.236  30.831  1.00  0.00     0.023 A 
ATOM     73  C   UNL A   1      36.889  32.699  31.999  1.00  0.00     0.031 A 
ATOM     74  C   UNL A   1      36.829  32.377  29.614  1.00  0.00     0.131 A 
ATOM     75  C   UNL A   1      35.588  33.212  31.939  1.00  0.00     0.055 A 
ATOM     76  C   UNL A   1      35.536  32.906  29.556  1.00  0.00     0.041 A 
ATOM     77  F   UNL A   1      37.368  31.932  28.468  1.00  0.00    -0.206 F 
ATOM     78  C   UNL A   1      34.901  33.310  30.726  1.00  0.00     0.022 A 
BRANCH  75  79
ATOM     79  S   UNL A   1      34.716  33.678  33.460  1.00  0.00     0.124 S 
ATOM     80  O   UNL A   1      33.392  33.097  33.247  1.00  0.00    -0.237 OA
ATOM     81  O   UNL A   1      35.530  33.027  34.479  1.00  0.00    -0.237 OA
ATOM     82  O   UNL A   1      34.758  35.137  33.442  1.00  0.00    -0.744 OA
ENDBRANCH  75  79
ENDBRANCH  48  72
BRANCH  60  83
ATOM     83  C   UNL A   1      42.600  29.680  33.672  1.00  0.00     0.023 A 
ATOM     84  C   UNL A   1      43.313  29.933  34.857  1.00  0.00     0.031 A 
ATOM     85  C   UNL A   1      41.785  28.535  33.630  1.00  0.00     0.131 A 
ATOM     86  C   UNL A   1      43.237  29.045  35.934  1.00  0.00     0.055 A 
ATOM     87  C   UNL A   1      41.653  27.690  34.738  1.00  0.00     0.041 A 
ATOM     88  F   UNL A   1      41.150  28.166  32.509  1.00  0.00    -0.206 F 
ATOM     89  C   UNL A   1      42.392  27.934  35.891  1.00  0.00     0.022 A 
BRANCH  86  90
ATOM     90  S   UNL A   1      44.343  29.240  37.354  1.00  0.00     0.124 S 
ATOM     91  O   UNL A   1      44.231  27.943  38.016  1.00  0.00    -0.237 OA
ATOM     92  O   UNL A   1      45.629  29.506  36.711  1.00  0.00    -0.237 OA
ATOM     93  O   UNL A   1      43.779  30.369  38.088  1.00  0.00    -0.744 OA
ENDBRANCH  86  90
ENDBRANCH  60  83
ENDBRANCH  34  35
ENDBRANCH  26  29
ENDBRANCH  24  25
ENDBRANCH   1  24
TORSDOF 15
ENDMDL
