MODEL 1
REMARK VINA RESULT:     -13.0      0.000      0.000
REMARK SMILES Cc1cccc(NC(=O)[C@H]2C=C[C@@H]([NH3+])C2)c1C(=O)NCCCCNC(=O)c1ccc(-c2c3nc(c(-c4cc(S(=O)(=O)[O-])ccc4F)c4ccc([nH]4)c(-c4cc(S(=O)(=O)[O-])ccc4F)c4nc(c(-c5cc(S(=O)(=O)[O-])ccc5F)c5ccc2[nH]5)C=C4)C=C3)cc1
REMARK SMILES IDX 21 1 20 2 19 3 17 4 18 5 16 7 1 8 2 9 3 10 4 11 6 12 5 13
REMARK SMILES IDX 7 14 8 15 9 17 10 18 11 19 15 20 12 21 13 22 14 23 22 27
REMARK SMILES IDX 23 28 24 29 25 30 26 32 27 33 28 34 89 35 29 36 88 37 30 38
REMARK SMILES IDX 31 39 32 40 82 41 33 42 87 43 81 44 83 45 34 46 86 47 80 48
REMARK SMILES IDX 79 49 35 51 67 52 47 53 66 54 48 55 51 56 65 57 84 58 49 59
REMARK SMILES IDX 50 60 64 62 85 63 52 64 36 65 37 66 45 67 38 68 44 69 46 70
REMARK SMILES IDX 43 71 39 72 40 73 41 74 42 75 68 76 69 77 77 78 70 79 76 80
REMARK SMILES IDX 78 81 75 82 71 83 72 84 73 85 74 86 53 87 54 88 62 89 55 90
REMARK SMILES IDX 61 91 63 92 60 93 56 94 57 95 58 96 59 97
REMARK H PARENT 19 6 7 16 14 24 14 25 14 26 24 31 83 50 51 61
REMARK Flexibility Score: inf
ROOT
ATOM      1  C   UNL A   1      32.019  29.388  26.635  1.00  0.00     0.023 C 
ENDROOT
BRANCH   1   2
ATOM      2  C   UNL A   1      32.155  28.202  27.599  1.00  0.00     0.116 C 
BRANCH   2   3
ATOM      3  N   UNL A   1      31.261  27.116  27.251  1.00  0.00    -0.352 N 
ATOM      4  C   UNL A   1      31.030  26.258  26.213  1.00  0.00     0.253 C 
ATOM      5  O   UNL A   1      30.071  25.513  26.480  1.00  0.00    -0.269 OA
ATOM      6  H   UNL A   1      30.628  26.944  27.985  1.00  0.00     0.163 HD
BRANCH   4   7
ATOM      7  C   UNL A   1      31.702  26.092  24.848  1.00  0.00     0.066 A 
ATOM      8  C   UNL A   1      34.200  25.521  25.488  1.00  0.00     0.045 C 
ATOM      9  C   UNL A   1      33.058  25.766  24.552  1.00  0.00    -0.036 A 
ATOM     10  C   UNL A   1      33.494  25.705  23.206  1.00  0.00     0.004 A 
ATOM     11  C   UNL A   1      32.700  26.123  22.167  1.00  0.00     0.002 A 
ATOM     12  C   UNL A   1      30.846  26.369  23.706  1.00  0.00     0.054 A 
ATOM     13  C   UNL A   1      31.412  26.522  22.447  1.00  0.00     0.027 A 
BRANCH  12  14
ATOM     14  N   UNL A   1      29.436  26.488  23.825  1.00  0.00    -0.325 N 
ATOM     15  C   UNL A   1      28.460  27.381  23.517  1.00  0.00     0.231 C 
ATOM     16  H   UNL A   1      29.055  25.690  24.257  1.00  0.00     0.169 HD
ATOM     17  O   UNL A   1      27.314  27.045  23.876  1.00  0.00    -0.274 OA
BRANCH  15  18
ATOM     18  C   UNL A   1      28.567  28.771  22.858  1.00  0.00     0.107 C 
ATOM     19  C   UNL A   1      27.347  29.607  23.126  1.00  0.00    -0.012 C 
ATOM     20  C   UNL A   1      29.743  29.738  23.050  1.00  0.00     0.087 C 
ATOM     21  C   UNL A   1      27.652  30.900  23.280  1.00  0.00     0.033 C 
ATOM     22  C   UNL A   1      29.118  31.154  23.143  1.00  0.00     0.205 C 
BRANCH  22  23
ATOM     23  N   UNL A   1      29.615  31.953  24.251  1.00  0.00    -0.352 N 
ATOM     24  H   UNL A   1      29.067  31.753  25.087  1.00  0.00     0.345 HD
ATOM     25  H   UNL A   1      29.534  32.943  24.021  1.00  0.00     0.345 HD
ATOM     26  H   UNL A   1      30.594  31.723  24.424  1.00  0.00     0.345 HD
ENDBRANCH  22  23
ENDBRANCH  15  18
ENDBRANCH  12  14
ENDBRANCH   4   7
ENDBRANCH   2   3
ENDBRANCH   1   2
BRANCH   1  27
ATOM     27  C   UNL A   1      32.850  30.615  26.998  1.00  0.00     0.023 C 
BRANCH  27  28
ATOM     28  C   UNL A   1      34.265  30.259  27.423  1.00  0.00     0.116 C 
BRANCH  28  29
ATOM     29  N   UNL A   1      34.941  31.236  28.276  1.00  0.00    -0.352 N 
ATOM     30  C   UNL A   1      36.100  31.064  29.012  1.00  0.00     0.251 C 
ATOM     31  H   UNL A   1      34.520  32.124  28.334  1.00  0.00     0.163 HD
ATOM     32  O   UNL A   1      36.492  31.916  29.805  1.00  0.00    -0.269 OA
BRANCH  30  33
ATOM     33  C   UNL A   1      36.943  29.873  28.737  1.00  0.00     0.039 A 
ATOM     34  C   UNL A   1      37.117  28.953  29.777  1.00  0.00     0.014 A 
ATOM     35  C   UNL A   1      37.779  29.849  27.625  1.00  0.00     0.014 A 
ATOM     36  C   UNL A   1      38.289  28.203  29.829  1.00  0.00     0.010 A 
ATOM     37  C   UNL A   1      39.000  29.215  27.746  1.00  0.00     0.010 A 
ATOM     38  C   UNL A   1      39.283  28.446  28.880  1.00  0.00    -0.014 A 
BRANCH  38  39
ATOM     39  C   UNL A   1      40.684  28.083  29.089  1.00  0.00     0.031 A 
ATOM     40  C   UNL A   1      41.252  26.863  28.479  1.00  0.00     0.074 A 
ATOM     41  C   UNL A   1      41.495  28.914  29.783  1.00  0.00     0.049 A 
ATOM     42  N   UNL A   1      42.300  26.247  28.912  1.00  0.00    -0.248 NA
ATOM     43  C   UNL A   1      40.634  26.198  27.341  1.00  0.00     0.031 C 
ATOM     44  C   UNL A   1      42.952  28.872  29.862  1.00  0.00     0.029 A 
ATOM     45  N   UNL A   1      41.122  29.832  30.762  1.00  0.00    -0.354 N 
ATOM     46  C   UNL A   1      42.673  25.328  27.957  1.00  0.00     0.074 A 
ATOM     47  C   UNL A   1      41.552  25.274  27.051  1.00  0.00     0.031 C 
ATOM     48  C   UNL A   1      43.344  29.504  30.980  1.00  0.00     0.029 A 
ATOM     49  C   UNL A   1      42.149  29.856  31.723  1.00  0.00     0.049 A 
ATOM     50  H   UNL A   1      40.295  30.365  30.779  1.00  0.00     0.167 HD
ATOM     51  C   UNL A   1      43.946  24.835  27.966  1.00  0.00     0.034 A 
ATOM     52  C   UNL A   1      41.899  29.518  33.021  1.00  0.00     0.034 A 
ATOM     53  C   UNL A   1      44.681  25.277  29.158  1.00  0.00     0.049 A 
ATOM     54  C   UNL A   1      42.669  28.302  33.488  1.00  0.00     0.074 A 
ATOM     55  C   UNL A   1      45.662  26.233  29.365  1.00  0.00     0.029 A 
ATOM     56  N   UNL A   1      44.238  24.895  30.421  1.00  0.00    -0.354 N 
ATOM     57  N   UNL A   1      43.307  27.489  32.692  1.00  0.00    -0.248 NA
ATOM     58  C   UNL A   1      42.766  27.894  34.887  1.00  0.00     0.031 C 
ATOM     59  C   UNL A   1      45.750  26.477  30.762  1.00  0.00     0.029 A 
ATOM     60  C   UNL A   1      44.851  25.645  31.406  1.00  0.00     0.049 A 
ATOM     61  H   UNL A   1      43.577  24.184  30.590  1.00  0.00     0.167 HD
ATOM     62  C   UNL A   1      43.857  26.462  33.417  1.00  0.00     0.074 A 
ATOM     63  C   UNL A   1      43.517  26.782  34.793  1.00  0.00     0.031 C 
ATOM     64  C   UNL A   1      44.531  25.433  32.815  1.00  0.00     0.034 A 
BRANCH  51  65
ATOM     65  C   UNL A   1      44.631  24.229  26.748  1.00  0.00     0.023 A 
ATOM     66  C   UNL A   1      44.351  22.889  26.398  1.00  0.00     0.031 A 
ATOM     67  C   UNL A   1      45.605  24.855  25.946  1.00  0.00     0.131 A 
ATOM     68  C   UNL A   1      45.091  22.212  25.408  1.00  0.00     0.055 A 
ATOM     69  C   UNL A   1      46.382  24.168  25.001  1.00  0.00     0.041 A 
ATOM     70  F   UNL A   1      45.812  26.175  25.979  1.00  0.00    -0.206 F 
ATOM     71  C   UNL A   1      46.139  22.832  24.739  1.00  0.00     0.022 A 
BRANCH  68  72
ATOM     72  S   UNL A   1      44.663  20.496  25.000  1.00  0.00     0.124 S 
ATOM     73  O   UNL A   1      43.433  20.294  25.759  1.00  0.00    -0.237 OA
ATOM     74  O   UNL A   1      44.528  20.549  23.549  1.00  0.00    -0.237 OA
ATOM     75  O   UNL A   1      45.817  19.736  25.483  1.00  0.00    -0.744 OA
ENDBRANCH  68  72
ENDBRANCH  51  65
BRANCH  52  76
ATOM     76  C   UNL A   1      40.543  29.935  33.477  1.00  0.00     0.023 A 
ATOM     77  C   UNL A   1      40.371  31.304  33.780  1.00  0.00     0.031 A 
ATOM     78  C   UNL A   1      39.397  29.171  33.224  1.00  0.00     0.131 A 
ATOM     79  C   UNL A   1      39.113  31.908  33.649  1.00  0.00     0.055 A 
ATOM     80  C   UNL A   1      38.128  29.765  33.168  1.00  0.00     0.041 A 
ATOM     81  F   UNL A   1      39.498  27.876  32.893  1.00  0.00    -0.206 F 
ATOM     82  C   UNL A   1      37.987  31.145  33.333  1.00  0.00     0.022 A 
BRANCH  79  83
ATOM     83  S   UNL A   1      39.028  33.725  33.616  1.00  0.00     0.124 S 
ATOM     84  O   UNL A   1      38.380  33.976  32.334  1.00  0.00    -0.237 OA
ATOM     85  O   UNL A   1      38.232  34.035  34.802  1.00  0.00    -0.237 OA
ATOM     86  O   UNL A   1      40.426  34.135  33.710  1.00  0.00    -0.744 OA
ENDBRANCH  79  83
ENDBRANCH  52  76
BRANCH  64  87
ATOM     87  C   UNL A   1      45.021  24.168  33.495  1.00  0.00     0.023 A 
ATOM     88  C   UNL A   1      46.307  24.020  34.035  1.00  0.00     0.031 A 
ATOM     89  C   UNL A   1      44.151  23.065  33.687  1.00  0.00     0.131 A 
ATOM     90  C   UNL A   1      46.710  22.816  34.646  1.00  0.00     0.055 A 
ATOM     91  C   UNL A   1      44.526  21.901  34.366  1.00  0.00     0.041 A 
ATOM     92  F   UNL A   1      42.889  23.070  33.231  1.00  0.00    -0.206 F 
ATOM     93  C   UNL A   1      45.821  21.763  34.836  1.00  0.00     0.022 A 
BRANCH  90  94
ATOM     94  S   UNL A   1      48.448  22.635  35.127  1.00  0.00     0.124 S 
ATOM     95  O   UNL A   1      48.501  23.411  36.363  1.00  0.00    -0.237 OA
ATOM     96  O   UNL A   1      48.583  21.190  35.281  1.00  0.00    -0.237 OA
ATOM     97  O   UNL A   1      49.181  23.212  34.002  1.00  0.00    -0.744 OA
ENDBRANCH  90  94
ENDBRANCH  64  87
ENDBRANCH  38  39
ENDBRANCH  30  33
ENDBRANCH  28  29
ENDBRANCH  27  28
ENDBRANCH   1  27
TORSDOF 17
ENDMDL
MODEL 2
REMARK VINA RESULT:     -12.8      4.997     11.093
REMARK SMILES Cc1cccc(NC(=O)[C@H]2C=C[C@@H]([NH3+])C2)c1C(=O)NCCCCNC(=O)c1ccc(-c2c3nc(c(-c4cc(S(=O)(=O)[O-])ccc4F)c4ccc([nH]4)c(-c4cc(S(=O)(=O)[O-])ccc4F)c4nc(c(-c5cc(S(=O)(=O)[O-])ccc5F)c5ccc2[nH]5)C=C4)C=C3)cc1
REMARK SMILES IDX 21 1 20 2 19 3 17 4 18 5 16 7 1 8 2 9 3 10 4 11 6 12 5 13
REMARK SMILES IDX 7 14 8 15 9 17 10 18 11 19 15 20 12 21 13 22 14 23 22 27
REMARK SMILES IDX 23 28 24 29 25 30 26 32 27 33 28 34 89 35 29 36 88 37 30 38
REMARK SMILES IDX 31 39 32 40 82 41 33 42 87 43 81 44 83 45 34 46 86 47 80 48
REMARK SMILES IDX 79 49 35 51 67 52 47 53 66 54 48 55 51 56 65 57 84 58 49 59
REMARK SMILES IDX 50 60 64 62 85 63 52 64 36 65 37 66 45 67 38 68 44 69 46 70
REMARK SMILES IDX 43 71 39 72 40 73 41 74 42 75 68 76 69 77 77 78 70 79 76 80
REMARK SMILES IDX 78 81 75 82 71 83 72 84 73 85 74 86 53 87 54 88 62 89 55 90
REMARK SMILES IDX 61 91 63 92 60 93 56 94 57 95 58 96 59 97
REMARK H PARENT 19 6 7 16 14 24 14 25 14 26 24 31 83 50 51 61
REMARK Flexibility Score: inf
ROOT
ATOM      1  C   UNL A   1      37.182  22.090  24.763  1.00  0.00     0.023 C 
ENDROOT
BRANCH   1   2
ATOM      2  C   UNL A   1      36.485  23.452  24.875  1.00  0.00     0.116 C 
BRANCH   2   3
ATOM      3  N   UNL A   1      35.621  23.714  23.742  1.00  0.00    -0.352 N 
ATOM      4  C   UNL A   1      34.310  23.999  23.484  1.00  0.00     0.253 C 
ATOM      5  O   UNL A   1      34.130  24.110  22.259  1.00  0.00    -0.269 OA
ATOM      6  H   UNL A   1      36.135  23.675  22.903  1.00  0.00     0.163 HD
BRANCH   4   7
ATOM      7  C   UNL A   1      33.096  24.167  24.400  1.00  0.00     0.066 A 
ATOM      8  C   UNL A   1      33.821  26.160  25.975  1.00  0.00     0.045 C 
ATOM      9  C   UNL A   1      32.895  25.104  25.457  1.00  0.00    -0.036 A 
ATOM     10  C   UNL A   1      31.705  25.063  26.222  1.00  0.00     0.004 A 
ATOM     11  C   UNL A   1      30.802  24.037  26.104  1.00  0.00     0.002 A 
ATOM     12  C   UNL A   1      32.036  23.194  24.198  1.00  0.00     0.054 A 
ATOM     13  C   UNL A   1      31.025  23.076  25.143  1.00  0.00     0.027 A 
BRANCH  12  14
ATOM     14  N   UNL A   1      31.988  22.349  23.058  1.00  0.00    -0.325 N 
ATOM     15  C   UNL A   1      32.072  21.025  22.768  1.00  0.00     0.231 C 
ATOM     16  H   UNL A   1      31.855  22.877  22.238  1.00  0.00     0.169 HD
ATOM     17  O   UNL A   1      32.015  20.753  21.552  1.00  0.00    -0.274 OA
BRANCH  15  18
ATOM     18  C   UNL A   1      32.299  19.821  23.705  1.00  0.00     0.107 C 
ATOM     19  C   UNL A   1      32.372  18.530  22.942  1.00  0.00    -0.012 C 
ATOM     20  C   UNL A   1      33.431  19.722  24.737  1.00  0.00     0.087 C 
ATOM     21  C   UNL A   1      33.251  17.680  23.483  1.00  0.00     0.033 C 
ATOM     22  C   UNL A   1      33.916  18.249  24.694  1.00  0.00     0.205 C 
BRANCH  22  23
ATOM     23  N   UNL A   1      35.359  18.100  24.616  1.00  0.00    -0.352 N 
ATOM     24  H   UNL A   1      35.622  17.812  23.674  1.00  0.00     0.345 HD
ATOM     25  H   UNL A   1      35.665  17.394  25.285  1.00  0.00     0.345 HD
ATOM     26  H   UNL A   1      35.806  18.991  24.834  1.00  0.00     0.345 HD
ENDBRANCH  22  23
ENDBRANCH  15  18
ENDBRANCH  12  14
ENDBRANCH   4   7
ENDBRANCH   2   3
ENDBRANCH   1   2
BRANCH   1  27
ATOM     27  C   UNL A   1      38.400  21.910  25.664  1.00  0.00     0.023 C 
BRANCH  27  28
ATOM     28  C   UNL A   1      38.744  23.170  26.442  1.00  0.00     0.116 C 
BRANCH  28  29
ATOM     29  N   UNL A   1      40.119  23.263  26.932  1.00  0.00    -0.352 N 
ATOM     30  C   UNL A   1      40.805  24.397  27.324  1.00  0.00     0.251 C 
ATOM     31  H   UNL A   1      40.615  22.415  26.988  1.00  0.00     0.163 HD
ATOM     32  O   UNL A   1      42.007  24.367  27.581  1.00  0.00    -0.269 OA
BRANCH  30  33
ATOM     33  C   UNL A   1      40.037  25.647  27.554  1.00  0.00     0.039 A 
ATOM     34  C   UNL A   1      40.346  26.750  26.751  1.00  0.00     0.014 A 
ATOM     35  C   UNL A   1      39.295  25.807  28.720  1.00  0.00     0.014 A 
ATOM     36  C   UNL A   1      40.153  28.033  27.258  1.00  0.00     0.010 A 
ATOM     37  C   UNL A   1      39.233  27.068  29.280  1.00  0.00     0.010 A 
ATOM     38  C   UNL A   1      39.724  28.174  28.578  1.00  0.00    -0.014 A 
BRANCH  38  39
ATOM     39  C   UNL A   1      39.924  29.400  29.349  1.00  0.00     0.031 A 
ATOM     40  C   UNL A   1      38.889  30.455  29.380  1.00  0.00     0.074 A 
ATOM     41  C   UNL A   1      41.032  29.540  30.109  1.00  0.00     0.049 A 
ATOM     42  N   UNL A   1      39.114  31.694  29.663  1.00  0.00    -0.248 NA
ATOM     43  C   UNL A   1      37.499  30.197  29.030  1.00  0.00     0.031 C 
ATOM     44  C   UNL A   1      41.281  30.540  31.144  1.00  0.00     0.029 A 
ATOM     45  N   UNL A   1      42.270  28.930  29.916  1.00  0.00    -0.354 N 
ATOM     46  C   UNL A   1      37.898  32.312  29.846  1.00  0.00     0.074 A 
ATOM     47  C   UNL A   1      36.932  31.363  29.348  1.00  0.00     0.031 C 
ATOM     48  C   UNL A   1      42.606  30.669  31.315  1.00  0.00     0.029 A 
ATOM     49  C   UNL A   1      43.256  29.855  30.305  1.00  0.00     0.049 A 
ATOM     50  H   UNL A   1      42.426  28.022  29.571  1.00  0.00     0.167 HD
ATOM     51  C   UNL A   1      37.844  33.490  30.535  1.00  0.00     0.034 A 
ATOM     52  C   UNL A   1      44.188  30.300  29.413  1.00  0.00     0.034 A 
ATOM     53  C   UNL A   1      39.190  33.996  30.832  1.00  0.00     0.049 A 
ATOM     54  C   UNL A   1      44.118  31.790  29.159  1.00  0.00     0.074 A 
ATOM     55  C   UNL A   1      39.960  34.019  31.983  1.00  0.00     0.029 A 
ATOM     56  N   UNL A   1      40.044  34.336  29.786  1.00  0.00    -0.354 N 
ATOM     57  N   UNL A   1      43.126  32.551  29.531  1.00  0.00    -0.248 NA
ATOM     58  C   UNL A   1      45.151  32.538  28.448  1.00  0.00     0.031 C 
ATOM     59  C   UNL A   1      41.301  34.303  31.610  1.00  0.00     0.029 A 
ATOM     60  C   UNL A   1      41.341  34.487  30.238  1.00  0.00     0.049 A 
ATOM     61  H   UNL A   1      39.761  34.455  28.850  1.00  0.00     0.167 HD
ATOM     62  C   UNL A   1      43.341  33.839  29.108  1.00  0.00     0.074 A 
ATOM     63  C   UNL A   1      44.641  33.783  28.463  1.00  0.00     0.031 C 
ATOM     64  C   UNL A   1      42.419  34.830  29.315  1.00  0.00     0.034 A 
BRANCH  51  65
ATOM     65  C   UNL A   1      36.591  34.015  31.223  1.00  0.00     0.023 A 
ATOM     66  C   UNL A   1      35.526  34.504  30.433  1.00  0.00     0.031 A 
ATOM     67  C   UNL A   1      36.398  34.141  32.612  1.00  0.00     0.131 A 
ATOM     68  C   UNL A   1      34.428  35.178  31.004  1.00  0.00     0.055 A 
ATOM     69  C   UNL A   1      35.337  34.862  33.180  1.00  0.00     0.041 A 
ATOM     70  F   UNL A   1      37.181  33.518  33.499  1.00  0.00    -0.206 F 
ATOM     71  C   UNL A   1      34.351  35.402  32.373  1.00  0.00     0.022 A 
BRANCH  68  72
ATOM     72  S   UNL A   1      33.091  35.764  29.927  1.00  0.00     0.124 S 
ATOM     73  O   UNL A   1      32.585  34.521  29.355  1.00  0.00    -0.237 OA
ATOM     74  O   UNL A   1      32.214  36.448  30.871  1.00  0.00    -0.237 OA
ATOM     75  O   UNL A   1      33.779  36.643  28.980  1.00  0.00    -0.744 OA
ENDBRANCH  68  72
ENDBRANCH  51  65
BRANCH  52  76
ATOM     76  C   UNL A   1      44.598  29.254  28.433  1.00  0.00     0.023 A 
ATOM     77  C   UNL A   1      45.417  28.214  28.925  1.00  0.00     0.031 A 
ATOM     78  C   UNL A   1      43.905  29.032  27.237  1.00  0.00     0.131 A 
ATOM     79  C   UNL A   1      45.389  26.946  28.330  1.00  0.00     0.055 A 
ATOM     80  C   UNL A   1      43.938  27.783  26.601  1.00  0.00     0.041 A 
ATOM     81  F   UNL A   1      43.081  29.966  26.741  1.00  0.00    -0.206 F 
ATOM     82  C   UNL A   1      44.643  26.720  27.172  1.00  0.00     0.022 A 
BRANCH  79  83
ATOM     83  S   UNL A   1      46.104  25.547  29.247  1.00  0.00     0.124 S 
ATOM     84  O   UNL A   1      46.148  26.066  30.609  1.00  0.00    -0.237 OA
ATOM     85  O   UNL A   1      45.139  24.474  29.008  1.00  0.00    -0.237 OA
ATOM     86  O   UNL A   1      47.399  25.340  28.605  1.00  0.00    -0.744 OA
ENDBRANCH  79  83
ENDBRANCH  52  76
BRANCH  64  87
ATOM     87  C   UNL A   1      42.472  36.233  28.740  1.00  0.00     0.023 A 
ATOM     88  C   UNL A   1      43.050  37.327  29.401  1.00  0.00     0.031 A 
ATOM     89  C   UNL A   1      41.990  36.499  27.433  1.00  0.00     0.131 A 
ATOM     90  C   UNL A   1      43.061  38.610  28.821  1.00  0.00     0.055 A 
ATOM     91  C   UNL A   1      42.075  37.756  26.826  1.00  0.00     0.041 A 
ATOM     92  F   UNL A   1      41.421  35.546  26.680  1.00  0.00    -0.206 F 
ATOM     93  C   UNL A   1      42.598  38.829  27.528  1.00  0.00     0.022 A 
BRANCH  90  94
ATOM     94  S   UNL A   1      43.635  40.005  29.827  1.00  0.00     0.124 S 
ATOM     95  O   UNL A   1      43.922  39.356  31.103  1.00  0.00    -0.237 OA
ATOM     96  O   UNL A   1      44.797  40.474  29.080  1.00  0.00    -0.237 OA
ATOM     97  O   UNL A   1      42.493  40.916  29.838  1.00  0.00    -0.744 OA
ENDBRANCH  90  94
ENDBRANCH  64  87
ENDBRANCH  38  39
ENDBRANCH  30  33
ENDBRANCH  28  29
ENDBRANCH  27  28
ENDBRANCH   1  27
TORSDOF 17
ENDMDL
MODEL 3
REMARK VINA RESULT:     -12.8      1.945      3.591
REMARK SMILES Cc1cccc(NC(=O)[C@H]2C=C[C@@H]([NH3+])C2)c1C(=O)NCCCCNC(=O)c1ccc(-c2c3nc(c(-c4cc(S(=O)(=O)[O-])ccc4F)c4ccc([nH]4)c(-c4cc(S(=O)(=O)[O-])ccc4F)c4nc(c(-c5cc(S(=O)(=O)[O-])ccc5F)c5ccc2[nH]5)C=C4)C=C3)cc1
REMARK SMILES IDX 21 1 20 2 19 3 17 4 18 5 16 7 1 8 2 9 3 10 4 11 6 12 5 13
REMARK SMILES IDX 7 14 8 15 9 17 10 18 11 19 15 20 12 21 13 22 14 23 22 27
REMARK SMILES IDX 23 28 24 29 25 30 26 32 27 33 28 34 89 35 29 36 88 37 30 38
REMARK SMILES IDX 31 39 32 40 82 41 33 42 87 43 81 44 83 45 34 46 86 47 80 48
REMARK SMILES IDX 79 49 35 51 67 52 47 53 66 54 48 55 51 56 65 57 84 58 49 59
REMARK SMILES IDX 50 60 64 62 85 63 52 64 36 65 37 66 45 67 38 68 44 69 46 70
REMARK SMILES IDX 43 71 39 72 40 73 41 74 42 75 68 76 69 77 77 78 70 79 76 80
REMARK SMILES IDX 78 81 75 82 71 83 72 84 73 85 74 86 53 87 54 88 62 89 55 90
REMARK SMILES IDX 61 91 63 92 60 93 56 94 57 95 58 96 59 97
REMARK H PARENT 19 6 7 16 14 24 14 25 14 26 24 31 83 50 51 61
REMARK Flexibility Score: inf
ROOT
ATOM      1  C   UNL A   1      33.089  29.005  27.094  1.00  0.00     0.023 C 
ENDROOT
BRANCH   1   2
ATOM      2  C   UNL A   1      31.630  28.599  27.341  1.00  0.00     0.116 C 
BRANCH   2   3
ATOM      3  N   UNL A   1      31.438  27.168  27.221  1.00  0.00    -0.352 N 
ATOM      4  C   UNL A   1      31.497  26.193  26.265  1.00  0.00     0.253 C 
ATOM      5  O   UNL A   1      31.202  25.091  26.761  1.00  0.00    -0.269 OA
ATOM      6  H   UNL A   1      31.190  26.781  28.091  1.00  0.00     0.163 HD
BRANCH   4   7
ATOM      7  C   UNL A   1      31.822  26.237  24.771  1.00  0.00     0.066 A 
ATOM      8  C   UNL A   1      30.086  27.998  23.844  1.00  0.00     0.045 C 
ATOM      9  C   UNL A   1      31.217  27.022  23.746  1.00  0.00    -0.036 A 
ATOM     10  C   UNL A   1      31.639  26.880  22.402  1.00  0.00     0.004 A 
ATOM     11  C   UNL A   1      32.495  25.880  22.014  1.00  0.00     0.002 A 
ATOM     12  C   UNL A   1      32.847  25.301  24.338  1.00  0.00     0.054 A 
ATOM     13  C   UNL A   1      33.024  25.057  22.983  1.00  0.00     0.027 A 
BRANCH  12  14
ATOM     14  N   UNL A   1      33.687  24.618  25.257  1.00  0.00    -0.325 N 
ATOM     15  C   UNL A   1      34.047  23.342  25.554  1.00  0.00     0.231 C 
ATOM     16  H   UNL A   1      34.143  25.255  25.852  1.00  0.00     0.169 HD
ATOM     17  O   UNL A   1      34.822  23.231  26.524  1.00  0.00    -0.274 OA
BRANCH  15  18
ATOM     18  C   UNL A   1      33.585  22.014  24.920  1.00  0.00     0.107 C 
ATOM     19  C   UNL A   1      34.738  21.078  24.692  1.00  0.00    -0.012 C 
ATOM     20  C   UNL A   1      32.472  21.120  25.482  1.00  0.00     0.087 C 
ATOM     21  C   UNL A   1      34.392  19.802  24.890  1.00  0.00     0.033 C 
ATOM     22  C   UNL A   1      32.957  19.661  25.282  1.00  0.00     0.205 C 
BRANCH  22  23
ATOM     23  N   UNL A   1      32.818  18.821  26.460  1.00  0.00    -0.352 N 
ATOM     24  H   UNL A   1      32.581  17.871  26.175  1.00  0.00     0.345 HD
ATOM     25  H   UNL A   1      32.079  19.191  27.057  1.00  0.00     0.345 HD
ATOM     26  H   UNL A   1      33.698  18.810  26.976  1.00  0.00     0.345 HD
ENDBRANCH  22  23
ENDBRANCH  15  18
ENDBRANCH  12  14
ENDBRANCH   4   7
ENDBRANCH   2   3
ENDBRANCH   1   2
BRANCH   1  27
ATOM     27  C   UNL A   1      33.478  30.377  27.635  1.00  0.00     0.023 C 
BRANCH  27  28
ATOM     28  C   UNL A   1      34.901  30.768  27.272  1.00  0.00     0.116 C 
BRANCH  28  29
ATOM     29  N   UNL A   1      35.626  31.547  28.275  1.00  0.00    -0.352 N 
ATOM     30  C   UNL A   1      36.644  31.122  29.109  1.00  0.00     0.251 C 
ATOM     31  H   UNL A   1      35.356  32.489  28.368  1.00  0.00     0.163 HD
ATOM     32  O   UNL A   1      37.076  31.833  30.013  1.00  0.00    -0.269 OA
BRANCH  30  33
ATOM     33  C   UNL A   1      37.301  29.822  28.819  1.00  0.00     0.039 A 
ATOM     34  C   UNL A   1      37.449  28.923  29.881  1.00  0.00     0.014 A 
ATOM     35  C   UNL A   1      38.025  29.653  27.643  1.00  0.00     0.014 A 
ATOM     36  C   UNL A   1      38.517  28.029  29.868  1.00  0.00     0.010 A 
ATOM     37  C   UNL A   1      39.162  28.870  27.689  1.00  0.00     0.010 A 
ATOM     38  C   UNL A   1      39.445  28.109  28.829  1.00  0.00    -0.014 A 
BRANCH  38  39
ATOM     39  C   UNL A   1      40.802  27.574  28.936  1.00  0.00     0.031 A 
ATOM     40  C   UNL A   1      41.108  26.190  28.518  1.00  0.00     0.074 A 
ATOM     41  C   UNL A   1      41.808  28.378  29.347  1.00  0.00     0.049 A 
ATOM     42  N   UNL A   1      42.119  25.505  28.936  1.00  0.00    -0.248 NA
ATOM     43  C   UNL A   1      40.246  25.436  27.619  1.00  0.00     0.031 C 
ATOM     44  C   UNL A   1      43.243  28.123  29.257  1.00  0.00     0.029 A 
ATOM     45  N   UNL A   1      41.709  29.505  30.160  1.00  0.00    -0.354 N 
ATOM     46  C   UNL A   1      42.222  24.382  28.147  1.00  0.00     0.074 A 
ATOM     47  C   UNL A   1      40.981  24.342  27.412  1.00  0.00     0.031 C 
ATOM     48  C   UNL A   1      43.876  28.876  30.170  1.00  0.00     0.029 A 
ATOM     49  C   UNL A   1      42.861  29.540  30.966  1.00  0.00     0.049 A 
ATOM     50  H   UNL A   1      40.970  30.155  30.170  1.00  0.00     0.167 HD
ATOM     51  C   UNL A   1      43.407  23.705  28.100  1.00  0.00     0.034 A 
ATOM     52  C   UNL A   1      42.764  29.485  32.326  1.00  0.00     0.034 A 
ATOM     53  C   UNL A   1      44.362  24.233  29.082  1.00  0.00     0.049 A 
ATOM     54  C   UNL A   1      43.429  28.267  32.931  1.00  0.00     0.074 A 
ATOM     55  C   UNL A   1      45.479  25.045  28.975  1.00  0.00     0.029 A 
ATOM     56  N   UNL A   1      44.065  24.160  30.441  1.00  0.00    -0.354 N 
ATOM     57  N   UNL A   1      43.829  27.234  32.243  1.00  0.00    -0.248 NA
ATOM     58  C   UNL A   1      43.678  28.108  34.360  1.00  0.00     0.031 C 
ATOM     59  C   UNL A   1      45.805  25.520  30.274  1.00  0.00     0.029 A 
ATOM     60  C   UNL A   1      44.910  24.970  31.175  1.00  0.00     0.049 A 
ATOM     61  H   UNL A   1      43.349  23.604  30.827  1.00  0.00     0.167 HD
ATOM     62  C   UNL A   1      44.342  26.281  33.087  1.00  0.00     0.074 A 
ATOM     63  C   UNL A   1      44.254  26.893  34.401  1.00  0.00     0.031 C 
ATOM     64  C   UNL A   1      44.778  25.068  32.626  1.00  0.00     0.034 A 
BRANCH  51  65
ATOM     65  C   UNL A   1      43.818  22.789  26.955  1.00  0.00     0.023 A 
ATOM     66  C   UNL A   1      43.214  21.517  26.841  1.00  0.00     0.031 A 
ATOM     67  C   UNL A   1      44.823  23.050  26.004  1.00  0.00     0.131 A 
ATOM     68  C   UNL A   1      43.684  20.552  25.928  1.00  0.00     0.055 A 
ATOM     69  C   UNL A   1      45.333  22.073  25.135  1.00  0.00     0.041 A 
ATOM     70  F   UNL A   1      45.321  24.276  25.813  1.00  0.00    -0.206 F 
ATOM     71  C   UNL A   1      44.774  20.808  25.105  1.00  0.00     0.022 A 
BRANCH  68  72
ATOM     72  S   UNL A   1      42.848  18.945  25.828  1.00  0.00     0.124 S 
ATOM     73  O   UNL A   1      43.624  18.255  24.802  1.00  0.00    -0.237 OA
ATOM     74  O   UNL A   1      42.984  18.443  27.190  1.00  0.00    -0.237 OA
ATOM     75  O   UNL A   1      41.483  19.297  25.435  1.00  0.00    -0.744 OA
ENDBRANCH  68  72
ENDBRANCH  51  65
BRANCH  52  76
ATOM     76  C   UNL A   1      41.557  30.185  32.850  1.00  0.00     0.023 A 
ATOM     77  C   UNL A   1      41.608  31.596  32.879  1.00  0.00     0.031 A 
ATOM     78  C   UNL A   1      40.298  29.574  32.906  1.00  0.00     0.131 A 
ATOM     79  C   UNL A   1      40.432  32.352  32.782  1.00  0.00     0.055 A 
ATOM     80  C   UNL A   1      39.121  30.335  32.885  1.00  0.00     0.041 A 
ATOM     81  F   UNL A   1      40.184  28.240  32.842  1.00  0.00    -0.206 F 
ATOM     82  C   UNL A   1      39.184  31.727  32.774  1.00  0.00     0.022 A 
BRANCH  79  83
ATOM     83  S   UNL A   1      40.574  34.120  32.381  1.00  0.00     0.124 S 
ATOM     84  O   UNL A   1      39.213  34.452  31.976  1.00  0.00    -0.237 OA
ATOM     85  O   UNL A   1      41.021  34.705  33.644  1.00  0.00    -0.237 OA
ATOM     86  O   UNL A   1      41.576  34.152  31.319  1.00  0.00    -0.744 OA
ENDBRANCH  79  83
ENDBRANCH  52  76
BRANCH  64  87
ATOM     87  C   UNL A   1      45.193  23.884  33.480  1.00  0.00     0.023 A 
ATOM     88  C   UNL A   1      46.487  23.708  33.994  1.00  0.00     0.031 A 
ATOM     89  C   UNL A   1      44.245  22.907  33.875  1.00  0.00     0.131 A 
ATOM     90  C   UNL A   1      46.817  22.582  34.774  1.00  0.00     0.055 A 
ATOM     91  C   UNL A   1      44.555  21.834  34.716  1.00  0.00     0.041 A 
ATOM     92  F   UNL A   1      42.968  22.954  33.466  1.00  0.00    -0.206 F 
ATOM     93  C   UNL A   1      45.855  21.655  35.159  1.00  0.00     0.022 A 
BRANCH  90  94
ATOM     94  S   UNL A   1      48.556  22.324  35.219  1.00  0.00     0.124 S 
ATOM     95  O   UNL A   1      48.658  23.062  36.474  1.00  0.00    -0.237 OA
ATOM     96  O   UNL A   1      48.639  20.872  35.330  1.00  0.00    -0.237 OA
ATOM     97  O   UNL A   1      49.290  22.905  34.097  1.00  0.00    -0.744 OA
ENDBRANCH  90  94
ENDBRANCH  64  87
ENDBRANCH  38  39
ENDBRANCH  30  33
ENDBRANCH  28  29
ENDBRANCH  27  28
ENDBRANCH   1  27
TORSDOF 17
ENDMDL
