MODEL 1
REMARK VINA RESULT:     -11.6      0.000      0.000
REMARK SMILES CCCc1cc(OC(F)(F)F)cc2c1O[C@H](C(F)(F)F)C(C(=O)NCCCCNC(=O)c1ccc(-c3c4nc(c(-c5cc(S(=O)(=O)[O-])ccc5F)c5ccc([nH]5)c(-c5cc(S(=O)(=O)[O-])ccc5F)c5nc(c(-c6cc(S(=O)(=O)[O-])ccc6F)c6ccc3[nH]6)C=C5)C=C4)cc1)=C2
REMARK SMILES IDX 27 1 26 2 25 3 24 4 22 5 23 6 21 8 4 9 5 10 14 11 6 12 13 13
REMARK SMILES IDX 15 14 12 15 95 16 16 17 3 18 2 19 1 20 7 21 8 22 9 23 10 24
REMARK SMILES IDX 11 25 17 26 18 27 19 28 20 29 28 30 29 31 30 32 31 34 32 35
REMARK SMILES IDX 33 36 94 37 34 38 93 39 35 40 36 41 37 42 87 43 38 44 92 45
REMARK SMILES IDX 86 46 88 47 39 48 91 49 85 50 84 51 40 53 72 54 52 55 71 56
REMARK SMILES IDX 53 57 56 58 70 59 89 60 54 61 55 62 69 64 90 65 57 66 41 67
REMARK SMILES IDX 42 68 50 69 43 70 49 71 51 72 48 73 44 74 45 75 46 76 47 77
REMARK SMILES IDX 73 78 74 79 82 80 75 81 81 82 83 83 80 84 76 85 77 86 78 87
REMARK SMILES IDX 79 88 58 89 59 90 67 91 60 92 66 93 68 94 65 95 61 96 62 97
REMARK SMILES IDX 63 98 64 99
REMARK H PARENT 24 7 29 33 88 52 56 63
REMARK Flexibility Score: inf
ROOT
ATOM      1  C   UNL A   1      33.643  27.906  25.344  1.00  0.00     0.023 C 
ENDROOT
BRANCH   1   2
ATOM      2  C   UNL A   1      32.164  28.262  25.174  1.00  0.00     0.023 C 
BRANCH   2   3
ATOM      3  C   UNL A   1      31.327  27.158  24.524  1.00  0.00     0.116 C 
BRANCH   3   4
ATOM      4  N   UNL A   1      30.451  26.548  25.501  1.00  0.00    -0.352 N 
ATOM      5  C   UNL A   1      30.414  25.304  26.034  1.00  0.00     0.251 C 
ATOM      6  O   UNL A   1      29.503  25.041  26.819  1.00  0.00    -0.270 OA
ATOM      7  H   UNL A   1      29.752  27.151  25.844  1.00  0.00     0.163 HD
BRANCH   5   8
ATOM      8  C   UNL A   1      31.461  24.267  25.788  1.00  0.00     0.067 C 
ATOM      9  C   UNL A   1      33.752  20.788  25.144  1.00  0.00    -0.002 A 
ATOM     10  C   UNL A   1      35.131  20.839  25.458  1.00  0.00     0.054 A 
ATOM     11  C   UNL A   1      32.986  21.945  25.346  1.00  0.00     0.131 A 
ATOM     12  C   UNL A   1      35.719  21.988  25.993  1.00  0.00     0.130 A 
ATOM     13  C   UNL A   1      33.566  23.098  25.890  1.00  0.00     0.021 A 
ATOM     14  O   UNL A   1      31.651  21.904  25.064  1.00  0.00    -0.475 OA
ATOM     15  C   UNL A   1      34.927  23.115  26.206  1.00  0.00     0.058 A 
ATOM     16  C   UNL A   1      32.731  24.251  26.212  1.00  0.00     0.025 C 
ATOM     17  C   UNL A   1      30.972  23.170  24.862  1.00  0.00     0.314 C 
BRANCH   9  18
ATOM     18  C   UNL A   1      33.236  19.483  24.556  1.00  0.00     0.039 C 
BRANCH  18  19
ATOM     19  C   UNL A   1      32.448  19.506  23.237  1.00  0.00     0.001 C 
ATOM     20  C   UNL A   1      32.388  18.144  22.557  1.00  0.00     0.004 C 
ENDBRANCH  18  19
ENDBRANCH   9  18
BRANCH  12  21
ATOM     21  O   UNL A   1      37.026  22.145  26.355  1.00  0.00    -0.406 OA
BRANCH  21  22
ATOM     22  C   UNL A   1      37.894  22.804  25.450  1.00  0.00     0.573 C 
ATOM     23  F   UNL A   1      38.047  24.104  25.777  1.00  0.00    -0.132 F 
ATOM     24  F   UNL A   1      39.103  22.203  25.413  1.00  0.00    -0.132 F 
ATOM     25  F   UNL A   1      37.357  22.742  24.212  1.00  0.00    -0.132 F 
ENDBRANCH  21  22
ENDBRANCH  12  21
BRANCH  17  26
ATOM     26  C   UNL A   1      30.996  23.599  23.376  1.00  0.00     0.429 C 
ATOM     27  F   UNL A   1      31.040  22.549  22.519  1.00  0.00    -0.167 F 
ATOM     28  F   UNL A   1      29.891  24.311  23.037  1.00  0.00    -0.167 F 
ATOM     29  F   UNL A   1      32.061  24.392  23.104  1.00  0.00    -0.167 F 
ENDBRANCH  17  26
ENDBRANCH   5   8
ENDBRANCH   3   4
ENDBRANCH   2   3
ENDBRANCH   1   2
BRANCH   1  30
ATOM     30  C   UNL A   1      34.299  28.525  26.570  1.00  0.00     0.116 C 
BRANCH  30  31
ATOM     31  N   UNL A   1      33.958  29.928  26.755  1.00  0.00    -0.352 N 
ATOM     32  C   UNL A   1      34.641  30.858  27.503  1.00  0.00     0.251 C 
ATOM     33  H   UNL A   1      33.149  30.246  26.294  1.00  0.00     0.163 HD
ATOM     34  O   UNL A   1      34.191  31.987  27.661  1.00  0.00    -0.269 OA
BRANCH  32  35
ATOM     35  C   UNL A   1      35.897  30.438  28.151  1.00  0.00     0.039 A 
ATOM     36  C   UNL A   1      35.837  29.806  29.395  1.00  0.00     0.014 A 
ATOM     37  C   UNL A   1      37.111  30.582  27.476  1.00  0.00     0.014 A 
ATOM     38  C   UNL A   1      36.998  29.255  29.938  1.00  0.00     0.010 A 
ATOM     39  C   UNL A   1      38.251  29.976  27.989  1.00  0.00     0.010 A 
ATOM     40  C   UNL A   1      38.205  29.305  29.222  1.00  0.00    -0.014 A 
BRANCH  40  41
ATOM     41  C   UNL A   1      39.450  28.690  29.746  1.00  0.00     0.031 A 
ATOM     42  C   UNL A   1      40.177  29.363  30.876  1.00  0.00     0.074 A 
ATOM     43  C   UNL A   1      39.970  27.603  29.148  1.00  0.00     0.049 A 
ATOM     44  N   UNL A   1      41.361  29.113  31.368  1.00  0.00    -0.248 NA
ATOM     45  C   UNL A   1      39.487  30.500  31.506  1.00  0.00     0.031 C 
ATOM     46  C   UNL A   1      39.367  26.882  28.024  1.00  0.00     0.029 A 
ATOM     47  N   UNL A   1      41.138  26.924  29.388  1.00  0.00    -0.354 N 
ATOM     48  C   UNL A   1      41.574  30.079  32.345  1.00  0.00     0.074 A 
ATOM     49  C   UNL A   1      40.417  30.950  32.334  1.00  0.00     0.031 C 
ATOM     50  C   UNL A   1      40.167  25.859  27.679  1.00  0.00     0.029 A 
ATOM     51  C   UNL A   1      41.357  25.877  28.522  1.00  0.00     0.049 A 
ATOM     52  H   UNL A   1      41.761  27.164  30.111  1.00  0.00     0.167 HD
ATOM     53  C   UNL A   1      42.630  30.216  33.184  1.00  0.00     0.034 A 
ATOM     54  C   UNL A   1      42.410  25.043  28.411  1.00  0.00     0.034 A 
ATOM     55  C   UNL A   1      43.762  29.322  33.194  1.00  0.00     0.049 A 
ATOM     56  C   UNL A   1      43.573  25.211  29.356  1.00  0.00     0.074 A 
ATOM     57  C   UNL A   1      44.868  29.336  34.025  1.00  0.00     0.029 A 
ATOM     58  N   UNL A   1      43.928  28.246  32.329  1.00  0.00    -0.354 N 
ATOM     59  N   UNL A   1      43.754  26.117  30.289  1.00  0.00    -0.248 NA
ATOM     60  C   UNL A   1      44.668  24.240  29.238  1.00  0.00     0.031 C 
ATOM     61  C   UNL A   1      45.725  28.302  33.632  1.00  0.00     0.029 A 
ATOM     62  C   UNL A   1      45.124  27.600  32.598  1.00  0.00     0.049 A 
ATOM     63  H   UNL A   1      43.290  27.982  31.628  1.00  0.00     0.167 HD
ATOM     64  C   UNL A   1      44.967  25.799  30.894  1.00  0.00     0.074 A 
ATOM     65  C   UNL A   1      45.472  24.620  30.221  1.00  0.00     0.031 C 
ATOM     66  C   UNL A   1      45.604  26.421  31.918  1.00  0.00     0.034 A 
BRANCH  53  67
ATOM     67  C   UNL A   1      42.610  31.392  34.130  1.00  0.00     0.023 A 
ATOM     68  C   UNL A   1      41.832  31.383  35.301  1.00  0.00     0.031 A 
ATOM     69  C   UNL A   1      43.334  32.560  33.831  1.00  0.00     0.131 A 
ATOM     70  C   UNL A   1      41.721  32.545  36.077  1.00  0.00     0.055 A 
ATOM     71  C   UNL A   1      43.290  33.685  34.657  1.00  0.00     0.041 A 
ATOM     72  F   UNL A   1      44.078  32.637  32.717  1.00  0.00    -0.206 F 
ATOM     73  C   UNL A   1      42.465  33.688  35.778  1.00  0.00     0.022 A 
BRANCH  70  74
ATOM     74  S   UNL A   1      40.467  32.592  37.387  1.00  0.00     0.124 S 
ATOM     75  O   UNL A   1      39.987  33.969  37.283  1.00  0.00    -0.237 OA
ATOM     76  O   UNL A   1      39.531  31.556  36.965  1.00  0.00    -0.237 OA
ATOM     77  O   UNL A   1      41.226  32.294  38.599  1.00  0.00    -0.744 OA
ENDBRANCH  70  74
ENDBRANCH  53  67
BRANCH  54  78
ATOM     78  C   UNL A   1      42.426  23.981  27.366  1.00  0.00     0.023 A 
ATOM     79  C   UNL A   1      41.894  22.709  27.624  1.00  0.00     0.031 A 
ATOM     80  C   UNL A   1      43.004  24.212  26.105  1.00  0.00     0.131 A 
ATOM     81  C   UNL A   1      41.992  21.699  26.654  1.00  0.00     0.055 A 
ATOM     82  C   UNL A   1      43.059  23.218  25.126  1.00  0.00     0.041 A 
ATOM     83  F   UNL A   1      43.518  25.415  25.804  1.00  0.00    -0.206 F 
ATOM     84  C   UNL A   1      42.561  21.948  25.403  1.00  0.00     0.022 A 
BRANCH  81  85
ATOM     85  S   UNL A   1      41.430  20.028  27.081  1.00  0.00     0.124 S 
ATOM     86  O   UNL A   1      40.566  19.706  25.952  1.00  0.00    -0.237 OA
ATOM     87  O   UNL A   1      42.691  19.296  27.154  1.00  0.00    -0.237 OA
ATOM     88  O   UNL A   1      40.746  20.215  28.359  1.00  0.00    -0.744 OA
ENDBRANCH  81  85
ENDBRANCH  54  78
BRANCH  66  89
ATOM     89  C   UNL A   1      46.879  25.791  32.416  1.00  0.00     0.023 A 
ATOM     90  C   UNL A   1      48.111  25.997  31.772  1.00  0.00     0.031 A 
ATOM     91  C   UNL A   1      46.854  24.976  33.561  1.00  0.00     0.131 A 
ATOM     92  C   UNL A   1      49.263  25.359  32.255  1.00  0.00     0.055 A 
ATOM     93  C   UNL A   1      48.012  24.383  34.065  1.00  0.00     0.041 A 
ATOM     94  F   UNL A   1      45.702  24.748  34.212  1.00  0.00    -0.206 F 
ATOM     95  C   UNL A   1      49.224  24.566  33.405  1.00  0.00     0.022 A 
BRANCH  92  96
ATOM     96  S   UNL A   1      50.809  25.527  31.321  1.00  0.00     0.124 S 
ATOM     97  O   UNL A   1      51.144  26.930  31.537  1.00  0.00    -0.237 OA
ATOM     98  O   UNL A   1      51.678  24.556  31.978  1.00  0.00    -0.237 OA
ATOM     99  O   UNL A   1      50.422  25.184  29.953  1.00  0.00    -0.744 OA
ENDBRANCH  92  96
ENDBRANCH  66  89
ENDBRANCH  40  41
ENDBRANCH  32  35
ENDBRANCH  30  31
ENDBRANCH   1  30
TORSDOF 19
ENDMDL
MODEL 2
REMARK VINA RESULT:     -11.5      3.682      8.737
REMARK SMILES CCCc1cc(OC(F)(F)F)cc2c1O[C@H](C(F)(F)F)C(C(=O)NCCCCNC(=O)c1ccc(-c3c4nc(c(-c5cc(S(=O)(=O)[O-])ccc5F)c5ccc([nH]5)c(-c5cc(S(=O)(=O)[O-])ccc5F)c5nc(c(-c6cc(S(=O)(=O)[O-])ccc6F)c6ccc3[nH]6)C=C5)C=C4)cc1)=C2
REMARK SMILES IDX 27 1 26 2 25 3 24 4 22 5 23 6 21 8 4 9 5 10 14 11 6 12 13 13
REMARK SMILES IDX 15 14 12 15 95 16 16 17 3 18 2 19 1 20 7 21 8 22 9 23 10 24
REMARK SMILES IDX 11 25 17 26 18 27 19 28 20 29 28 30 29 31 30 32 31 34 32 35
REMARK SMILES IDX 33 36 94 37 34 38 93 39 35 40 36 41 37 42 87 43 38 44 92 45
REMARK SMILES IDX 86 46 88 47 39 48 91 49 85 50 84 51 40 53 72 54 52 55 71 56
REMARK SMILES IDX 53 57 56 58 70 59 89 60 54 61 55 62 69 64 90 65 57 66 41 67
REMARK SMILES IDX 42 68 50 69 43 70 49 71 51 72 48 73 44 74 45 75 46 76 47 77
REMARK SMILES IDX 73 78 74 79 82 80 75 81 81 82 83 83 80 84 76 85 77 86 78 87
REMARK SMILES IDX 79 88 58 89 59 90 67 91 60 92 66 93 68 94 65 95 61 96 62 97
REMARK SMILES IDX 63 98 64 99
REMARK H PARENT 24 7 29 33 88 52 56 63
REMARK Flexibility Score: inf
ROOT
ATOM      1  C   UNL A   1      31.694  31.889  26.713  1.00  0.00     0.023 C 
ENDROOT
BRANCH   1   2
ATOM      2  C   UNL A   1      31.820  30.368  26.828  1.00  0.00     0.023 C 
BRANCH   2   3
ATOM      3  C   UNL A   1      33.066  29.792  26.148  1.00  0.00     0.116 C 
BRANCH   3   4
ATOM      4  N   UNL A   1      32.900  29.791  24.711  1.00  0.00    -0.352 N 
ATOM      5  C   UNL A   1      32.916  28.791  23.797  1.00  0.00     0.251 C 
ATOM      6  O   UNL A   1      32.803  29.095  22.609  1.00  0.00    -0.270 OA
ATOM      7  H   UNL A   1      32.745  30.684  24.325  1.00  0.00     0.163 HD
BRANCH   5   8
ATOM      8  C   UNL A   1      32.977  27.343  24.157  1.00  0.00     0.067 C 
ATOM      9  C   UNL A   1      32.738  23.508  25.891  1.00  0.00    -0.002 A 
ATOM     10  C   UNL A   1      33.687  22.540  25.484  1.00  0.00     0.054 A 
ATOM     11  C   UNL A   1      32.805  24.783  25.310  1.00  0.00     0.131 A 
ATOM     12  C   UNL A   1      34.693  22.842  24.562  1.00  0.00     0.130 A 
ATOM     13  C   UNL A   1      33.816  25.095  24.393  1.00  0.00     0.021 A 
ATOM     14  O   UNL A   1      31.907  25.732  25.707  1.00  0.00    -0.475 OA
ATOM     15  C   UNL A   1      34.750  24.124  24.021  1.00  0.00     0.058 A 
ATOM     16  C   UNL A   1      33.950  26.461  23.893  1.00  0.00     0.025 C 
ATOM     17  C   UNL A   1      31.703  26.866  24.828  1.00  0.00     0.314 C 
BRANCH   9  18
ATOM     18  C   UNL A   1      31.686  23.051  26.891  1.00  0.00     0.039 C 
BRANCH  18  19
ATOM     19  C   UNL A   1      30.337  22.522  26.381  1.00  0.00     0.001 C 
ATOM     20  C   UNL A   1      29.217  22.669  27.403  1.00  0.00     0.004 C 
ENDBRANCH  18  19
ENDBRANCH   9  18
BRANCH  12  21
ATOM     21  O   UNL A   1      35.672  22.001  24.116  1.00  0.00    -0.406 OA
BRANCH  21  22
ATOM     22  C   UNL A   1      36.685  21.615  25.027  1.00  0.00     0.573 C 
ATOM     23  F   UNL A   1      37.913  21.773  24.490  1.00  0.00    -0.132 F 
ATOM     24  F   UNL A   1      36.600  22.321  26.175  1.00  0.00    -0.132 F 
ATOM     25  F   UNL A   1      36.523  20.307  25.327  1.00  0.00    -0.132 F 
ENDBRANCH  21  22
ENDBRANCH  12  21
BRANCH  17  26
ATOM     26  C   UNL A   1      30.565  26.604  23.813  1.00  0.00     0.429 C 
ATOM     27  F   UNL A   1      31.017  26.225  22.592  1.00  0.00    -0.167 F 
ATOM     28  F   UNL A   1      29.735  25.614  24.228  1.00  0.00    -0.167 F 
ATOM     29  F   UNL A   1      29.792  27.703  23.637  1.00  0.00    -0.167 F 
ENDBRANCH  17  26
ENDBRANCH   5   8
ENDBRANCH   3   4
ENDBRANCH   2   3
ENDBRANCH   1   2
BRANCH   1  30
ATOM     30  C   UNL A   1      32.928  32.655  27.171  1.00  0.00     0.116 C 
BRANCH  30  31
ATOM     31  N   UNL A   1      32.609  33.923  27.811  1.00  0.00    -0.352 N 
ATOM     32  C   UNL A   1      33.269  34.511  28.864  1.00  0.00     0.251 C 
ATOM     33  H   UNL A   1      31.836  34.414  27.450  1.00  0.00     0.163 HD
ATOM     34  O   UNL A   1      32.838  35.536  29.380  1.00  0.00    -0.269 OA
BRANCH  32  35
ATOM     35  C   UNL A   1      34.475  33.842  29.386  1.00  0.00     0.039 A 
ATOM     36  C   UNL A   1      35.731  34.317  29.005  1.00  0.00     0.014 A 
ATOM     37  C   UNL A   1      34.350  32.816  30.326  1.00  0.00     0.014 A 
ATOM     38  C   UNL A   1      36.872  33.803  29.621  1.00  0.00     0.010 A 
ATOM     39  C   UNL A   1      35.483  32.353  30.983  1.00  0.00     0.010 A 
ATOM     40  C   UNL A   1      36.754  32.844  30.639  1.00  0.00    -0.014 A 
BRANCH  40  41
ATOM     41  C   UNL A   1      37.940  32.307  31.349  1.00  0.00     0.031 A 
ATOM     42  C   UNL A   1      38.734  31.201  30.712  1.00  0.00     0.074 A 
ATOM     43  C   UNL A   1      38.238  32.736  32.589  1.00  0.00     0.049 A 
ATOM     44  N   UNL A   1      39.686  30.463  31.219  1.00  0.00    -0.248 NA
ATOM     45  C   UNL A   1      38.372  30.856  29.328  1.00  0.00     0.031 C 
ATOM     46  C   UNL A   1      37.520  33.784  33.319  1.00  0.00     0.029 A 
ATOM     47  N   UNL A   1      39.211  32.330  33.467  1.00  0.00    -0.354 N 
ATOM     48  C   UNL A   1      40.018  29.545  30.229  1.00  0.00     0.074 A 
ATOM     49  C   UNL A   1      39.125  29.789  29.114  1.00  0.00     0.031 C 
ATOM     50  C   UNL A   1      38.083  33.941  34.529  1.00  0.00     0.029 A 
ATOM     51  C   UNL A   1      39.169  32.978  34.679  1.00  0.00     0.049 A 
ATOM     52  H   UNL A   1      39.877  31.638  33.249  1.00  0.00     0.167 HD
ATOM     53  C   UNL A   1      40.988  28.598  30.242  1.00  0.00     0.034 A 
ATOM     54  C   UNL A   1      39.909  32.798  35.791  1.00  0.00     0.034 A 
ATOM     55  C   UNL A   1      41.882  28.389  31.354  1.00  0.00     0.049 A 
ATOM     56  C   UNL A   1      40.985  31.741  35.785  1.00  0.00     0.074 A 
ATOM     57  C   UNL A   1      42.928  27.491  31.466  1.00  0.00     0.029 A 
ATOM     58  N   UNL A   1      41.836  29.095  32.551  1.00  0.00    -0.354 N 
ATOM     59  N   UNL A   1      41.302  30.892  34.835  1.00  0.00    -0.248 NA
ATOM     60  C   UNL A   1      41.807  31.624  36.996  1.00  0.00     0.031 C 
ATOM     61  C   UNL A   1      43.482  27.618  32.745  1.00  0.00     0.029 A 
ATOM     62  C   UNL A   1      42.824  28.642  33.409  1.00  0.00     0.049 A 
ATOM     63  H   UNL A   1      41.193  29.812  32.758  1.00  0.00     0.167 HD
ATOM     64  C   UNL A   1      42.386  30.167  35.321  1.00  0.00     0.074 A 
ATOM     65  C   UNL A   1      42.668  30.679  36.647  1.00  0.00     0.031 C 
ATOM     66  C   UNL A   1      43.091  29.172  34.725  1.00  0.00     0.034 A 
BRANCH  53  67
ATOM     67  C   UNL A   1      41.099  27.709  29.028  1.00  0.00     0.023 A 
ATOM     68  C   UNL A   1      42.112  27.893  28.070  1.00  0.00     0.031 A 
ATOM     69  C   UNL A   1      40.149  26.699  28.793  1.00  0.00     0.131 A 
ATOM     70  C   UNL A   1      42.098  27.147  26.883  1.00  0.00     0.055 A 
ATOM     71  C   UNL A   1      40.193  25.898  27.650  1.00  0.00     0.041 A 
ATOM     72  F   UNL A   1      39.147  26.489  29.660  1.00  0.00    -0.206 F 
ATOM     73  C   UNL A   1      41.162  26.133  26.678  1.00  0.00     0.022 A 
BRANCH  70  74
ATOM     74  S   UNL A   1      43.221  27.634  25.544  1.00  0.00     0.124 S 
ATOM     75  O   UNL A   1      43.856  26.359  25.217  1.00  0.00    -0.237 OA
ATOM     76  O   UNL A   1      42.305  28.167  24.542  1.00  0.00    -0.237 OA
ATOM     77  O   UNL A   1      44.100  28.616  26.174  1.00  0.00    -0.744 OA
ENDBRANCH  70  74
ENDBRANCH  53  67
BRANCH  54  78
ATOM     78  C   UNL A   1      39.660  33.623  37.007  1.00  0.00     0.023 A 
ATOM     79  C   UNL A   1      40.459  34.739  37.295  1.00  0.00     0.031 A 
ATOM     80  C   UNL A   1      38.642  33.286  37.917  1.00  0.00     0.131 A 
ATOM     81  C   UNL A   1      40.259  35.454  38.487  1.00  0.00     0.055 A 
ATOM     82  C   UNL A   1      38.417  34.027  39.078  1.00  0.00     0.041 A 
ATOM     83  F   UNL A   1      37.843  32.233  37.683  1.00  0.00    -0.206 F 
ATOM     84  C   UNL A   1      39.237  35.113  39.374  1.00  0.00     0.022 A 
BRANCH  81  85
ATOM     85  S   UNL A   1      41.409  36.797  38.896  1.00  0.00     0.124 S 
ATOM     86  O   UNL A   1      42.119  36.974  37.635  1.00  0.00    -0.237 OA
ATOM     87  O   UNL A   1      40.495  37.870  39.275  1.00  0.00    -0.237 OA
ATOM     88  O   UNL A   1      42.203  36.242  39.990  1.00  0.00    -0.744 OA
ENDBRANCH  81  85
ENDBRANCH  54  78
BRANCH  66  89
ATOM     89  C   UNL A   1      44.277  28.627  35.477  1.00  0.00     0.023 A 
ATOM     90  C   UNL A   1      44.138  27.652  36.479  1.00  0.00     0.031 A 
ATOM     91  C   UNL A   1      45.569  29.093  35.175  1.00  0.00     0.131 A 
ATOM     92  C   UNL A   1      45.271  27.201  37.173  1.00  0.00     0.055 A 
ATOM     93  C   UNL A   1      46.697  28.607  35.836  1.00  0.00     0.041 A 
ATOM     94  F   UNL A   1      45.755  30.025  34.227  1.00  0.00    -0.206 F 
ATOM     95  C   UNL A   1      46.550  27.663  36.848  1.00  0.00     0.022 A 
BRANCH  92  96
ATOM     96  S   UNL A   1      45.045  26.051  38.557  1.00  0.00     0.124 S 
ATOM     97  O   UNL A   1      43.679  26.344  38.976  1.00  0.00    -0.237 OA
ATOM     98  O   UNL A   1      45.253  24.754  37.921  1.00  0.00    -0.237 OA
ATOM     99  O   UNL A   1      46.085  26.448  39.506  1.00  0.00    -0.744 OA
ENDBRANCH  92  96
ENDBRANCH  66  89
ENDBRANCH  40  41
ENDBRANCH  32  35
ENDBRANCH  30  31
ENDBRANCH   1  30
TORSDOF 19
ENDMDL
MODEL 3
REMARK VINA RESULT:     -11.4      2.738      8.063
REMARK SMILES CCCc1cc(OC(F)(F)F)cc2c1O[C@H](C(F)(F)F)C(C(=O)NCCCCNC(=O)c1ccc(-c3c4nc(c(-c5cc(S(=O)(=O)[O-])ccc5F)c5ccc([nH]5)c(-c5cc(S(=O)(=O)[O-])ccc5F)c5nc(c(-c6cc(S(=O)(=O)[O-])ccc6F)c6ccc3[nH]6)C=C5)C=C4)cc1)=C2
REMARK SMILES IDX 27 1 26 2 25 3 24 4 22 5 23 6 21 8 4 9 5 10 14 11 6 12 13 13
REMARK SMILES IDX 15 14 12 15 95 16 16 17 3 18 2 19 1 20 7 21 8 22 9 23 10 24
REMARK SMILES IDX 11 25 17 26 18 27 19 28 20 29 28 30 29 31 30 32 31 34 32 35
REMARK SMILES IDX 33 36 94 37 34 38 93 39 35 40 36 41 37 42 87 43 38 44 92 45
REMARK SMILES IDX 86 46 88 47 39 48 91 49 85 50 84 51 40 53 72 54 52 55 71 56
REMARK SMILES IDX 53 57 56 58 70 59 89 60 54 61 55 62 69 64 90 65 57 66 41 67
REMARK SMILES IDX 42 68 50 69 43 70 49 71 51 72 48 73 44 74 45 75 46 76 47 77
REMARK SMILES IDX 73 78 74 79 82 80 75 81 81 82 83 83 80 84 76 85 77 86 78 87
REMARK SMILES IDX 79 88 58 89 59 90 67 91 60 92 66 93 68 94 65 95 61 96 62 97
REMARK SMILES IDX 63 98 64 99
REMARK H PARENT 24 7 29 33 88 52 56 63
REMARK Flexibility Score: inf
ROOT
ATOM      1  C   UNL A   1      31.877  29.711  25.258  1.00  0.00     0.023 C 
ENDROOT
BRANCH   1   2
ATOM      2  C   UNL A   1      32.445  28.345  24.868  1.00  0.00     0.023 C 
BRANCH   2   3
ATOM      3  C   UNL A   1      32.616  27.381  26.045  1.00  0.00     0.116 C 
BRANCH   3   4
ATOM      4  N   UNL A   1      31.342  26.802  26.412  1.00  0.00    -0.352 N 
ATOM      5  C   UNL A   1      30.859  25.540  26.321  1.00  0.00     0.251 C 
ATOM      6  O   UNL A   1      29.693  25.343  26.665  1.00  0.00    -0.270 OA
ATOM      7  H   UNL A   1      30.707  27.446  26.802  1.00  0.00     0.163 HD
BRANCH   5   8
ATOM      8  C   UNL A   1      31.686  24.366  25.911  1.00  0.00     0.067 C 
ATOM      9  C   UNL A   1      33.268  20.625  24.781  1.00  0.00    -0.002 A 
ATOM     10  C   UNL A   1      34.643  20.391  25.021  1.00  0.00     0.054 A 
ATOM     11  C   UNL A   1      32.737  21.871  25.145  1.00  0.00     0.131 A 
ATOM     12  C   UNL A   1      35.452  21.348  25.638  1.00  0.00     0.130 A 
ATOM     13  C   UNL A   1      33.541  22.832  25.772  1.00  0.00     0.021 A 
ATOM     14  O   UNL A   1      31.408  22.104  24.936  1.00  0.00    -0.475 OA
ATOM     15  C   UNL A   1      34.892  22.567  26.011  1.00  0.00     0.058 A 
ATOM     16  C   UNL A   1      32.946  24.074  26.258  1.00  0.00     0.025 C 
ATOM     17  C   UNL A   1      30.969  23.486  24.904  1.00  0.00     0.314 C 
BRANCH   9  18
ATOM     18  C   UNL A   1      32.498  19.509  24.091  1.00  0.00     0.039 C 
BRANCH  18  19
ATOM     19  C   UNL A   1      32.865  18.046  24.379  1.00  0.00     0.001 C 
ATOM     20  C   UNL A   1      33.445  17.329  23.166  1.00  0.00     0.004 C 
ENDBRANCH  18  19
ENDBRANCH   9  18
BRANCH  12  21
ATOM     21  O   UNL A   1      36.778  21.224  25.940  1.00  0.00    -0.406 OA
BRANCH  21  22
ATOM     22  C   UNL A   1      37.652  20.756  24.929  1.00  0.00     0.573 C 
ATOM     23  F   UNL A   1      37.461  19.443  24.685  1.00  0.00    -0.132 F 
ATOM     24  F   UNL A   1      37.489  21.456  23.785  1.00  0.00    -0.132 F 
ATOM     25  F   UNL A   1      38.927  20.925  25.345  1.00  0.00    -0.132 F 
ENDBRANCH  21  22
ENDBRANCH  12  21
BRANCH  17  26
ATOM     26  C   UNL A   1      31.018  24.067  23.472  1.00  0.00     0.429 C 
ATOM     27  F   UNL A   1      29.793  24.193  22.906  1.00  0.00    -0.167 F 
ATOM     28  F   UNL A   1      31.571  25.307  23.447  1.00  0.00    -0.167 F 
ATOM     29  F   UNL A   1      31.770  23.298  22.648  1.00  0.00    -0.167 F 
ENDBRANCH  17  26
ENDBRANCH   5   8
ENDBRANCH   3   4
ENDBRANCH   2   3
ENDBRANCH   1   2
BRANCH   1  30
ATOM     30  C   UNL A   1      32.428  30.268  26.563  1.00  0.00     0.116 C 
BRANCH  30  31
ATOM     31  N   UNL A   1      32.129  31.679  26.756  1.00  0.00    -0.352 N 
ATOM     32  C   UNL A   1      32.898  32.610  27.414  1.00  0.00     0.251 C 
ATOM     33  H   UNL A   1      31.283  32.003  26.372  1.00  0.00     0.163 HD
ATOM     34  O   UNL A   1      32.484  33.749  27.596  1.00  0.00    -0.269 OA
BRANCH  32  35
ATOM     35  C   UNL A   1      34.206  32.178  27.941  1.00  0.00     0.039 A 
ATOM     36  C   UNL A   1      35.248  33.105  28.004  1.00  0.00     0.014 A 
ATOM     37  C   UNL A   1      34.358  30.890  28.459  1.00  0.00     0.014 A 
ATOM     38  C   UNL A   1      36.433  32.758  28.654  1.00  0.00     0.010 A 
ATOM     39  C   UNL A   1      35.514  30.570  29.160  1.00  0.00     0.010 A 
ATOM     40  C   UNL A   1      36.560  31.501  29.267  1.00  0.00    -0.014 A 
BRANCH  40  41
ATOM     41  C   UNL A   1      37.786  31.112  30.006  1.00  0.00     0.031 A 
ATOM     42  C   UNL A   1      38.720  30.107  29.392  1.00  0.00     0.074 A 
ATOM     43  C   UNL A   1      38.003  31.578  31.249  1.00  0.00     0.049 A 
ATOM     44  N   UNL A   1      39.742  29.489  29.924  1.00  0.00    -0.248 NA
ATOM     45  C   UNL A   1      38.432  29.716  28.003  1.00  0.00     0.031 C 
ATOM     46  C   UNL A   1      37.150  32.536  31.957  1.00  0.00     0.029 A 
ATOM     47  N   UNL A   1      38.998  31.294  32.150  1.00  0.00    -0.354 N 
ATOM     48  C   UNL A   1      40.202  28.614  28.947  1.00  0.00     0.074 A 
ATOM     49  C   UNL A   1      39.311  28.745  27.812  1.00  0.00     0.031 C 
ATOM     50  C   UNL A   1      37.664  32.763  33.177  1.00  0.00     0.029 A 
ATOM     51  C   UNL A   1      38.852  31.937  33.357  1.00  0.00     0.049 A 
ATOM     52  H   UNL A   1      39.747  30.686  31.950  1.00  0.00     0.167 HD
ATOM     53  C   UNL A   1      41.277  27.789  28.987  1.00  0.00     0.034 A 
ATOM     54  C   UNL A   1      39.584  31.850  34.486  1.00  0.00     0.034 A 
ATOM     55  C   UNL A   1      42.165  27.692  30.119  1.00  0.00     0.049 A 
ATOM     56  C   UNL A   1      40.778  30.929  34.509  1.00  0.00     0.074 A 
ATOM     57  C   UNL A   1      43.308  26.925  30.259  1.00  0.00     0.029 A 
ATOM     58  N   UNL A   1      42.009  28.392  31.311  1.00  0.00    -0.354 N 
ATOM     59  N   UNL A   1      41.215  30.121  33.571  1.00  0.00    -0.248 NA
ATOM     60  C   UNL A   1      41.582  30.916  35.738  1.00  0.00     0.031 C 
ATOM     61  C   UNL A   1      43.815  27.123  31.549  1.00  0.00     0.029 A 
ATOM     62  C   UNL A   1      43.025  28.064  32.193  1.00  0.00     0.049 A 
ATOM     63  H   UNL A   1      41.282  29.028  31.499  1.00  0.00     0.167 HD
ATOM     64  C   UNL A   1      42.367  29.532  34.085  1.00  0.00     0.074 A 
ATOM     65  C   UNL A   1      42.556  30.078  35.413  1.00  0.00     0.031 C 
ATOM     66  C   UNL A   1      43.198  28.626  33.510  1.00  0.00     0.034 A 
BRANCH  53  67
ATOM     67  C   UNL A   1      41.521  26.915  27.781  1.00  0.00     0.023 A 
ATOM     68  C   UNL A   1      41.219  25.542  27.792  1.00  0.00     0.031 A 
ATOM     69  C   UNL A   1      42.113  27.448  26.622  1.00  0.00     0.131 A 
ATOM     70  C   UNL A   1      41.595  24.732  26.711  1.00  0.00     0.055 A 
ATOM     71  C   UNL A   1      42.403  26.652  25.512  1.00  0.00     0.041 A 
ATOM     72  F   UNL A   1      42.443  28.747  26.558  1.00  0.00    -0.206 F 
ATOM     73  C   UNL A   1      42.161  25.282  25.560  1.00  0.00     0.022 A 
BRANCH  70  74
ATOM     74  S   UNL A   1      41.481  22.932  26.900  1.00  0.00     0.124 S 
ATOM     75  O   UNL A   1      40.079  22.765  27.277  1.00  0.00    -0.237 OA
ATOM     76  O   UNL A   1      41.847  22.452  25.572  1.00  0.00    -0.237 OA
ATOM     77  O   UNL A   1      42.444  22.637  27.958  1.00  0.00    -0.744 OA
ENDBRANCH  70  74
ENDBRANCH  53  67
BRANCH  54  78
ATOM     78  C   UNL A   1      39.212  32.644  35.690  1.00  0.00     0.023 A 
ATOM     79  C   UNL A   1      39.673  33.959  35.857  1.00  0.00     0.031 A 
ATOM     80  C   UNL A   1      38.419  32.087  36.710  1.00  0.00     0.131 A 
ATOM     81  C   UNL A   1      39.378  34.660  37.037  1.00  0.00     0.055 A 
ATOM     82  C   UNL A   1      38.090  32.805  37.861  1.00  0.00     0.041 A 
ATOM     83  F   UNL A   1      37.945  30.837  36.595  1.00  0.00    -0.206 F 
ATOM     84  C   UNL A   1      38.581  34.096  38.035  1.00  0.00     0.022 A 
BRANCH  81  85
ATOM     85  S   UNL A   1      40.117  36.298  37.281  1.00  0.00     0.124 S 
ATOM     86  O   UNL A   1      41.478  35.954  37.675  1.00  0.00    -0.237 OA
ATOM     87  O   UNL A   1      39.964  36.897  35.958  1.00  0.00    -0.237 OA
ATOM     88  O   UNL A   1      39.292  36.891  38.331  1.00  0.00    -0.744 OA
ENDBRANCH  81  85
ENDBRANCH  54  78
BRANCH  66  89
ATOM     89  C   UNL A   1      44.424  28.229  34.291  1.00  0.00     0.023 A 
ATOM     90  C   UNL A   1      44.412  27.157  35.199  1.00  0.00     0.031 A 
ATOM     91  C   UNL A   1      45.625  28.938  34.112  1.00  0.00     0.131 A 
ATOM     92  C   UNL A   1      45.571  26.849  35.927  1.00  0.00     0.055 A 
ATOM     93  C   UNL A   1      46.787  28.597  34.803  1.00  0.00     0.041 A 
ATOM     94  F   UNL A   1      45.688  29.970  33.256  1.00  0.00    -0.206 F 
ATOM     95  C   UNL A   1      46.762  27.553  35.724  1.00  0.00     0.022 A 
BRANCH  92  96
ATOM     96  S   UNL A   1      45.487  25.555  37.195  1.00  0.00     0.124 S 
ATOM     97  O   UNL A   1      45.042  24.401  36.422  1.00  0.00    -0.237 OA
ATOM     98  O   UNL A   1      46.861  25.505  37.681  1.00  0.00    -0.237 OA
ATOM     99  O   UNL A   1      44.511  26.076  38.152  1.00  0.00    -0.744 OA
ENDBRANCH  92  96
ENDBRANCH  66  89
ENDBRANCH  40  41
ENDBRANCH  32  35
ENDBRANCH  30  31
ENDBRANCH   1  30
TORSDOF 19
ENDMDL
