MODEL 1
REMARK VINA RESULT:     -12.5      0.000      0.000
REMARK SMILES CCOC(=O)c1cccc(Nc2c(-c3ccc(C(=O)NCCCCNC(=O)c4ccc(-c5c6nc(c(-c7cc(S(=O)(=O)[O-])ccc7F)c7ccc([nH]7)c(-c7cc(S(=O)(=O)[O-])ccc7F)c7nc(c(-c8cc(S(=O)(=O)[O-])ccc8F)c8ccc5[nH]8)C=C7)C=C6)cc4)cc3)nc3cnccn23)c1
REMARK SMILES IDX 21 1 20 2 18 3 19 4 17 6 14 7 15 8 92 9 16 10 91 11 13 12
REMARK SMILES IDX 12 13 99 14 93 15 94 16 98 17 95 18 97 19 96 20 11 21 10 23
REMARK SMILES IDX 6 24 7 25 100 26 8 27 9 28 4 29 5 30 3 31 2 32 1 33 22 34
REMARK SMILES IDX 23 35 24 36 25 37 26 38 27 40 28 41 29 42 90 43 30 44 89 45
REMARK SMILES IDX 31 46 32 47 33 48 83 49 34 50 88 51 82 52 84 53 35 54 87 55
REMARK SMILES IDX 81 56 80 57 36 59 68 60 48 61 67 62 49 63 52 64 66 65 85 66
REMARK SMILES IDX 50 67 51 68 65 70 86 71 53 72 37 73 38 74 46 75 39 76 45 77
REMARK SMILES IDX 47 78 44 79 40 80 41 81 42 82 43 83 69 84 70 85 78 86 71 87
REMARK SMILES IDX 77 88 79 89 76 90 72 91 73 92 74 93 75 94 54 95 55 96 63 97
REMARK SMILES IDX 56 98 62 99 64 100 61 101 57 102 58 103 59 104 60 105
REMARK H PARENT 20 5 11 22 25 39 84 58 52 69
REMARK Flexibility Score: inf
ROOT
ATOM      1  C   UNL A   1      35.218  23.746  23.503  1.00  0.00     0.116 C 
ENDROOT
BRANCH   1   2
ATOM      2  N   UNL A   1      34.191  22.877  22.962  1.00  0.00    -0.352 N 
ATOM      3  C   UNL A   1      32.918  23.133  22.523  1.00  0.00     0.251 C 
ATOM      4  O   UNL A   1      32.269  22.197  22.055  1.00  0.00    -0.269 OA
ATOM      5  H   UNL A   1      34.457  21.931  22.897  1.00  0.00     0.163 HD
BRANCH   3   6
ATOM      6  C   UNL A   1      32.298  24.489  22.549  1.00  0.00     0.039 A 
ATOM      7  C   UNL A   1      30.986  26.977  22.694  1.00  0.00     0.004 A 
ATOM      8  C   UNL A   1      30.322  25.811  23.086  1.00  0.00     0.011 A 
ATOM      9  C   UNL A   1      32.306  26.901  22.248  1.00  0.00     0.011 A 
ATOM     10  C   UNL A   1      30.975  24.577  23.007  1.00  0.00     0.014 A 
ATOM     11  C   UNL A   1      32.964  25.669  22.207  1.00  0.00     0.014 A 
BRANCH   7  12
ATOM     12  C   UNL A   1      30.345  28.267  22.775  1.00  0.00     0.114 A 
ATOM     13  C   UNL A   1      30.361  29.093  23.890  1.00  0.00     0.143 A 
ATOM     14  N   UNL A   1      29.698  30.229  23.475  1.00  0.00    -0.283 N 
ATOM     15  N   UNL A   1      29.641  28.821  21.730  1.00  0.00    -0.225 NA
ATOM     16  C   UNL A   1      29.249  29.983  22.200  1.00  0.00     0.157 A 
ATOM     17  C   UNL A   1      29.455  31.460  24.061  1.00  0.00     0.115 A 
ATOM     18  C   UNL A   1      28.471  30.993  21.541  1.00  0.00     0.158 A 
ATOM     19  C   UNL A   1      28.739  32.366  23.370  1.00  0.00     0.129 A 
ATOM     20  N   UNL A   1      28.217  32.145  22.105  1.00  0.00    -0.259 NA
BRANCH  13  21
ATOM     21  N   UNL A   1      30.942  28.943  25.113  1.00  0.00    -0.339 N 
ATOM     22  H   UNL A   1      30.629  29.527  25.841  1.00  0.00     0.168 HD
BRANCH  21  23
ATOM     23  C   UNL A   1      31.968  28.009  25.414  1.00  0.00     0.040 A 
ATOM     24  C   UNL A   1      32.589  25.757  26.100  1.00  0.00     0.062 A 
ATOM     25  C   UNL A   1      33.940  26.114  26.098  1.00  0.00     0.016 A 
ATOM     26  C   UNL A   1      31.609  26.689  25.735  1.00  0.00     0.041 A 
ATOM     27  C   UNL A   1      34.311  27.401  25.725  1.00  0.00     0.003 A 
ATOM     28  C   UNL A   1      33.331  28.339  25.391  1.00  0.00     0.026 A 
BRANCH  24  29
ATOM     29  C   UNL A   1      32.235  24.408  26.591  1.00  0.00     0.338 C 
ATOM     30  O   UNL A   1      31.322  24.209  27.373  1.00  0.00    -0.246 OA
BRANCH  29  31
ATOM     31  O   UNL A   1      33.095  23.487  26.094  1.00  0.00    -0.462 OA
BRANCH  31  32
ATOM     32  C   UNL A   1      32.847  22.136  26.518  1.00  0.00     0.230 C 
ATOM     33  C   UNL A   1      33.915  21.641  27.480  1.00  0.00     0.049 C 
ENDBRANCH  31  32
ENDBRANCH  29  31
ENDBRANCH  24  29
ENDBRANCH  21  23
ENDBRANCH  13  21
ENDBRANCH   7  12
ENDBRANCH   3   6
ENDBRANCH   1   2
BRANCH   1  34
ATOM     34  C   UNL A   1      36.541  22.992  23.656  1.00  0.00     0.023 C 
BRANCH  34  35
ATOM     35  C   UNL A   1      36.436  21.673  24.424  1.00  0.00     0.023 C 
BRANCH  35  36
ATOM     36  C   UNL A   1      37.159  21.652  25.766  1.00  0.00     0.116 C 
BRANCH  36  37
ATOM     37  N   UNL A   1      38.185  20.626  25.847  1.00  0.00    -0.352 N 
ATOM     38  C   UNL A   1      39.500  20.762  26.223  1.00  0.00     0.251 C 
ATOM     39  H   UNL A   1      37.901  19.715  25.600  1.00  0.00     0.163 HD
ATOM     40  O   UNL A   1      40.267  19.809  26.127  1.00  0.00    -0.269 OA
BRANCH  38  41
ATOM     41  C   UNL A   1      39.984  22.076  26.693  1.00  0.00     0.039 A 
ATOM     42  C   UNL A   1      41.009  22.114  27.641  1.00  0.00     0.014 A 
ATOM     43  C   UNL A   1      39.459  23.262  26.169  1.00  0.00     0.014 A 
ATOM     44  C   UNL A   1      41.556  23.343  28.014  1.00  0.00     0.010 A 
ATOM     45  C   UNL A   1      40.049  24.479  26.495  1.00  0.00     0.010 A 
ATOM     46  C   UNL A   1      41.106  24.531  27.417  1.00  0.00    -0.014 A 
BRANCH  46  47
ATOM     47  C   UNL A   1      41.729  25.840  27.739  1.00  0.00     0.031 A 
ATOM     48  C   UNL A   1      40.946  26.878  28.492  1.00  0.00     0.074 A 
ATOM     49  C   UNL A   1      42.969  26.113  27.290  1.00  0.00     0.049 A 
ATOM     50  N   UNL A   1      41.277  28.107  28.792  1.00  0.00    -0.248 NA
ATOM     51  C   UNL A   1      39.599  26.490  28.935  1.00  0.00     0.031 C 
ATOM     52  C   UNL A   1      43.808  25.199  26.511  1.00  0.00     0.029 A 
ATOM     53  N   UNL A   1      43.738  27.243  27.413  1.00  0.00    -0.354 N 
ATOM     54  C   UNL A   1      40.175  28.646  29.449  1.00  0.00     0.074 A 
ATOM     55  C   UNL A   1      39.148  27.625  29.445  1.00  0.00     0.031 C 
ATOM     56  C   UNL A   1      44.979  25.798  26.240  1.00  0.00     0.029 A 
ATOM     57  C   UNL A   1      44.961  27.150  26.790  1.00  0.00     0.049 A 
ATOM     58  H   UNL A   1      43.442  28.045  27.901  1.00  0.00     0.167 HD
ATOM     59  C   UNL A   1      40.041  29.869  30.017  1.00  0.00     0.034 A 
ATOM     60  C   UNL A   1      45.951  28.057  26.666  1.00  0.00     0.034 A 
ATOM     61  C   UNL A   1      41.082  30.869  30.021  1.00  0.00     0.049 A 
ATOM     62  C   UNL A   1      45.777  29.413  27.299  1.00  0.00     0.074 A 
ATOM     63  C   UNL A   1      41.077  32.119  30.615  1.00  0.00     0.029 A 
ATOM     64  N   UNL A   1      42.315  30.735  29.394  1.00  0.00    -0.354 N 
ATOM     65  N   UNL A   1      44.747  29.891  27.960  1.00  0.00    -0.248 NA
ATOM     66  C   UNL A   1      46.904  30.348  27.180  1.00  0.00     0.031 C 
ATOM     67  C   UNL A   1      42.279  32.761  30.299  1.00  0.00     0.029 A 
ATOM     68  C   UNL A   1      43.066  31.888  29.565  1.00  0.00     0.049 A 
ATOM     69  H   UNL A   1      42.612  29.937  28.900  1.00  0.00     0.167 HD
ATOM     70  C   UNL A   1      45.115  31.172  28.359  1.00  0.00     0.074 A 
ATOM     71  C   UNL A   1      46.464  31.386  27.876  1.00  0.00     0.031 C 
ATOM     72  C   UNL A   1      44.406  32.089  29.065  1.00  0.00     0.034 A 
BRANCH  59  73
ATOM     73  C   UNL A   1      38.712  30.192  30.658  1.00  0.00     0.023 A 
ATOM     74  C   UNL A   1      37.720  30.916  29.972  1.00  0.00     0.031 A 
ATOM     75  C   UNL A   1      38.447  29.806  31.983  1.00  0.00     0.131 A 
ATOM     76  C   UNL A   1      36.548  31.301  30.638  1.00  0.00     0.055 A 
ATOM     77  C   UNL A   1      37.242  30.122  32.614  1.00  0.00     0.041 A 
ATOM     78  F   UNL A   1      39.363  29.131  32.695  1.00  0.00    -0.206 F 
ATOM     79  C   UNL A   1      36.290  30.889  31.947  1.00  0.00     0.022 A 
BRANCH  76  80
ATOM     80  S   UNL A   1      35.434  32.474  29.818  1.00  0.00     0.124 S 
ATOM     81  O   UNL A   1      34.342  32.568  30.784  1.00  0.00    -0.237 OA
ATOM     82  O   UNL A   1      36.270  33.661  29.683  1.00  0.00    -0.237 OA
ATOM     83  O   UNL A   1      35.092  31.804  28.565  1.00  0.00    -0.744 OA
ENDBRANCH  76  80
ENDBRANCH  59  73
BRANCH  60  84
ATOM     84  C   UNL A   1      47.190  27.722  25.910  1.00  0.00     0.023 A 
ATOM     85  C   UNL A   1      47.266  27.925  24.523  1.00  0.00     0.031 A 
ATOM     86  C   UNL A   1      48.304  27.160  26.558  1.00  0.00     0.131 A 
ATOM     87  C   UNL A   1      48.413  27.526  23.821  1.00  0.00     0.055 A 
ATOM     88  C   UNL A   1      49.461  26.809  25.861  1.00  0.00     0.041 A 
ATOM     89  F   UNL A   1      48.285  26.953  27.885  1.00  0.00    -0.206 F 
ATOM     90  C   UNL A   1      49.516  26.981  24.481  1.00  0.00     0.022 A 
BRANCH  87  91
ATOM     91  S   UNL A   1      48.416  27.667  22.012  1.00  0.00     0.124 S 
ATOM     92  O   UNL A   1      48.593  26.277  21.607  1.00  0.00    -0.237 OA
ATOM     93  O   UNL A   1      47.103  28.247  21.752  1.00  0.00    -0.237 OA
ATOM     94  O   UNL A   1      49.549  28.546  21.740  1.00  0.00    -0.744 OA
ENDBRANCH  87  91
ENDBRANCH  60  84
BRANCH  72  95
ATOM     95  C   UNL A   1      45.101  33.386  29.390  1.00  0.00     0.023 A 
ATOM     96  C   UNL A   1      45.022  34.501  28.539  1.00  0.00     0.031 A 
ATOM     97  C   UNL A   1      45.867  33.500  30.564  1.00  0.00     0.131 A 
ATOM     98  C   UNL A   1      45.741  35.666  28.846  1.00  0.00     0.055 A 
ATOM     99  C   UNL A   1      46.535  34.681  30.893  1.00  0.00     0.041 A 
ATOM    100  F   UNL A   1      45.977  32.465  31.412  1.00  0.00    -0.206 F 
ATOM    101  C   UNL A   1      46.484  35.769  30.025  1.00  0.00     0.022 A 
BRANCH  98 102
ATOM    102  S   UNL A   1      45.760  37.022  27.641  1.00  0.00     0.124 S 
ATOM    103  O   UNL A   1      46.395  38.094  28.400  1.00  0.00    -0.237 OA
ATOM    104  O   UNL A   1      46.550  36.459  26.551  1.00  0.00    -0.237 OA
ATOM    105  O   UNL A   1      44.346  37.231  27.337  1.00  0.00    -0.744 OA
ENDBRANCH  98 102
ENDBRANCH  72  95
ENDBRANCH  46  47
ENDBRANCH  38  41
ENDBRANCH  36  37
ENDBRANCH  35  36
ENDBRANCH  34  35
ENDBRANCH   1  34
TORSDOF 20
ENDMDL
MODEL 2
REMARK VINA RESULT:     -12.5      5.023     10.317
REMARK SMILES CCOC(=O)c1cccc(Nc2c(-c3ccc(C(=O)NCCCCNC(=O)c4ccc(-c5c6nc(c(-c7cc(S(=O)(=O)[O-])ccc7F)c7ccc([nH]7)c(-c7cc(S(=O)(=O)[O-])ccc7F)c7nc(c(-c8cc(S(=O)(=O)[O-])ccc8F)c8ccc5[nH]8)C=C7)C=C6)cc4)cc3)nc3cnccn23)c1
REMARK SMILES IDX 21 1 20 2 18 3 19 4 17 6 14 7 15 8 92 9 16 10 91 11 13 12
REMARK SMILES IDX 12 13 99 14 93 15 94 16 98 17 95 18 97 19 96 20 11 21 10 23
REMARK SMILES IDX 6 24 7 25 100 26 8 27 9 28 4 29 5 30 3 31 2 32 1 33 22 34
REMARK SMILES IDX 23 35 24 36 25 37 26 38 27 40 28 41 29 42 90 43 30 44 89 45
REMARK SMILES IDX 31 46 32 47 33 48 83 49 34 50 88 51 82 52 84 53 35 54 87 55
REMARK SMILES IDX 81 56 80 57 36 59 68 60 48 61 67 62 49 63 52 64 66 65 85 66
REMARK SMILES IDX 50 67 51 68 65 70 86 71 53 72 37 73 38 74 46 75 39 76 45 77
REMARK SMILES IDX 47 78 44 79 40 80 41 81 42 82 43 83 69 84 70 85 78 86 71 87
REMARK SMILES IDX 77 88 79 89 76 90 72 91 73 92 74 93 75 94 54 95 55 96 63 97
REMARK SMILES IDX 56 98 62 99 64 100 61 101 57 102 58 103 59 104 60 105
REMARK H PARENT 20 5 11 22 25 39 84 58 52 69
REMARK Flexibility Score: inf
ROOT
ATOM      1  C   UNL A   1      33.636  27.119  23.284  1.00  0.00     0.116 C 
ENDROOT
BRANCH   1   2
ATOM      2  N   UNL A   1      32.780  27.020  22.119  1.00  0.00    -0.352 N 
ATOM      3  C   UNL A   1      32.116  25.956  21.564  1.00  0.00     0.251 C 
ATOM      4  O   UNL A   1      31.402  26.169  20.583  1.00  0.00    -0.269 OA
ATOM      5  H   UNL A   1      32.650  27.870  21.640  1.00  0.00     0.163 HD
BRANCH   3   6
ATOM      6  C   UNL A   1      32.186  24.570  22.108  1.00  0.00     0.039 A 
ATOM      7  C   UNL A   1      32.502  21.964  23.127  1.00  0.00     0.004 A 
ATOM      8  C   UNL A   1      33.599  22.644  22.590  1.00  0.00     0.011 A 
ATOM      9  C   UNL A   1      31.257  22.590  23.170  1.00  0.00     0.011 A 
ATOM     10  C   UNL A   1      33.437  23.936  22.080  1.00  0.00     0.014 A 
ATOM     11  C   UNL A   1      31.110  23.895  22.692  1.00  0.00     0.014 A 
BRANCH   7  12
ATOM     12  C   UNL A   1      32.639  20.634  23.672  1.00  0.00     0.114 A 
ATOM     13  C   UNL A   1      32.716  20.336  25.024  1.00  0.00     0.143 A 
ATOM     14  N   UNL A   1      32.757  18.957  25.061  1.00  0.00    -0.283 N 
ATOM     15  N   UNL A   1      32.703  19.505  22.887  1.00  0.00    -0.225 NA
ATOM     16  C   UNL A   1      32.799  18.527  23.757  1.00  0.00     0.157 A 
ATOM     17  C   UNL A   1      32.739  18.029  26.088  1.00  0.00     0.115 A 
ATOM     18  C   UNL A   1      32.901  17.118  23.504  1.00  0.00     0.158 A 
ATOM     19  C   UNL A   1      32.811  16.724  25.771  1.00  0.00     0.129 A 
ATOM     20  N   UNL A   1      32.913  16.242  24.475  1.00  0.00    -0.259 NA
BRANCH  13  21
ATOM     21  N   UNL A   1      32.679  21.135  26.127  1.00  0.00    -0.339 N 
ATOM     22  H   UNL A   1      32.368  20.734  26.971  1.00  0.00     0.168 HD
BRANCH  21  23
ATOM     23  C   UNL A   1      33.052  22.504  26.148  1.00  0.00     0.040 A 
ATOM     24  C   UNL A   1      32.373  24.842  26.144  1.00  0.00     0.062 A 
ATOM     25  C   UNL A   1      33.710  25.245  26.115  1.00  0.00     0.016 A 
ATOM     26  C   UNL A   1      32.043  23.481  26.187  1.00  0.00     0.041 A 
ATOM     27  C   UNL A   1      34.719  24.288  26.136  1.00  0.00     0.003 A 
ATOM     28  C   UNL A   1      34.389  22.931  26.148  1.00  0.00     0.026 A 
BRANCH  24  29
ATOM     29  C   UNL A   1      31.337  25.890  26.027  1.00  0.00     0.338 C 
ATOM     30  O   UNL A   1      31.027  26.619  26.953  1.00  0.00    -0.246 OA
BRANCH  29  31
ATOM     31  O   UNL A   1      30.776  25.860  24.793  1.00  0.00    -0.462 OA
BRANCH  31  32
ATOM     32  C   UNL A   1      29.501  26.514  24.691  1.00  0.00     0.230 C 
ATOM     33  C   UNL A   1      29.462  27.500  23.534  1.00  0.00     0.049 C 
ENDBRANCH  31  32
ENDBRANCH  29  31
ENDBRANCH  24  29
ENDBRANCH  21  23
ENDBRANCH  13  21
ENDBRANCH   7  12
ENDBRANCH   3   6
ENDBRANCH   1   2
BRANCH   1  34
ATOM     34  C   UNL A   1      33.827  28.582  23.694  1.00  0.00     0.023 C 
BRANCH  34  35
ATOM     35  C   UNL A   1      32.597  29.227  24.336  1.00  0.00     0.023 C 
BRANCH  35  36
ATOM     36  C   UNL A   1      32.724  29.510  25.828  1.00  0.00     0.116 C 
BRANCH  36  37
ATOM     37  N   UNL A   1      32.325  30.860  26.190  1.00  0.00    -0.352 N 
ATOM     38  C   UNL A   1      32.942  31.727  27.059  1.00  0.00     0.251 C 
ATOM     39  H   UNL A   1      31.506  31.195  25.758  1.00  0.00     0.163 HD
ATOM     40  O   UNL A   1      32.409  32.796  27.341  1.00  0.00    -0.269 OA
BRANCH  38  41
ATOM     41  C   UNL A   1      34.224  31.337  27.682  1.00  0.00     0.039 A 
ATOM     42  C   UNL A   1      35.161  32.331  27.971  1.00  0.00     0.014 A 
ATOM     43  C   UNL A   1      34.480  30.003  28.016  1.00  0.00     0.014 A 
ATOM     44  C   UNL A   1      36.328  31.997  28.660  1.00  0.00     0.010 A 
ATOM     45  C   UNL A   1      35.612  29.684  28.757  1.00  0.00     0.010 A 
ATOM     46  C   UNL A   1      36.545  30.678  29.091  1.00  0.00    -0.014 A 
BRANCH  46  47
ATOM     47  C   UNL A   1      37.740  30.317  29.895  1.00  0.00     0.031 A 
ATOM     48  C   UNL A   1      38.779  29.395  29.322  1.00  0.00     0.074 A 
ATOM     49  C   UNL A   1      37.849  30.764  31.161  1.00  0.00     0.049 A 
ATOM     50  N   UNL A   1      39.844  28.892  29.891  1.00  0.00    -0.248 NA
ATOM     51  C   UNL A   1      38.572  28.955  27.935  1.00  0.00     0.031 C 
ATOM     52  C   UNL A   1      36.879  31.629  31.839  1.00  0.00     0.029 A 
ATOM     53  N   UNL A   1      38.815  30.543  32.110  1.00  0.00    -0.354 N 
ATOM     54  C   UNL A   1      40.428  28.065  28.937  1.00  0.00     0.074 A 
ATOM     55  C   UNL A   1      39.562  28.091  27.777  1.00  0.00     0.031 C 
ATOM     56  C   UNL A   1      37.309  31.878  33.087  1.00  0.00     0.029 A 
ATOM     57  C   UNL A   1      38.560  31.160  33.313  1.00  0.00     0.049 A 
ATOM     58  H   UNL A   1      39.615  29.994  31.946  1.00  0.00     0.167 HD
ATOM     59  C   UNL A   1      41.587  27.367  29.016  1.00  0.00     0.034 A 
ATOM     60  C   UNL A   1      39.251  31.140  34.470  1.00  0.00     0.034 A 
ATOM     61  C   UNL A   1      42.443  27.364  30.178  1.00  0.00     0.049 A 
ATOM     62  C   UNL A   1      40.532  30.350  34.537  1.00  0.00     0.074 A 
ATOM     63  C   UNL A   1      43.667  26.740  30.348  1.00  0.00     0.029 A 
ATOM     64  N   UNL A   1      42.162  28.013  31.374  1.00  0.00    -0.354 N 
ATOM     65  N   UNL A   1      41.099  29.612  33.610  1.00  0.00    -0.248 NA
ATOM     66  C   UNL A   1      41.275  30.401  35.804  1.00  0.00     0.031 C 
ATOM     67  C   UNL A   1      44.096  26.963  31.661  1.00  0.00     0.029 A 
ATOM     68  C   UNL A   1      43.175  27.784  32.293  1.00  0.00     0.049 A 
ATOM     69  H   UNL A   1      41.360  28.558  31.544  1.00  0.00     0.167 HD
ATOM     70  C   UNL A   1      42.278  29.135  34.173  1.00  0.00     0.074 A 
ATOM     71  C   UNL A   1      42.347  29.678  35.515  1.00  0.00     0.031 C 
ATOM     72  C   UNL A   1      43.221  28.324  33.631  1.00  0.00     0.034 A 
BRANCH  59  73
ATOM     73  C   UNL A   1      41.975  26.533  27.818  1.00  0.00     0.023 A 
ATOM     74  C   UNL A   1      41.612  25.179  27.714  1.00  0.00     0.031 A 
ATOM     75  C   UNL A   1      42.750  27.088  26.785  1.00  0.00     0.131 A 
ATOM     76  C   UNL A   1      42.091  24.405  26.647  1.00  0.00     0.055 A 
ATOM     77  C   UNL A   1      43.154  26.332  25.682  1.00  0.00     0.041 A 
ATOM     78  F   UNL A   1      43.144  28.370  26.838  1.00  0.00    -0.206 F 
ATOM     79  C   UNL A   1      42.840  24.978  25.617  1.00  0.00     0.022 A 
BRANCH  76  80
ATOM     80  S   UNL A   1      41.847  22.609  26.703  1.00  0.00     0.124 S 
ATOM     81  O   UNL A   1      42.744  22.223  27.789  1.00  0.00    -0.237 OA
ATOM     82  O   UNL A   1      40.420  22.493  26.982  1.00  0.00    -0.237 OA
ATOM     83  O   UNL A   1      42.262  22.165  25.374  1.00  0.00    -0.744 OA
ENDBRANCH  76  80
ENDBRANCH  59  73
BRANCH  60  84
ATOM     84  C   UNL A   1      38.749  31.881  35.661  1.00  0.00     0.023 A 
ATOM     85  C   UNL A   1      38.157  31.201  36.737  1.00  0.00     0.031 A 
ATOM     86  C   UNL A   1      38.821  33.284  35.724  1.00  0.00     0.131 A 
ATOM     87  C   UNL A   1      37.619  31.927  37.810  1.00  0.00     0.055 A 
ATOM     88  C   UNL A   1      38.326  33.998  36.817  1.00  0.00     0.041 A 
ATOM     89  F   UNL A   1      39.386  33.980  34.725  1.00  0.00    -0.206 F 
ATOM     90  C   UNL A   1      37.710  33.319  37.863  1.00  0.00     0.022 A 
BRANCH  87  91
ATOM     91  S   UNL A   1      36.730  31.024  39.109  1.00  0.00     0.124 S 
ATOM     92  O   UNL A   1      35.519  31.825  39.251  1.00  0.00    -0.237 OA
ATOM     93  O   UNL A   1      36.560  29.709  38.501  1.00  0.00    -0.237 OA
ATOM     94  O   UNL A   1      37.647  31.071  40.245  1.00  0.00    -0.744 OA
ENDBRANCH  87  91
ENDBRANCH  60  84
BRANCH  72  95
ATOM     95  C   UNL A   1      44.428  28.018  34.482  1.00  0.00     0.023 A 
ATOM     96  C   UNL A   1      44.419  26.984  35.433  1.00  0.00     0.031 A 
ATOM     97  C   UNL A   1      45.598  28.786  34.347  1.00  0.00     0.131 A 
ATOM     98  C   UNL A   1      45.539  26.778  36.251  1.00  0.00     0.055 A 
ATOM     99  C   UNL A   1      46.731  28.541  35.125  1.00  0.00     0.041 A 
ATOM    100  F   UNL A   1      45.660  29.787  33.454  1.00  0.00    -0.206 F 
ATOM    101  C   UNL A   1      46.701  27.539  36.093  1.00  0.00     0.022 A 
BRANCH  98 102
ATOM    102  S   UNL A   1      45.432  25.555  37.585  1.00  0.00     0.124 S 
ATOM    103  O   UNL A   1      44.162  25.901  38.215  1.00  0.00    -0.237 OA
ATOM    104  O   UNL A   1      45.457  24.292  36.855  1.00  0.00    -0.237 OA
ATOM    105  O   UNL A   1      46.619  25.824  38.395  1.00  0.00    -0.744 OA
ENDBRANCH  98 102
ENDBRANCH  72  95
ENDBRANCH  46  47
ENDBRANCH  38  41
ENDBRANCH  36  37
ENDBRANCH  35  36
ENDBRANCH  34  35
ENDBRANCH   1  34
TORSDOF 20
ENDMDL
MODEL 3
REMARK VINA RESULT:     -12.4      4.875      8.389
REMARK SMILES CCOC(=O)c1cccc(Nc2c(-c3ccc(C(=O)NCCCCNC(=O)c4ccc(-c5c6nc(c(-c7cc(S(=O)(=O)[O-])ccc7F)c7ccc([nH]7)c(-c7cc(S(=O)(=O)[O-])ccc7F)c7nc(c(-c8cc(S(=O)(=O)[O-])ccc8F)c8ccc5[nH]8)C=C7)C=C6)cc4)cc3)nc3cnccn23)c1
REMARK SMILES IDX 21 1 20 2 18 3 19 4 17 6 14 7 15 8 92 9 16 10 91 11 13 12
REMARK SMILES IDX 12 13 99 14 93 15 94 16 98 17 95 18 97 19 96 20 11 21 10 23
REMARK SMILES IDX 6 24 7 25 100 26 8 27 9 28 4 29 5 30 3 31 2 32 1 33 22 34
REMARK SMILES IDX 23 35 24 36 25 37 26 38 27 40 28 41 29 42 90 43 30 44 89 45
REMARK SMILES IDX 31 46 32 47 33 48 83 49 34 50 88 51 82 52 84 53 35 54 87 55
REMARK SMILES IDX 81 56 80 57 36 59 68 60 48 61 67 62 49 63 52 64 66 65 85 66
REMARK SMILES IDX 50 67 51 68 65 70 86 71 53 72 37 73 38 74 46 75 39 76 45 77
REMARK SMILES IDX 47 78 44 79 40 80 41 81 42 82 43 83 69 84 70 85 78 86 71 87
REMARK SMILES IDX 77 88 79 89 76 90 72 91 73 92 74 93 75 94 54 95 55 96 63 97
REMARK SMILES IDX 56 98 62 99 64 100 61 101 57 102 58 103 59 104 60 105
REMARK H PARENT 20 5 11 22 25 39 84 58 52 69
REMARK Flexibility Score: inf
ROOT
ATOM      1  C   UNL A   1      31.309  26.472  26.524  1.00  0.00     0.116 C 
ENDROOT
BRANCH   1   2
ATOM      2  N   UNL A   1      30.299  26.488  25.484  1.00  0.00    -0.352 N 
ATOM      3  C   UNL A   1      29.964  25.567  24.524  1.00  0.00     0.251 C 
ATOM      4  O   UNL A   1      29.011  25.823  23.787  1.00  0.00    -0.269 OA
ATOM      5  H   UNL A   1      29.755  27.307  25.464  1.00  0.00     0.163 HD
BRANCH   3   6
ATOM      6  C   UNL A   1      30.669  24.264  24.354  1.00  0.00     0.039 A 
ATOM      7  C   UNL A   1      31.920  21.747  24.193  1.00  0.00     0.004 A 
ATOM      8  C   UNL A   1      31.260  22.127  25.364  1.00  0.00     0.011 A 
ATOM      9  C   UNL A   1      31.941  22.616  23.101  1.00  0.00     0.011 A 
ATOM     10  C   UNL A   1      30.644  23.379  25.443  1.00  0.00     0.014 A 
ATOM     11  C   UNL A   1      31.292  23.851  23.174  1.00  0.00     0.014 A 
BRANCH   7  12
ATOM     12  C   UNL A   1      32.556  20.457  24.076  1.00  0.00     0.114 A 
ATOM     13  C   UNL A   1      33.631  20.030  24.841  1.00  0.00     0.143 A 
ATOM     14  N   UNL A   1      33.835  18.727  24.435  1.00  0.00    -0.283 N 
ATOM     15  N   UNL A   1      32.146  19.498  23.177  1.00  0.00    -0.225 NA
ATOM     16  C   UNL A   1      32.955  18.489  23.407  1.00  0.00     0.157 A 
ATOM     17  C   UNL A   1      34.676  17.714  24.864  1.00  0.00     0.115 A 
ATOM     18  C   UNL A   1      32.990  17.211  22.757  1.00  0.00     0.158 A 
ATOM     19  C   UNL A   1      34.633  16.533  24.221  1.00  0.00     0.129 A 
ATOM     20  N   UNL A   1      33.805  16.264  23.143  1.00  0.00    -0.259 NA
BRANCH  13  21
ATOM     21  N   UNL A   1      34.327  20.644  25.839  1.00  0.00    -0.339 N 
ATOM     22  H   UNL A   1      34.256  20.264  26.745  1.00  0.00     0.168 HD
BRANCH  21  23
ATOM     23  C   UNL A   1      35.145  21.791  25.669  1.00  0.00     0.040 A 
ATOM     24  C   UNL A   1      35.307  24.206  25.406  1.00  0.00     0.062 A 
ATOM     25  C   UNL A   1      36.692  24.111  25.258  1.00  0.00     0.016 A 
ATOM     26  C   UNL A   1      34.538  23.057  25.636  1.00  0.00     0.041 A 
ATOM     27  C   UNL A   1      37.311  22.869  25.347  1.00  0.00     0.003 A 
ATOM     28  C   UNL A   1      36.541  21.721  25.546  1.00  0.00     0.026 A 
BRANCH  24  29
ATOM     29  C   UNL A   1      34.683  25.532  25.212  1.00  0.00     0.338 C 
ATOM     30  O   UNL A   1      34.505  26.319  26.126  1.00  0.00    -0.246 OA
BRANCH  29  31
ATOM     31  O   UNL A   1      34.308  25.690  23.919  1.00  0.00    -0.462 OA
BRANCH  31  32
ATOM     32  C   UNL A   1      33.423  26.796  23.676  1.00  0.00     0.230 C 
ATOM     33  C   UNL A   1      34.106  27.903  22.889  1.00  0.00     0.049 C 
ENDBRANCH  31  32
ENDBRANCH  29  31
ENDBRANCH  24  29
ENDBRANCH  21  23
ENDBRANCH  13  21
ENDBRANCH   7  12
ENDBRANCH   3   6
ENDBRANCH   1   2
BRANCH   1  34
ATOM     34  C   UNL A   1      31.526  27.877  27.091  1.00  0.00     0.023 C 
BRANCH  34  35
ATOM     35  C   UNL A   1      31.508  28.993  26.045  1.00  0.00     0.023 C 
BRANCH  35  36
ATOM     36  C   UNL A   1      32.772  29.844  25.993  1.00  0.00     0.116 C 
BRANCH  36  37
ATOM     37  N   UNL A   1      32.549  31.224  26.391  1.00  0.00    -0.352 N 
ATOM     38  C   UNL A   1      33.285  31.989  27.264  1.00  0.00     0.251 C 
ATOM     39  H   UNL A   1      31.770  31.668  25.984  1.00  0.00     0.163 HD
ATOM     40  O   UNL A   1      32.894  33.109  27.579  1.00  0.00    -0.269 OA
BRANCH  38  41
ATOM     41  C   UNL A   1      34.520  31.430  27.851  1.00  0.00     0.039 A 
ATOM     42  C   UNL A   1      35.630  32.264  28.002  1.00  0.00     0.014 A 
ATOM     43  C   UNL A   1      34.567  30.102  28.288  1.00  0.00     0.014 A 
ATOM     44  C   UNL A   1      36.767  31.785  28.656  1.00  0.00     0.010 A 
ATOM     45  C   UNL A   1      35.676  29.648  28.994  1.00  0.00     0.010 A 
ATOM     46  C   UNL A   1      36.785  30.486  29.189  1.00  0.00    -0.014 A 
BRANCH  46  47
ATOM     47  C   UNL A   1      37.952  29.985  29.959  1.00  0.00     0.031 A 
ATOM     48  C   UNL A   1      38.203  30.488  31.352  1.00  0.00     0.074 A 
ATOM     49  C   UNL A   1      38.818  29.135  29.374  1.00  0.00     0.049 A 
ATOM     50  N   UNL A   1      39.208  30.243  32.152  1.00  0.00    -0.248 NA
ATOM     51  C   UNL A   1      37.206  31.417  31.904  1.00  0.00     0.031 C 
ATOM     52  C   UNL A   1      38.701  28.614  28.010  1.00  0.00     0.029 A 
ATOM     53  N   UNL A   1      39.975  28.570  29.846  1.00  0.00    -0.354 N 
ATOM     54  C   UNL A   1      38.973  30.997  33.297  1.00  0.00     0.074 A 
ATOM     55  C   UNL A   1      37.761  31.752  33.058  1.00  0.00     0.031 C 
ATOM     56  C   UNL A   1      39.734  27.793  27.762  1.00  0.00     0.029 A 
ATOM     57  C   UNL A   1      40.608  27.761  28.932  1.00  0.00     0.049 A 
ATOM     58  H   UNL A   1      40.321  28.729  30.754  1.00  0.00     0.167 HD
ATOM     59  C   UNL A   1      39.690  31.039  34.447  1.00  0.00     0.034 A 
ATOM     60  C   UNL A   1      41.767  27.078  29.021  1.00  0.00     0.034 A 
ATOM     61  C   UNL A   1      40.890  30.268  34.671  1.00  0.00     0.049 A 
ATOM     62  C   UNL A   1      42.552  27.146  30.305  1.00  0.00     0.074 A 
ATOM     63  C   UNL A   1      41.664  30.189  35.816  1.00  0.00     0.029 A 
ATOM     64  N   UNL A   1      41.494  29.445  33.728  1.00  0.00    -0.354 N 
ATOM     65  N   UNL A   1      42.291  27.825  31.399  1.00  0.00    -0.248 NA
ATOM     66  C   UNL A   1      43.782  26.346  30.372  1.00  0.00     0.031 C 
ATOM     67  C   UNL A   1      42.764  29.367  35.546  1.00  0.00     0.029 A 
ATOM     68  C   UNL A   1      42.643  28.877  34.256  1.00  0.00     0.049 A 
ATOM     69  H   UNL A   1      41.154  29.289  32.817  1.00  0.00     0.167 HD
ATOM     70  C   UNL A   1      43.310  27.510  32.293  1.00  0.00     0.074 A 
ATOM     71  C   UNL A   1      44.182  26.572  31.615  1.00  0.00     0.031 C 
ATOM     72  C   UNL A   1      43.507  27.952  33.561  1.00  0.00     0.034 A 
BRANCH  59  73
ATOM     73  C   UNL A   1      39.202  31.968  35.533  1.00  0.00     0.023 A 
ATOM     74  C   UNL A   1      39.675  33.287  35.641  1.00  0.00     0.031 A 
ATOM     75  C   UNL A   1      38.282  31.518  36.495  1.00  0.00     0.131 A 
ATOM     76  C   UNL A   1      39.292  34.082  36.731  1.00  0.00     0.055 A 
ATOM     77  C   UNL A   1      37.840  32.343  37.532  1.00  0.00     0.041 A 
ATOM     78  F   UNL A   1      37.810  30.262  36.456  1.00  0.00    -0.206 F 
ATOM     79  C   UNL A   1      38.358  33.628  37.665  1.00  0.00     0.022 A 
BRANCH  76  80
ATOM     80  S   UNL A   1      40.145  35.661  36.993  1.00  0.00     0.124 S 
ATOM     81  O   UNL A   1      41.546  35.256  36.914  1.00  0.00    -0.237 OA
ATOM     82  O   UNL A   1      39.651  36.473  35.887  1.00  0.00    -0.237 OA
ATOM     83  O   UNL A   1      39.697  36.076  38.321  1.00  0.00    -0.744 OA
ENDBRANCH  76  80
ENDBRANCH  59  73
BRANCH  60  84
ATOM     84  C   UNL A   1      42.263  26.279  27.866  1.00  0.00     0.023 A 
ATOM     85  C   UNL A   1      41.880  24.939  27.697  1.00  0.00     0.031 A 
ATOM     86  C   UNL A   1      43.158  26.833  26.933  1.00  0.00     0.131 A 
ATOM     87  C   UNL A   1      42.425  24.184  26.647  1.00  0.00     0.055 A 
ATOM     88  C   UNL A   1      43.660  26.091  25.863  1.00  0.00     0.041 A 
ATOM     89  F   UNL A   1      43.549  28.113  27.045  1.00  0.00    -0.206 F 
ATOM     90  C   UNL A   1      43.302  24.754  25.723  1.00  0.00     0.022 A 
BRANCH  87  91
ATOM     91  S   UNL A   1      42.022  22.418  26.550  1.00  0.00     0.124 S 
ATOM     92  O   UNL A   1      42.543  21.925  27.820  1.00  0.00    -0.237 OA
ATOM     93  O   UNL A   1      40.569  22.445  26.420  1.00  0.00    -0.237 OA
ATOM     94  O   UNL A   1      42.744  21.969  25.362  1.00  0.00    -0.744 OA
ENDBRANCH  87  91
ENDBRANCH  60  84
BRANCH  72  95
ATOM     95  C   UNL A   1      44.689  27.384  34.304  1.00  0.00     0.023 A 
ATOM     96  C   UNL A   1      44.614  26.159  34.988  1.00  0.00     0.031 A 
ATOM     97  C   UNL A   1      45.905  28.090  34.339  1.00  0.00     0.131 A 
ATOM     98  C   UNL A   1      45.717  25.701  35.724  1.00  0.00     0.055 A 
ATOM     99  C   UNL A   1      47.018  27.603  35.026  1.00  0.00     0.041 A 
ATOM    100  F   UNL A   1      46.031  29.266  33.703  1.00  0.00    -0.206 F 
ATOM    101  C   UNL A   1      46.923  26.407  35.734  1.00  0.00     0.022 A 
BRANCH  98 102
ATOM    102  S   UNL A   1      45.531  24.209  36.738  1.00  0.00     0.124 S 
ATOM    103  O   UNL A   1      44.958  24.746  37.968  1.00  0.00    -0.237 OA
ATOM    104  O   UNL A   1      44.639  23.388  35.925  1.00  0.00    -0.237 OA
ATOM    105  O   UNL A   1      46.897  23.704  36.860  1.00  0.00    -0.744 OA
ENDBRANCH  98 102
ENDBRANCH  72  95
ENDBRANCH  46  47
ENDBRANCH  38  41
ENDBRANCH  36  37
ENDBRANCH  35  36
ENDBRANCH  34  35
ENDBRANCH   1  34
TORSDOF 20
ENDMDL
