MODEL 1
REMARK VINA RESULT:     -12.4      0.000      0.000
REMARK SMILES C[C@@H](C(=O)NCCCCNC(=O)c1ccc(-c2c3nc(c(-c4cc(S(=O)(=O)[O-])ccc4F)c4ccc([nH]4)c(-c4cc(S(=O)(=O)[O-])ccc4F)c4nc(c(-c5cc(S(=O)(=O)[O-])ccc5F)c5ccc2[nH]5)C=C4)C=C3)cc1)c1ccccc1-c1ccn(C(F)F)c(=O)c1
REMARK SMILES IDX 7 1 6 2 5 3 3 4 4 5 2 7 1 8 76 9 77 10 81 11 78 12 80 13
REMARK SMILES IDX 79 14 82 15 83 16 91 17 84 18 89 19 85 20 90 21 86 22 87 23
REMARK SMILES IDX 88 24 8 25 9 26 10 27 11 28 12 30 13 31 14 32 75 33 15 34
REMARK SMILES IDX 74 35 16 36 17 37 18 38 68 39 19 40 73 41 67 42 69 43 20 44
REMARK SMILES IDX 72 45 66 46 65 47 21 49 53 50 33 51 52 52 34 53 37 54 51 55
REMARK SMILES IDX 70 56 35 57 36 58 50 60 71 61 38 62 22 63 23 64 31 65 24 66
REMARK SMILES IDX 30 67 32 68 29 69 25 70 26 71 27 72 28 73 54 74 55 75 63 76
REMARK SMILES IDX 56 77 62 78 64 79 61 80 57 81 58 82 59 83 60 84 39 85 40 86
REMARK SMILES IDX 48 87 41 88 47 89 49 90 46 91 42 92 43 93 44 94 45 95
REMARK H PARENT 5 6 10 29 69 48 37 59
REMARK Flexibility Score: inf
ROOT
ATOM      1  C   UNL A   1      31.463  30.999  26.615  1.00  0.00     0.023 C 
ENDROOT
BRANCH   1   2
ATOM      2  C   UNL A   1      31.390  30.469  25.178  1.00  0.00     0.116 C 
BRANCH   2   3
ATOM      3  N   UNL A   1      32.543  29.680  24.768  1.00  0.00    -0.356 N 
ATOM      4  C   UNL A   1      32.798  28.336  24.899  1.00  0.00     0.227 C 
ATOM      5  O   UNL A   1      33.863  27.917  24.443  1.00  0.00    -0.274 OA
ATOM      6  H   UNL A   1      33.256  30.193  24.323  1.00  0.00     0.163 HD
BRANCH   4   7
ATOM      7  C   UNL A   1      31.797  27.450  25.669  1.00  0.00     0.106 C 
ATOM      8  C   UNL A   1      32.391  27.383  27.079  1.00  0.00     0.023 C 
BRANCH   7   9
ATOM      9  C   UNL A   1      31.436  26.087  25.021  1.00  0.00    -0.028 A 
ATOM     10  C   UNL A   1      32.092  24.929  25.499  1.00  0.00     0.005 A 
ATOM     11  C   UNL A   1      30.551  25.910  23.918  1.00  0.00    -0.014 A 
ATOM     12  C   UNL A   1      31.816  23.654  24.993  1.00  0.00     0.000 A 
ATOM     13  C   UNL A   1      30.287  24.618  23.417  1.00  0.00     0.009 A 
ATOM     14  C   UNL A   1      30.903  23.496  23.962  1.00  0.00     0.001 A 
BRANCH  11  15
ATOM     15  C   UNL A   1      29.867  27.022  23.223  1.00  0.00    -0.011 A 
ATOM     16  C   UNL A   1      30.568  27.971  22.381  1.00  0.00     0.027 A 
ATOM     17  C   UNL A   1      28.562  27.214  23.488  1.00  0.00     0.080 A 
ATOM     18  C   UNL A   1      30.001  29.148  22.086  1.00  0.00     0.095 A 
ATOM     19  C   UNL A   1      27.904  28.500  23.125  1.00  0.00     0.255 A 
ATOM     20  N   UNL A   1      28.719  29.441  22.513  1.00  0.00    -0.258 N 
ATOM     21  O   UNL A   1      26.731  28.670  23.441  1.00  0.00    -0.269 OA
BRANCH  20  22
ATOM     22  C   UNL A   1      28.191  30.775  22.390  1.00  0.00     0.451 C 
ATOM     23  F   UNL A   1      29.155  31.710  22.561  1.00  0.00    -0.185 F 
ATOM     24  F   UNL A   1      27.636  30.960  21.165  1.00  0.00    -0.185 F 
ENDBRANCH  20  22
ENDBRANCH  11  15
ENDBRANCH   7   9
ENDBRANCH   4   7
ENDBRANCH   2   3
ENDBRANCH   1   2
BRANCH   1  25
ATOM     25  C   UNL A   1      31.482  32.519  26.750  1.00  0.00     0.023 C 
BRANCH  25  26
ATOM     26  C   UNL A   1      32.778  33.078  27.317  1.00  0.00     0.116 C 
BRANCH  26  27
ATOM     27  N   UNL A   1      32.593  34.353  27.999  1.00  0.00    -0.352 N 
ATOM     28  C   UNL A   1      33.320  34.878  29.044  1.00  0.00     0.251 C 
ATOM     29  H   UNL A   1      31.851  34.912  27.670  1.00  0.00     0.163 HD
ATOM     30  O   UNL A   1      32.964  35.908  29.597  1.00  0.00    -0.269 OA
BRANCH  28  31
ATOM     31  C   UNL A   1      34.515  34.141  29.499  1.00  0.00     0.039 A 
ATOM     32  C   UNL A   1      35.761  34.456  28.954  1.00  0.00     0.014 A 
ATOM     33  C   UNL A   1      34.401  33.220  30.542  1.00  0.00     0.014 A 
ATOM     34  C   UNL A   1      36.914  33.906  29.519  1.00  0.00     0.010 A 
ATOM     35  C   UNL A   1      35.551  32.742  31.153  1.00  0.00     0.010 A 
ATOM     36  C   UNL A   1      36.818  33.083  30.652  1.00  0.00    -0.014 A 
BRANCH  36  37
ATOM     37  C   UNL A   1      38.014  32.540  31.342  1.00  0.00     0.031 A 
ATOM     38  C   UNL A   1      38.757  31.393  30.718  1.00  0.00     0.074 A 
ATOM     39  C   UNL A   1      38.337  32.974  32.575  1.00  0.00     0.049 A 
ATOM     40  N   UNL A   1      39.673  30.616  31.233  1.00  0.00    -0.248 NA
ATOM     41  C   UNL A   1      38.366  31.042  29.345  1.00  0.00     0.031 C 
ATOM     42  C   UNL A   1      37.654  34.044  33.305  1.00  0.00     0.029 A 
ATOM     43  N   UNL A   1      39.303  32.539  33.448  1.00  0.00    -0.354 N 
ATOM     44  C   UNL A   1      39.935  29.654  30.263  1.00  0.00     0.074 A 
ATOM     45  C   UNL A   1      39.035  29.916  29.159  1.00  0.00     0.031 C 
ATOM     46  C   UNL A   1      38.218  34.178  34.516  1.00  0.00     0.029 A 
ATOM     47  C   UNL A   1      39.268  33.176  34.667  1.00  0.00     0.049 A 
ATOM     48  H   UNL A   1      39.958  31.840  33.224  1.00  0.00     0.167 HD
ATOM     49  C   UNL A   1      40.854  28.656  30.287  1.00  0.00     0.034 A 
ATOM     50  C   UNL A   1      39.978  32.954  35.790  1.00  0.00     0.034 A 
ATOM     51  C   UNL A   1      41.760  28.437  31.387  1.00  0.00     0.049 A 
ATOM     52  C   UNL A   1      41.015  31.862  35.793  1.00  0.00     0.074 A 
ATOM     53  C   UNL A   1      42.788  27.518  31.492  1.00  0.00     0.029 A 
ATOM     54  N   UNL A   1      41.740  29.149  32.582  1.00  0.00    -0.354 N 
ATOM     55  N   UNL A   1      41.294  30.990  34.852  1.00  0.00    -0.248 NA
ATOM     56  C   UNL A   1      41.836  31.730  37.003  1.00  0.00     0.031 C 
ATOM     57  C   UNL A   1      43.351  27.634  32.769  1.00  0.00     0.029 A 
ATOM     58  C   UNL A   1      42.721  28.672  33.437  1.00  0.00     0.049 A 
ATOM     59  H   UNL A   1      41.118  29.883  32.791  1.00  0.00     0.167 HD
ATOM     60  C   UNL A   1      42.343  30.221  35.346  1.00  0.00     0.074 A 
ATOM     61  C   UNL A   1      42.647  30.735  36.667  1.00  0.00     0.031 C 
ATOM     62  C   UNL A   1      43.003  29.192  34.755  1.00  0.00     0.034 A 
BRANCH  49  63
ATOM     63  C   UNL A   1      40.886  27.723  29.098  1.00  0.00     0.023 A 
ATOM     64  C   UNL A   1      41.842  27.861  28.075  1.00  0.00     0.031 A 
ATOM     65  C   UNL A   1      39.899  26.734  28.942  1.00  0.00     0.131 A 
ATOM     66  C   UNL A   1      41.719  27.111  26.896  1.00  0.00     0.055 A 
ATOM     67  C   UNL A   1      39.843  25.920  27.809  1.00  0.00     0.041 A 
ATOM     68  F   UNL A   1      38.948  26.563  29.874  1.00  0.00    -0.206 F 
ATOM     69  C   UNL A   1      40.743  26.123  26.766  1.00  0.00     0.022 A 
BRANCH  66  70
ATOM     70  S   UNL A   1      42.727  27.592  25.465  1.00  0.00     0.124 S 
ATOM     71  O   UNL A   1      42.714  26.364  24.671  1.00  0.00    -0.237 OA
ATOM     72  O   UNL A   1      41.977  28.716  24.916  1.00  0.00    -0.237 OA
ATOM     73  O   UNL A   1      44.020  27.929  26.054  1.00  0.00    -0.744 OA
ENDBRANCH  66  70
ENDBRANCH  49  63
BRANCH  50  74
ATOM     74  C   UNL A   1      39.716  33.771  37.006  1.00  0.00     0.023 A 
ATOM     75  C   UNL A   1      39.113  33.209  38.142  1.00  0.00     0.031 A 
ATOM     76  C   UNL A   1      40.081  35.129  37.053  1.00  0.00     0.131 A 
ATOM     77  C   UNL A   1      38.867  34.008  39.269  1.00  0.00     0.055 A 
ATOM     78  C   UNL A   1      39.869  35.910  38.191  1.00  0.00     0.041 A 
ATOM     79  F   UNL A   1      40.676  35.707  35.997  1.00  0.00    -0.206 F 
ATOM     80  C   UNL A   1      39.252  35.351  39.306  1.00  0.00     0.022 A 
BRANCH  77  81
ATOM     81  S   UNL A   1      38.006  33.273  40.685  1.00  0.00     0.124 S 
ATOM     82  O   UNL A   1      38.596  31.939  40.733  1.00  0.00    -0.237 OA
ATOM     83  O   UNL A   1      38.374  34.177  41.770  1.00  0.00    -0.237 OA
ATOM     84  O   UNL A   1      36.599  33.320  40.291  1.00  0.00    -0.744 OA
ENDBRANCH  77  81
ENDBRANCH  50  74
BRANCH  62  85
ATOM     85  C   UNL A   1      44.155  28.588  35.517  1.00  0.00     0.023 A 
ATOM     86  C   UNL A   1      43.969  27.554  36.448  1.00  0.00     0.031 A 
ATOM     87  C   UNL A   1      45.463  29.051  35.287  1.00  0.00     0.131 A 
ATOM     88  C   UNL A   1      45.073  27.036  37.143  1.00  0.00     0.055 A 
ATOM     89  C   UNL A   1      46.562  28.500  35.946  1.00  0.00     0.041 A 
ATOM     90  F   UNL A   1      45.693  30.038  34.407  1.00  0.00    -0.206 F 
ATOM     91  C   UNL A   1      46.369  27.492  36.886  1.00  0.00     0.022 A 
BRANCH  88  92
ATOM     92  S   UNL A   1      44.790  25.792  38.433  1.00  0.00     0.124 S 
ATOM     93  O   UNL A   1      44.052  24.765  37.707  1.00  0.00    -0.237 OA
ATOM     94  O   UNL A   1      46.149  25.440  38.832  1.00  0.00    -0.237 OA
ATOM     95  O   UNL A   1      44.018  26.515  39.442  1.00  0.00    -0.744 OA
ENDBRANCH  88  92
ENDBRANCH  62  85
ENDBRANCH  36  37
ENDBRANCH  28  31
ENDBRANCH  26  27
ENDBRANCH  25  26
ENDBRANCH   1  25
TORSDOF 17
ENDMDL
MODEL 2
REMARK VINA RESULT:     -12.3      2.168      3.163
REMARK SMILES C[C@@H](C(=O)NCCCCNC(=O)c1ccc(-c2c3nc(c(-c4cc(S(=O)(=O)[O-])ccc4F)c4ccc([nH]4)c(-c4cc(S(=O)(=O)[O-])ccc4F)c4nc(c(-c5cc(S(=O)(=O)[O-])ccc5F)c5ccc2[nH]5)C=C4)C=C3)cc1)c1ccccc1-c1ccn(C(F)F)c(=O)c1
REMARK SMILES IDX 7 1 6 2 5 3 3 4 4 5 2 7 1 8 76 9 77 10 81 11 78 12 80 13
REMARK SMILES IDX 79 14 82 15 83 16 91 17 84 18 89 19 85 20 90 21 86 22 87 23
REMARK SMILES IDX 88 24 8 25 9 26 10 27 11 28 12 30 13 31 14 32 75 33 15 34
REMARK SMILES IDX 74 35 16 36 17 37 18 38 68 39 19 40 73 41 67 42 69 43 20 44
REMARK SMILES IDX 72 45 66 46 65 47 21 49 53 50 33 51 52 52 34 53 37 54 51 55
REMARK SMILES IDX 70 56 35 57 36 58 50 60 71 61 38 62 22 63 23 64 31 65 24 66
REMARK SMILES IDX 30 67 32 68 29 69 25 70 26 71 27 72 28 73 54 74 55 75 63 76
REMARK SMILES IDX 56 77 62 78 64 79 61 80 57 81 58 82 59 83 60 84 39 85 40 86
REMARK SMILES IDX 48 87 41 88 47 89 49 90 46 91 42 92 43 93 44 94 45 95
REMARK H PARENT 5 6 10 29 69 48 37 59
REMARK Flexibility Score: inf
ROOT
ATOM      1  C   UNL A   1      32.726  29.198  27.236  1.00  0.00     0.023 C 
ENDROOT
BRANCH   1   2
ATOM      2  C   UNL A   1      33.801  28.420  26.466  1.00  0.00     0.116 C 
BRANCH   2   3
ATOM      3  N   UNL A   1      34.059  28.919  25.123  1.00  0.00    -0.356 N 
ATOM      4  C   UNL A   1      33.652  28.443  23.899  1.00  0.00     0.227 C 
ATOM      5  O   UNL A   1      34.004  29.075  22.902  1.00  0.00    -0.274 OA
ATOM      6  H   UNL A   1      34.616  29.730  25.085  1.00  0.00     0.163 HD
BRANCH   4   7
ATOM      7  C   UNL A   1      32.859  27.121  23.831  1.00  0.00     0.106 C 
ATOM      8  C   UNL A   1      33.559  26.343  22.712  1.00  0.00     0.023 C 
BRANCH   7   9
ATOM      9  C   UNL A   1      31.318  27.243  23.708  1.00  0.00    -0.028 A 
ATOM     10  C   UNL A   1      30.785  28.435  23.165  1.00  0.00     0.005 A 
ATOM     11  C   UNL A   1      30.377  26.279  24.175  1.00  0.00    -0.014 A 
ATOM     12  C   UNL A   1      29.410  28.627  22.993  1.00  0.00     0.000 A 
ATOM     13  C   UNL A   1      28.994  26.490  23.999  1.00  0.00     0.009 A 
ATOM     14  C   UNL A   1      28.515  27.649  23.396  1.00  0.00     0.001 A 
BRANCH  11  15
ATOM     15  C   UNL A   1      30.754  25.029  24.869  1.00  0.00    -0.011 A 
ATOM     16  C   UNL A   1      31.049  24.975  26.288  1.00  0.00     0.027 A 
ATOM     17  C   UNL A   1      30.939  23.929  24.115  1.00  0.00     0.080 A 
ATOM     18  C   UNL A   1      31.734  23.939  26.788  1.00  0.00     0.095 A 
ATOM     19  C   UNL A   1      31.659  22.750  24.673  1.00  0.00     0.255 A 
ATOM     20  N   UNL A   1      32.100  22.878  25.981  1.00  0.00    -0.258 N 
ATOM     21  O   UNL A   1      31.871  21.790  23.939  1.00  0.00    -0.269 OA
BRANCH  20  22
ATOM     22  C   UNL A   1      33.017  21.875  26.458  1.00  0.00     0.451 C 
ATOM     23  F   UNL A   1      34.248  22.028  25.916  1.00  0.00    -0.185 F 
ATOM     24  F   UNL A   1      33.139  21.940  27.808  1.00  0.00    -0.185 F 
ENDBRANCH  20  22
ENDBRANCH  11  15
ENDBRANCH   7   9
ENDBRANCH   4   7
ENDBRANCH   2   3
ENDBRANCH   1   2
BRANCH   1  25
ATOM     25  C   UNL A   1      32.532  30.648  26.800  1.00  0.00     0.023 C 
BRANCH  25  26
ATOM     26  C   UNL A   1      33.547  31.616  27.385  1.00  0.00     0.116 C 
BRANCH  26  27
ATOM     27  N   UNL A   1      33.019  32.967  27.533  1.00  0.00    -0.352 N 
ATOM     28  C   UNL A   1      33.385  33.934  28.443  1.00  0.00     0.251 C 
ATOM     29  H   UNL A   1      32.308  33.222  26.901  1.00  0.00     0.163 HD
ATOM     30  O   UNL A   1      32.760  34.981  28.526  1.00  0.00    -0.269 OA
BRANCH  28  31
ATOM     31  C   UNL A   1      34.526  33.653  29.337  1.00  0.00     0.039 A 
ATOM     32  C   UNL A   1      34.351  32.786  30.417  1.00  0.00     0.014 A 
ATOM     33  C   UNL A   1      35.787  34.167  29.027  1.00  0.00     0.014 A 
ATOM     34  C   UNL A   1      35.466  32.363  31.143  1.00  0.00     0.010 A 
ATOM     35  C   UNL A   1      36.900  33.680  29.695  1.00  0.00     0.010 A 
ATOM     36  C   UNL A   1      36.752  32.771  30.756  1.00  0.00    -0.014 A 
BRANCH  36  37
ATOM     37  C   UNL A   1      37.977  32.285  31.438  1.00  0.00     0.031 A 
ATOM     38  C   UNL A   1      38.776  31.182  30.803  1.00  0.00     0.074 A 
ATOM     39  C   UNL A   1      38.281  32.723  32.674  1.00  0.00     0.049 A 
ATOM     40  N   UNL A   1      39.732  30.448  31.310  1.00  0.00    -0.248 NA
ATOM     41  C   UNL A   1      38.399  30.823  29.429  1.00  0.00     0.031 C 
ATOM     42  C   UNL A   1      37.546  33.752  33.415  1.00  0.00     0.029 A 
ATOM     43  N   UNL A   1      39.269  32.332  33.542  1.00  0.00    -0.354 N 
ATOM     44  C   UNL A   1      40.040  29.509  30.331  1.00  0.00     0.074 A 
ATOM     45  C   UNL A   1      39.125  29.734  29.232  1.00  0.00     0.031 C 
ATOM     46  C   UNL A   1      38.105  33.904  34.627  1.00  0.00     0.029 A 
ATOM     47  C   UNL A   1      39.205  32.955  34.766  1.00  0.00     0.049 A 
ATOM     48  H   UNL A   1      39.959  31.668  33.310  1.00  0.00     0.167 HD
ATOM     49  C   UNL A   1      41.009  28.560  30.344  1.00  0.00     0.034 A 
ATOM     50  C   UNL A   1      39.929  32.761  35.886  1.00  0.00     0.034 A 
ATOM     51  C   UNL A   1      41.928  28.378  31.441  1.00  0.00     0.049 A 
ATOM     52  C   UNL A   1      41.020  31.724  35.877  1.00  0.00     0.074 A 
ATOM     53  C   UNL A   1      43.002  27.512  31.535  1.00  0.00     0.029 A 
ATOM     54  N   UNL A   1      41.874  29.078  32.642  1.00  0.00    -0.354 N 
ATOM     55  N   UNL A   1      41.342  30.875  34.928  1.00  0.00    -0.248 NA
ATOM     56  C   UNL A   1      41.851  31.623  37.084  1.00  0.00     0.031 C 
ATOM     57  C   UNL A   1      43.561  27.646  32.812  1.00  0.00     0.029 A 
ATOM     58  C   UNL A   1      42.881  28.644  33.491  1.00  0.00     0.049 A 
ATOM     59  H   UNL A   1      41.217  29.778  32.858  1.00  0.00     0.167 HD
ATOM     60  C   UNL A   1      42.430  30.157  35.413  1.00  0.00     0.074 A 
ATOM     61  C   UNL A   1      42.710  30.674  36.738  1.00  0.00     0.031 C 
ATOM     62  C   UNL A   1      43.139  29.168  34.812  1.00  0.00     0.034 A 
BRANCH  49  63
ATOM     63  C   UNL A   1      41.085  27.639  29.148  1.00  0.00     0.023 A 
ATOM     64  C   UNL A   1      42.098  27.767  28.180  1.00  0.00     0.031 A 
ATOM     65  C   UNL A   1      40.087  26.675  28.926  1.00  0.00     0.131 A 
ATOM     66  C   UNL A   1      42.024  27.034  26.987  1.00  0.00     0.055 A 
ATOM     67  C   UNL A   1      40.076  25.874  27.782  1.00  0.00     0.041 A 
ATOM     68  F   UNL A   1      39.083  26.515  29.803  1.00  0.00    -0.206 F 
ATOM     69  C   UNL A   1      41.035  26.069  26.792  1.00  0.00     0.022 A 
BRANCH  66  70
ATOM     70  S   UNL A   1      43.118  27.507  25.618  1.00  0.00     0.124 S 
ATOM     71  O   UNL A   1      44.094  28.355  26.301  1.00  0.00    -0.237 OA
ATOM     72  O   UNL A   1      43.611  26.217  25.149  1.00  0.00    -0.237 OA
ATOM     73  O   UNL A   1      42.229  28.211  24.697  1.00  0.00    -0.744 OA
ENDBRANCH  66  70
ENDBRANCH  49  63
BRANCH  50  74
ATOM     74  C   UNL A   1      39.629  33.554  37.110  1.00  0.00     0.023 A 
ATOM     75  C   UNL A   1      38.854  33.017  38.149  1.00  0.00     0.031 A 
ATOM     76  C   UNL A   1      40.129  34.860  37.261  1.00  0.00     0.131 A 
ATOM     77  C   UNL A   1      38.577  33.794  39.286  1.00  0.00     0.055 A 
ATOM     78  C   UNL A   1      39.882  35.614  38.410  1.00  0.00     0.041 A 
ATOM     79  F   UNL A   1      40.888  35.410  36.300  1.00  0.00    -0.206 F 
ATOM     80  C   UNL A   1      39.096  35.083  39.428  1.00  0.00     0.022 A 
BRANCH  77  81
ATOM     81  S   UNL A   1      37.500  33.102  40.569  1.00  0.00     0.124 S 
ATOM     82  O   UNL A   1      36.470  32.444  39.772  1.00  0.00    -0.237 OA
ATOM     83  O   UNL A   1      38.412  32.221  41.292  1.00  0.00    -0.237 OA
ATOM     84  O   UNL A   1      37.057  34.279  41.314  1.00  0.00    -0.744 OA
ENDBRANCH  77  81
ENDBRANCH  50  74
BRANCH  62  85
ATOM     85  C   UNL A   1      44.323  28.617  35.567  1.00  0.00     0.023 A 
ATOM     86  C   UNL A   1      44.184  27.606  36.532  1.00  0.00     0.031 A 
ATOM     87  C   UNL A   1      45.613  29.106  35.294  1.00  0.00     0.131 A 
ATOM     88  C   UNL A   1      45.316  27.139  37.217  1.00  0.00     0.055 A 
ATOM     89  C   UNL A   1      46.740  28.605  35.945  1.00  0.00     0.041 A 
ATOM     90  F   UNL A   1      45.798  30.072  34.381  1.00  0.00    -0.206 F 
ATOM     91  C   UNL A   1      46.594  27.620  36.919  1.00  0.00     0.022 A 
BRANCH  88  92
ATOM     92  S   UNL A   1      45.093  25.928  38.549  1.00  0.00     0.124 S 
ATOM     93  O   UNL A   1      44.643  24.749  37.816  1.00  0.00    -0.237 OA
ATOM     94  O   UNL A   1      46.431  25.847  39.126  1.00  0.00    -0.237 OA
ATOM     95  O   UNL A   1      44.086  26.545  39.410  1.00  0.00    -0.744 OA
ENDBRANCH  88  92
ENDBRANCH  62  85
ENDBRANCH  36  37
ENDBRANCH  28  31
ENDBRANCH  26  27
ENDBRANCH  25  26
ENDBRANCH   1  25
TORSDOF 17
ENDMDL
MODEL 3
REMARK VINA RESULT:     -12.2      1.797      2.172
REMARK SMILES C[C@@H](C(=O)NCCCCNC(=O)c1ccc(-c2c3nc(c(-c4cc(S(=O)(=O)[O-])ccc4F)c4ccc([nH]4)c(-c4cc(S(=O)(=O)[O-])ccc4F)c4nc(c(-c5cc(S(=O)(=O)[O-])ccc5F)c5ccc2[nH]5)C=C4)C=C3)cc1)c1ccccc1-c1ccn(C(F)F)c(=O)c1
REMARK SMILES IDX 7 1 6 2 5 3 3 4 4 5 2 7 1 8 76 9 77 10 81 11 78 12 80 13
REMARK SMILES IDX 79 14 82 15 83 16 91 17 84 18 89 19 85 20 90 21 86 22 87 23
REMARK SMILES IDX 88 24 8 25 9 26 10 27 11 28 12 30 13 31 14 32 75 33 15 34
REMARK SMILES IDX 74 35 16 36 17 37 18 38 68 39 19 40 73 41 67 42 69 43 20 44
REMARK SMILES IDX 72 45 66 46 65 47 21 49 53 50 33 51 52 52 34 53 37 54 51 55
REMARK SMILES IDX 70 56 35 57 36 58 50 60 71 61 38 62 22 63 23 64 31 65 24 66
REMARK SMILES IDX 30 67 32 68 29 69 25 70 26 71 27 72 28 73 54 74 55 75 63 76
REMARK SMILES IDX 56 77 62 78 64 79 61 80 57 81 58 82 59 83 60 84 39 85 40 86
REMARK SMILES IDX 48 87 41 88 47 89 49 90 46 91 42 92 43 93 44 94 45 95
REMARK H PARENT 5 6 10 29 69 48 37 59
REMARK Flexibility Score: inf
ROOT
ATOM      1  C   UNL A   1      31.447  31.304  26.652  1.00  0.00     0.023 C 
ENDROOT
BRANCH   1   2
ATOM      2  C   UNL A   1      31.398  30.623  25.278  1.00  0.00     0.116 C 
BRANCH   2   3
ATOM      3  N   UNL A   1      32.562  29.803  24.972  1.00  0.00    -0.356 N 
ATOM      4  C   UNL A   1      32.750  28.445  25.078  1.00  0.00     0.227 C 
ATOM      5  O   UNL A   1      33.844  27.999  24.730  1.00  0.00    -0.274 OA
ATOM      6  H   UNL A   1      33.339  30.302  24.632  1.00  0.00     0.163 HD
BRANCH   4   7
ATOM      7  C   UNL A   1      31.634  27.575  25.692  1.00  0.00     0.106 C 
ATOM      8  C   UNL A   1      32.041  27.460  27.165  1.00  0.00     0.023 C 
BRANCH   7   9
ATOM      9  C   UNL A   1      31.321  26.238  24.970  1.00  0.00    -0.028 A 
ATOM     10  C   UNL A   1      32.005  25.075  25.396  1.00  0.00     0.005 A 
ATOM     11  C   UNL A   1      30.454  26.093  23.848  1.00  0.00    -0.014 A 
ATOM     12  C   UNL A   1      31.772  23.822  24.822  1.00  0.00     0.000 A 
ATOM     13  C   UNL A   1      30.234  24.822  23.278  1.00  0.00     0.009 A 
ATOM     14  C   UNL A   1      30.876  23.691  23.773  1.00  0.00     0.001 A 
BRANCH  11  15
ATOM     15  C   UNL A   1      29.746  27.220  23.202  1.00  0.00    -0.011 A 
ATOM     16  C   UNL A   1      30.428  28.224  22.409  1.00  0.00     0.027 A 
ATOM     17  C   UNL A   1      28.436  27.368  23.469  1.00  0.00     0.080 A 
ATOM     18  C   UNL A   1      29.833  29.399  22.167  1.00  0.00     0.095 A 
ATOM     19  C   UNL A   1      27.748  28.653  23.164  1.00  0.00     0.255 A 
ATOM     20  N   UNL A   1      28.543  29.642  22.601  1.00  0.00    -0.258 N 
ATOM     21  O   UNL A   1      26.570  28.780  23.481  1.00  0.00    -0.269 OA
BRANCH  20  22
ATOM     22  C   UNL A   1      27.983  30.967  22.537  1.00  0.00     0.451 C 
ATOM     23  F   UNL A   1      27.613  31.411  23.761  1.00  0.00    -0.185 F 
ATOM     24  F   UNL A   1      28.883  31.843  22.024  1.00  0.00    -0.185 F 
ENDBRANCH  20  22
ENDBRANCH  11  15
ENDBRANCH   7   9
ENDBRANCH   4   7
ENDBRANCH   2   3
ENDBRANCH   1   2
BRANCH   1  25
ATOM     25  C   UNL A   1      32.749  31.119  27.427  1.00  0.00     0.023 C 
BRANCH  25  26
ATOM     26  C   UNL A   1      33.707  32.295  27.326  1.00  0.00     0.116 C 
BRANCH  26  27
ATOM     27  N   UNL A   1      33.080  33.566  27.669  1.00  0.00    -0.352 N 
ATOM     28  C   UNL A   1      33.361  34.400  28.729  1.00  0.00     0.251 C 
ATOM     29  H   UNL A   1      32.363  33.867  27.065  1.00  0.00     0.163 HD
ATOM     30  O   UNL A   1      32.660  35.375  28.957  1.00  0.00    -0.269 OA
BRANCH  28  31
ATOM     31  C   UNL A   1      34.504  34.060  29.598  1.00  0.00     0.039 A 
ATOM     32  C   UNL A   1      34.305  33.219  30.693  1.00  0.00     0.014 A 
ATOM     33  C   UNL A   1      35.786  34.493  29.250  1.00  0.00     0.014 A 
ATOM     34  C   UNL A   1      35.410  32.738  31.398  1.00  0.00     0.010 A 
ATOM     35  C   UNL A   1      36.884  33.948  29.898  1.00  0.00     0.010 A 
ATOM     36  C   UNL A   1      36.709  33.062  30.974  1.00  0.00    -0.014 A 
BRANCH  36  37
ATOM     37  C   UNL A   1      37.919  32.511  31.633  1.00  0.00     0.031 A 
ATOM     38  C   UNL A   1      38.664  31.389  30.966  1.00  0.00     0.074 A 
ATOM     39  C   UNL A   1      38.253  32.911  32.874  1.00  0.00     0.049 A 
ATOM     40  N   UNL A   1      39.593  30.606  31.447  1.00  0.00    -0.248 NA
ATOM     41  C   UNL A   1      38.259  31.076  29.589  1.00  0.00     0.031 C 
ATOM     42  C   UNL A   1      37.569  33.953  33.644  1.00  0.00     0.029 A 
ATOM     43  N   UNL A   1      39.233  32.460  33.722  1.00  0.00    -0.354 N 
ATOM     44  C   UNL A   1      39.852  29.676  30.446  1.00  0.00     0.074 A 
ATOM     45  C   UNL A   1      38.936  29.962  29.361  1.00  0.00     0.031 C 
ATOM     46  C   UNL A   1      38.146  34.056  34.852  1.00  0.00     0.029 A 
ATOM     47  C   UNL A   1      39.207  33.059  34.960  1.00  0.00     0.049 A 
ATOM     48  H   UNL A   1      39.891  31.773  33.470  1.00  0.00     0.167 HD
ATOM     49  C   UNL A   1      40.781  28.687  30.429  1.00  0.00     0.034 A 
ATOM     50  C   UNL A   1      39.934  32.812  36.067  1.00  0.00     0.034 A 
ATOM     51  C   UNL A   1      41.701  28.444  31.512  1.00  0.00     0.049 A 
ATOM     52  C   UNL A   1      40.980  31.730  36.026  1.00  0.00     0.074 A 
ATOM     53  C   UNL A   1      42.739  27.531  31.576  1.00  0.00     0.029 A 
ATOM     54  N   UNL A   1      41.690  29.119  32.727  1.00  0.00    -0.354 N 
ATOM     55  N   UNL A   1      41.256  30.889  35.055  1.00  0.00    -0.248 NA
ATOM     56  C   UNL A   1      41.817  31.569  37.221  1.00  0.00     0.031 C 
ATOM     57  C   UNL A   1      43.317  27.615  32.849  1.00  0.00     0.029 A 
ATOM     58  C   UNL A   1      42.686  28.626  33.556  1.00  0.00     0.049 A 
ATOM     59  H   UNL A   1      41.064  29.842  32.965  1.00  0.00     0.167 HD
ATOM     60  C   UNL A   1      42.318  30.115  35.514  1.00  0.00     0.074 A 
ATOM     61  C   UNL A   1      42.633  30.593  36.846  1.00  0.00     0.031 C 
ATOM     62  C   UNL A   1      42.979  29.111  34.885  1.00  0.00     0.034 A 
BRANCH  49  63
ATOM     63  C   UNL A   1      40.806  27.789  29.213  1.00  0.00     0.023 A 
ATOM     64  C   UNL A   1      41.757  27.957  28.190  1.00  0.00     0.031 A 
ATOM     65  C   UNL A   1      39.817  26.807  29.032  1.00  0.00     0.131 A 
ATOM     66  C   UNL A   1      41.629  27.243  26.990  1.00  0.00     0.055 A 
ATOM     67  C   UNL A   1      39.756  26.026  27.875  1.00  0.00     0.041 A 
ATOM     68  F   UNL A   1      38.870  26.609  29.962  1.00  0.00    -0.206 F 
ATOM     69  C   UNL A   1      40.651  26.260  26.834  1.00  0.00     0.022 A 
BRANCH  66  70
ATOM     70  S   UNL A   1      42.630  27.765  25.569  1.00  0.00     0.124 S 
ATOM     71  O   UNL A   1      43.914  28.055  26.204  1.00  0.00    -0.237 OA
ATOM     72  O   UNL A   1      42.594  26.587  24.709  1.00  0.00    -0.237 OA
ATOM     73  O   UNL A   1      41.918  28.934  25.059  1.00  0.00    -0.744 OA
ENDBRANCH  66  70
ENDBRANCH  49  63
BRANCH  50  74
ATOM     74  C   UNL A   1      39.679  33.590  37.311  1.00  0.00     0.023 A 
ATOM     75  C   UNL A   1      40.364  34.788  37.569  1.00  0.00     0.031 A 
ATOM     76  C   UNL A   1      38.734  33.149  38.254  1.00  0.00     0.131 A 
ATOM     77  C   UNL A   1      40.111  35.493  38.757  1.00  0.00     0.055 A 
ATOM     78  C   UNL A   1      38.459  33.874  39.415  1.00  0.00     0.041 A 
ATOM     79  F   UNL A   1      38.043  32.017  38.042  1.00  0.00    -0.206 F 
ATOM     80  C   UNL A   1      39.156  35.050  39.675  1.00  0.00     0.022 A 
BRANCH  77  81
ATOM     81  S   UNL A   1      41.076  36.989  39.101  1.00  0.00     0.124 S 
ATOM     82  O   UNL A   1      41.974  37.035  37.952  1.00  0.00    -0.237 OA
ATOM     83  O   UNL A   1      40.040  38.016  39.147  1.00  0.00    -0.237 OA
ATOM     84  O   UNL A   1      41.714  36.696  40.383  1.00  0.00    -0.744 OA
ENDBRANCH  77  81
ENDBRANCH  50  74
BRANCH  62  85
ATOM     85  C   UNL A   1      44.146  28.495  35.615  1.00  0.00     0.023 A 
ATOM     86  C   UNL A   1      45.459  28.962  35.443  1.00  0.00     0.031 A 
ATOM     87  C   UNL A   1      43.928  27.435  36.513  1.00  0.00     0.131 A 
ATOM     88  C   UNL A   1      46.513  28.344  36.133  1.00  0.00     0.055 A 
ATOM     89  C   UNL A   1      44.973  26.856  37.232  1.00  0.00     0.041 A 
ATOM     90  F   UNL A   1      42.690  26.953  36.712  1.00  0.00    -0.206 F 
ATOM     91  C   UNL A   1      46.276  27.306  37.039  1.00  0.00     0.022 A 
BRANCH  88  92
ATOM     92  S   UNL A   1      48.213  28.879  35.795  1.00  0.00     0.124 S 
ATOM     93  O   UNL A   1      48.993  27.909  36.558  1.00  0.00    -0.237 OA
ATOM     94  O   UNL A   1      48.295  28.762  34.343  1.00  0.00    -0.237 OA
ATOM     95  O   UNL A   1      48.251  30.247  36.308  1.00  0.00    -0.744 OA
ENDBRANCH  88  92
ENDBRANCH  62  85
ENDBRANCH  36  37
ENDBRANCH  28  31
ENDBRANCH  26  27
ENDBRANCH  25  26
ENDBRANCH   1  25
TORSDOF 17
ENDMDL
