MODEL 1
REMARK VINA RESULT:     -12.7      0.000      0.000
REMARK SMILES O=C(CCc1cccnc1)Nc1cccc(F)c1C(=O)NCCCCNC(=O)c1ccc(-c2c3nc(c(-c4cc(S(=O)(=O)[O-])ccc4F)c4ccc([nH]4)c(-c4cc(S(=O)(=O)[O-])ccc4F)c4nc(c(-c5cc(S(=O)(=O)[O-])ccc5F)c5ccc2[nH]5)C=C4)C=C3)cc1
REMARK SMILES IDX 23 1 22 2 21 3 19 4 20 5 18 7 12 8 13 9 14 10 16 11 15 12
REMARK SMILES IDX 17 13 11 14 1 15 2 16 3 18 4 19 5 20 6 21 10 22 7 23 9 24
REMARK SMILES IDX 8 25 24 26 25 27 26 28 27 29 28 31 29 32 30 33 91 34 31 35
REMARK SMILES IDX 90 36 32 37 33 38 34 39 84 40 35 41 89 42 83 43 85 44 36 45
REMARK SMILES IDX 88 46 82 47 81 48 37 50 69 51 49 52 68 53 50 54 53 55 67 56
REMARK SMILES IDX 86 57 51 58 52 59 66 61 87 62 54 63 38 64 39 65 47 66 40 67
REMARK SMILES IDX 46 68 48 69 45 70 41 71 42 72 43 73 44 74 70 75 71 76 79 77
REMARK SMILES IDX 72 78 78 79 80 80 77 81 73 82 74 83 75 84 76 85 55 86 56 87
REMARK SMILES IDX 64 88 57 89 63 90 65 91 62 92 58 93 59 94 60 95 61 96
REMARK H PARENT 21 6 11 17 26 30 85 49 53 60
REMARK Flexibility Score: inf
ROOT
ATOM      1  C   UNL A   1      35.230  22.362  26.383  1.00  0.00     0.023 C 
ENDROOT
BRANCH   1   2
ATOM      2  C   UNL A   1      34.298  23.558  26.201  1.00  0.00     0.116 C 
BRANCH   2   3
ATOM      3  N   UNL A   1      33.088  23.542  27.007  1.00  0.00    -0.352 N 
ATOM      4  C   UNL A   1      31.795  23.923  26.712  1.00  0.00     0.256 C 
ATOM      5  O   UNL A   1      30.922  23.688  27.552  1.00  0.00    -0.269 OA
ATOM      6  H   UNL A   1      33.214  23.203  27.922  1.00  0.00     0.163 HD
BRANCH   4   7
ATOM      7  C   UNL A   1      31.407  24.696  25.497  1.00  0.00     0.099 A 
ATOM      8  C   UNL A   1      31.155  24.019  24.272  1.00  0.00     0.056 A 
ATOM      9  C   UNL A   1      30.616  24.743  23.195  1.00  0.00     0.027 A 
ATOM     10  C   UNL A   1      30.416  26.120  23.275  1.00  0.00     0.005 A 
ATOM     11  C   UNL A   1      31.324  26.091  25.502  1.00  0.00     0.138 A 
ATOM     12  C   UNL A   1      30.809  26.799  24.418  1.00  0.00     0.040 A 
ATOM     13  F   UNL A   1      31.786  26.816  26.531  1.00  0.00    -0.206 F 
BRANCH   8  14
ATOM     14  N   UNL A   1      31.458  22.633  24.138  1.00  0.00    -0.325 N 
ATOM     15  O   UNL A   1      33.253  22.700  22.678  1.00  0.00    -0.275 OA
ATOM     16  C   UNL A   1      32.426  22.066  23.336  1.00  0.00     0.224 C 
ATOM     17  H   UNL A   1      30.917  22.012  24.677  1.00  0.00     0.169 HD
BRANCH  16  18
ATOM     18  C   UNL A   1      32.429  20.546  23.207  1.00  0.00     0.105 C 
BRANCH  18  19
ATOM     19  C   UNL A   1      32.220  19.691  24.452  1.00  0.00     0.047 C 
BRANCH  19  20
ATOM     20  C   UNL A   1      32.855  18.323  24.485  1.00  0.00    -0.029 A 
ATOM     21  C   UNL A   1      33.593  17.762  23.439  1.00  0.00     0.007 A 
ATOM     22  C   UNL A   1      32.687  17.537  25.626  1.00  0.00     0.114 A 
ATOM     23  C   UNL A   1      34.073  16.460  23.548  1.00  0.00     0.020 A 
ATOM     24  N   UNL A   1      33.161  16.280  25.767  1.00  0.00    -0.264 NA
ATOM     25  C   UNL A   1      33.831  15.765  24.719  1.00  0.00     0.111 A 
ENDBRANCH  19  20
ENDBRANCH  18  19
ENDBRANCH  16  18
ENDBRANCH   8  14
ENDBRANCH   4   7
ENDBRANCH   2   3
ENDBRANCH   1   2
BRANCH   1  26
ATOM     26  C   UNL A   1      35.582  21.541  25.146  1.00  0.00     0.023 C 
BRANCH  26  27
ATOM     27  C   UNL A   1      37.001  21.674  24.601  1.00  0.00     0.116 C 
BRANCH  27  28
ATOM     28  N   UNL A   1      37.901  20.608  25.016  1.00  0.00    -0.352 N 
ATOM     29  C   UNL A   1      39.042  20.652  25.786  1.00  0.00     0.251 C 
ATOM     30  H   UNL A   1      37.654  19.710  24.695  1.00  0.00     0.163 HD
ATOM     31  O   UNL A   1      39.685  19.619  25.964  1.00  0.00    -0.269 OA
BRANCH  29  32
ATOM     32  C   UNL A   1      39.528  21.933  26.352  1.00  0.00     0.039 A 
ATOM     33  C   UNL A   1      40.649  21.913  27.188  1.00  0.00     0.014 A 
ATOM     34  C   UNL A   1      38.909  23.148  26.052  1.00  0.00     0.014 A 
ATOM     35  C   UNL A   1      41.211  23.114  27.629  1.00  0.00     0.010 A 
ATOM     36  C   UNL A   1      39.513  24.347  26.428  1.00  0.00     0.010 A 
ATOM     37  C   UNL A   1      40.684  24.343  27.202  1.00  0.00    -0.014 A 
BRANCH  37  38
ATOM     38  C   UNL A   1      41.362  25.629  27.519  1.00  0.00     0.031 A 
ATOM     39  C   UNL A   1      40.664  26.681  28.334  1.00  0.00     0.074 A 
ATOM     40  C   UNL A   1      42.589  25.876  27.016  1.00  0.00     0.049 A 
ATOM     41  N   UNL A   1      41.053  27.897  28.624  1.00  0.00    -0.248 NA
ATOM     42  C   UNL A   1      39.343  26.326  28.873  1.00  0.00     0.031 C 
ATOM     43  C   UNL A   1      43.367  24.948  26.191  1.00  0.00     0.029 A 
ATOM     44  N   UNL A   1      43.398  26.979  27.124  1.00  0.00    -0.354 N 
ATOM     45  C   UNL A   1      40.023  28.456  29.373  1.00  0.00     0.074 A 
ATOM     46  C   UNL A   1      38.971  27.463  29.441  1.00  0.00     0.031 C 
ATOM     47  C   UNL A   1      44.556  25.503  25.908  1.00  0.00     0.029 A 
ATOM     48  C   UNL A   1      44.607  26.844  26.483  1.00  0.00     0.049 A 
ATOM     49  H   UNL A   1      43.137  27.792  27.615  1.00  0.00     0.167 HD
ATOM     50  C   UNL A   1      39.970  29.673  29.968  1.00  0.00     0.034 A 
ATOM     51  C   UNL A   1      45.641  27.700  26.364  1.00  0.00     0.034 A 
ATOM     52  C   UNL A   1      41.028  30.652  29.901  1.00  0.00     0.049 A 
ATOM     53  C   UNL A   1      45.543  29.063  26.992  1.00  0.00     0.074 A 
ATOM     54  C   UNL A   1      41.079  31.906  30.486  1.00  0.00     0.029 A 
ATOM     55  N   UNL A   1      42.220  30.489  29.208  1.00  0.00    -0.354 N 
ATOM     56  N   UNL A   1      44.554  29.584  27.677  1.00  0.00    -0.248 NA
ATOM     57  C   UNL A   1      46.700  29.954  26.824  1.00  0.00     0.031 C 
ATOM     58  C   UNL A   1      42.278  32.520  30.106  1.00  0.00     0.029 A 
ATOM     59  C   UNL A   1      43.004  31.626  29.337  1.00  0.00     0.049 A 
ATOM     60  H   UNL A   1      42.472  29.684  28.701  1.00  0.00     0.167 HD
ATOM     61  C   UNL A   1      44.977  30.857  28.042  1.00  0.00     0.074 A 
ATOM     62  C   UNL A   1      46.310  31.027  27.500  1.00  0.00     0.031 C 
ATOM     63  C   UNL A   1      44.322  31.794  28.773  1.00  0.00     0.034 A 
BRANCH  50  64
ATOM     64  C   UNL A   1      38.714  30.012  30.730  1.00  0.00     0.023 A 
ATOM     65  C   UNL A   1      37.684  30.767  30.143  1.00  0.00     0.031 A 
ATOM     66  C   UNL A   1      38.552  29.598  32.063  1.00  0.00     0.131 A 
ATOM     67  C   UNL A   1      36.571  31.145  30.907  1.00  0.00     0.055 A 
ATOM     68  C   UNL A   1      37.406  29.914  32.796  1.00  0.00     0.041 A 
ATOM     69  F   UNL A   1      39.512  28.891  32.681  1.00  0.00    -0.206 F 
ATOM     70  C   UNL A   1      36.413  30.703  32.223  1.00  0.00     0.022 A 
BRANCH  67  71
ATOM     71  S   UNL A   1      35.390  32.322  30.194  1.00  0.00     0.124 S 
ATOM     72  O   UNL A   1      34.839  31.549  29.084  1.00  0.00    -0.237 OA
ATOM     73  O   UNL A   1      34.484  32.577  31.307  1.00  0.00    -0.237 OA
ATOM     74  O   UNL A   1      36.230  33.453  29.802  1.00  0.00    -0.744 OA
ENDBRANCH  67  71
ENDBRANCH  50  64
BRANCH  51  75
ATOM     75  C   UNL A   1      46.861  27.280  25.626  1.00  0.00     0.023 A 
ATOM     76  C   UNL A   1      47.036  27.630  24.279  1.00  0.00     0.031 A 
ATOM     77  C   UNL A   1      47.883  26.556  26.265  1.00  0.00     0.131 A 
ATOM     78  C   UNL A   1      48.206  27.245  23.606  1.00  0.00     0.055 A 
ATOM     79  C   UNL A   1      49.057  26.201  25.600  1.00  0.00     0.041 A 
ATOM     80  F   UNL A   1      47.765  26.214  27.558  1.00  0.00    -0.206 F 
ATOM     81  C   UNL A   1      49.222  26.544  24.261  1.00  0.00     0.022 A 
BRANCH  78  82
ATOM     82  S   UNL A   1      48.389  27.682  21.855  1.00  0.00     0.124 S 
ATOM     83  O   UNL A   1      48.605  26.375  21.244  1.00  0.00    -0.237 OA
ATOM     84  O   UNL A   1      47.111  28.324  21.563  1.00  0.00    -0.237 OA
ATOM     85  O   UNL A   1      49.545  28.575  21.848  1.00  0.00    -0.744 OA
ENDBRANCH  78  82
ENDBRANCH  51  75
BRANCH  63  86
ATOM     86  C   UNL A   1      45.051  33.080  29.061  1.00  0.00     0.023 A 
ATOM     87  C   UNL A   1      45.047  34.149  28.151  1.00  0.00     0.031 A 
ATOM     88  C   UNL A   1      45.726  33.246  30.283  1.00  0.00     0.131 A 
ATOM     89  C   UNL A   1      45.731  35.333  28.467  1.00  0.00     0.055 A 
ATOM     90  C   UNL A   1      46.367  34.441  30.610  1.00  0.00     0.041 A 
ATOM     91  F   UNL A   1      45.757  32.252  31.186  1.00  0.00    -0.206 F 
ATOM     92  C   UNL A   1      46.376  35.492  29.696  1.00  0.00     0.022 A 
BRANCH  89  93
ATOM     93  S   UNL A   1      45.793  36.664  27.235  1.00  0.00     0.124 S 
ATOM     94  O   UNL A   1      46.860  37.511  27.760  1.00  0.00    -0.237 OA
ATOM     95  O   UNL A   1      46.101  35.942  26.004  1.00  0.00    -0.237 OA
ATOM     96  O   UNL A   1      44.454  37.247  27.291  1.00  0.00    -0.744 OA
ENDBRANCH  89  93
ENDBRANCH  63  86
ENDBRANCH  37  38
ENDBRANCH  29  32
ENDBRANCH  27  28
ENDBRANCH  26  27
ENDBRANCH   1  26
TORSDOF 18
ENDMDL
MODEL 2
REMARK VINA RESULT:     -12.4      1.010      7.466
REMARK SMILES O=C(CCc1cccnc1)Nc1cccc(F)c1C(=O)NCCCCNC(=O)c1ccc(-c2c3nc(c(-c4cc(S(=O)(=O)[O-])ccc4F)c4ccc([nH]4)c(-c4cc(S(=O)(=O)[O-])ccc4F)c4nc(c(-c5cc(S(=O)(=O)[O-])ccc5F)c5ccc2[nH]5)C=C4)C=C3)cc1
REMARK SMILES IDX 23 1 22 2 21 3 19 4 20 5 18 7 12 8 13 9 14 10 16 11 15 12
REMARK SMILES IDX 17 13 11 14 1 15 2 16 3 18 4 19 5 20 6 21 10 22 7 23 9 24
REMARK SMILES IDX 8 25 24 26 25 27 26 28 27 29 28 31 29 32 30 33 91 34 31 35
REMARK SMILES IDX 90 36 32 37 33 38 34 39 84 40 35 41 89 42 83 43 85 44 36 45
REMARK SMILES IDX 88 46 82 47 81 48 37 50 69 51 49 52 68 53 50 54 53 55 67 56
REMARK SMILES IDX 86 57 51 58 52 59 66 61 87 62 54 63 38 64 39 65 47 66 40 67
REMARK SMILES IDX 46 68 48 69 45 70 41 71 42 72 43 73 44 74 70 75 71 76 79 77
REMARK SMILES IDX 72 78 78 79 80 80 77 81 73 82 74 83 75 84 76 85 55 86 56 87
REMARK SMILES IDX 64 88 57 89 63 90 65 91 62 92 58 93 59 94 60 95 61 96
REMARK H PARENT 21 6 11 17 26 30 85 49 53 60
REMARK Flexibility Score: inf
ROOT
ATOM      1  C   UNL A   1      34.857  21.611  26.497  1.00  0.00     0.023 C 
ENDROOT
BRANCH   1   2
ATOM      2  C   UNL A   1      34.642  23.089  26.817  1.00  0.00     0.116 C 
BRANCH   2   3
ATOM      3  N   UNL A   1      33.261  23.495  27.020  1.00  0.00    -0.352 N 
ATOM      4  C   UNL A   1      32.473  24.406  26.346  1.00  0.00     0.256 C 
ATOM      5  O   UNL A   1      31.280  24.470  26.653  1.00  0.00    -0.269 OA
ATOM      6  H   UNL A   1      32.810  23.042  27.769  1.00  0.00     0.163 HD
BRANCH   4   7
ATOM      7  C   UNL A   1      32.994  25.390  25.353  1.00  0.00     0.099 A 
ATOM      8  C   UNL A   1      33.217  24.993  24.007  1.00  0.00     0.056 A 
ATOM      9  C   UNL A   1      33.532  25.976  23.053  1.00  0.00     0.027 A 
ATOM     10  C   UNL A   1      33.722  27.307  23.420  1.00  0.00     0.005 A 
ATOM     11  C   UNL A   1      33.323  26.700  25.713  1.00  0.00     0.138 A 
ATOM     12  C   UNL A   1      33.656  27.660  24.759  1.00  0.00     0.040 A 
ATOM     13  F   UNL A   1      33.385  27.080  26.997  1.00  0.00    -0.206 F 
BRANCH   8  14
ATOM     14  N   UNL A   1      33.135  23.620  23.636  1.00  0.00    -0.325 N 
ATOM     15  O   UNL A   1      30.864  23.389  23.252  1.00  0.00    -0.275 OA
ATOM     16  C   UNL A   1      31.995  22.905  23.336  1.00  0.00     0.224 C 
ATOM     17  H   UNL A   1      33.986  23.127  23.586  1.00  0.00     0.169 HD
BRANCH  16  18
ATOM     18  C   UNL A   1      32.136  21.396  23.162  1.00  0.00     0.105 C 
BRANCH  18  19
ATOM     19  C   UNL A   1      32.080  20.495  24.391  1.00  0.00     0.047 C 
BRANCH  19  20
ATOM     20  C   UNL A   1      32.580  19.079  24.253  1.00  0.00    -0.029 A 
ATOM     21  C   UNL A   1      33.049  18.294  25.309  1.00  0.00     0.007 A 
ATOM     22  C   UNL A   1      32.603  18.501  22.983  1.00  0.00     0.114 A 
ATOM     23  C   UNL A   1      33.557  17.022  25.058  1.00  0.00     0.020 A 
ATOM     24  N   UNL A   1      33.068  17.262  22.713  1.00  0.00    -0.264 NA
ATOM     25  C   UNL A   1      33.549  16.556  23.755  1.00  0.00     0.111 A 
ENDBRANCH  19  20
ENDBRANCH  18  19
ENDBRANCH  16  18
ENDBRANCH   8  14
ENDBRANCH   4   7
ENDBRANCH   2   3
ENDBRANCH   1   2
BRANCH   1  26
ATOM     26  C   UNL A   1      35.558  21.262  25.188  1.00  0.00     0.023 C 
BRANCH  26  27
ATOM     27  C   UNL A   1      36.986  21.770  25.004  1.00  0.00     0.116 C 
BRANCH  27  28
ATOM     28  N   UNL A   1      38.012  20.794  25.339  1.00  0.00    -0.352 N 
ATOM     29  C   UNL A   1      39.210  20.950  26.002  1.00  0.00     0.251 C 
ATOM     30  H   UNL A   1      37.821  19.874  25.045  1.00  0.00     0.163 HD
ATOM     31  O   UNL A   1      39.957  19.981  26.124  1.00  0.00    -0.269 OA
BRANCH  29  32
ATOM     32  C   UNL A   1      39.626  22.275  26.518  1.00  0.00     0.039 A 
ATOM     33  C   UNL A   1      40.664  22.334  27.454  1.00  0.00     0.014 A 
ATOM     34  C   UNL A   1      39.023  23.455  26.078  1.00  0.00     0.014 A 
ATOM     35  C   UNL A   1      41.169  23.573  27.859  1.00  0.00     0.010 A 
ATOM     36  C   UNL A   1      39.576  24.688  26.422  1.00  0.00     0.010 A 
ATOM     37  C   UNL A   1      40.669  24.760  27.299  1.00  0.00    -0.014 A 
BRANCH  37  38
ATOM     38  C   UNL A   1      41.300  26.076  27.585  1.00  0.00     0.031 A 
ATOM     39  C   UNL A   1      42.687  26.382  27.095  1.00  0.00     0.074 A 
ATOM     40  C   UNL A   1      40.644  26.977  28.345  1.00  0.00     0.049 A 
ATOM     41  N   UNL A   1      43.437  27.429  27.332  1.00  0.00    -0.248 NA
ATOM     42  C   UNL A   1      43.324  25.364  26.248  1.00  0.00     0.031 C 
ATOM     43  C   UNL A   1      39.302  26.796  28.903  1.00  0.00     0.029 A 
ATOM     44  N   UNL A   1      41.016  28.225  28.779  1.00  0.00    -0.354 N 
ATOM     45  C   UNL A   1      44.636  27.194  26.669  1.00  0.00     0.074 A 
ATOM     46  C   UNL A   1      44.532  25.879  26.070  1.00  0.00     0.031 C 
ATOM     47  C   UNL A   1      38.946  27.908  29.564  1.00  0.00     0.029 A 
ATOM     48  C   UNL A   1      40.051  28.860  29.526  1.00  0.00     0.049 A 
ATOM     49  H   UNL A   1      41.891  28.627  28.576  1.00  0.00     0.167 HD
ATOM     50  C   UNL A   1      45.714  28.008  26.551  1.00  0.00     0.034 A 
ATOM     51  C   UNL A   1      40.053  30.071  30.119  1.00  0.00     0.034 A 
ATOM     52  C   UNL A   1      45.806  29.320  27.144  1.00  0.00     0.049 A 
ATOM     53  C   UNL A   1      41.277  30.939  30.015  1.00  0.00     0.074 A 
ATOM     54  C   UNL A   1      46.846  30.231  27.066  1.00  0.00     0.029 A 
ATOM     55  N   UNL A   1      44.821  29.910  27.925  1.00  0.00    -0.354 N 
ATOM     56  N   UNL A   1      42.411  30.693  29.404  1.00  0.00    -0.248 NA
ATOM     57  C   UNL A   1      41.221  32.245  30.687  1.00  0.00     0.031 C 
ATOM     58  C   UNL A   1      46.513  31.348  27.839  1.00  0.00     0.029 A 
ATOM     59  C   UNL A   1      45.237  31.164  28.349  1.00  0.00     0.049 A 
ATOM     60  H   UNL A   1      43.954  29.499  28.145  1.00  0.00     0.167 HD
ATOM     61  C   UNL A   1      43.197  31.823  29.598  1.00  0.00     0.074 A 
ATOM     62  C   UNL A   1      42.410  32.751  30.385  1.00  0.00     0.031 C 
ATOM     63  C   UNL A   1      44.454  32.071  29.151  1.00  0.00     0.034 A 
BRANCH  50  64
ATOM     64  C   UNL A   1      46.886  27.486  25.758  1.00  0.00     0.023 A 
ATOM     65  C   UNL A   1      47.119  27.905  24.436  1.00  0.00     0.031 A 
ATOM     66  C   UNL A   1      47.766  26.544  26.317  1.00  0.00     0.131 A 
ATOM     67  C   UNL A   1      48.162  27.331  23.694  1.00  0.00     0.055 A 
ATOM     68  C   UNL A   1      48.848  26.032  25.598  1.00  0.00     0.041 A 
ATOM     69  F   UNL A   1      47.581  26.094  27.568  1.00  0.00    -0.206 F 
ATOM     70  C   UNL A   1      49.043  26.415  24.274  1.00  0.00     0.022 A 
BRANCH  67  71
ATOM     71  S   UNL A   1      48.275  27.711  21.925  1.00  0.00     0.124 S 
ATOM     72  O   UNL A   1      46.991  28.363  21.682  1.00  0.00    -0.237 OA
ATOM     73  O   UNL A   1      49.451  28.570  21.859  1.00  0.00    -0.237 OA
ATOM     74  O   UNL A   1      48.428  26.397  21.303  1.00  0.00    -0.744 OA
ENDBRANCH  67  71
ENDBRANCH  50  64
BRANCH  51  75
ATOM     75  C   UNL A   1      38.846  30.531  30.855  1.00  0.00     0.023 A 
ATOM     76  C   UNL A   1      37.798  31.171  30.177  1.00  0.00     0.031 A 
ATOM     77  C   UNL A   1      38.708  30.306  32.235  1.00  0.00     0.131 A 
ATOM     78  C   UNL A   1      36.656  31.577  30.884  1.00  0.00     0.055 A 
ATOM     79  C   UNL A   1      37.559  30.685  32.929  1.00  0.00     0.041 A 
ATOM     80  F   UNL A   1      39.679  29.683  32.921  1.00  0.00    -0.206 F 
ATOM     81  C   UNL A   1      36.525  31.327  32.253  1.00  0.00     0.022 A 
BRANCH  78  82
ATOM     82  S   UNL A   1      35.332  32.433  29.988  1.00  0.00     0.124 S 
ATOM     83  O   UNL A   1      35.039  31.487  28.916  1.00  0.00    -0.237 OA
ATOM     84  O   UNL A   1      34.306  32.576  31.016  1.00  0.00    -0.237 OA
ATOM     85  O   UNL A   1      35.962  33.682  29.566  1.00  0.00    -0.744 OA
ENDBRANCH  78  82
ENDBRANCH  51  75
BRANCH  63  86
ATOM     86  C   UNL A   1      45.048  33.417  29.474  1.00  0.00     0.023 A 
ATOM     87  C   UNL A   1      44.844  34.531  28.644  1.00  0.00     0.031 A 
ATOM     88  C   UNL A   1      45.798  33.589  30.650  1.00  0.00     0.131 A 
ATOM     89  C   UNL A   1      45.408  35.769  28.991  1.00  0.00     0.055 A 
ATOM     90  C   UNL A   1      46.320  34.832  31.012  1.00  0.00     0.041 A 
ATOM     91  F   UNL A   1      46.020  32.554  31.476  1.00  0.00    -0.206 F 
ATOM     92  C   UNL A   1      46.130  35.929  30.177  1.00  0.00     0.022 A 
BRANCH  89  93
ATOM     93  S   UNL A   1      45.212  37.170  27.854  1.00  0.00     0.124 S 
ATOM     94  O   UNL A   1      44.200  36.669  26.929  1.00  0.00    -0.237 OA
ATOM     95  O   UNL A   1      44.784  38.243  28.746  1.00  0.00    -0.237 OA
ATOM     96  O   UNL A   1      46.547  37.337  27.283  1.00  0.00    -0.744 OA
ENDBRANCH  89  93
ENDBRANCH  63  86
ENDBRANCH  37  38
ENDBRANCH  29  32
ENDBRANCH  27  28
ENDBRANCH  26  27
ENDBRANCH   1  26
TORSDOF 18
ENDMDL
MODEL 3
REMARK VINA RESULT:     -12.1      2.501      4.836
REMARK SMILES O=C(CCc1cccnc1)Nc1cccc(F)c1C(=O)NCCCCNC(=O)c1ccc(-c2c3nc(c(-c4cc(S(=O)(=O)[O-])ccc4F)c4ccc([nH]4)c(-c4cc(S(=O)(=O)[O-])ccc4F)c4nc(c(-c5cc(S(=O)(=O)[O-])ccc5F)c5ccc2[nH]5)C=C4)C=C3)cc1
REMARK SMILES IDX 23 1 22 2 21 3 19 4 20 5 18 7 12 8 13 9 14 10 16 11 15 12
REMARK SMILES IDX 17 13 11 14 1 15 2 16 3 18 4 19 5 20 6 21 10 22 7 23 9 24
REMARK SMILES IDX 8 25 24 26 25 27 26 28 27 29 28 31 29 32 30 33 91 34 31 35
REMARK SMILES IDX 90 36 32 37 33 38 34 39 84 40 35 41 89 42 83 43 85 44 36 45
REMARK SMILES IDX 88 46 82 47 81 48 37 50 69 51 49 52 68 53 50 54 53 55 67 56
REMARK SMILES IDX 86 57 51 58 52 59 66 61 87 62 54 63 38 64 39 65 47 66 40 67
REMARK SMILES IDX 46 68 48 69 45 70 41 71 42 72 43 73 44 74 70 75 71 76 79 77
REMARK SMILES IDX 72 78 78 79 80 80 77 81 73 82 74 83 75 84 76 85 55 86 56 87
REMARK SMILES IDX 64 88 57 89 63 90 65 91 62 92 58 93 59 94 60 95 61 96
REMARK H PARENT 21 6 11 17 26 30 85 49 53 60
REMARK Flexibility Score: inf
ROOT
ATOM      1  C   UNL A   1      34.746  22.146  23.679  1.00  0.00     0.023 C 
ENDROOT
BRANCH   1   2
ATOM      2  C   UNL A   1      34.139  23.368  22.992  1.00  0.00     0.116 C 
BRANCH   2   3
ATOM      3  N   UNL A   1      34.404  24.647  23.631  1.00  0.00    -0.352 N 
ATOM      4  C   UNL A   1      33.889  25.214  24.778  1.00  0.00     0.256 C 
ATOM      5  O   UNL A   1      34.384  26.275  25.166  1.00  0.00    -0.269 OA
ATOM      6  H   UNL A   1      35.066  25.206  23.162  1.00  0.00     0.163 HD
BRANCH   4   7
ATOM      7  C   UNL A   1      32.704  24.684  25.514  1.00  0.00     0.099 A 
ATOM      8  C   UNL A   1      31.412  25.222  25.265  1.00  0.00     0.056 A 
ATOM      9  C   UNL A   1      30.293  24.588  25.830  1.00  0.00     0.027 A 
ATOM     10  C   UNL A   1      30.434  23.508  26.700  1.00  0.00     0.005 A 
ATOM     11  C   UNL A   1      32.823  23.692  26.491  1.00  0.00     0.138 A 
ATOM     12  C   UNL A   1      31.704  23.087  27.061  1.00  0.00     0.040 A 
ATOM     13  F   UNL A   1      34.019  23.315  26.964  1.00  0.00    -0.206 F 
BRANCH   8  14
ATOM     14  N   UNL A   1      31.259  26.393  24.467  1.00  0.00    -0.325 N 
ATOM     15  O   UNL A   1      31.416  28.057  26.067  1.00  0.00    -0.275 OA
ATOM     16  C   UNL A   1      31.221  27.700  24.904  1.00  0.00     0.224 C 
ATOM     17  H   UNL A   1      31.171  26.253  23.496  1.00  0.00     0.169 HD
BRANCH  16  18
ATOM     18  C   UNL A   1      30.846  28.771  23.884  1.00  0.00     0.105 C 
BRANCH  18  19
ATOM     19  C   UNL A   1      29.377  28.995  23.544  1.00  0.00     0.047 C 
BRANCH  19  20
ATOM     20  C   UNL A   1      28.990  30.307  22.909  1.00  0.00    -0.029 A 
ATOM     21  C   UNL A   1      28.906  31.526  23.588  1.00  0.00     0.007 A 
ATOM     22  C   UNL A   1      28.667  30.321  21.552  1.00  0.00     0.114 A 
ATOM     23  C   UNL A   1      28.467  32.665  22.919  1.00  0.00     0.020 A 
ATOM     24  N   UNL A   1      28.261  31.416  20.872  1.00  0.00    -0.264 NA
ATOM     25  C   UNL A   1      28.155  32.560  21.575  1.00  0.00     0.111 A 
ENDBRANCH  19  20
ENDBRANCH  18  19
ENDBRANCH  16  18
ENDBRANCH   8  14
ENDBRANCH   4   7
ENDBRANCH   2   3
ENDBRANCH   1   2
BRANCH   1  26
ATOM     26  C   UNL A   1      36.226  22.199  24.045  1.00  0.00     0.023 C 
BRANCH  26  27
ATOM     27  C   UNL A   1      36.612  21.764  25.456  1.00  0.00     0.116 C 
BRANCH  27  28
ATOM     28  N   UNL A   1      37.703  20.803  25.506  1.00  0.00    -0.352 N 
ATOM     29  C   UNL A   1      38.997  20.943  25.956  1.00  0.00     0.251 C 
ATOM     30  H   UNL A   1      37.480  19.906  25.164  1.00  0.00     0.163 HD
ATOM     31  O   UNL A   1      39.775  19.998  25.848  1.00  0.00    -0.269 OA
BRANCH  29  32
ATOM     32  C   UNL A   1      39.472  22.232  26.514  1.00  0.00     0.039 A 
ATOM     33  C   UNL A   1      40.498  22.213  27.464  1.00  0.00     0.014 A 
ATOM     34  C   UNL A   1      38.935  23.453  26.098  1.00  0.00     0.014 A 
ATOM     35  C   UNL A   1      41.058  23.413  27.909  1.00  0.00     0.010 A 
ATOM     36  C   UNL A   1      39.543  24.646  26.483  1.00  0.00     0.010 A 
ATOM     37  C   UNL A   1      40.627  24.639  27.376  1.00  0.00    -0.014 A 
BRANCH  37  38
ATOM     38  C   UNL A   1      41.318  25.914  27.706  1.00  0.00     0.031 A 
ATOM     39  C   UNL A   1      40.607  26.992  28.474  1.00  0.00     0.074 A 
ATOM     40  C   UNL A   1      42.572  26.127  27.257  1.00  0.00     0.049 A 
ATOM     41  N   UNL A   1      41.009  28.204  28.766  1.00  0.00    -0.248 NA
ATOM     42  C   UNL A   1      39.256  26.673  28.957  1.00  0.00     0.031 C 
ATOM     43  C   UNL A   1      43.366  25.172  26.480  1.00  0.00     0.029 A 
ATOM     44  N   UNL A   1      43.399  27.214  27.388  1.00  0.00    -0.354 N 
ATOM     45  C   UNL A   1      39.960  28.795  29.460  1.00  0.00     0.074 A 
ATOM     46  C   UNL A   1      38.883  27.826  29.493  1.00  0.00     0.031 C 
ATOM     47  C   UNL A   1      44.578  25.696  26.245  1.00  0.00     0.029 A 
ATOM     48  C   UNL A   1      44.633  27.043  26.804  1.00  0.00     0.049 A 
ATOM     49  H   UNL A   1      43.135  28.039  27.855  1.00  0.00     0.167 HD
ATOM     50  C   UNL A   1      39.906  30.021  30.035  1.00  0.00     0.034 A 
ATOM     51  C   UNL A   1      45.690  27.875  26.722  1.00  0.00     0.034 A 
ATOM     52  C   UNL A   1      40.987  30.976  30.004  1.00  0.00     0.049 A 
ATOM     53  C   UNL A   1      45.594  29.249  27.326  1.00  0.00     0.074 A 
ATOM     54  C   UNL A   1      41.040  32.237  30.575  1.00  0.00     0.029 A 
ATOM     55  N   UNL A   1      42.206  30.778  29.369  1.00  0.00    -0.354 N 
ATOM     56  N   UNL A   1      44.587  29.801  27.959  1.00  0.00    -0.248 NA
ATOM     57  C   UNL A   1      46.776  30.112  27.199  1.00  0.00     0.031 C 
ATOM     58  C   UNL A   1      42.268  32.820  30.242  1.00  0.00     0.029 A 
ATOM     59  C   UNL A   1      43.009  31.899  29.518  1.00  0.00     0.049 A 
ATOM     60  H   UNL A   1      42.463  29.960  28.885  1.00  0.00     0.167 HD
ATOM     61  C   UNL A   1      45.021  31.069  28.326  1.00  0.00     0.074 A 
ATOM     62  C   UNL A   1      46.380  31.204  27.842  1.00  0.00     0.031 C 
ATOM     63  C   UNL A   1      44.354  32.030  29.013  1.00  0.00     0.034 A 
BRANCH  50  64
ATOM     64  C   UNL A   1      38.624  30.398  30.735  1.00  0.00     0.023 A 
ATOM     65  C   UNL A   1      37.588  31.061  30.055  1.00  0.00     0.031 A 
ATOM     66  C   UNL A   1      38.444  30.114  32.099  1.00  0.00     0.131 A 
ATOM     67  C   UNL A   1      36.448  31.481  30.756  1.00  0.00     0.055 A 
ATOM     68  C   UNL A   1      37.274  30.468  32.774  1.00  0.00     0.041 A 
ATOM     69  F   UNL A   1      39.408  29.500  32.803  1.00  0.00    -0.206 F 
ATOM     70  C   UNL A   1      36.273  31.168  32.105  1.00  0.00     0.022 A 
BRANCH  67  71
ATOM     71  S   UNL A   1      35.253  32.547  29.905  1.00  0.00     0.124 S 
ATOM     72  O   UNL A   1      36.130  33.549  29.304  1.00  0.00    -0.237 OA
ATOM     73  O   UNL A   1      34.608  31.624  28.978  1.00  0.00    -0.237 OA
ATOM     74  O   UNL A   1      34.403  33.039  30.987  1.00  0.00    -0.744 OA
ENDBRANCH  67  71
ENDBRANCH  50  64
BRANCH  51  75
ATOM     75  C   UNL A   1      46.933  27.419  26.046  1.00  0.00     0.023 A 
ATOM     76  C   UNL A   1      47.965  26.816  26.780  1.00  0.00     0.031 A 
ATOM     77  C   UNL A   1      47.093  27.549  24.655  1.00  0.00     0.131 A 
ATOM     78  C   UNL A   1      49.120  26.370  26.120  1.00  0.00     0.055 A 
ATOM     79  C   UNL A   1      48.231  27.079  24.000  1.00  0.00     0.041 A 
ATOM     80  F   UNL A   1      46.124  28.106  23.911  1.00  0.00    -0.206 F 
ATOM     81  C   UNL A   1      49.254  26.487  24.734  1.00  0.00     0.022 A 
BRANCH  78  82
ATOM     82  S   UNL A   1      50.452  25.624  27.101  1.00  0.00     0.124 S 
ATOM     83  O   UNL A   1      51.489  25.430  26.093  1.00  0.00    -0.237 OA
ATOM     84  O   UNL A   1      50.713  26.656  28.100  1.00  0.00    -0.237 OA
ATOM     85  O   UNL A   1      49.846  24.401  27.619  1.00  0.00    -0.744 OA
ENDBRANCH  78  82
ENDBRANCH  51  75
BRANCH  63  86
ATOM     86  C   UNL A   1      45.098  33.305  29.317  1.00  0.00     0.023 A 
ATOM     87  C   UNL A   1      45.025  34.421  28.468  1.00  0.00     0.031 A 
ATOM     88  C   UNL A   1      45.858  33.410  30.495  1.00  0.00     0.131 A 
ATOM     89  C   UNL A   1      45.726  35.591  28.798  1.00  0.00     0.055 A 
ATOM     90  C   UNL A   1      46.516  34.591  30.840  1.00  0.00     0.041 A 
ATOM     91  F   UNL A   1      45.956  32.370  31.339  1.00  0.00    -0.206 F 
ATOM     92  C   UNL A   1      46.457  35.688  29.986  1.00  0.00     0.022 A 
BRANCH  89  93
ATOM     93  S   UNL A   1      45.696  36.986  27.638  1.00  0.00     0.124 S 
ATOM     94  O   UNL A   1      46.812  36.666  26.753  1.00  0.00    -0.237 OA
ATOM     95  O   UNL A   1      44.365  36.880  27.049  1.00  0.00    -0.237 OA
ATOM     96  O   UNL A   1      45.900  38.151  28.497  1.00  0.00    -0.744 OA
ENDBRANCH  89  93
ENDBRANCH  63  86
ENDBRANCH  37  38
ENDBRANCH  29  32
ENDBRANCH  27  28
ENDBRANCH  26  27
ENDBRANCH   1  26
TORSDOF 18
ENDMDL
