MODEL 1
REMARK VINA RESULT:     -12.5      0.000      0.000
REMARK SMILES O=C(NCCCCNC(=O)c1cccc(CSc2nc(-c3ccccc3)n[nH]2)c1)c1ccc(-c2c3nc(c(-c4cc(S(=O)(=O)[O-])ccc4F)c4ccc([nH]4)c(-c4cc(S(=O)(=O)[O-])ccc4F)c4nc(c(-c5cc(S(=O)(=O)[O-])ccc5F)c5ccc2[nH]5)C=C4)C=C3)cc1
REMARK SMILES IDX 6 1 5 2 4 3 3 4 1 5 2 6 30 8 31 9 92 10 32 11 91 12 33 13
REMARK SMILES IDX 34 14 35 15 85 16 36 17 90 18 84 19 86 20 37 21 89 22 83 23
REMARK SMILES IDX 82 24 38 26 70 27 50 28 69 29 51 30 54 31 68 32 87 33 52 34
REMARK SMILES IDX 53 35 67 37 88 38 55 39 39 40 40 41 48 42 41 43 47 44 49 45
REMARK SMILES IDX 46 46 42 47 43 48 44 49 45 50 71 51 72 52 80 53 73 54 79 55
REMARK SMILES IDX 81 56 78 57 74 58 75 59 76 60 77 61 56 62 57 63 65 64 58 65
REMARK SMILES IDX 64 66 66 67 63 68 59 69 60 70 61 71 62 72 7 73 8 74 9 75
REMARK SMILES IDX 10 77 11 78 12 79 29 80 13 81 15 82 14 83 16 84 17 85 18 86
REMARK SMILES IDX 19 87 28 88 20 89 27 90 21 92 22 93 26 94 23 95 25 96 24 97
REMARK H PARENT 3 7 86 25 54 36 8 76 28 91
REMARK Flexibility Score: inf
ROOT
ATOM      1  C   UNL A   1      31.558  30.918  25.938  1.00  0.00     0.023 C 
ENDROOT
BRANCH   1   2
ATOM      2  C   UNL A   1      31.389  32.104  26.885  1.00  0.00     0.023 C 
BRANCH   2   3
ATOM      3  C   UNL A   1      32.674  32.841  27.236  1.00  0.00     0.116 C 
BRANCH   3   4
ATOM      4  N   UNL A   1      32.434  34.200  27.697  1.00  0.00    -0.352 N 
ATOM      5  O   UNL A   1      32.626  35.978  29.071  1.00  0.00    -0.269 OA
ATOM      6  C   UNL A   1      33.058  34.885  28.712  1.00  0.00     0.251 C 
ATOM      7  H   UNL A   1      31.731  34.695  27.217  1.00  0.00     0.163 HD
BRANCH   6   8
ATOM      8  C   UNL A   1      34.239  34.293  29.378  1.00  0.00     0.039 A 
ATOM      9  C   UNL A   1      34.084  33.475  30.500  1.00  0.00     0.014 A 
ATOM     10  C   UNL A   1      35.515  34.552  28.870  1.00  0.00     0.014 A 
ATOM     11  C   UNL A   1      35.203  33.014  31.181  1.00  0.00     0.010 A 
ATOM     12  C   UNL A   1      36.638  34.019  29.510  1.00  0.00     0.010 A 
ATOM     13  C   UNL A   1      36.492  33.255  30.678  1.00  0.00    -0.014 A 
BRANCH  13  14
ATOM     14  C   UNL A   1      37.656  32.597  31.323  1.00  0.00     0.031 A 
ATOM     15  C   UNL A   1      38.374  31.453  30.666  1.00  0.00     0.074 A 
ATOM     16  C   UNL A   1      38.058  33.061  32.524  1.00  0.00     0.049 A 
ATOM     17  N   UNL A   1      39.396  30.766  31.107  1.00  0.00    -0.248 NA
ATOM     18  C   UNL A   1      37.882  31.018  29.350  1.00  0.00     0.031 C 
ATOM     19  C   UNL A   1      37.421  34.163  33.254  1.00  0.00     0.029 A 
ATOM     20  N   UNL A   1      39.089  32.680  33.342  1.00  0.00    -0.354 N 
ATOM     21  C   UNL A   1      39.661  29.806  30.137  1.00  0.00     0.074 A 
ATOM     22  C   UNL A   1      38.679  29.990  29.088  1.00  0.00     0.031 C 
ATOM     23  C   UNL A   1      38.091  34.385  34.392  1.00  0.00     0.029 A 
ATOM     24  C   UNL A   1      39.156  33.398  34.514  1.00  0.00     0.049 A 
ATOM     25  H   UNL A   1      39.722  31.962  33.113  1.00  0.00     0.167 HD
ATOM     26  C   UNL A   1      40.634  28.861  30.131  1.00  0.00     0.034 A 
ATOM     27  C   UNL A   1      39.959  33.256  35.586  1.00  0.00     0.034 A 
ATOM     28  C   UNL A   1      41.611  28.705  31.184  1.00  0.00     0.049 A 
ATOM     29  C   UNL A   1      40.998  32.169  35.564  1.00  0.00     0.074 A 
ATOM     30  C   UNL A   1      42.687  27.836  31.237  1.00  0.00     0.029 A 
ATOM     31  N   UNL A   1      41.622  29.419  32.375  1.00  0.00    -0.354 N 
ATOM     32  N   UNL A   1      41.270  31.308  34.611  1.00  0.00    -0.248 NA
ATOM     33  C   UNL A   1      41.839  32.033  36.759  1.00  0.00     0.031 C 
ATOM     34  C   UNL A   1      43.299  27.968  32.488  1.00  0.00     0.029 A 
ATOM     35  C   UNL A   1      42.652  28.973  33.189  1.00  0.00     0.049 A 
ATOM     36  H   UNL A   1      40.989  30.137  32.609  1.00  0.00     0.167 HD
ATOM     37  C   UNL A   1      42.320  30.534  35.091  1.00  0.00     0.074 A 
ATOM     38  C   UNL A   1      42.653  31.053  36.401  1.00  0.00     0.031 C 
ATOM     39  C   UNL A   1      42.950  29.484  34.506  1.00  0.00     0.034 A 
BRANCH  26  40
ATOM     40  C   UNL A   1      40.675  27.887  28.980  1.00  0.00     0.023 A 
ATOM     41  C   UNL A   1      41.589  28.017  27.922  1.00  0.00     0.031 A 
ATOM     42  C   UNL A   1      39.806  26.779  28.972  1.00  0.00     0.131 A 
ATOM     43  C   UNL A   1      41.593  27.071  26.881  1.00  0.00     0.055 A 
ATOM     44  C   UNL A   1      39.854  25.813  27.966  1.00  0.00     0.041 A 
ATOM     45  F   UNL A   1      38.901  26.615  29.949  1.00  0.00    -0.206 F 
ATOM     46  C   UNL A   1      40.748  25.959  26.909  1.00  0.00     0.022 A 
BRANCH  43  47
ATOM     47  S   UNL A   1      42.666  27.355  25.447  1.00  0.00     0.124 S 
ATOM     48  O   UNL A   1      42.104  28.585  24.895  1.00  0.00    -0.237 OA
ATOM     49  O   UNL A   1      43.985  27.473  26.057  1.00  0.00    -0.237 OA
ATOM     50  O   UNL A   1      42.465  26.162  24.626  1.00  0.00    -0.744 OA
ENDBRANCH  43  47
ENDBRANCH  26  40
BRANCH  27  51
ATOM     51  C   UNL A   1      39.769  34.114  36.790  1.00  0.00     0.023 A 
ATOM     52  C   UNL A   1      39.227  33.594  37.975  1.00  0.00     0.031 A 
ATOM     53  C   UNL A   1      40.077  35.487  36.753  1.00  0.00     0.131 A 
ATOM     54  C   UNL A   1      38.960  34.450  39.055  1.00  0.00     0.055 A 
ATOM     55  C   UNL A   1      39.870  36.321  37.853  1.00  0.00     0.041 A 
ATOM     56  F   UNL A   1      40.598  36.039  35.645  1.00  0.00    -0.206 F 
ATOM     57  C   UNL A   1      39.292  35.806  39.008  1.00  0.00     0.022 A 
BRANCH  54  58
ATOM     58  S   UNL A   1      38.064  33.785  40.485  1.00  0.00     0.124 S 
ATOM     59  O   UNL A   1      39.076  32.934  41.101  1.00  0.00    -0.237 OA
ATOM     60  O   UNL A   1      37.717  35.001  41.214  1.00  0.00    -0.237 OA
ATOM     61  O   UNL A   1      36.937  33.079  39.880  1.00  0.00    -0.744 OA
ENDBRANCH  54  58
ENDBRANCH  27  51
BRANCH  39  62
ATOM     62  C   UNL A   1      44.070  28.849  35.289  1.00  0.00     0.023 A 
ATOM     63  C   UNL A   1      43.818  27.840  36.236  1.00  0.00     0.031 A 
ATOM     64  C   UNL A   1      45.396  29.278  35.113  1.00  0.00     0.131 A 
ATOM     65  C   UNL A   1      44.869  27.336  37.015  1.00  0.00     0.055 A 
ATOM     66  C   UNL A   1      46.448  28.728  35.847  1.00  0.00     0.041 A 
ATOM     67  F   UNL A   1      45.691  30.241  34.224  1.00  0.00    -0.206 F 
ATOM     68  C   UNL A   1      46.185  27.760  36.813  1.00  0.00     0.022 A 
BRANCH  65  69
ATOM     69  S   UNL A   1      44.482  26.177  38.355  1.00  0.00     0.124 S 
ATOM     70  O   UNL A   1      44.952  24.910  37.804  1.00  0.00    -0.237 OA
ATOM     71  O   UNL A   1      45.258  26.715  39.467  1.00  0.00    -0.237 OA
ATOM     72  O   UNL A   1      43.032  26.291  38.500  1.00  0.00    -0.744 OA
ENDBRANCH  65  69
ENDBRANCH  39  62
ENDBRANCH  13  14
ENDBRANCH   6   8
ENDBRANCH   3   4
ENDBRANCH   2   3
ENDBRANCH   1   2
BRANCH   1  73
ATOM     73  C   UNL A   1      32.636  29.914  26.339  1.00  0.00     0.116 C 
BRANCH  73  74
ATOM     74  N   UNL A   1      33.464  29.500  25.217  1.00  0.00    -0.352 N 
ATOM     75  C   UNL A   1      33.261  28.487  24.314  1.00  0.00     0.251 C 
ATOM     76  H   UNL A   1      34.288  30.023  25.085  1.00  0.00     0.163 HD
ATOM     77  O   UNL A   1      34.141  28.169  23.521  1.00  0.00    -0.269 OA
BRANCH  75  78
ATOM     78  C   UNL A   1      31.981  27.752  24.315  1.00  0.00     0.040 A 
ATOM     79  C   UNL A   1      30.917  28.250  23.560  1.00  0.00     0.014 A 
ATOM     80  C   UNL A   1      31.832  26.579  25.062  1.00  0.00     0.018 A 
ATOM     81  C   UNL A   1      29.723  27.535  23.499  1.00  0.00     0.001 A 
ATOM     82  C   UNL A   1      30.647  25.839  24.981  1.00  0.00    -0.037 A 
ATOM     83  C   UNL A   1      29.596  26.327  24.189  1.00  0.00     0.004 A 
BRANCH  82  84
ATOM     84  C   UNL A   1      30.527  24.538  25.738  1.00  0.00     0.113 C 
BRANCH  84  85
ATOM     85  S   UNL A   1      32.053  24.080  26.596  1.00  0.00    -0.082 SA
BRANCH  85  86
ATOM     86  C   UNL A   1      32.678  22.892  25.523  1.00  0.00     0.184 A 
ATOM     87  N   UNL A   1      32.414  21.610  25.464  1.00  0.00    -0.201 NA
ATOM     88  N   UNL A   1      33.611  23.219  24.599  1.00  0.00    -0.254 N 
ATOM     89  C   UNL A   1      33.311  21.162  24.510  1.00  0.00     0.182 A 
ATOM     90  N   UNL A   1      34.071  22.131  23.968  1.00  0.00    -0.153 NA
ATOM     91  H   UNL A   1      33.913  24.139  24.413  1.00  0.00     0.192 HD
BRANCH  89  92
ATOM     92  C   UNL A   1      33.468  19.755  24.174  1.00  0.00     0.021 A 
ATOM     93  C   UNL A   1      34.594  19.050  24.625  1.00  0.00     0.012 A 
ATOM     94  C   UNL A   1      32.512  19.090  23.398  1.00  0.00     0.012 A 
ATOM     95  C   UNL A   1      34.762  17.702  24.308  1.00  0.00     0.001 A 
ATOM     96  C   UNL A   1      32.690  17.743  23.066  1.00  0.00     0.001 A 
ATOM     97  C   UNL A   1      33.812  17.050  23.523  1.00  0.00     0.000 A 
ENDBRANCH  89  92
ENDBRANCH  85  86
ENDBRANCH  84  85
ENDBRANCH  82  84
ENDBRANCH  75  78
ENDBRANCH  73  74
ENDBRANCH   1  73
TORSDOF 18
ENDMDL
MODEL 2
REMARK VINA RESULT:     -12.4      1.692      2.157
REMARK SMILES O=C(NCCCCNC(=O)c1cccc(CSc2nc(-c3ccccc3)n[nH]2)c1)c1ccc(-c2c3nc(c(-c4cc(S(=O)(=O)[O-])ccc4F)c4ccc([nH]4)c(-c4cc(S(=O)(=O)[O-])ccc4F)c4nc(c(-c5cc(S(=O)(=O)[O-])ccc5F)c5ccc2[nH]5)C=C4)C=C3)cc1
REMARK SMILES IDX 6 1 5 2 4 3 3 4 1 5 2 6 30 8 31 9 92 10 32 11 91 12 33 13
REMARK SMILES IDX 34 14 35 15 85 16 36 17 90 18 84 19 86 20 37 21 89 22 83 23
REMARK SMILES IDX 82 24 38 26 70 27 50 28 69 29 51 30 54 31 68 32 87 33 52 34
REMARK SMILES IDX 53 35 67 37 88 38 55 39 39 40 40 41 48 42 41 43 47 44 49 45
REMARK SMILES IDX 46 46 42 47 43 48 44 49 45 50 71 51 72 52 80 53 73 54 79 55
REMARK SMILES IDX 81 56 78 57 74 58 75 59 76 60 77 61 56 62 57 63 65 64 58 65
REMARK SMILES IDX 64 66 66 67 63 68 59 69 60 70 61 71 62 72 7 73 8 74 9 75
REMARK SMILES IDX 10 77 11 78 12 79 29 80 13 81 15 82 14 83 16 84 17 85 18 86
REMARK SMILES IDX 19 87 28 88 20 89 27 90 21 92 22 93 26 94 23 95 25 96 24 97
REMARK H PARENT 3 7 86 25 54 36 8 76 28 91
REMARK Flexibility Score: inf
ROOT
ATOM      1  C   UNL A   1      31.428  30.247  26.463  1.00  0.00     0.023 C 
ENDROOT
BRANCH   1   2
ATOM      2  C   UNL A   1      31.390  31.771  26.547  1.00  0.00     0.023 C 
BRANCH   2   3
ATOM      3  C   UNL A   1      32.714  32.434  26.900  1.00  0.00     0.116 C 
BRANCH   3   4
ATOM      4  N   UNL A   1      32.544  33.771  27.449  1.00  0.00    -0.352 N 
ATOM      5  O   UNL A   1      32.851  35.452  28.921  1.00  0.00    -0.269 OA
ATOM      6  C   UNL A   1      33.227  34.368  28.482  1.00  0.00     0.251 C 
ATOM      7  H   UNL A   1      31.847  34.321  27.024  1.00  0.00     0.163 HD
BRANCH   6   8
ATOM      8  C   UNL A   1      34.404  33.691  29.070  1.00  0.00     0.039 A 
ATOM      9  C   UNL A   1      35.695  34.148  28.794  1.00  0.00     0.014 A 
ATOM     10  C   UNL A   1      34.213  32.594  29.914  1.00  0.00     0.014 A 
ATOM     11  C   UNL A   1      36.795  33.440  29.263  1.00  0.00     0.010 A 
ATOM     12  C   UNL A   1      35.321  31.931  30.452  1.00  0.00     0.010 A 
ATOM     13  C   UNL A   1      36.621  32.342  30.121  1.00  0.00    -0.014 A 
BRANCH  13  14
ATOM     14  C   UNL A   1      37.813  31.720  30.751  1.00  0.00     0.031 A 
ATOM     15  C   UNL A   1      38.651  30.709  30.020  1.00  0.00     0.074 A 
ATOM     16  C   UNL A   1      38.130  32.094  32.007  1.00  0.00     0.049 A 
ATOM     17  N   UNL A   1      39.711  30.068  30.438  1.00  0.00    -0.248 NA
ATOM     18  C   UNL A   1      38.246  30.368  28.648  1.00  0.00     0.031 C 
ATOM     19  C   UNL A   1      37.374  33.062  32.811  1.00  0.00     0.029 A 
ATOM     20  N   UNL A   1      39.160  31.719  32.831  1.00  0.00    -0.354 N 
ATOM     21  C   UNL A   1      40.093  29.234  29.393  1.00  0.00     0.074 A 
ATOM     22  C   UNL A   1      39.138  29.440  28.324  1.00  0.00     0.031 C 
ATOM     23  C   UNL A   1      37.981  33.224  33.994  1.00  0.00     0.029 A 
ATOM     24  C   UNL A   1      39.122  32.320  34.068  1.00  0.00     0.049 A 
ATOM     25  H   UNL A   1      39.860  31.082  32.562  1.00  0.00     0.167 HD
ATOM     26  C   UNL A   1      41.143  28.378  29.341  1.00  0.00     0.034 A 
ATOM     27  C   UNL A   1      39.894  32.139  35.157  1.00  0.00     0.034 A 
ATOM     28  C   UNL A   1      42.090  28.199  30.416  1.00  0.00     0.049 A 
ATOM     29  C   UNL A   1      41.023  31.148  35.077  1.00  0.00     0.074 A 
ATOM     30  C   UNL A   1      43.235  27.419  30.434  1.00  0.00     0.029 A 
ATOM     31  N   UNL A   1      41.997  28.788  31.670  1.00  0.00    -0.354 N 
ATOM     32  N   UNL A   1      41.402  30.411  34.059  1.00  0.00    -0.248 NA
ATOM     33  C   UNL A   1      41.828  30.963  36.290  1.00  0.00     0.031 C 
ATOM     34  C   UNL A   1      43.787  27.476  31.718  1.00  0.00     0.029 A 
ATOM     35  C   UNL A   1      43.031  28.350  32.483  1.00  0.00     0.049 A 
ATOM     36  H   UNL A   1      41.297  29.426  31.943  1.00  0.00     0.167 HD
ATOM     37  C   UNL A   1      42.497  29.681  34.509  1.00  0.00     0.074 A 
ATOM     38  C   UNL A   1      42.736  30.093  35.877  1.00  0.00     0.031 C 
ATOM     39  C   UNL A   1      43.236  28.750  33.854  1.00  0.00     0.034 A 
BRANCH  26  40
ATOM     40  C   UNL A   1      41.310  27.529  28.104  1.00  0.00     0.023 A 
ATOM     41  C   UNL A   1      40.966  26.168  28.079  1.00  0.00     0.031 A 
ATOM     42  C   UNL A   1      41.780  28.116  26.913  1.00  0.00     0.131 A 
ATOM     43  C   UNL A   1      41.128  25.428  26.894  1.00  0.00     0.055 A 
ATOM     44  C   UNL A   1      41.884  27.390  25.726  1.00  0.00     0.041 A 
ATOM     45  F   UNL A   1      42.139  29.409  26.885  1.00  0.00    -0.206 F 
ATOM     46  C   UNL A   1      41.562  26.036  25.713  1.00  0.00     0.022 A 
BRANCH  43  47
ATOM     47  S   UNL A   1      40.836  23.639  26.935  1.00  0.00     0.124 S 
ATOM     48  O   UNL A   1      41.186  23.313  28.316  1.00  0.00    -0.237 OA
ATOM     49  O   UNL A   1      39.422  23.541  26.594  1.00  0.00    -0.237 OA
ATOM     50  O   UNL A   1      41.757  23.117  25.927  1.00  0.00    -0.744 OA
ENDBRANCH  43  47
ENDBRANCH  26  40
BRANCH  27  51
ATOM     51  C   UNL A   1      39.587  32.854  36.428  1.00  0.00     0.023 A 
ATOM     52  C   UNL A   1      38.690  32.320  37.365  1.00  0.00     0.031 A 
ATOM     53  C   UNL A   1      40.148  34.117  36.698  1.00  0.00     0.131 A 
ATOM     54  C   UNL A   1      38.339  33.067  38.500  1.00  0.00     0.055 A 
ATOM     55  C   UNL A   1      39.845  34.827  37.861  1.00  0.00     0.041 A 
ATOM     56  F   UNL A   1      41.012  34.676  35.836  1.00  0.00    -0.206 F 
ATOM     57  C   UNL A   1      38.922  34.309  38.762  1.00  0.00     0.022 A 
BRANCH  54  58
ATOM     58  S   UNL A   1      37.019  32.440  39.574  1.00  0.00     0.124 S 
ATOM     59  O   UNL A   1      35.842  32.605  38.727  1.00  0.00    -0.237 OA
ATOM     60  O   UNL A   1      37.452  31.067  39.812  1.00  0.00    -0.237 OA
ATOM     61  O   UNL A   1      37.080  33.323  40.736  1.00  0.00    -0.744 OA
ENDBRANCH  54  58
ENDBRANCH  27  51
BRANCH  39  62
ATOM     62  C   UNL A   1      44.376  28.135  34.623  1.00  0.00     0.023 A 
ATOM     63  C   UNL A   1      44.224  26.912  35.301  1.00  0.00     0.031 A 
ATOM     64  C   UNL A   1      45.616  28.790  34.707  1.00  0.00     0.131 A 
ATOM     65  C   UNL A   1      45.275  26.412  36.083  1.00  0.00     0.055 A 
ATOM     66  C   UNL A   1      46.679  28.257  35.436  1.00  0.00     0.041 A 
ATOM     67  F   UNL A   1      45.813  29.962  34.081  1.00  0.00    -0.206 F 
ATOM     68  C   UNL A   1      46.508  27.068  36.140  1.00  0.00     0.022 A 
BRANCH  65  69
ATOM     69  S   UNL A   1      44.982  24.936  37.094  1.00  0.00     0.124 S 
ATOM     70  O   UNL A   1      44.034  24.190  36.273  1.00  0.00    -0.237 OA
ATOM     71  O   UNL A   1      46.319  24.361  37.204  1.00  0.00    -0.237 OA
ATOM     72  O   UNL A   1      44.436  25.475  38.338  1.00  0.00    -0.744 OA
ENDBRANCH  65  69
ENDBRANCH  39  62
ENDBRANCH  13  14
ENDBRANCH   6   8
ENDBRANCH   3   4
ENDBRANCH   2   3
ENDBRANCH   1   2
BRANCH   1  73
ATOM     73  C   UNL A   1      31.957  29.681  25.148  1.00  0.00     0.116 C 
BRANCH  73  74
ATOM     74  N   UNL A   1      30.988  29.776  24.066  1.00  0.00    -0.352 N 
ATOM     75  C   UNL A   1      30.777  28.924  23.011  1.00  0.00     0.251 C 
ATOM     76  H   UNL A   1      30.399  30.564  24.096  1.00  0.00     0.163 HD
ATOM     77  O   UNL A   1      30.022  29.235  22.095  1.00  0.00    -0.269 OA
BRANCH  75  78
ATOM     78  C   UNL A   1      31.486  27.631  22.962  1.00  0.00     0.040 A 
ATOM     79  C   UNL A   1      32.830  27.613  22.580  1.00  0.00     0.014 A 
ATOM     80  C   UNL A   1      30.827  26.441  23.286  1.00  0.00     0.018 A 
ATOM     81  C   UNL A   1      33.532  26.410  22.589  1.00  0.00     0.001 A 
ATOM     82  C   UNL A   1      31.532  25.233  23.329  1.00  0.00    -0.037 A 
ATOM     83  C   UNL A   1      32.893  25.230  22.981  1.00  0.00     0.004 A 
BRANCH  82  84
ATOM     84  C   UNL A   1      30.823  23.969  23.750  1.00  0.00     0.113 C 
BRANCH  84  85
ATOM     85  S   UNL A   1      31.321  23.397  25.394  1.00  0.00    -0.082 SA
BRANCH  85  86
ATOM     86  C   UNL A   1      32.222  21.992  24.983  1.00  0.00     0.184 A 
ATOM     87  N   UNL A   1      31.838  20.741  24.961  1.00  0.00    -0.201 NA
ATOM     88  N   UNL A   1      33.534  22.084  24.662  1.00  0.00    -0.254 N 
ATOM     89  C   UNL A   1      33.018  20.068  24.698  1.00  0.00     0.182 A 
ATOM     90  N   UNL A   1      34.083  20.871  24.521  1.00  0.00    -0.153 NA
ATOM     91  H   UNL A   1      34.022  22.932  24.547  1.00  0.00     0.192 HD
BRANCH  89  92
ATOM     92  C   UNL A   1      33.112  18.617  24.685  1.00  0.00     0.021 A 
ATOM     93  C   UNL A   1      32.701  17.878  25.805  1.00  0.00     0.012 A 
ATOM     94  C   UNL A   1      33.616  17.939  23.568  1.00  0.00     0.012 A 
ATOM     95  C   UNL A   1      32.789  16.486  25.810  1.00  0.00     0.001 A 
ATOM     96  C   UNL A   1      33.720  16.544  23.581  1.00  0.00     0.001 A 
ATOM     97  C   UNL A   1      33.304  15.819  24.699  1.00  0.00     0.000 A 
ENDBRANCH  89  92
ENDBRANCH  85  86
ENDBRANCH  84  85
ENDBRANCH  82  84
ENDBRANCH  75  78
ENDBRANCH  73  74
ENDBRANCH   1  73
TORSDOF 18
ENDMDL
MODEL 3
REMARK VINA RESULT:     -12.1      2.894      4.613
REMARK SMILES O=C(NCCCCNC(=O)c1cccc(CSc2nc(-c3ccccc3)n[nH]2)c1)c1ccc(-c2c3nc(c(-c4cc(S(=O)(=O)[O-])ccc4F)c4ccc([nH]4)c(-c4cc(S(=O)(=O)[O-])ccc4F)c4nc(c(-c5cc(S(=O)(=O)[O-])ccc5F)c5ccc2[nH]5)C=C4)C=C3)cc1
REMARK SMILES IDX 6 1 5 2 4 3 3 4 1 5 2 6 30 8 31 9 92 10 32 11 91 12 33 13
REMARK SMILES IDX 34 14 35 15 85 16 36 17 90 18 84 19 86 20 37 21 89 22 83 23
REMARK SMILES IDX 82 24 38 26 70 27 50 28 69 29 51 30 54 31 68 32 87 33 52 34
REMARK SMILES IDX 53 35 67 37 88 38 55 39 39 40 40 41 48 42 41 43 47 44 49 45
REMARK SMILES IDX 46 46 42 47 43 48 44 49 45 50 71 51 72 52 80 53 73 54 79 55
REMARK SMILES IDX 81 56 78 57 74 58 75 59 76 60 77 61 56 62 57 63 65 64 58 65
REMARK SMILES IDX 64 66 66 67 63 68 59 69 60 70 61 71 62 72 7 73 8 74 9 75
REMARK SMILES IDX 10 77 11 78 12 79 29 80 13 81 15 82 14 83 16 84 17 85 18 86
REMARK SMILES IDX 19 87 28 88 20 89 27 90 21 92 22 93 26 94 23 95 25 96 24 97
REMARK H PARENT 3 7 86 25 54 36 8 76 28 91
REMARK Flexibility Score: inf
ROOT
ATOM      1  C   UNL A   1      31.484  30.341  25.927  1.00  0.00     0.023 C 
ENDROOT
BRANCH   1   2
ATOM      2  C   UNL A   1      31.321  31.718  26.567  1.00  0.00     0.023 C 
BRANCH   2   3
ATOM      3  C   UNL A   1      32.619  32.396  26.983  1.00  0.00     0.116 C 
BRANCH   3   4
ATOM      4  N   UNL A   1      32.418  33.765  27.432  1.00  0.00    -0.352 N 
ATOM      5  O   UNL A   1      32.680  35.555  28.779  1.00  0.00    -0.269 OA
ATOM      6  C   UNL A   1      33.081  34.450  28.423  1.00  0.00     0.251 C 
ATOM      7  H   UNL A   1      31.714  34.269  26.963  1.00  0.00     0.163 HD
BRANCH   6   8
ATOM      8  C   UNL A   1      34.266  33.841  29.067  1.00  0.00     0.039 A 
ATOM      9  C   UNL A   1      34.117  32.782  29.966  1.00  0.00     0.014 A 
ATOM     10  C   UNL A   1      35.539  34.330  28.763  1.00  0.00     0.014 A 
ATOM     11  C   UNL A   1      35.225  32.291  30.647  1.00  0.00     0.010 A 
ATOM     12  C   UNL A   1      36.662  33.779  29.388  1.00  0.00     0.010 A 
ATOM     13  C   UNL A   1      36.512  32.763  30.345  1.00  0.00    -0.014 A 
BRANCH  13  14
ATOM     14  C   UNL A   1      37.689  32.094  30.953  1.00  0.00     0.031 A 
ATOM     15  C   UNL A   1      38.489  31.071  30.196  1.00  0.00     0.074 A 
ATOM     16  C   UNL A   1      38.028  32.433  32.213  1.00  0.00     0.049 A 
ATOM     17  N   UNL A   1      39.533  30.390  30.593  1.00  0.00    -0.248 NA
ATOM     18  C   UNL A   1      38.063  30.769  28.821  1.00  0.00     0.031 C 
ATOM     19  C   UNL A   1      37.309  33.409  33.041  1.00  0.00     0.029 A 
ATOM     20  N   UNL A   1      39.052  32.012  33.020  1.00  0.00    -0.354 N 
ATOM     21  C   UNL A   1      39.880  29.565  29.529  1.00  0.00     0.074 A 
ATOM     22  C   UNL A   1      38.923  29.820  28.473  1.00  0.00     0.031 C 
ATOM     23  C   UNL A   1      37.930  33.530  34.221  1.00  0.00     0.029 A 
ATOM     24  C   UNL A   1      39.043  32.590  34.269  1.00  0.00     0.049 A 
ATOM     25  H   UNL A   1      39.731  31.358  32.734  1.00  0.00     0.167 HD
ATOM     26  C   UNL A   1      40.903  28.677  29.451  1.00  0.00     0.034 A 
ATOM     27  C   UNL A   1      39.819  32.365  35.347  1.00  0.00     0.034 A 
ATOM     28  C   UNL A   1      41.853  28.449  30.515  1.00  0.00     0.049 A 
ATOM     29  C   UNL A   1      40.916  31.342  35.238  1.00  0.00     0.074 A 
ATOM     30  C   UNL A   1      42.973  27.635  30.507  1.00  0.00     0.029 A 
ATOM     31  N   UNL A   1      41.788  29.018  31.780  1.00  0.00    -0.354 N 
ATOM     32  N   UNL A   1      41.264  30.613  34.204  1.00  0.00    -0.248 NA
ATOM     33  C   UNL A   1      41.725  31.110  36.441  1.00  0.00     0.031 C 
ATOM     34  C   UNL A   1      43.537  27.651  31.788  1.00  0.00     0.029 A 
ATOM     35  C   UNL A   1      42.815  28.533  32.575  1.00  0.00     0.049 A 
ATOM     36  H   UNL A   1      41.110  29.671  32.071  1.00  0.00     0.167 HD
ATOM     37  C   UNL A   1      42.339  29.842  34.630  1.00  0.00     0.074 A 
ATOM     38  C   UNL A   1      42.602  30.220  36.003  1.00  0.00     0.031 C 
ATOM     39  C   UNL A   1      43.044  28.901  33.952  1.00  0.00     0.034 A 
BRANCH  26  40
ATOM     40  C   UNL A   1      41.033  27.848  28.198  1.00  0.00     0.023 A 
ATOM     41  C   UNL A   1      40.527  26.541  28.109  1.00  0.00     0.031 A 
ATOM     42  C   UNL A   1      41.637  28.403  27.053  1.00  0.00     0.131 A 
ATOM     43  C   UNL A   1      40.663  25.818  26.912  1.00  0.00     0.055 A 
ATOM     44  C   UNL A   1      41.717  27.701  25.850  1.00  0.00     0.041 A 
ATOM     45  F   UNL A   1      42.153  29.641  27.086  1.00  0.00    -0.206 F 
ATOM     46  C   UNL A   1      41.233  26.398  25.776  1.00  0.00     0.022 A 
BRANCH  43  47
ATOM     47  S   UNL A   1      40.152  24.079  26.878  1.00  0.00     0.124 S 
ATOM     48  O   UNL A   1      38.876  24.158  26.170  1.00  0.00    -0.237 OA
ATOM     49  O   UNL A   1      41.245  23.441  26.155  1.00  0.00    -0.237 OA
ATOM     50  O   UNL A   1      40.050  23.723  28.293  1.00  0.00    -0.744 OA
ENDBRANCH  43  47
ENDBRANCH  26  40
BRANCH  27  51
ATOM     51  C   UNL A   1      39.545  33.066  36.634  1.00  0.00     0.023 A 
ATOM     52  C   UNL A   1      38.741  32.481  37.623  1.00  0.00     0.031 A 
ATOM     53  C   UNL A   1      40.040  34.362  36.869  1.00  0.00     0.131 A 
ATOM     54  C   UNL A   1      38.413  33.209  38.777  1.00  0.00     0.055 A 
ATOM     55  C   UNL A   1      39.764  35.057  38.047  1.00  0.00     0.041 A 
ATOM     56  F   UNL A   1      40.815  34.971  35.956  1.00  0.00    -0.206 F 
ATOM     57  C   UNL A   1      38.931  34.486  39.003  1.00  0.00     0.022 A 
BRANCH  54  58
ATOM     58  S   UNL A   1      37.202  32.505  39.929  1.00  0.00     0.124 S 
ATOM     59  O   UNL A   1      36.112  32.141  39.030  1.00  0.00    -0.237 OA
ATOM     60  O   UNL A   1      37.950  31.397  40.512  1.00  0.00    -0.237 OA
ATOM     61  O   UNL A   1      36.917  33.612  40.840  1.00  0.00    -0.744 OA
ENDBRANCH  54  58
ENDBRANCH  27  51
BRANCH  39  62
ATOM     62  C   UNL A   1      44.171  28.236  34.699  1.00  0.00     0.023 A 
ATOM     63  C   UNL A   1      43.936  27.146  35.555  1.00  0.00     0.031 A 
ATOM     64  C   UNL A   1      45.486  28.717  34.580  1.00  0.00     0.131 A 
ATOM     65  C   UNL A   1      44.992  26.609  36.306  1.00  0.00     0.055 A 
ATOM     66  C   UNL A   1      46.544  28.139  35.284  1.00  0.00     0.041 A 
ATOM     67  F   UNL A   1      45.764  29.758  33.779  1.00  0.00    -0.206 F 
ATOM     68  C   UNL A   1      46.297  27.087  36.162  1.00  0.00     0.022 A 
BRANCH  65  69
ATOM     69  S   UNL A   1      44.621  25.333  37.539  1.00  0.00     0.124 S 
ATOM     70  O   UNL A   1      43.270  24.932  37.164  1.00  0.00    -0.237 OA
ATOM     71  O   UNL A   1      45.669  24.346  37.294  1.00  0.00    -0.237 OA
ATOM     72  O   UNL A   1      44.728  26.043  38.812  1.00  0.00    -0.744 OA
ENDBRANCH  65  69
ENDBRANCH  39  62
ENDBRANCH  13  14
ENDBRANCH   6   8
ENDBRANCH   3   4
ENDBRANCH   2   3
ENDBRANCH   1   2
BRANCH   1  73
ATOM     73  C   UNL A   1      32.847  30.074  25.296  1.00  0.00     0.116 C 
BRANCH  73  74
ATOM     74  N   UNL A   1      33.597  29.039  25.992  1.00  0.00    -0.352 N 
ATOM     75  C   UNL A   1      33.729  27.708  25.689  1.00  0.00     0.251 C 
ATOM     76  H   UNL A   1      34.079  29.338  26.797  1.00  0.00     0.163 HD
ATOM     77  O   UNL A   1      34.270  26.937  26.474  1.00  0.00    -0.269 OA
BRANCH  75  78
ATOM     78  C   UNL A   1      33.189  27.190  24.417  1.00  0.00     0.040 A 
ATOM     79  C   UNL A   1      33.940  27.353  23.250  1.00  0.00     0.014 A 
ATOM     80  C   UNL A   1      31.945  26.552  24.375  1.00  0.00     0.018 A 
ATOM     81  C   UNL A   1      33.475  26.814  22.052  1.00  0.00     0.001 A 
ATOM     82  C   UNL A   1      31.486  25.981  23.183  1.00  0.00    -0.037 A 
ATOM     83  C   UNL A   1      32.265  26.115  22.023  1.00  0.00     0.004 A 
BRANCH  82  84
ATOM     84  C   UNL A   1      30.174  25.234  23.170  1.00  0.00     0.113 C 
BRANCH  84  85
ATOM     85  S   UNL A   1      29.066  25.736  24.510  1.00  0.00    -0.082 SA
BRANCH  85  86
ATOM     86  C   UNL A   1      28.341  27.133  23.817  1.00  0.00     0.184 A 
ATOM     87  N   UNL A   1      28.911  28.155  23.231  1.00  0.00    -0.201 NA
ATOM     88  N   UNL A   1      27.000  27.313  23.871  1.00  0.00    -0.254 N 
ATOM     89  C   UNL A   1      27.845  29.011  23.015  1.00  0.00     0.182 A 
ATOM     90  N   UNL A   1      26.656  28.522  23.411  1.00  0.00    -0.153 NA
ATOM     91  H   UNL A   1      26.361  26.641  24.205  1.00  0.00     0.192 HD
BRANCH  89  92
ATOM     92  C   UNL A   1      28.006  30.351  22.472  1.00  0.00     0.021 A 
ATOM     93  C   UNL A   1      28.216  31.436  23.337  1.00  0.00     0.012 A 
ATOM     94  C   UNL A   1      27.949  30.580  21.092  1.00  0.00     0.012 A 
ATOM     95  C   UNL A   1      28.368  32.728  22.833  1.00  0.00     0.001 A 
ATOM     96  C   UNL A   1      28.084  31.878  20.589  1.00  0.00     0.001 A 
ATOM     97  C   UNL A   1      28.296  32.949  21.458  1.00  0.00     0.000 A 
ENDBRANCH  89  92
ENDBRANCH  85  86
ENDBRANCH  84  85
ENDBRANCH  82  84
ENDBRANCH  75  78
ENDBRANCH  73  74
ENDBRANCH   1  73
TORSDOF 18
ENDMDL
