MODEL 1
REMARK VINA RESULT:     -12.6      0.000      0.000
REMARK SMILES Cc1ccc(C)c(/C=C2\SC(=S)N(CC(=O)NCCCCNC(=O)c3ccc(-c4c5nc(c(-c6cc(S(=O)(=O)[O-])ccc6F)c6ccc([nH]6)c(-c6cc(S(=O)(=O)[O-])ccc6F)c6nc(c(-c7cc(S(=O)(=O)[O-])ccc7F)c7ccc4[nH]7)C=C6)C=C5)cc3)C2=O)c1
REMARK SMILES IDX 20 1 19 2 18 3 17 4 15 5 16 6 14 8 13 9 8 10 9 11 10 12
REMARK SMILES IDX 88 13 11 14 89 15 12 16 7 17 1 18 2 19 3 20 90 21 4 22 5 23
REMARK SMILES IDX 6 24 21 25 22 26 23 27 24 29 25 30 26 31 87 32 27 33 86 34
REMARK SMILES IDX 28 35 29 36 30 37 80 38 31 39 85 40 79 41 81 42 32 43 84 44
REMARK SMILES IDX 78 45 77 46 33 48 65 49 45 50 64 51 46 52 49 53 63 54 82 55
REMARK SMILES IDX 47 56 48 57 62 59 83 60 50 61 34 62 35 63 43 64 36 65 42 66
REMARK SMILES IDX 44 67 41 68 37 69 38 70 39 71 40 72 66 73 67 74 75 75 68 76
REMARK SMILES IDX 74 77 76 78 73 79 69 80 70 81 71 82 72 83 51 84 52 85 60 86
REMARK SMILES IDX 53 87 59 88 61 89 58 90 54 91 55 92 56 93 57 94
REMARK H PARENT 17 7 22 28 81 47 49 58
REMARK Flexibility Score: inf
ROOT
ATOM      1  C   UNL A   1      33.210  30.324  27.464  1.00  0.00     0.023 C 
ENDROOT
BRANCH   1   2
ATOM      2  C   UNL A   1      31.824  30.338  26.797  1.00  0.00     0.023 C 
BRANCH   2   3
ATOM      3  C   UNL A   1      31.724  30.100  25.287  1.00  0.00     0.116 C 
BRANCH   3   4
ATOM      4  N   UNL A   1      32.977  29.756  24.653  1.00  0.00    -0.355 N 
ATOM      5  C   UNL A   1      33.216  28.876  23.637  1.00  0.00     0.240 C 
ATOM      6  O   UNL A   1      34.278  29.004  23.021  1.00  0.00    -0.273 OA
ATOM      7  H   UNL A   1      33.769  30.222  25.005  1.00  0.00     0.163 HD
BRANCH   5   8
ATOM      8  C   UNL A   1      32.162  27.856  23.183  1.00  0.00     0.227 C 
BRANCH   8   9
ATOM      9  N   UNL A   1      32.397  26.513  23.712  1.00  0.00    -0.283 N 
ATOM     10  C   UNL A   1      34.106  23.381  23.153  1.00  0.00     0.029 C 
ATOM     11  C   UNL A   1      33.338  24.357  23.658  1.00  0.00     0.081 C 
ATOM     12  S   UNL A   1      32.487  24.383  25.147  1.00  0.00    -0.054 SA
ATOM     13  C   UNL A   1      33.155  25.646  22.947  1.00  0.00     0.266 C 
ATOM     14  C   UNL A   1      31.825  25.984  24.849  1.00  0.00     0.148 C 
ATOM     15  O   UNL A   1      33.626  25.875  21.839  1.00  0.00    -0.268 OA
ATOM     16  S   UNL A   1      30.669  26.648  25.847  1.00  0.00    -0.052 S 
BRANCH  10  17
ATOM     17  C   UNL A   1      34.404  22.099  23.806  1.00  0.00    -0.021 A 
ATOM     18  C   UNL A   1      32.474  18.928  24.699  1.00  0.00     0.044 C 
ATOM     19  C   UNL A   1      33.593  19.916  24.554  1.00  0.00    -0.051 A 
ATOM     20  C   UNL A   1      34.847  19.651  25.105  1.00  0.00     0.004 A 
ATOM     21  C   UNL A   1      33.390  21.129  23.888  1.00  0.00     0.011 A 
ATOM     22  C   UNL A   1      35.877  20.588  24.994  1.00  0.00     0.004 A 
ATOM     23  C   UNL A   1      35.672  21.819  24.350  1.00  0.00    -0.044 A 
ATOM     24  C   UNL A   1      36.830  22.780  24.303  1.00  0.00     0.045 C 
ENDBRANCH  10  17
ENDBRANCH   8   9
ENDBRANCH   5   8
ENDBRANCH   3   4
ENDBRANCH   2   3
ENDBRANCH   1   2
BRANCH   1  25
ATOM     25  C   UNL A   1      34.155  31.514  27.247  1.00  0.00     0.116 C 
BRANCH  25  26
ATOM     26  N   UNL A   1      34.410  32.316  28.457  1.00  0.00    -0.352 N 
ATOM     27  C   UNL A   1      35.168  32.080  29.599  1.00  0.00     0.251 C 
ATOM     28  H   UNL A   1      33.954  33.189  28.457  1.00  0.00     0.163 HD
ATOM     29  O   UNL A   1      34.910  32.715  30.624  1.00  0.00    -0.269 OA
BRANCH  27  30
ATOM     30  C   UNL A   1      36.288  31.110  29.599  1.00  0.00     0.039 A 
ATOM     31  C   UNL A   1      36.153  29.722  29.530  1.00  0.00     0.014 A 
ATOM     32  C   UNL A   1      37.555  31.629  29.756  1.00  0.00     0.014 A 
ATOM     33  C   UNL A   1      37.304  28.925  29.641  1.00  0.00     0.010 A 
ATOM     34  C   UNL A   1      38.687  30.900  29.589  1.00  0.00     0.010 A 
ATOM     35  C   UNL A   1      38.566  29.537  29.699  1.00  0.00    -0.014 A 
BRANCH  35  36
ATOM     36  C   UNL A   1      39.827  28.832  29.841  1.00  0.00     0.031 A 
ATOM     37  C   UNL A   1      40.190  28.531  31.233  1.00  0.00     0.074 A 
ATOM     38  C   UNL A   1      40.455  28.199  28.823  1.00  0.00     0.049 A 
ATOM     39  N   UNL A   1      41.083  29.124  31.944  1.00  0.00    -0.248 NA
ATOM     40  C   UNL A   1      39.355  27.579  31.979  1.00  0.00     0.031 C 
ATOM     41  C   UNL A   1      40.016  28.045  27.429  1.00  0.00     0.029 A 
ATOM     42  N   UNL A   1      41.583  27.438  28.867  1.00  0.00    -0.354 N 
ATOM     43  C   UNL A   1      41.109  28.439  33.147  1.00  0.00     0.074 A 
ATOM     44  C   UNL A   1      39.875  27.699  33.203  1.00  0.00     0.031 C 
ATOM     45  C   UNL A   1      40.757  27.088  26.824  1.00  0.00     0.029 A 
ATOM     46  C   UNL A   1      41.814  26.673  27.728  1.00  0.00     0.049 A 
ATOM     47  H   UNL A   1      42.188  27.432  29.643  1.00  0.00     0.167 HD
ATOM     48  C   UNL A   1      42.261  28.328  33.863  1.00  0.00     0.034 A 
ATOM     49  C   UNL A   1      42.791  25.744  27.554  1.00  0.00     0.034 A 
ATOM     50  C   UNL A   1      43.282  29.218  33.340  1.00  0.00     0.049 A 
ATOM     51  C   UNL A   1      43.865  26.066  28.529  1.00  0.00     0.074 A 
ATOM     52  C   UNL A   1      43.344  30.578  33.094  1.00  0.00     0.029 A 
ATOM     53  N   UNL A   1      44.299  28.666  32.589  1.00  0.00    -0.354 N 
ATOM     54  N   UNL A   1      44.568  27.165  28.486  1.00  0.00    -0.248 NA
ATOM     55  C   UNL A   1      43.847  25.403  29.825  1.00  0.00     0.031 C 
ATOM     56  C   UNL A   1      44.032  30.696  31.848  1.00  0.00     0.029 A 
ATOM     57  C   UNL A   1      44.424  29.418  31.444  1.00  0.00     0.049 A 
ATOM     58  H   UNL A   1      44.838  27.878  32.829  1.00  0.00     0.167 HD
ATOM     59  C   UNL A   1      44.696  27.564  29.807  1.00  0.00     0.074 A 
ATOM     60  C   UNL A   1      44.341  26.382  30.589  1.00  0.00     0.031 C 
ATOM     61  C   UNL A   1      44.794  28.885  30.144  1.00  0.00     0.034 A 
BRANCH  48  62
ATOM     62  C   UNL A   1      42.594  27.193  34.798  1.00  0.00     0.023 A 
ATOM     63  C   UNL A   1      43.406  26.166  34.284  1.00  0.00     0.031 A 
ATOM     64  C   UNL A   1      41.981  26.923  36.043  1.00  0.00     0.131 A 
ATOM     65  C   UNL A   1      43.510  24.929  34.938  1.00  0.00     0.055 A 
ATOM     66  C   UNL A   1      42.153  25.719  36.731  1.00  0.00     0.041 A 
ATOM     67  F   UNL A   1      41.110  27.756  36.622  1.00  0.00    -0.206 F 
ATOM     68  C   UNL A   1      42.895  24.699  36.164  1.00  0.00     0.022 A 
BRANCH  65  69
ATOM     69  S   UNL A   1      44.308  23.566  34.054  1.00  0.00     0.124 S 
ATOM     70  O   UNL A   1      44.876  22.796  35.155  1.00  0.00    -0.237 OA
ATOM     71  O   UNL A   1      43.178  22.961  33.358  1.00  0.00    -0.237 OA
ATOM     72  O   UNL A   1      45.280  24.243  33.199  1.00  0.00    -0.744 OA
ENDBRANCH  65  69
ENDBRANCH  48  62
BRANCH  49  73
ATOM     73  C   UNL A   1      42.720  24.472  26.785  1.00  0.00     0.023 A 
ATOM     74  C   UNL A   1      43.769  24.016  25.959  1.00  0.00     0.031 A 
ATOM     75  C   UNL A   1      41.682  23.552  27.056  1.00  0.00     0.131 A 
ATOM     76  C   UNL A   1      43.751  22.697  25.446  1.00  0.00     0.055 A 
ATOM     77  C   UNL A   1      41.665  22.254  26.539  1.00  0.00     0.041 A 
ATOM     78  F   UNL A   1      40.689  23.855  27.906  1.00  0.00    -0.206 F 
ATOM     79  C   UNL A   1      42.706  21.817  25.738  1.00  0.00     0.022 A 
BRANCH  76  80
ATOM     80  S   UNL A   1      45.156  22.066  24.469  1.00  0.00     0.124 S 
ATOM     81  O   UNL A   1      46.106  21.679  25.506  1.00  0.00    -0.237 OA
ATOM     82  O   UNL A   1      44.548  20.981  23.709  1.00  0.00    -0.237 OA
ATOM     83  O   UNL A   1      45.560  23.221  23.667  1.00  0.00    -0.744 OA
ENDBRANCH  76  80
ENDBRANCH  49  73
BRANCH  61  84
ATOM     84  C   UNL A   1      45.081  29.893  29.044  1.00  0.00     0.023 A 
ATOM     85  C   UNL A   1      46.373  30.294  28.632  1.00  0.00     0.031 A 
ATOM     86  C   UNL A   1      43.986  30.375  28.303  1.00  0.00     0.131 A 
ATOM     87  C   UNL A   1      46.529  31.154  27.526  1.00  0.00     0.055 A 
ATOM     88  C   UNL A   1      44.146  31.207  27.194  1.00  0.00     0.041 A 
ATOM     89  F   UNL A   1      42.734  30.011  28.623  1.00  0.00    -0.206 F 
ATOM     90  C   UNL A   1      45.420  31.605  26.806  1.00  0.00     0.022 A 
BRANCH  87  91
ATOM     91  S   UNL A   1      48.187  31.708  27.009  1.00  0.00     0.124 S 
ATOM     92  O   UNL A   1      48.801  32.157  28.254  1.00  0.00    -0.237 OA
ATOM     93  O   UNL A   1      48.754  30.500  26.416  1.00  0.00    -0.237 OA
ATOM     94  O   UNL A   1      47.903  32.779  26.050  1.00  0.00    -0.744 OA
ENDBRANCH  87  91
ENDBRANCH  61  84
ENDBRANCH  35  36
ENDBRANCH  27  30
ENDBRANCH  25  26
ENDBRANCH   1  25
TORSDOF 16
ENDMDL
MODEL 2
REMARK VINA RESULT:     -12.6      2.723      6.990
REMARK SMILES Cc1ccc(C)c(/C=C2\SC(=S)N(CC(=O)NCCCCNC(=O)c3ccc(-c4c5nc(c(-c6cc(S(=O)(=O)[O-])ccc6F)c6ccc([nH]6)c(-c6cc(S(=O)(=O)[O-])ccc6F)c6nc(c(-c7cc(S(=O)(=O)[O-])ccc7F)c7ccc4[nH]7)C=C6)C=C5)cc3)C2=O)c1
REMARK SMILES IDX 20 1 19 2 18 3 17 4 15 5 16 6 14 8 13 9 8 10 9 11 10 12
REMARK SMILES IDX 88 13 11 14 89 15 12 16 7 17 1 18 2 19 3 20 90 21 4 22 5 23
REMARK SMILES IDX 6 24 21 25 22 26 23 27 24 29 25 30 26 31 87 32 27 33 86 34
REMARK SMILES IDX 28 35 29 36 30 37 80 38 31 39 85 40 79 41 81 42 32 43 84 44
REMARK SMILES IDX 78 45 77 46 33 48 65 49 45 50 64 51 46 52 49 53 63 54 82 55
REMARK SMILES IDX 47 56 48 57 62 59 83 60 50 61 34 62 35 63 43 64 36 65 42 66
REMARK SMILES IDX 44 67 41 68 37 69 38 70 39 71 40 72 66 73 67 74 75 75 68 76
REMARK SMILES IDX 74 77 76 78 73 79 69 80 70 81 71 82 72 83 51 84 52 85 60 86
REMARK SMILES IDX 53 87 59 88 61 89 58 90 54 91 55 92 56 93 57 94
REMARK H PARENT 17 7 22 28 81 47 49 58
REMARK Flexibility Score: inf
ROOT
ATOM      1  C   UNL A   1      34.479  30.250  26.953  1.00  0.00     0.023 C 
ENDROOT
BRANCH   1   2
ATOM      2  C   UNL A   1      32.950  30.170  27.107  1.00  0.00     0.023 C 
BRANCH   2   3
ATOM      3  C   UNL A   1      32.099  29.810  25.885  1.00  0.00     0.116 C 
BRANCH   3   4
ATOM      4  N   UNL A   1      32.842  29.708  24.650  1.00  0.00    -0.355 N 
ATOM      5  C   UNL A   1      32.733  28.783  23.652  1.00  0.00     0.240 C 
ATOM      6  O   UNL A   1      33.199  29.087  22.550  1.00  0.00    -0.273 OA
ATOM      7  H   UNL A   1      33.524  30.404  24.509  1.00  0.00     0.163 HD
BRANCH   5   8
ATOM      8  C   UNL A   1      31.948  27.477  23.839  1.00  0.00     0.227 C 
BRANCH   8   9
ATOM      9  N   UNL A   1      32.785  26.283  23.721  1.00  0.00    -0.283 N 
ATOM     10  C   UNL A   1      35.008  24.053  25.491  1.00  0.00     0.029 C 
ATOM     11  C   UNL A   1      34.272  24.657  24.547  1.00  0.00     0.081 C 
ATOM     12  S   UNL A   1      33.983  24.150  22.933  1.00  0.00    -0.054 SA
ATOM     13  C   UNL A   1      33.533  25.913  24.823  1.00  0.00     0.266 C 
ATOM     14  C   UNL A   1      32.997  25.559  22.568  1.00  0.00     0.148 C 
ATOM     15  O   UNL A   1      33.600  26.510  25.891  1.00  0.00    -0.268 OA
ATOM     16  S   UNL A   1      32.475  25.878  21.019  1.00  0.00    -0.052 S 
BRANCH  10  17
ATOM     17  C   UNL A   1      35.721  22.777  25.339  1.00  0.00    -0.021 A 
ATOM     18  C   UNL A   1      34.776  19.128  24.738  1.00  0.00     0.044 C 
ATOM     19  C   UNL A   1      35.594  20.364  24.963  1.00  0.00    -0.051 A 
ATOM     20  C   UNL A   1      36.979  20.280  25.108  1.00  0.00     0.004 A 
ATOM     21  C   UNL A   1      34.979  21.617  25.055  1.00  0.00     0.011 A 
ATOM     22  C   UNL A   1      37.733  21.431  25.347  1.00  0.00     0.004 A 
ATOM     23  C   UNL A   1      37.120  22.689  25.468  1.00  0.00    -0.044 A 
ATOM     24  C   UNL A   1      38.008  23.870  25.755  1.00  0.00     0.045 C 
ENDBRANCH  10  17
ENDBRANCH   8   9
ENDBRANCH   5   8
ENDBRANCH   3   4
ENDBRANCH   2   3
ENDBRANCH   1   2
BRANCH   1  25
ATOM     25  C   UNL A   1      35.368  29.415  27.884  1.00  0.00     0.116 C 
BRANCH  25  26
ATOM     26  N   UNL A   1      35.524  29.974  29.239  1.00  0.00    -0.352 N 
ATOM     27  C   UNL A   1      36.405  29.692  30.277  1.00  0.00     0.251 C 
ATOM     28  H   UNL A   1      34.876  30.685  29.450  1.00  0.00     0.163 HD
ATOM     29  O   UNL A   1      36.087  30.007  31.427  1.00  0.00    -0.269 OA
BRANCH  27  30
ATOM     30  C   UNL A   1      37.718  29.054  30.027  1.00  0.00     0.039 A 
ATOM     31  C   UNL A   1      38.213  27.936  30.702  1.00  0.00     0.014 A 
ATOM     32  C   UNL A   1      38.539  29.668  29.105  1.00  0.00     0.014 A 
ATOM     33  C   UNL A   1      39.521  27.504  30.425  1.00  0.00     0.010 A 
ATOM     34  C   UNL A   1      39.680  29.108  28.631  1.00  0.00     0.010 A 
ATOM     35  C   UNL A   1      40.252  28.125  29.400  1.00  0.00    -0.014 A 
BRANCH  35  36
ATOM     36  C   UNL A   1      41.616  27.793  29.032  1.00  0.00     0.031 A 
ATOM     37  C   UNL A   1      41.736  26.582  28.208  1.00  0.00     0.074 A 
ATOM     38  C   UNL A   1      42.651  28.661  29.119  1.00  0.00     0.049 A 
ATOM     39  N   UNL A   1      42.151  25.426  28.591  1.00  0.00    -0.248 NA
ATOM     40  C   UNL A   1      41.173  26.605  26.851  1.00  0.00     0.031 C 
ATOM     41  C   UNL A   1      42.635  30.069  29.538  1.00  0.00     0.029 A 
ATOM     42  N   UNL A   1      43.940  28.483  28.718  1.00  0.00    -0.354 N 
ATOM     43  C   UNL A   1      42.156  24.642  27.449  1.00  0.00     0.074 A 
ATOM     44  C   UNL A   1      41.314  25.324  26.502  1.00  0.00     0.031 C 
ATOM     45  C   UNL A   1      43.799  30.661  29.183  1.00  0.00     0.029 A 
ATOM     46  C   UNL A   1      44.697  29.649  28.655  1.00  0.00     0.049 A 
ATOM     47  H   UNL A   1      44.307  27.598  28.492  1.00  0.00     0.167 HD
ATOM     48  C   UNL A   1      43.067  23.644  27.293  1.00  0.00     0.034 A 
ATOM     49  C   UNL A   1      45.963  29.775  28.178  1.00  0.00     0.034 A 
ATOM     50  C   UNL A   1      43.770  23.384  28.536  1.00  0.00     0.049 A 
ATOM     51  C   UNL A   1      46.583  28.427  28.249  1.00  0.00     0.074 A 
ATOM     52  C   UNL A   1      43.371  23.072  29.823  1.00  0.00     0.029 A 
ATOM     53  N   UNL A   1      45.062  23.849  28.659  1.00  0.00    -0.354 N 
ATOM     54  N   UNL A   1      46.810  27.799  29.370  1.00  0.00    -0.248 NA
ATOM     55  C   UNL A   1      46.519  27.571  27.072  1.00  0.00     0.031 C 
ATOM     56  C   UNL A   1      44.230  23.835  30.671  1.00  0.00     0.029 A 
ATOM     57  C   UNL A   1      45.155  24.503  29.866  1.00  0.00     0.049 A 
ATOM     58  H   UNL A   1      45.787  23.733  28.003  1.00  0.00     0.167 HD
ATOM     59  C   UNL A   1      46.472  26.478  29.120  1.00  0.00     0.074 A 
ATOM     60  C   UNL A   1      46.418  26.377  27.664  1.00  0.00     0.031 C 
ATOM     61  C   UNL A   1      45.986  25.669  30.109  1.00  0.00     0.034 A 
BRANCH  48  62
ATOM     62  C   UNL A   1      43.579  23.139  25.966  1.00  0.00     0.023 A 
ATOM     63  C   UNL A   1      43.490  21.754  25.739  1.00  0.00     0.031 A 
ATOM     64  C   UNL A   1      44.360  23.864  25.037  1.00  0.00     0.131 A 
ATOM     65  C   UNL A   1      44.215  21.142  24.705  1.00  0.00     0.055 A 
ATOM     66  C   UNL A   1      45.015  23.260  23.959  1.00  0.00     0.041 A 
ATOM     67  F   UNL A   1      44.619  25.169  25.163  1.00  0.00    -0.206 F 
ATOM     68  C   UNL A   1      44.972  21.887  23.806  1.00  0.00     0.022 A 
BRANCH  65  69
ATOM     69  S   UNL A   1      44.298  19.335  24.680  1.00  0.00     0.124 S 
ATOM     70  O   UNL A   1      45.348  19.076  25.659  1.00  0.00    -0.237 OA
ATOM     71  O   UNL A   1      42.942  18.970  25.076  1.00  0.00    -0.237 OA
ATOM     72  O   UNL A   1      44.649  19.032  23.295  1.00  0.00    -0.744 OA
ENDBRANCH  65  69
ENDBRANCH  48  62
BRANCH  49  73
ATOM     73  C   UNL A   1      46.554  30.923  27.439  1.00  0.00     0.023 A 
ATOM     74  C   UNL A   1      45.774  31.949  26.866  1.00  0.00     0.031 A 
ATOM     75  C   UNL A   1      47.949  31.149  27.501  1.00  0.00     0.131 A 
ATOM     76  C   UNL A   1      46.388  33.131  26.389  1.00  0.00     0.055 A 
ATOM     77  C   UNL A   1      48.551  32.314  27.019  1.00  0.00     0.041 A 
ATOM     78  F   UNL A   1      48.766  30.278  28.112  1.00  0.00    -0.206 F 
ATOM     79  C   UNL A   1      47.770  33.316  26.469  1.00  0.00     0.022 A 
BRANCH  76  80
ATOM     80  S   UNL A   1      45.375  34.506  25.748  1.00  0.00     0.124 S 
ATOM     81  O   UNL A   1      44.102  34.296  26.428  1.00  0.00    -0.237 OA
ATOM     82  O   UNL A   1      46.142  35.677  26.155  1.00  0.00    -0.237 OA
ATOM     83  O   UNL A   1      45.347  34.266  24.305  1.00  0.00    -0.744 OA
ENDBRANCH  76  80
ENDBRANCH  49  73
BRANCH  61  84
ATOM     84  C   UNL A   1      46.117  26.131  31.551  1.00  0.00     0.023 A 
ATOM     85  C   UNL A   1      45.061  26.661  32.329  1.00  0.00     0.031 A 
ATOM     86  C   UNL A   1      47.348  25.909  32.196  1.00  0.00     0.131 A 
ATOM     87  C   UNL A   1      45.265  26.957  33.692  1.00  0.00     0.055 A 
ATOM     88  C   UNL A   1      47.538  26.182  33.550  1.00  0.00     0.041 A 
ATOM     89  F   UNL A   1      48.383  25.382  31.523  1.00  0.00    -0.206 F 
ATOM     90  C   UNL A   1      46.498  26.714  34.303  1.00  0.00     0.022 A 
BRANCH  87  91
ATOM     91  S   UNL A   1      43.924  27.675  34.696  1.00  0.00     0.124 S 
ATOM     92  O   UNL A   1      43.502  28.838  33.922  1.00  0.00    -0.237 OA
ATOM     93  O   UNL A   1      42.963  26.578  34.774  1.00  0.00    -0.237 OA
ATOM     94  O   UNL A   1      44.583  27.996  35.964  1.00  0.00    -0.744 OA
ENDBRANCH  87  91
ENDBRANCH  61  84
ENDBRANCH  35  36
ENDBRANCH  27  30
ENDBRANCH  25  26
ENDBRANCH   1  25
TORSDOF 16
ENDMDL
MODEL 3
REMARK VINA RESULT:     -11.9      4.803      9.969
REMARK SMILES Cc1ccc(C)c(/C=C2\SC(=S)N(CC(=O)NCCCCNC(=O)c3ccc(-c4c5nc(c(-c6cc(S(=O)(=O)[O-])ccc6F)c6ccc([nH]6)c(-c6cc(S(=O)(=O)[O-])ccc6F)c6nc(c(-c7cc(S(=O)(=O)[O-])ccc7F)c7ccc4[nH]7)C=C6)C=C5)cc3)C2=O)c1
REMARK SMILES IDX 20 1 19 2 18 3 17 4 15 5 16 6 14 8 13 9 8 10 9 11 10 12
REMARK SMILES IDX 88 13 11 14 89 15 12 16 7 17 1 18 2 19 3 20 90 21 4 22 5 23
REMARK SMILES IDX 6 24 21 25 22 26 23 27 24 29 25 30 26 31 87 32 27 33 86 34
REMARK SMILES IDX 28 35 29 36 30 37 80 38 31 39 85 40 79 41 81 42 32 43 84 44
REMARK SMILES IDX 78 45 77 46 33 48 65 49 45 50 64 51 46 52 49 53 63 54 82 55
REMARK SMILES IDX 47 56 48 57 62 59 83 60 50 61 34 62 35 63 43 64 36 65 42 66
REMARK SMILES IDX 44 67 41 68 37 69 38 70 39 71 40 72 66 73 67 74 75 75 68 76
REMARK SMILES IDX 74 77 76 78 73 79 69 80 70 81 71 82 72 83 51 84 52 85 60 86
REMARK SMILES IDX 53 87 59 88 61 89 58 90 54 91 55 92 56 93 57 94
REMARK H PARENT 17 7 22 28 81 47 49 58
REMARK Flexibility Score: inf
ROOT
ATOM      1  C   UNL A   1      42.750  25.372  25.004  1.00  0.00     0.023 C 
ENDROOT
BRANCH   1   2
ATOM      2  C   UNL A   1      43.121  26.858  25.152  1.00  0.00     0.023 C 
BRANCH   2   3
ATOM      3  C   UNL A   1      44.467  27.228  25.784  1.00  0.00     0.116 C 
BRANCH   3   4
ATOM      4  N   UNL A   1      45.507  27.541  24.832  1.00  0.00    -0.355 N 
ATOM      5  C   UNL A   1      46.753  26.996  24.706  1.00  0.00     0.240 C 
ATOM      6  O   UNL A   1      47.327  27.151  23.624  1.00  0.00    -0.273 OA
ATOM      7  H   UNL A   1      45.286  28.247  24.183  1.00  0.00     0.163 HD
BRANCH   5   8
ATOM      8  C   UNL A   1      47.368  26.115  25.803  1.00  0.00     0.227 C 
BRANCH   8   9
ATOM      9  N   UNL A   1      46.549  24.948  26.127  1.00  0.00    -0.283 N 
ATOM     10  C   UNL A   1      45.111  21.901  24.825  1.00  0.00     0.029 C 
ATOM     11  C   UNL A   1      45.459  22.925  25.617  1.00  0.00     0.081 C 
ATOM     12  S   UNL A   1      45.158  23.128  27.294  1.00  0.00    -0.054 SA
ATOM     13  C   UNL A   1      46.243  24.074  25.101  1.00  0.00     0.266 C 
ATOM     14  C   UNL A   1      45.944  24.700  27.340  1.00  0.00     0.148 C 
ATOM     15  O   UNL A   1      46.559  24.196  23.923  1.00  0.00    -0.268 OA
ATOM     16  S   UNL A   1      45.878  25.666  28.695  1.00  0.00    -0.052 S 
BRANCH  10  17
ATOM     17  C   UNL A   1      44.395  20.690  25.253  1.00  0.00    -0.021 A 
ATOM     18  C   UNL A   1      40.877  19.830  26.460  1.00  0.00     0.044 C 
ATOM     19  C   UNL A   1      42.312  19.687  26.049  1.00  0.00    -0.051 A 
ATOM     20  C   UNL A   1      42.959  18.455  26.157  1.00  0.00     0.004 A 
ATOM     21  C   UNL A   1      43.030  20.789  25.574  1.00  0.00     0.011 A 
ATOM     22  C   UNL A   1      44.304  18.333  25.801  1.00  0.00     0.004 A 
ATOM     23  C   UNL A   1      45.039  19.442  25.349  1.00  0.00    -0.044 A 
ATOM     24  C   UNL A   1      46.491  19.224  25.015  1.00  0.00     0.045 C 
ENDBRANCH  10  17
ENDBRANCH   8   9
ENDBRANCH   5   8
ENDBRANCH   3   4
ENDBRANCH   2   3
ENDBRANCH   1   2
BRANCH   1  25
ATOM     25  C   UNL A   1      42.099  24.644  26.188  1.00  0.00     0.116 C 
BRANCH  25  26
ATOM     26  N   UNL A   1      40.639  24.474  26.068  1.00  0.00    -0.352 N 
ATOM     27  C   UNL A   1      39.570  25.016  26.772  1.00  0.00     0.251 C 
ATOM     28  H   UNL A   1      40.370  23.856  25.351  1.00  0.00     0.163 HD
ATOM     29  O   UNL A   1      38.485  24.427  26.749  1.00  0.00    -0.269 OA
BRANCH  27  30
ATOM     30  C   UNL A   1      39.698  26.290  27.518  1.00  0.00     0.039 A 
ATOM     31  C   UNL A   1      40.026  27.525  26.954  1.00  0.00     0.014 A 
ATOM     32  C   UNL A   1      39.554  26.222  28.887  1.00  0.00     0.014 A 
ATOM     33  C   UNL A   1      40.210  28.627  27.805  1.00  0.00     0.010 A 
ATOM     34  C   UNL A   1      39.455  27.316  29.683  1.00  0.00     0.010 A 
ATOM     35  C   UNL A   1      39.945  28.494  29.177  1.00  0.00    -0.014 A 
BRANCH  35  36
ATOM     36  C   UNL A   1      40.120  29.544  30.164  1.00  0.00     0.031 A 
ATOM     37  C   UNL A   1      38.890  30.289  30.469  1.00  0.00     0.074 A 
ATOM     38  C   UNL A   1      41.189  29.632  30.989  1.00  0.00     0.049 A 
ATOM     39  N   UNL A   1      38.589  31.477  30.078  1.00  0.00    -0.248 NA
ATOM     40  C   UNL A   1      37.793  29.576  31.140  1.00  0.00     0.031 C 
ATOM     41  C   UNL A   1      42.335  28.719  31.105  1.00  0.00     0.029 A 
ATOM     42  N   UNL A   1      41.406  30.514  32.003  1.00  0.00    -0.354 N 
ATOM     43  C   UNL A   1      37.377  31.766  30.681  1.00  0.00     0.074 A 
ATOM     44  C   UNL A   1      36.829  30.498  31.086  1.00  0.00     0.031 C 
ATOM     45  C   UNL A   1      43.009  28.982  32.248  1.00  0.00     0.029 A 
ATOM     46  C   UNL A   1      42.443  30.170  32.863  1.00  0.00     0.049 A 
ATOM     47  H   UNL A   1      40.870  31.333  32.116  1.00  0.00     0.167 HD
ATOM     48  C   UNL A   1      37.060  33.041  31.035  1.00  0.00     0.034 A 
ATOM     49  C   UNL A   1      42.793  30.803  34.014  1.00  0.00     0.034 A 
ATOM     50  C   UNL A   1      37.998  33.986  30.457  1.00  0.00     0.049 A 
ATOM     51  C   UNL A   1      42.267  32.189  33.916  1.00  0.00     0.074 A 
ATOM     52  C   UNL A   1      38.432  34.252  29.171  1.00  0.00     0.029 A 
ATOM     53  N   UNL A   1      38.952  34.540  31.285  1.00  0.00    -0.354 N 
ATOM     54  N   UNL A   1      42.681  33.053  33.030  1.00  0.00    -0.248 NA
ATOM     55  C   UNL A   1      40.956  32.474  34.481  1.00  0.00     0.031 C 
ATOM     56  C   UNL A   1      39.837  34.479  29.297  1.00  0.00     0.029 A 
ATOM     57  C   UNL A   1      40.167  34.423  30.652  1.00  0.00     0.049 A 
ATOM     58  H   UNL A   1      38.792  34.944  32.169  1.00  0.00     0.167 HD
ATOM     59  C   UNL A   1      41.538  33.710  32.604  1.00  0.00     0.074 A 
ATOM     60  C   UNL A   1      40.530  33.399  33.615  1.00  0.00     0.031 C 
ATOM     61  C   UNL A   1      41.432  34.200  31.332  1.00  0.00     0.034 A 
BRANCH  48  62
ATOM     62  C   UNL A   1      36.135  33.422  32.164  1.00  0.00     0.023 A 
ATOM     63  C   UNL A   1      35.012  34.200  31.829  1.00  0.00     0.031 A 
ATOM     64  C   UNL A   1      36.402  33.296  33.547  1.00  0.00     0.131 A 
ATOM     65  C   UNL A   1      34.278  34.874  32.816  1.00  0.00     0.055 A 
ATOM     66  C   UNL A   1      35.618  33.904  34.531  1.00  0.00     0.041 A 
ATOM     67  F   UNL A   1      37.481  32.668  34.026  1.00  0.00    -0.206 F 
ATOM     68  C   UNL A   1      34.568  34.726  34.169  1.00  0.00     0.022 A 
BRANCH  65  69
ATOM     69  S   UNL A   1      33.059  36.099  32.279  1.00  0.00     0.124 S 
ATOM     70  O   UNL A   1      33.421  36.280  30.878  1.00  0.00    -0.237 OA
ATOM     71  O   UNL A   1      31.804  35.402  32.538  1.00  0.00    -0.237 OA
ATOM     72  O   UNL A   1      33.328  37.244  33.145  1.00  0.00    -0.744 OA
ENDBRANCH  65  69
ENDBRANCH  48  62
BRANCH  49  73
ATOM     73  C   UNL A   1      43.318  30.200  35.269  1.00  0.00     0.023 A 
ATOM     74  C   UNL A   1      42.938  28.919  35.721  1.00  0.00     0.031 A 
ATOM     75  C   UNL A   1      44.414  30.804  35.927  1.00  0.00     0.131 A 
ATOM     76  C   UNL A   1      43.641  28.299  36.781  1.00  0.00     0.055 A 
ATOM     77  C   UNL A   1      45.098  30.191  36.979  1.00  0.00     0.041 A 
ATOM     78  F   UNL A   1      44.913  31.978  35.511  1.00  0.00    -0.206 F 
ATOM     79  C   UNL A   1      44.720  28.929  37.405  1.00  0.00     0.022 A 
BRANCH  76  80
ATOM     80  S   UNL A   1      43.225  26.599  37.296  1.00  0.00     0.124 S 
ATOM     81  O   UNL A   1      43.892  26.495  38.589  1.00  0.00    -0.237 OA
ATOM     82  O   UNL A   1      41.767  26.626  37.318  1.00  0.00    -0.237 OA
ATOM     83  O   UNL A   1      43.803  25.770  36.239  1.00  0.00    -0.744 OA
ENDBRANCH  76  80
ENDBRANCH  49  73
BRANCH  61  84
ATOM     84  C   UNL A   1      42.692  34.302  30.489  1.00  0.00     0.023 A 
ATOM     85  C   UNL A   1      43.063  33.388  29.476  1.00  0.00     0.031 A 
ATOM     86  C   UNL A   1      43.490  35.451  30.648  1.00  0.00     0.131 A 
ATOM     87  C   UNL A   1      44.199  33.636  28.679  1.00  0.00     0.055 A 
ATOM     88  C   UNL A   1      44.600  35.704  29.842  1.00  0.00     0.041 A 
ATOM     89  F   UNL A   1      43.178  36.373  31.573  1.00  0.00    -0.206 F 
ATOM     90  C   UNL A   1      44.962  34.793  28.857  1.00  0.00     0.022 A 
BRANCH  87  91
ATOM     91  S   UNL A   1      44.708  32.447  27.395  1.00  0.00     0.124 S 
ATOM     92  O   UNL A   1      46.157  32.370  27.555  1.00  0.00    -0.237 OA
ATOM     93  O   UNL A   1      43.960  31.247  27.759  1.00  0.00    -0.237 OA
ATOM     94  O   UNL A   1      44.268  33.082  26.150  1.00  0.00    -0.744 OA
ENDBRANCH  87  91
ENDBRANCH  61  84
ENDBRANCH  35  36
ENDBRANCH  27  30
ENDBRANCH  25  26
ENDBRANCH   1  25
TORSDOF 16
ENDMDL
