MODEL 1
REMARK VINA RESULT:     -13.5      0.000      0.000
REMARK SMILES O=C(NCCCCNC(=O)[C@@H](Cc1c[nH]c2ccccc12)NC(=O)c1ccc(F)cc1F)c1ccc(-c2c3nc(c(-c4cc(S(=O)(=O)[O-])ccc4F)c4ccc([nH]4)c(-c4cc(S(=O)(=O)[O-])ccc4F)c4nc(c(-c5cc(S(=O)(=O)[O-])ccc5F)c5ccc2[nH]5)C=C4)C=C3)cc1
REMARK SMILES IDX 5 1 4 2 3 3 1 4 2 5 33 7 34 8 95 9 35 10 94 11 36 12 37 13
REMARK SMILES IDX 38 14 88 15 39 16 93 17 87 18 89 19 40 20 92 21 86 22 85 23
REMARK SMILES IDX 41 25 73 26 53 27 72 28 54 29 57 30 71 31 90 32 55 33 56 34
REMARK SMILES IDX 70 36 91 37 58 38 42 39 43 40 51 41 44 42 50 43 52 44 49 45
REMARK SMILES IDX 45 46 46 47 47 48 48 49 74 50 75 51 83 52 76 53 82 54 84 55
REMARK SMILES IDX 81 56 77 57 78 58 79 59 80 60 59 61 60 62 68 63 61 64 67 65
REMARK SMILES IDX 69 66 66 67 62 68 63 69 64 70 65 71 6 72 7 73 8 74 9 75
REMARK SMILES IDX 10 77 11 78 12 79 13 80 14 81 21 82 15 83 16 84 20 85 17 87
REMARK SMILES IDX 19 88 18 89 22 90 23 91 24 93 25 94 26 95 31 96 27 97 30 98
REMARK SMILES IDX 32 99 28 100 29 101
REMARK H PARENT 3 6 89 24 57 35 8 76 15 86 22 92
REMARK Flexibility Score: inf
ROOT
ATOM      1  C   UNL A   1      32.097  28.279  24.847  1.00  0.00     0.023 C 
ENDROOT
BRANCH   1   2
ATOM      2  C   UNL A   1      33.053  29.419  25.148  1.00  0.00     0.116 C 
BRANCH   2   3
ATOM      3  N   UNL A   1      32.490  30.501  25.964  1.00  0.00    -0.352 N 
ATOM      4  O   UNL A   1      32.400  32.038  27.626  1.00  0.00    -0.269 OA
ATOM      5  C   UNL A   1      33.053  31.211  27.012  1.00  0.00     0.251 C 
ATOM      6  H   UNL A   1      31.570  30.763  25.731  1.00  0.00     0.163 HD
BRANCH   5   7
ATOM      7  C   UNL A   1      34.451  30.907  27.387  1.00  0.00     0.039 A 
ATOM      8  C   UNL A   1      34.794  29.585  27.638  1.00  0.00     0.014 A 
ATOM      9  C   UNL A   1      35.355  31.938  27.659  1.00  0.00     0.014 A 
ATOM     10  C   UNL A   1      35.872  29.328  28.462  1.00  0.00     0.010 A 
ATOM     11  C   UNL A   1      36.550  31.640  28.325  1.00  0.00     0.010 A 
ATOM     12  C   UNL A   1      36.784  30.342  28.801  1.00  0.00    -0.014 A 
BRANCH  12  13
ATOM     13  C   UNL A   1      37.967  29.972  29.630  1.00  0.00     0.031 A 
ATOM     14  C   UNL A   1      38.073  30.360  31.083  1.00  0.00     0.074 A 
ATOM     15  C   UNL A   1      38.908  29.186  29.067  1.00  0.00     0.049 A 
ATOM     16  N   UNL A   1      39.045  30.117  31.925  1.00  0.00    -0.248 NA
ATOM     17  C   UNL A   1      36.963  31.128  31.667  1.00  0.00     0.031 C 
ATOM     18  C   UNL A   1      38.902  28.741  27.667  1.00  0.00     0.029 A 
ATOM     19  N   UNL A   1      40.015  28.574  29.593  1.00  0.00    -0.354 N 
ATOM     20  C   UNL A   1      38.695  30.746  33.117  1.00  0.00     0.074 A 
ATOM     21  C   UNL A   1      37.414  31.380  32.890  1.00  0.00     0.031 C 
ATOM     22  C   UNL A   1      39.878  27.845  27.480  1.00  0.00     0.029 A 
ATOM     23  C   UNL A   1      40.673  27.765  28.694  1.00  0.00     0.049 A 
ATOM     24  H   UNL A   1      40.311  28.701  30.523  1.00  0.00     0.167 HD
ATOM     25  C   UNL A   1      39.389  30.795  34.282  1.00  0.00     0.034 A 
ATOM     26  C   UNL A   1      41.820  27.070  28.807  1.00  0.00     0.034 A 
ATOM     27  C   UNL A   1      40.645  30.113  34.495  1.00  0.00     0.049 A 
ATOM     28  C   UNL A   1      42.563  27.146  30.109  1.00  0.00     0.074 A 
ATOM     29  C   UNL A   1      41.417  30.066  35.644  1.00  0.00     0.029 A 
ATOM     30  N   UNL A   1      41.314  29.357  33.541  1.00  0.00    -0.354 N 
ATOM     31  N   UNL A   1      42.231  27.783  31.208  1.00  0.00    -0.248 NA
ATOM     32  C   UNL A   1      43.841  26.433  30.178  1.00  0.00     0.031 C 
ATOM     33  C   UNL A   1      42.576  29.334  35.368  1.00  0.00     0.029 A 
ATOM     34  C   UNL A   1      42.501  28.864  34.066  1.00  0.00     0.049 A 
ATOM     35  H   UNL A   1      40.993  29.192  32.625  1.00  0.00     0.167 HD
ATOM     36  C   UNL A   1      43.269  27.552  32.100  1.00  0.00     0.074 A 
ATOM     37  C   UNL A   1      44.212  26.682  31.424  1.00  0.00     0.031 C 
ATOM     38  C   UNL A   1      43.438  28.026  33.361  1.00  0.00     0.034 A 
BRANCH  25  39
ATOM     39  C   UNL A   1      38.850  31.660  35.397  1.00  0.00     0.023 A 
ATOM     40  C   UNL A   1      38.263  31.122  36.556  1.00  0.00     0.031 A 
ATOM     41  C   UNL A   1      38.957  33.061  35.305  1.00  0.00     0.131 A 
ATOM     42  C   UNL A   1      37.773  31.981  37.555  1.00  0.00     0.055 A 
ATOM     43  C   UNL A   1      38.524  33.906  36.328  1.00  0.00     0.041 A 
ATOM     44  F   UNL A   1      39.492  33.632  34.213  1.00  0.00    -0.206 F 
ATOM     45  C   UNL A   1      37.921  33.367  37.460  1.00  0.00     0.022 A 
BRANCH  42  46
ATOM     46  S   UNL A   1      36.857  31.267  38.949  1.00  0.00     0.124 S 
ATOM     47  O   UNL A   1      36.656  29.892  38.497  1.00  0.00    -0.237 OA
ATOM     48  O   UNL A   1      37.783  31.444  40.061  1.00  0.00    -0.237 OA
ATOM     49  O   UNL A   1      35.642  32.077  39.013  1.00  0.00    -0.744 OA
ENDBRANCH  42  46
ENDBRANCH  25  39
BRANCH  26  50
ATOM     50  C   UNL A   1      42.366  26.329  27.635  1.00  0.00     0.023 A 
ATOM     51  C   UNL A   1      42.078  24.973  27.432  1.00  0.00     0.031 A 
ATOM     52  C   UNL A   1      43.198  26.975  26.700  1.00  0.00     0.131 A 
ATOM     53  C   UNL A   1      42.640  24.299  26.336  1.00  0.00     0.055 A 
ATOM     54  C   UNL A   1      43.701  26.317  25.579  1.00  0.00     0.041 A 
ATOM     55  F   UNL A   1      43.508  28.273  26.848  1.00  0.00    -0.206 F 
ATOM     56  C   UNL A   1      43.432  24.966  25.399  1.00  0.00     0.022 A 
BRANCH  53  57
ATOM     57  S   UNL A   1      42.394  22.507  26.200  1.00  0.00     0.124 S 
ATOM     58  O   UNL A   1      43.112  22.199  24.968  1.00  0.00    -0.237 OA
ATOM     59  O   UNL A   1      43.002  22.026  27.435  1.00  0.00    -0.237 OA
ATOM     60  O   UNL A   1      40.941  22.370  26.127  1.00  0.00    -0.744 OA
ENDBRANCH  53  57
ENDBRANCH  26  50
BRANCH  38  61
ATOM     61  C   UNL A   1      44.691  27.587  34.068  1.00  0.00     0.023 A 
ATOM     62  C   UNL A   1      44.732  26.387  34.799  1.00  0.00     0.031 A 
ATOM     63  C   UNL A   1      45.835  28.402  34.060  1.00  0.00     0.131 A 
ATOM     64  C   UNL A   1      45.871  26.068  35.550  1.00  0.00     0.055 A 
ATOM     65  C   UNL A   1      46.987  28.051  34.762  1.00  0.00     0.041 A 
ATOM     66  F   UNL A   1      45.843  29.560  33.381  1.00  0.00    -0.206 F 
ATOM     67  C   UNL A   1      47.004  26.885  35.525  1.00  0.00     0.022 A 
BRANCH  64  68
ATOM     68  S   UNL A   1      45.812  24.623  36.645  1.00  0.00     0.124 S 
ATOM     69  O   UNL A   1      47.195  24.165  36.614  1.00  0.00    -0.237 OA
ATOM     70  O   UNL A   1      45.360  25.205  37.904  1.00  0.00    -0.237 OA
ATOM     71  O   UNL A   1      44.850  23.738  35.990  1.00  0.00    -0.744 OA
ENDBRANCH  64  68
ENDBRANCH  38  61
ENDBRANCH  12  13
ENDBRANCH   5   7
ENDBRANCH   2   3
ENDBRANCH   1   2
BRANCH   1  72
ATOM     72  C   UNL A   1      31.706  27.476  26.066  1.00  0.00     0.023 C 
BRANCH  72  73
ATOM     73  C   UNL A   1      30.548  26.466  25.935  1.00  0.00     0.116 C 
BRANCH  73  74
ATOM     74  N   UNL A   1      30.851  25.288  26.738  1.00  0.00    -0.354 N 
ATOM     75  C   UNL A   1      31.215  24.010  26.461  1.00  0.00     0.242 C 
ATOM     76  H   UNL A   1      30.772  25.458  27.704  1.00  0.00     0.163 HD
ATOM     77  O   UNL A   1      30.925  23.185  27.341  1.00  0.00    -0.273 OA
BRANCH  75  78
ATOM     78  C   UNL A   1      31.910  23.486  25.172  1.00  0.00     0.176 C 
BRANCH  78  79
ATOM     79  C   UNL A   1      31.505  22.076  24.651  1.00  0.00     0.072 C 
BRANCH  79  80
ATOM     80  C   UNL A   1      32.506  20.977  24.819  1.00  0.00    -0.020 A 
ATOM     81  C   UNL A   1      33.638  21.097  25.580  1.00  0.00     0.087 A 
ATOM     82  C   UNL A   1      32.704  19.750  24.095  1.00  0.00     0.003 A 
ATOM     83  N   UNL A   1      34.230  19.879  25.708  1.00  0.00    -0.361 N 
ATOM     84  C   UNL A   1      33.755  19.064  24.716  1.00  0.00     0.046 A 
ATOM     85  C   UNL A   1      32.153  19.173  22.933  1.00  0.00     0.010 A 
ATOM     86  H   UNL A   1      34.888  19.627  26.397  1.00  0.00     0.166 HD
ATOM     87  C   UNL A   1      34.231  17.818  24.302  1.00  0.00     0.026 A 
ATOM     88  C   UNL A   1      32.690  17.971  22.440  1.00  0.00     0.001 A 
ATOM     89  C   UNL A   1      33.698  17.296  23.126  1.00  0.00     0.002 A 
ENDBRANCH  79  80
ENDBRANCH  78  79
BRANCH  78  90
ATOM     90  N   UNL A   1      32.198  24.454  24.109  1.00  0.00    -0.340 N 
ATOM     91  C   UNL A   1      33.414  24.812  23.558  1.00  0.00     0.254 C 
ATOM     92  H   UNL A   1      31.414  24.916  23.736  1.00  0.00     0.164 HD
ATOM     93  O   UNL A   1      33.459  25.694  22.706  1.00  0.00    -0.269 OA
BRANCH  91  94
ATOM     94  C   UNL A   1      34.674  24.133  23.953  1.00  0.00     0.075 A 
ATOM     95  C   UNL A   1      35.323  23.230  23.095  1.00  0.00     0.020 A 
ATOM     96  C   UNL A   1      35.264  24.440  25.183  1.00  0.00     0.138 A 
ATOM     97  C   UNL A   1      36.487  22.577  23.513  1.00  0.00     0.040 A 
ATOM     98  C   UNL A   1      36.442  23.815  25.590  1.00  0.00     0.079 A 
ATOM     99  F   UNL A   1      34.705  25.331  26.014  1.00  0.00    -0.206 F 
ATOM    100  C   UNL A   1      37.032  22.873  24.757  1.00  0.00     0.126 A 
ATOM    101  F   UNL A   1      38.149  22.247  25.153  1.00  0.00    -0.207 F 
ENDBRANCH  91  94
ENDBRANCH  78  90
ENDBRANCH  75  78
ENDBRANCH  73  74
ENDBRANCH  72  73
ENDBRANCH   1  72
TORSDOF 18
ENDMDL
MODEL 2
REMARK VINA RESULT:     -13.1      1.958      3.011
REMARK SMILES O=C(NCCCCNC(=O)[C@@H](Cc1c[nH]c2ccccc12)NC(=O)c1ccc(F)cc1F)c1ccc(-c2c3nc(c(-c4cc(S(=O)(=O)[O-])ccc4F)c4ccc([nH]4)c(-c4cc(S(=O)(=O)[O-])ccc4F)c4nc(c(-c5cc(S(=O)(=O)[O-])ccc5F)c5ccc2[nH]5)C=C4)C=C3)cc1
REMARK SMILES IDX 5 1 4 2 3 3 1 4 2 5 33 7 34 8 95 9 35 10 94 11 36 12 37 13
REMARK SMILES IDX 38 14 88 15 39 16 93 17 87 18 89 19 40 20 92 21 86 22 85 23
REMARK SMILES IDX 41 25 73 26 53 27 72 28 54 29 57 30 71 31 90 32 55 33 56 34
REMARK SMILES IDX 70 36 91 37 58 38 42 39 43 40 51 41 44 42 50 43 52 44 49 45
REMARK SMILES IDX 45 46 46 47 47 48 48 49 74 50 75 51 83 52 76 53 82 54 84 55
REMARK SMILES IDX 81 56 77 57 78 58 79 59 80 60 59 61 60 62 68 63 61 64 67 65
REMARK SMILES IDX 69 66 66 67 62 68 63 69 64 70 65 71 6 72 7 73 8 74 9 75
REMARK SMILES IDX 10 77 11 78 12 79 13 80 14 81 21 82 15 83 16 84 20 85 17 87
REMARK SMILES IDX 19 88 18 89 22 90 23 91 24 93 25 94 26 95 31 96 27 97 30 98
REMARK SMILES IDX 32 99 28 100 29 101
REMARK H PARENT 3 6 89 24 57 35 8 76 15 86 22 92
REMARK Flexibility Score: inf
ROOT
ATOM      1  C   UNL A   1      31.430  29.644  25.188  1.00  0.00     0.023 C 
ENDROOT
BRANCH   1   2
ATOM      2  C   UNL A   1      32.548  30.236  26.026  1.00  0.00     0.116 C 
BRANCH   2   3
ATOM      3  N   UNL A   1      32.255  31.549  26.613  1.00  0.00    -0.352 N 
ATOM      4  O   UNL A   1      32.600  33.403  27.868  1.00  0.00    -0.269 OA
ATOM      5  C   UNL A   1      33.044  32.364  27.408  1.00  0.00     0.251 C 
ATOM      6  H   UNL A   1      31.360  31.905  26.410  1.00  0.00     0.163 HD
BRANCH   5   7
ATOM      7  C   UNL A   1      34.420  31.917  27.715  1.00  0.00     0.039 A 
ATOM      8  C   UNL A   1      34.630  30.573  27.991  1.00  0.00     0.014 A 
ATOM      9  C   UNL A   1      35.446  32.848  27.901  1.00  0.00     0.014 A 
ATOM     10  C   UNL A   1      35.720  30.221  28.762  1.00  0.00     0.010 A 
ATOM     11  C   UNL A   1      36.639  32.438  28.509  1.00  0.00     0.010 A 
ATOM     12  C   UNL A   1      36.757  31.136  29.015  1.00  0.00    -0.014 A 
BRANCH  12  13
ATOM     13  C   UNL A   1      37.938  30.659  29.789  1.00  0.00     0.031 A 
ATOM     14  C   UNL A   1      38.149  31.038  31.233  1.00  0.00     0.074 A 
ATOM     15  C   UNL A   1      38.776  29.789  29.186  1.00  0.00     0.049 A 
ATOM     16  N   UNL A   1      39.135  30.707  32.030  1.00  0.00    -0.248 NA
ATOM     17  C   UNL A   1      37.144  31.905  31.865  1.00  0.00     0.031 C 
ATOM     18  C   UNL A   1      38.662  29.345  27.791  1.00  0.00     0.029 A 
ATOM     19  N   UNL A   1      39.846  29.079  29.662  1.00  0.00    -0.354 N 
ATOM     20  C   UNL A   1      38.901  31.368  33.233  1.00  0.00     0.074 A 
ATOM     21  C   UNL A   1      37.674  32.116  33.064  1.00  0.00     0.031 C 
ATOM     22  C   UNL A   1      39.541  28.363  27.563  1.00  0.00     0.029 A 
ATOM     23  C   UNL A   1      40.383  28.211  28.738  1.00  0.00     0.049 A 
ATOM     24  H   UNL A   1      40.197  29.179  30.577  1.00  0.00     0.167 HD
ATOM     25  C   UNL A   1      39.651  31.354  34.363  1.00  0.00     0.034 A 
ATOM     26  C   UNL A   1      41.465  27.415  28.800  1.00  0.00     0.034 A 
ATOM     27  C   UNL A   1      40.848  30.560  34.520  1.00  0.00     0.049 A 
ATOM     28  C   UNL A   1      42.274  27.424  30.064  1.00  0.00     0.074 A 
ATOM     29  C   UNL A   1      41.667  30.443  35.632  1.00  0.00     0.029 A 
ATOM     30  N   UNL A   1      41.399  29.743  33.540  1.00  0.00    -0.354 N 
ATOM     31  N   UNL A   1      42.054  28.089  31.175  1.00  0.00    -0.248 NA
ATOM     32  C   UNL A   1      43.483  26.596  30.077  1.00  0.00     0.031 C 
ATOM     33  C   UNL A   1      42.740  29.607  35.305  1.00  0.00     0.029 A 
ATOM     34  C   UNL A   1      42.559  29.145  34.011  1.00  0.00     0.049 A 
ATOM     35  H   UNL A   1      41.021  29.608  32.641  1.00  0.00     0.167 HD
ATOM     36  C   UNL A   1      43.109  27.765  32.018  1.00  0.00     0.074 A 
ATOM     37  C   UNL A   1      43.934  26.811  31.303  1.00  0.00     0.031 C 
ATOM     38  C   UNL A   1      43.380  28.223  33.267  1.00  0.00     0.034 A 
BRANCH  25  39
ATOM     39  C   UNL A   1      39.248  32.265  35.498  1.00  0.00     0.023 A 
ATOM     40  C   UNL A   1      39.718  33.585  35.613  1.00  0.00     0.031 A 
ATOM     41  C   UNL A   1      38.344  31.803  36.475  1.00  0.00     0.131 A 
ATOM     42  C   UNL A   1      39.311  34.381  36.698  1.00  0.00     0.055 A 
ATOM     43  C   UNL A   1      37.897  32.619  37.515  1.00  0.00     0.041 A 
ATOM     44  F   UNL A   1      37.876  30.545  36.427  1.00  0.00    -0.206 F 
ATOM     45  C   UNL A   1      38.387  33.915  37.636  1.00  0.00     0.022 A 
BRANCH  42  46
ATOM     46  S   UNL A   1      40.076  36.011  36.920  1.00  0.00     0.124 S 
ATOM     47  O   UNL A   1      39.370  36.512  38.097  1.00  0.00    -0.237 OA
ATOM     48  O   UNL A   1      41.482  35.677  37.114  1.00  0.00    -0.237 OA
ATOM     49  O   UNL A   1      39.767  36.709  35.673  1.00  0.00    -0.744 OA
ENDBRANCH  42  46
ENDBRANCH  25  39
BRANCH  26  50
ATOM     50  C   UNL A   1      41.885  26.625  27.608  1.00  0.00     0.023 A 
ATOM     51  C   UNL A   1      41.598  25.257  27.502  1.00  0.00     0.031 A 
ATOM     52  C   UNL A   1      42.591  27.236  26.554  1.00  0.00     0.131 A 
ATOM     53  C   UNL A   1      42.041  24.538  26.380  1.00  0.00     0.055 A 
ATOM     54  C   UNL A   1      42.971  26.531  25.412  1.00  0.00     0.041 A 
ATOM     55  F   UNL A   1      42.893  28.543  26.604  1.00  0.00    -0.206 F 
ATOM     56  C   UNL A   1      42.707  25.170  25.327  1.00  0.00     0.022 A 
BRANCH  53  57
ATOM     57  S   UNL A   1      41.812  22.739  26.357  1.00  0.00     0.124 S 
ATOM     58  O   UNL A   1      40.360  22.624  26.268  1.00  0.00    -0.237 OA
ATOM     59  O   UNL A   1      42.560  22.357  25.165  1.00  0.00    -0.237 OA
ATOM     60  O   UNL A   1      42.395  22.307  27.625  1.00  0.00    -0.744 OA
ENDBRANCH  53  57
ENDBRANCH  26  50
BRANCH  38  61
ATOM     61  C   UNL A   1      44.620  27.671  33.916  1.00  0.00     0.023 A 
ATOM     62  C   UNL A   1      44.574  26.506  34.701  1.00  0.00     0.031 A 
ATOM     63  C   UNL A   1      45.846  28.348  33.797  1.00  0.00     0.131 A 
ATOM     64  C   UNL A   1      45.717  26.089  35.396  1.00  0.00     0.055 A 
ATOM     65  C   UNL A   1      46.996  27.895  34.443  1.00  0.00     0.041 A 
ATOM     66  F   UNL A   1      45.939  29.467  33.062  1.00  0.00    -0.206 F 
ATOM     67  C   UNL A   1      46.932  26.768  35.260  1.00  0.00     0.022 A 
BRANCH  64  68
ATOM     68  S   UNL A   1      45.568  24.708  36.562  1.00  0.00     0.124 S 
ATOM     69  O   UNL A   1      44.343  25.047  37.276  1.00  0.00    -0.237 OA
ATOM     70  O   UNL A   1      45.489  23.555  35.671  1.00  0.00    -0.237 OA
ATOM     71  O   UNL A   1      46.794  24.797  37.354  1.00  0.00    -0.744 OA
ENDBRANCH  64  68
ENDBRANCH  38  61
ENDBRANCH  12  13
ENDBRANCH   5   7
ENDBRANCH   2   3
ENDBRANCH   1   2
BRANCH   1  72
ATOM     72  C   UNL A   1      31.844  29.302  23.776  1.00  0.00     0.023 C 
BRANCH  72  73
ATOM     73  C   UNL A   1      30.978  28.303  22.981  1.00  0.00     0.116 C 
BRANCH  73  74
ATOM     74  N   UNL A   1      31.823  27.594  22.029  1.00  0.00    -0.354 N 
ATOM     75  C   UNL A   1      32.888  26.760  22.133  1.00  0.00     0.242 C 
ATOM     76  H   UNL A   1      31.561  27.758  21.095  1.00  0.00     0.163 HD
ATOM     77  O   UNL A   1      33.627  26.734  21.135  1.00  0.00    -0.273 OA
BRANCH  75  78
ATOM     78  C   UNL A   1      33.283  25.881  23.354  1.00  0.00     0.176 C 
BRANCH  78  79
ATOM     79  C   UNL A   1      34.091  24.579  23.080  1.00  0.00     0.072 C 
BRANCH  79  80
ATOM     80  C   UNL A   1      33.335  23.289  23.119  1.00  0.00    -0.020 A 
ATOM     81  C   UNL A   1      32.012  23.180  22.782  1.00  0.00     0.087 A 
ATOM     82  C   UNL A   1      33.644  22.021  23.723  1.00  0.00     0.003 A 
ATOM     83  N   UNL A   1      31.668  21.865  22.713  1.00  0.00    -0.361 N 
ATOM     84  C   UNL A   1      32.605  21.140  23.398  1.00  0.00     0.046 A 
ATOM     85  C   UNL A   1      34.661  21.537  24.571  1.00  0.00     0.010 A 
ATOM     86  H   UNL A   1      30.880  21.499  22.249  1.00  0.00     0.166 HD
ATOM     87  C   UNL A   1      32.557  19.803  23.798  1.00  0.00     0.026 A 
ATOM     88  C   UNL A   1      34.575  20.226  25.069  1.00  0.00     0.001 A 
ATOM     89  C   UNL A   1      33.551  19.368  24.672  1.00  0.00     0.002 A 
ENDBRANCH  79  80
ENDBRANCH  78  79
BRANCH  78  90
ATOM     90  N   UNL A   1      33.657  26.566  24.595  1.00  0.00    -0.340 N 
ATOM     91  C   UNL A   1      33.148  26.406  25.870  1.00  0.00     0.254 C 
ATOM     92  H   UNL A   1      34.373  27.236  24.507  1.00  0.00     0.164 HD
ATOM     93  O   UNL A   1      33.557  27.120  26.781  1.00  0.00    -0.269 OA
BRANCH  91  94
ATOM     94  C   UNL A   1      32.132  25.367  26.174  1.00  0.00     0.075 A 
ATOM     95  C   UNL A   1      30.759  25.609  26.001  1.00  0.00     0.020 A 
ATOM     96  C   UNL A   1      32.549  24.098  26.586  1.00  0.00     0.138 A 
ATOM     97  C   UNL A   1      29.826  24.623  26.335  1.00  0.00     0.040 A 
ATOM     98  C   UNL A   1      31.622  23.101  26.889  1.00  0.00     0.079 A 
ATOM     99  F   UNL A   1      33.851  23.808  26.718  1.00  0.00    -0.206 F 
ATOM    100  C   UNL A   1      30.266  23.380  26.779  1.00  0.00     0.126 A 
ATOM    101  F   UNL A   1      29.369  22.437  27.096  1.00  0.00    -0.207 F 
ENDBRANCH  91  94
ENDBRANCH  78  90
ENDBRANCH  75  78
ENDBRANCH  73  74
ENDBRANCH  72  73
ENDBRANCH   1  72
TORSDOF 18
ENDMDL
MODEL 3
REMARK VINA RESULT:     -13.0      1.550      7.454
REMARK SMILES O=C(NCCCCNC(=O)[C@@H](Cc1c[nH]c2ccccc12)NC(=O)c1ccc(F)cc1F)c1ccc(-c2c3nc(c(-c4cc(S(=O)(=O)[O-])ccc4F)c4ccc([nH]4)c(-c4cc(S(=O)(=O)[O-])ccc4F)c4nc(c(-c5cc(S(=O)(=O)[O-])ccc5F)c5ccc2[nH]5)C=C4)C=C3)cc1
REMARK SMILES IDX 5 1 4 2 3 3 1 4 2 5 33 7 34 8 95 9 35 10 94 11 36 12 37 13
REMARK SMILES IDX 38 14 88 15 39 16 93 17 87 18 89 19 40 20 92 21 86 22 85 23
REMARK SMILES IDX 41 25 73 26 53 27 72 28 54 29 57 30 71 31 90 32 55 33 56 34
REMARK SMILES IDX 70 36 91 37 58 38 42 39 43 40 51 41 44 42 50 43 52 44 49 45
REMARK SMILES IDX 45 46 46 47 47 48 48 49 74 50 75 51 83 52 76 53 82 54 84 55
REMARK SMILES IDX 81 56 77 57 78 58 79 59 80 60 59 61 60 62 68 63 61 64 67 65
REMARK SMILES IDX 69 66 66 67 62 68 63 69 64 70 65 71 6 72 7 73 8 74 9 75
REMARK SMILES IDX 10 77 11 78 12 79 13 80 14 81 21 82 15 83 16 84 20 85 17 87
REMARK SMILES IDX 19 88 18 89 22 90 23 91 24 93 25 94 26 95 31 96 27 97 30 98
REMARK SMILES IDX 32 99 28 100 29 101
REMARK H PARENT 3 6 89 24 57 35 8 76 15 86 22 92
REMARK Flexibility Score: inf
ROOT
ATOM      1  C   UNL A   1      31.638  29.332  25.234  1.00  0.00     0.023 C 
ENDROOT
BRANCH   1   2
ATOM      2  C   UNL A   1      32.699  29.871  26.176  1.00  0.00     0.116 C 
BRANCH   2   3
ATOM      3  N   UNL A   1      32.457  31.232  26.669  1.00  0.00    -0.352 N 
ATOM      4  O   UNL A   1      32.878  33.158  27.786  1.00  0.00    -0.269 OA
ATOM      5  C   UNL A   1      33.281  32.074  27.399  1.00  0.00     0.251 C 
ATOM      6  H   UNL A   1      31.573  31.605  26.447  1.00  0.00     0.163 HD
BRANCH   5   7
ATOM      7  C   UNL A   1      34.643  31.602  27.729  1.00  0.00     0.039 A 
ATOM      8  C   UNL A   1      34.831  30.247  27.971  1.00  0.00     0.014 A 
ATOM      9  C   UNL A   1      35.674  32.514  27.968  1.00  0.00     0.014 A 
ATOM     10  C   UNL A   1      35.896  29.860  28.759  1.00  0.00     0.010 A 
ATOM     11  C   UNL A   1      36.846  32.072  28.595  1.00  0.00     0.010 A 
ATOM     12  C   UNL A   1      36.936  30.755  29.065  1.00  0.00    -0.014 A 
BRANCH  12  13
ATOM     13  C   UNL A   1      38.092  30.242  29.855  1.00  0.00     0.031 A 
ATOM     14  C   UNL A   1      39.124  29.325  29.251  1.00  0.00     0.074 A 
ATOM     15  C   UNL A   1      38.246  30.702  31.114  1.00  0.00     0.049 A 
ATOM     16  N   UNL A   1      40.177  28.791  29.819  1.00  0.00    -0.248 NA
ATOM     17  C   UNL A   1      38.957  28.942  27.840  1.00  0.00     0.031 C 
ATOM     18  C   UNL A   1      37.310  31.603  31.799  1.00  0.00     0.029 A 
ATOM     19  N   UNL A   1      39.255  30.534  32.026  1.00  0.00    -0.354 N 
ATOM     20  C   UNL A   1      40.762  27.969  28.859  1.00  0.00     0.074 A 
ATOM     21  C   UNL A   1      39.950  28.078  27.667  1.00  0.00     0.031 C 
ATOM     22  C   UNL A   1      37.840  31.995  32.963  1.00  0.00     0.029 A 
ATOM     23  C   UNL A   1      39.076  31.262  33.181  1.00  0.00     0.049 A 
ATOM     24  H   UNL A   1      40.032  29.950  31.870  1.00  0.00     0.167 HD
ATOM     25  C   UNL A   1      41.868  27.191  28.975  1.00  0.00     0.034 A 
ATOM     26  C   UNL A   1      39.793  31.302  34.318  1.00  0.00     0.034 A 
ATOM     27  C   UNL A   1      42.688  27.137  30.164  1.00  0.00     0.049 A 
ATOM     28  C   UNL A   1      41.010  30.429  34.414  1.00  0.00     0.074 A 
ATOM     29  C   UNL A   1      43.847  26.410  30.380  1.00  0.00     0.029 A 
ATOM     30  N   UNL A   1      42.439  27.837  31.338  1.00  0.00    -0.354 N 
ATOM     31  N   UNL A   1      41.520  29.629  33.507  1.00  0.00    -0.248 NA
ATOM     32  C   UNL A   1      41.732  30.446  35.689  1.00  0.00     0.031 C 
ATOM     33  C   UNL A   1      44.265  26.625  31.698  1.00  0.00     0.029 A 
ATOM     34  C   UNL A   1      43.405  27.538  32.288  1.00  0.00     0.049 A 
ATOM     35  H   UNL A   1      41.687  28.457  31.476  1.00  0.00     0.167 HD
ATOM     36  C   UNL A   1      42.623  29.038  34.109  1.00  0.00     0.074 A 
ATOM     37  C   UNL A   1      42.727  29.610  35.438  1.00  0.00     0.031 C 
ATOM     38  C   UNL A   1      43.468  28.098  33.615  1.00  0.00     0.034 A 
BRANCH  25  39
ATOM     39  C   UNL A   1      42.227  26.285  27.821  1.00  0.00     0.023 A 
ATOM     40  C   UNL A   1      41.829  24.938  27.764  1.00  0.00     0.031 A 
ATOM     41  C   UNL A   1      42.964  26.799  26.737  1.00  0.00     0.131 A 
ATOM     42  C   UNL A   1      42.202  24.144  26.665  1.00  0.00     0.055 A 
ATOM     43  C   UNL A   1      43.279  26.022  25.621  1.00  0.00     0.041 A 
ATOM     44  F   UNL A   1      43.387  28.073  26.745  1.00  0.00    -0.206 F 
ATOM     45  C   UNL A   1      42.904  24.683  25.584  1.00  0.00     0.022 A 
BRANCH  42  46
ATOM     46  S   UNL A   1      41.835  22.368  26.706  1.00  0.00     0.124 S 
ATOM     47  O   UNL A   1      40.399  22.369  26.974  1.00  0.00    -0.237 OA
ATOM     48  O   UNL A   1      42.234  21.931  25.374  1.00  0.00    -0.237 OA
ATOM     49  O   UNL A   1      42.666  21.870  27.801  1.00  0.00    -0.744 OA
ENDBRANCH  42  46
ENDBRANCH  25  39
BRANCH  26  50
ATOM     50  C   UNL A   1      39.327  32.125  35.470  1.00  0.00     0.023 A 
ATOM     51  C   UNL A   1      39.765  33.445  35.648  1.00  0.00     0.031 A 
ATOM     52  C   UNL A   1      38.435  31.592  36.420  1.00  0.00     0.131 A 
ATOM     53  C   UNL A   1      39.332  34.177  36.764  1.00  0.00     0.055 A 
ATOM     54  C   UNL A   1      37.957  32.345  37.492  1.00  0.00     0.041 A 
ATOM     55  F   UNL A   1      37.985  30.332  36.299  1.00  0.00    -0.206 F 
ATOM     56  C   UNL A   1      38.417  33.643  37.675  1.00  0.00     0.022 A 
BRANCH  53  57
ATOM     57  S   UNL A   1      40.054  35.814  37.061  1.00  0.00     0.124 S 
ATOM     58  O   UNL A   1      39.405  36.205  38.309  1.00  0.00    -0.237 OA
ATOM     59  O   UNL A   1      41.477  35.504  37.148  1.00  0.00    -0.237 OA
ATOM     60  O   UNL A   1      39.653  36.580  35.883  1.00  0.00    -0.744 OA
ENDBRANCH  53  57
ENDBRANCH  26  50
BRANCH  38  61
ATOM     61  C   UNL A   1      44.574  27.657  34.535  1.00  0.00     0.023 A 
ATOM     62  C   UNL A   1      44.432  26.522  35.352  1.00  0.00     0.031 A 
ATOM     63  C   UNL A   1      45.756  28.410  34.638  1.00  0.00     0.131 A 
ATOM     64  C   UNL A   1      45.426  26.210  36.289  1.00  0.00     0.055 A 
ATOM     65  C   UNL A   1      46.768  28.061  35.531  1.00  0.00     0.041 A 
ATOM     66  F   UNL A   1      45.936  29.505  33.882  1.00  0.00    -0.206 F 
ATOM     67  C   UNL A   1      46.600  26.964  36.374  1.00  0.00     0.022 A 
BRANCH  64  68
ATOM     68  S   UNL A   1      45.117  24.868  37.468  1.00  0.00     0.124 S 
ATOM     69  O   UNL A   1      46.444  24.650  38.032  1.00  0.00    -0.237 OA
ATOM     70  O   UNL A   1      44.132  25.462  38.366  1.00  0.00    -0.237 OA
ATOM     71  O   UNL A   1      44.614  23.783  36.627  1.00  0.00    -0.744 OA
ENDBRANCH  64  68
ENDBRANCH  38  61
ENDBRANCH  12  13
ENDBRANCH   5   7
ENDBRANCH   2   3
ENDBRANCH   1   2
BRANCH   1  72
ATOM     72  C   UNL A   1      31.359  27.858  25.412  1.00  0.00     0.023 C 
BRANCH  72  73
ATOM     73  C   UNL A   1      32.145  27.090  26.493  1.00  0.00     0.116 C 
BRANCH  73  74
ATOM     74  N   UNL A   1      31.391  25.904  26.878  1.00  0.00    -0.354 N 
ATOM     75  C   UNL A   1      31.092  24.725  26.278  1.00  0.00     0.242 C 
ATOM     76  H   UNL A   1      31.009  25.976  27.782  1.00  0.00     0.163 HD
ATOM     77  O   UNL A   1      30.061  24.175  26.697  1.00  0.00    -0.273 OA
BRANCH  75  78
ATOM     78  C   UNL A   1      31.871  24.028  25.126  1.00  0.00     0.176 C 
BRANCH  78  79
ATOM     79  C   UNL A   1      31.357  22.643  24.635  1.00  0.00     0.072 C 
BRANCH  79  80
ATOM     80  C   UNL A   1      32.139  21.440  25.059  1.00  0.00    -0.020 A 
ATOM     81  C   UNL A   1      33.006  21.438  26.119  1.00  0.00     0.087 A 
ATOM     82  C   UNL A   1      32.404  20.193  24.393  1.00  0.00     0.003 A 
ATOM     83  N   UNL A   1      33.399  20.162  26.382  1.00  0.00    -0.361 N 
ATOM     84  C   UNL A   1      33.146  19.398  25.275  1.00  0.00     0.046 A 
ATOM     85  C   UNL A   1      32.154  19.672  23.107  1.00  0.00     0.010 A 
ATOM     86  H   UNL A   1      33.795  19.844  27.225  1.00  0.00     0.166 HD
ATOM     87  C   UNL A   1      33.583  18.103  24.986  1.00  0.00     0.026 A 
ATOM     88  C   UNL A   1      32.677  18.414  22.761  1.00  0.00     0.001 A 
ATOM     89  C   UNL A   1      33.361  17.636  23.693  1.00  0.00     0.002 A 
ENDBRANCH  79  80
ENDBRANCH  78  79
BRANCH  78  90
ATOM     90  N   UNL A   1      32.414  24.875  24.059  1.00  0.00    -0.340 N 
ATOM     91  C   UNL A   1      33.717  24.993  23.615  1.00  0.00     0.254 C 
ATOM     92  H   UNL A   1      31.756  25.440  23.594  1.00  0.00     0.164 HD
ATOM     93  O   UNL A   1      33.987  25.807  22.736  1.00  0.00    -0.269 OA
BRANCH  91  94
ATOM     94  C   UNL A   1      34.802  24.137  24.156  1.00  0.00     0.075 A 
ATOM     95  C   UNL A   1      35.466  24.458  25.351  1.00  0.00     0.020 A 
ATOM     96  C   UNL A   1      35.134  22.949  23.496  1.00  0.00     0.138 A 
ATOM     97  C   UNL A   1      36.510  23.651  25.812  1.00  0.00     0.040 A 
ATOM     98  C   UNL A   1      36.153  22.125  23.970  1.00  0.00     0.079 A 
ATOM     99  F   UNL A   1      34.494  22.579  22.378  1.00  0.00    -0.206 F 
ATOM    100  C   UNL A   1      36.846  22.495  25.115  1.00  0.00     0.126 A 
ATOM    101  F   UNL A   1      37.846  21.723  25.562  1.00  0.00    -0.207 F 
ENDBRANCH  91  94
ENDBRANCH  78  90
ENDBRANCH  75  78
ENDBRANCH  73  74
ENDBRANCH  72  73
ENDBRANCH   1  72
TORSDOF 18
ENDMDL
