MODEL 1
REMARK VINA RESULT:     -10.6      0.000      0.000
REMARK SMILES Nc1ccc(O)c(C(=O)NCCCCNC(=O)c2ccc(-c3c4nc(c(-c5cc(S(=O)(=O)[O-])ccc5F)c5ccc([nH]5)c(-c5cc(S(=O)(=O)[O-])ccc5F)c5nc(c(-c6cc(S(=O)(=O)[O-])ccc6F)c6ccc3[nH]6)C=C5)C=C4)cc2)c1
REMARK SMILES IDX 13 1 12 2 11 3 10 4 8 5 9 6 7 8 2 9 3 10 81 11 4 12 5 13
REMARK SMILES IDX 1 14 6 17 14 19 15 20 16 21 17 23 18 24 19 25 80 26 20 27
REMARK SMILES IDX 79 28 21 29 22 30 23 31 73 32 24 33 78 34 72 35 74 36 25 37
REMARK SMILES IDX 77 38 71 39 70 40 26 42 58 43 38 44 57 45 39 46 42 47 56 48
REMARK SMILES IDX 75 49 40 50 41 51 55 53 76 54 43 55 27 56 28 57 36 58 29 59
REMARK SMILES IDX 35 60 37 61 34 62 30 63 31 64 32 65 33 66 59 67 60 68 68 69
REMARK SMILES IDX 61 70 67 71 69 72 66 73 62 74 63 75 64 76 65 77 44 78 45 79
REMARK SMILES IDX 53 80 46 81 52 82 54 83 51 84 47 85 48 86 49 87 50 88
REMARK H PARENT 10 7 1 15 1 16 6 18 15 22 74 41 42 52
REMARK Flexibility Score: inf
ROOT
ATOM      1  C   UNL A   1      33.046  34.950  29.377  1.00  0.00     0.023 C 
ENDROOT
BRANCH   1   2
ATOM      2  C   UNL A   1      33.773  36.043  30.170  1.00  0.00     0.023 C 
BRANCH   2   3
ATOM      3  C   UNL A   1      33.235  36.251  31.587  1.00  0.00     0.116 C 
BRANCH   3   4
ATOM      4  N   UNL A   1      33.018  34.976  32.241  1.00  0.00    -0.352 N 
ATOM      5  C   UNL A   1      33.860  34.077  32.843  1.00  0.00     0.255 C 
ATOM      6  O   UNL A   1      33.340  33.077  33.350  1.00  0.00    -0.269 OA
ATOM      7  H   UNL A   1      32.073  34.699  32.257  1.00  0.00     0.163 HD
BRANCH   5   8
ATOM      8  C   UNL A   1      35.336  34.241  32.986  1.00  0.00     0.083 A 
ATOM      9  C   UNL A   1      37.584  34.651  32.107  1.00  0.00     0.032 A 
ATOM     10  C   UNL A   1      38.101  34.578  33.399  1.00  0.00     0.029 A 
ATOM     11  C   UNL A   1      36.216  34.415  31.909  1.00  0.00     0.043 A 
ATOM     12  C   UNL A   1      37.260  34.342  34.484  1.00  0.00     0.049 A 
ATOM     13  C   UNL A   1      35.892  34.181  34.277  1.00  0.00     0.128 A 
BRANCH   9  14
ATOM     14  N   UNL A   1      38.431  34.819  31.022  1.00  0.00    -0.399 N 
ATOM     15  H   UNL A   1      38.059  35.014  30.132  1.00  0.00     0.156 HD
ATOM     16  H   UNL A   1      39.406  34.744  31.142  1.00  0.00     0.156 HD
ENDBRANCH   9  14
BRANCH  13  17
ATOM     17  O   UNL A   1      35.152  33.947  35.410  1.00  0.00    -0.507 OA
ATOM     18  H   UNL A   1      35.583  33.749  36.218  1.00  0.00     0.293 HD
ENDBRANCH  13  17
ENDBRANCH   5   8
ENDBRANCH   3   4
ENDBRANCH   2   3
ENDBRANCH   1   2
BRANCH   1  19
ATOM     19  C   UNL A   1      33.922  33.781  28.931  1.00  0.00     0.116 C 
BRANCH  19  20
ATOM     20  N   UNL A   1      33.277  32.924  27.950  1.00  0.00    -0.352 N 
ATOM     21  C   UNL A   1      33.720  31.729  27.428  1.00  0.00     0.251 C 
ATOM     22  H   UNL A   1      32.407  33.239  27.614  1.00  0.00     0.163 HD
ATOM     23  O   UNL A   1      33.100  31.190  26.526  1.00  0.00    -0.269 OA
BRANCH  21  24
ATOM     24  C   UNL A   1      34.977  31.140  27.941  1.00  0.00     0.039 A 
ATOM     25  C   UNL A   1      36.103  31.959  28.055  1.00  0.00     0.014 A 
ATOM     26  C   UNL A   1      35.035  29.800  28.334  1.00  0.00     0.014 A 
ATOM     27  C   UNL A   1      37.270  31.453  28.631  1.00  0.00     0.010 A 
ATOM     28  C   UNL A   1      36.178  29.316  28.963  1.00  0.00     0.010 A 
ATOM     29  C   UNL A   1      37.304  30.138  29.124  1.00  0.00    -0.014 A 
BRANCH  29  30
ATOM     30  C   UNL A   1      38.505  29.607  29.818  1.00  0.00     0.031 A 
ATOM     31  C   UNL A   1      38.886  30.133  31.174  1.00  0.00     0.074 A 
ATOM     32  C   UNL A   1      39.291  28.710  29.192  1.00  0.00     0.049 A 
ATOM     33  N   UNL A   1      39.939  29.866  31.901  1.00  0.00    -0.248 NA
ATOM     34  C   UNL A   1      37.973  31.118  31.773  1.00  0.00     0.031 C 
ATOM     35  C   UNL A   1      39.050  28.161  27.856  1.00  0.00     0.029 A 
ATOM     36  N   UNL A   1      40.460  28.110  29.590  1.00  0.00    -0.354 N 
ATOM     37  C   UNL A   1      39.827  30.660  33.037  1.00  0.00     0.074 A 
ATOM     38  C   UNL A   1      38.632  31.461  32.869  1.00  0.00     0.031 C 
ATOM     39  C   UNL A   1      40.030  27.294  27.552  1.00  0.00     0.029 A 
ATOM     40  C   UNL A   1      40.989  27.254  28.653  1.00  0.00     0.049 A 
ATOM     41  H   UNL A   1      40.880  28.277  30.464  1.00  0.00     0.167 HD
ATOM     42  C   UNL A   1      40.633  30.700  34.128  1.00  0.00     0.034 A 
ATOM     43  C   UNL A   1      42.124  26.528  28.671  1.00  0.00     0.034 A 
ATOM     44  C   UNL A   1      41.813  29.883  34.282  1.00  0.00     0.049 A 
ATOM     45  C   UNL A   1      43.008  26.591  29.889  1.00  0.00     0.074 A 
ATOM     46  C   UNL A   1      42.669  29.798  35.366  1.00  0.00     0.029 A 
ATOM     47  N   UNL A   1      42.309  29.013  33.319  1.00  0.00    -0.354 N 
ATOM     48  N   UNL A   1      42.862  27.308  30.981  1.00  0.00    -0.248 NA
ATOM     49  C   UNL A   1      44.203  25.739  29.885  1.00  0.00     0.031 C 
ATOM     50  C   UNL A   1      43.712  28.926  35.036  1.00  0.00     0.029 A 
ATOM     51  C   UNL A   1      43.472  28.410  33.772  1.00  0.00     0.049 A 
ATOM     52  H   UNL A   1      41.895  28.849  32.441  1.00  0.00     0.167 HD
ATOM     53  C   UNL A   1      43.932  26.969  31.803  1.00  0.00     0.074 A 
ATOM     54  C   UNL A   1      44.707  25.977  31.086  1.00  0.00     0.031 C 
ATOM     55  C   UNL A   1      44.241  27.431  33.041  1.00  0.00     0.034 A 
BRANCH  42  56
ATOM     56  C   UNL A   1      40.269  31.679  35.220  1.00  0.00     0.023 A 
ATOM     57  C   UNL A   1      39.342  31.351  36.226  1.00  0.00     0.031 A 
ATOM     58  C   UNL A   1      40.820  32.972  35.232  1.00  0.00     0.131 A 
ATOM     59  C   UNL A   1      38.928  32.327  37.144  1.00  0.00     0.055 A 
ATOM     60  C   UNL A   1      40.468  33.914  36.201  1.00  0.00     0.041 A 
ATOM     61  F   UNL A   1      41.696  33.351  34.287  1.00  0.00    -0.206 F 
ATOM     62  C   UNL A   1      39.503  33.599  37.154  1.00  0.00     0.022 A 
BRANCH  59  63
ATOM     63  S   UNL A   1      37.513  31.959  38.216  1.00  0.00     0.124 S 
ATOM     64  O   UNL A   1      38.089  32.159  39.544  1.00  0.00    -0.237 OA
ATOM     65  O   UNL A   1      36.529  32.948  37.790  1.00  0.00    -0.237 OA
ATOM     66  O   UNL A   1      37.187  30.572  37.889  1.00  0.00    -0.744 OA
ENDBRANCH  59  63
ENDBRANCH  42  56
BRANCH  43  67
ATOM     67  C   UNL A   1      42.494  25.681  27.503  1.00  0.00     0.023 A 
ATOM     68  C   UNL A   1      42.074  24.345  27.417  1.00  0.00     0.031 A 
ATOM     69  C   UNL A   1      43.299  26.189  26.469  1.00  0.00     0.131 A 
ATOM     70  C   UNL A   1      42.493  23.548  26.341  1.00  0.00     0.055 A 
ATOM     71  C   UNL A   1      43.676  25.405  25.376  1.00  0.00     0.041 A 
ATOM     72  F   UNL A   1      43.719  27.464  26.498  1.00  0.00    -0.206 F 
ATOM     73  C   UNL A   1      43.282  24.072  25.315  1.00  0.00     0.022 A 
BRANCH  70  74
ATOM     74  S   UNL A   1      42.046  21.790  26.337  1.00  0.00     0.124 S 
ATOM     75  O   UNL A   1      42.982  21.247  25.359  1.00  0.00    -0.237 OA
ATOM     76  O   UNL A   1      42.280  21.416  27.727  1.00  0.00    -0.237 OA
ATOM     77  O   UNL A   1      40.644  21.797  25.924  1.00  0.00    -0.744 OA
ENDBRANCH  70  74
ENDBRANCH  43  67
BRANCH  55  78
ATOM     78  C   UNL A   1      45.451  26.827  33.711  1.00  0.00     0.023 A 
ATOM     79  C   UNL A   1      45.356  25.679  34.516  1.00  0.00     0.031 A 
ATOM     80  C   UNL A   1      46.715  27.420  33.548  1.00  0.00     0.131 A 
ATOM     81  C   UNL A   1      46.497  25.189  35.170  1.00  0.00     0.055 A 
ATOM     82  C   UNL A   1      47.856  26.896  34.156  1.00  0.00     0.041 A 
ATOM     83  F   UNL A   1      46.861  28.519  32.791  1.00  0.00    -0.206 F 
ATOM     84  C   UNL A   1      47.749  25.782  34.982  1.00  0.00     0.022 A 
BRANCH  81  85
ATOM     85  S   UNL A   1      46.310  23.814  36.338  1.00  0.00     0.124 S 
ATOM     86  O   UNL A   1      44.966  23.334  36.030  1.00  0.00    -0.237 OA
ATOM     87  O   UNL A   1      47.406  22.930  35.957  1.00  0.00    -0.237 OA
ATOM     88  O   UNL A   1      46.455  24.452  37.645  1.00  0.00    -0.744 OA
ENDBRANCH  81  85
ENDBRANCH  55  78
ENDBRANCH  29  30
ENDBRANCH  21  24
ENDBRANCH  19  20
ENDBRANCH   1  19
TORSDOF 16
ENDMDL
MODEL 2
REMARK VINA RESULT:     -10.3      3.531      9.949
REMARK SMILES Nc1ccc(O)c(C(=O)NCCCCNC(=O)c2ccc(-c3c4nc(c(-c5cc(S(=O)(=O)[O-])ccc5F)c5ccc([nH]5)c(-c5cc(S(=O)(=O)[O-])ccc5F)c5nc(c(-c6cc(S(=O)(=O)[O-])ccc6F)c6ccc3[nH]6)C=C5)C=C4)cc2)c1
REMARK SMILES IDX 13 1 12 2 11 3 10 4 8 5 9 6 7 8 2 9 3 10 81 11 4 12 5 13
REMARK SMILES IDX 1 14 6 17 14 19 15 20 16 21 17 23 18 24 19 25 80 26 20 27
REMARK SMILES IDX 79 28 21 29 22 30 23 31 73 32 24 33 78 34 72 35 74 36 25 37
REMARK SMILES IDX 77 38 71 39 70 40 26 42 58 43 38 44 57 45 39 46 42 47 56 48
REMARK SMILES IDX 75 49 40 50 41 51 55 53 76 54 43 55 27 56 28 57 36 58 29 59
REMARK SMILES IDX 35 60 37 61 34 62 30 63 31 64 32 65 33 66 59 67 60 68 68 69
REMARK SMILES IDX 61 70 67 71 69 72 66 73 62 74 63 75 64 76 65 77 44 78 45 79
REMARK SMILES IDX 53 80 46 81 52 82 54 83 51 84 47 85 48 86 49 87 50 88
REMARK H PARENT 10 7 1 15 1 16 6 18 15 22 74 41 42 52
REMARK Flexibility Score: inf
ROOT
ATOM      1  C   UNL A   1      32.126  30.923  26.698  1.00  0.00     0.023 C 
ENDROOT
BRANCH   1   2
ATOM      2  C   UNL A   1      32.568  29.788  25.765  1.00  0.00     0.023 C 
BRANCH   2   3
ATOM      3  C   UNL A   1      31.623  28.584  25.752  1.00  0.00     0.116 C 
BRANCH   3   4
ATOM      4  N   UNL A   1      31.879  27.750  24.594  1.00  0.00    -0.352 N 
ATOM      5  C   UNL A   1      31.243  27.602  23.389  1.00  0.00     0.255 C 
ATOM      6  O   UNL A   1      31.748  26.813  22.583  1.00  0.00    -0.269 OA
ATOM      7  H   UNL A   1      32.670  27.173  24.693  1.00  0.00     0.163 HD
BRANCH   5   8
ATOM      8  C   UNL A   1      30.031  28.359  22.955  1.00  0.00     0.083 A 
ATOM      9  C   UNL A   1      27.621  28.782  22.906  1.00  0.00     0.032 A 
ATOM     10  C   UNL A   1      27.835  29.900  22.102  1.00  0.00     0.029 A 
ATOM     11  C   UNL A   1      28.717  27.987  23.267  1.00  0.00     0.043 A 
ATOM     12  C   UNL A   1      29.126  30.259  21.720  1.00  0.00     0.049 A 
ATOM     13  C   UNL A   1      30.211  29.498  22.148  1.00  0.00     0.128 A 
BRANCH   9  14
ATOM     14  N   UNL A   1      26.331  28.389  23.229  1.00  0.00    -0.399 N 
ATOM     15  H   UNL A   1      25.614  29.060  23.300  1.00  0.00     0.156 HD
ATOM     16  H   UNL A   1      26.131  27.438  23.388  1.00  0.00     0.156 HD
ENDBRANCH   9  14
BRANCH  13  17
ATOM     17  O   UNL A   1      31.438  29.932  21.713  1.00  0.00    -0.507 OA
ATOM     18  H   UNL A   1      32.219  29.619  22.127  1.00  0.00     0.293 HD
ENDBRANCH  13  17
ENDBRANCH   5   8
ENDBRANCH   3   4
ENDBRANCH   2   3
ENDBRANCH   1   2
BRANCH   1  19
ATOM     19  C   UNL A   1      33.255  31.805  27.224  1.00  0.00     0.116 C 
BRANCH  19  20
ATOM     20  N   UNL A   1      32.828  33.162  27.526  1.00  0.00    -0.352 N 
ATOM     21  C   UNL A   1      33.320  34.028  28.477  1.00  0.00     0.251 C 
ATOM     22  H   UNL A   1      32.089  33.509  26.976  1.00  0.00     0.163 HD
ATOM     23  O   UNL A   1      32.769  35.099  28.669  1.00  0.00    -0.269 OA
BRANCH  21  24
ATOM     24  C   UNL A   1      34.487  33.619  29.289  1.00  0.00     0.039 A 
ATOM     25  C   UNL A   1      34.282  32.761  30.373  1.00  0.00     0.014 A 
ATOM     26  C   UNL A   1      35.776  34.053  28.967  1.00  0.00     0.014 A 
ATOM     27  C   UNL A   1      35.379  32.280  31.091  1.00  0.00     0.010 A 
ATOM     28  C   UNL A   1      36.871  33.525  29.644  1.00  0.00     0.010 A 
ATOM     29  C   UNL A   1      36.684  32.629  30.708  1.00  0.00    -0.014 A 
BRANCH  29  30
ATOM     30  C   UNL A   1      37.867  32.061  31.403  1.00  0.00     0.031 A 
ATOM     31  C   UNL A   1      38.668  30.966  30.755  1.00  0.00     0.074 A 
ATOM     32  C   UNL A   1      38.172  32.479  32.647  1.00  0.00     0.049 A 
ATOM     33  N   UNL A   1      39.675  30.281  31.231  1.00  0.00    -0.248 NA
ATOM     34  C   UNL A   1      38.255  30.569  29.400  1.00  0.00     0.031 C 
ATOM     35  C   UNL A   1      37.439  33.501  33.398  1.00  0.00     0.029 A 
ATOM     36  N   UNL A   1      39.167  32.087  33.506  1.00  0.00    -0.354 N 
ATOM     37  C   UNL A   1      40.008  29.360  30.245  1.00  0.00     0.074 A 
ATOM     38  C   UNL A   1      39.054  29.538  29.169  1.00  0.00     0.031 C 
ATOM     39  C   UNL A   1      38.020  33.667  34.598  1.00  0.00     0.029 A 
ATOM     40  C   UNL A   1      39.140  32.738  34.718  1.00  0.00     0.049 A 
ATOM     41  H   UNL A   1      39.838  31.404  33.278  1.00  0.00     0.167 HD
ATOM     42  C   UNL A   1      41.028  28.465  30.228  1.00  0.00     0.034 A 
ATOM     43  C   UNL A   1      39.920  32.594  35.807  1.00  0.00     0.034 A 
ATOM     44  C   UNL A   1      41.977  28.312  31.305  1.00  0.00     0.049 A 
ATOM     45  C   UNL A   1      41.043  31.591  35.770  1.00  0.00     0.074 A 
ATOM     46  C   UNL A   1      43.081  27.481  31.371  1.00  0.00     0.029 A 
ATOM     47  N   UNL A   1      41.929  29.002  32.511  1.00  0.00    -0.354 N 
ATOM     48  N   UNL A   1      41.380  30.762  34.808  1.00  0.00    -0.248 NA
ATOM     49  C   UNL A   1      41.900  31.512  36.960  1.00  0.00     0.031 C 
ATOM     50  C   UNL A   1      43.664  27.623  32.635  1.00  0.00     0.029 A 
ATOM     51  C   UNL A   1      42.967  28.595  33.335  1.00  0.00     0.049 A 
ATOM     52  H   UNL A   1      41.255  29.681  32.745  1.00  0.00     0.167 HD
ATOM     53  C   UNL A   1      42.505  30.085  35.268  1.00  0.00     0.074 A 
ATOM     54  C   UNL A   1      42.795  30.610  36.586  1.00  0.00     0.031 C 
ATOM     55  C   UNL A   1      43.236  29.121  34.653  1.00  0.00     0.034 A 
BRANCH  42  56
ATOM     56  C   UNL A   1      41.144  27.573  29.014  1.00  0.00     0.023 A 
ATOM     57  C   UNL A   1      42.131  27.784  28.035  1.00  0.00     0.031 A 
ATOM     58  C   UNL A   1      40.229  26.525  28.808  1.00  0.00     0.131 A 
ATOM     59  C   UNL A   1      42.126  27.021  26.858  1.00  0.00     0.055 A 
ATOM     60  C   UNL A   1      40.282  25.712  27.674  1.00  0.00     0.041 A 
ATOM     61  F   UNL A   1      39.252  26.286  29.698  1.00  0.00    -0.206 F 
ATOM     62  C   UNL A   1      41.224  25.970  26.682  1.00  0.00     0.022 A 
BRANCH  59  63
ATOM     63  S   UNL A   1      43.209  27.529  25.496  1.00  0.00     0.124 S 
ATOM     64  O   UNL A   1      43.731  26.243  25.038  1.00  0.00    -0.237 OA
ATOM     65  O   UNL A   1      42.284  28.203  24.591  1.00  0.00    -0.237 OA
ATOM     66  O   UNL A   1      44.192  28.396  26.144  1.00  0.00    -0.744 OA
ENDBRANCH  59  63
ENDBRANCH  42  56
BRANCH  43  67
ATOM     67  C   UNL A   1      39.670  33.415  37.025  1.00  0.00     0.023 A 
ATOM     68  C   UNL A   1      38.937  32.900  38.105  1.00  0.00     0.031 A 
ATOM     69  C   UNL A   1      40.138  34.738  37.114  1.00  0.00     0.131 A 
ATOM     70  C   UNL A   1      38.656  33.716  39.212  1.00  0.00     0.055 A 
ATOM     71  C   UNL A   1      39.895  35.531  38.237  1.00  0.00     0.041 A 
ATOM     72  F   UNL A   1      40.853  35.274  36.112  1.00  0.00    -0.206 F 
ATOM     73  C   UNL A   1      39.139  35.024  39.289  1.00  0.00     0.022 A 
BRANCH  70  74
ATOM     74  S   UNL A   1      37.587  33.062  40.523  1.00  0.00     0.124 S 
ATOM     75  O   UNL A   1      37.552  34.177  41.463  1.00  0.00    -0.237 OA
ATOM     76  O   UNL A   1      36.351  32.792  39.798  1.00  0.00    -0.237 OA
ATOM     77  O   UNL A   1      38.306  31.876  40.987  1.00  0.00    -0.744 OA
ENDBRANCH  70  74
ENDBRANCH  43  67
BRANCH  55  78
ATOM     78  C   UNL A   1      44.448  28.609  35.391  1.00  0.00     0.023 A 
ATOM     79  C   UNL A   1      44.353  27.594  36.358  1.00  0.00     0.031 A 
ATOM     80  C   UNL A   1      45.716  29.157  35.127  1.00  0.00     0.131 A 
ATOM     81  C   UNL A   1      45.498  27.193  37.064  1.00  0.00     0.055 A 
ATOM     82  C   UNL A   1      46.860  28.716  35.793  1.00  0.00     0.041 A 
ATOM     83  F   UNL A   1      45.863  30.131  34.214  1.00  0.00    -0.206 F 
ATOM     84  C   UNL A   1      46.753  27.738  36.776  1.00  0.00     0.022 A 
BRANCH  81  85
ATOM     85  S   UNL A   1      45.313  26.009  38.425  1.00  0.00     0.124 S 
ATOM     86  O   UNL A   1      46.694  25.827  38.860  1.00  0.00    -0.237 OA
ATOM     87  O   UNL A   1      44.442  26.728  39.349  1.00  0.00    -0.237 OA
ATOM     88  O   UNL A   1      44.706  24.843  37.785  1.00  0.00    -0.744 OA
ENDBRANCH  81  85
ENDBRANCH  55  78
ENDBRANCH  29  30
ENDBRANCH  21  24
ENDBRANCH  19  20
ENDBRANCH   1  19
TORSDOF 16
ENDMDL
MODEL 3
REMARK VINA RESULT:     -10.2      3.043      9.653
REMARK SMILES Nc1ccc(O)c(C(=O)NCCCCNC(=O)c2ccc(-c3c4nc(c(-c5cc(S(=O)(=O)[O-])ccc5F)c5ccc([nH]5)c(-c5cc(S(=O)(=O)[O-])ccc5F)c5nc(c(-c6cc(S(=O)(=O)[O-])ccc6F)c6ccc3[nH]6)C=C5)C=C4)cc2)c1
REMARK SMILES IDX 13 1 12 2 11 3 10 4 8 5 9 6 7 8 2 9 3 10 81 11 4 12 5 13
REMARK SMILES IDX 1 14 6 17 14 19 15 20 16 21 17 23 18 24 19 25 80 26 20 27
REMARK SMILES IDX 79 28 21 29 22 30 23 31 73 32 24 33 78 34 72 35 74 36 25 37
REMARK SMILES IDX 77 38 71 39 70 40 26 42 58 43 38 44 57 45 39 46 42 47 56 48
REMARK SMILES IDX 75 49 40 50 41 51 55 53 76 54 43 55 27 56 28 57 36 58 29 59
REMARK SMILES IDX 35 60 37 61 34 62 30 63 31 64 32 65 33 66 59 67 60 68 68 69
REMARK SMILES IDX 61 70 67 71 69 72 66 73 62 74 63 75 64 76 65 77 44 78 45 79
REMARK SMILES IDX 53 80 46 81 52 82 54 83 51 84 47 85 48 86 49 87 50 88
REMARK H PARENT 10 7 1 15 1 16 6 18 15 22 74 41 42 52
REMARK Flexibility Score: inf
ROOT
ATOM      1  C   UNL A   1      31.637  29.107  26.672  1.00  0.00     0.023 C 
ENDROOT
BRANCH   1   2
ATOM      2  C   UNL A   1      32.034  27.640  26.466  1.00  0.00     0.023 C 
BRANCH   2   3
ATOM      3  C   UNL A   1      31.124  26.874  25.503  1.00  0.00     0.116 C 
BRANCH   3   4
ATOM      4  N   UNL A   1      31.677  26.885  24.163  1.00  0.00    -0.352 N 
ATOM      5  C   UNL A   1      31.254  27.432  22.980  1.00  0.00     0.255 C 
ATOM      6  O   UNL A   1      31.993  27.287  22.001  1.00  0.00    -0.269 OA
ATOM      7  H   UNL A   1      32.531  26.400  24.088  1.00  0.00     0.163 HD
BRANCH   5   8
ATOM      8  C   UNL A   1      30.008  28.234  22.798  1.00  0.00     0.083 A 
ATOM      9  C   UNL A   1      27.613  28.646  23.088  1.00  0.00     0.032 A 
ATOM     10  C   UNL A   1      27.744  29.866  22.428  1.00  0.00     0.029 A 
ATOM     11  C   UNL A   1      28.735  27.814  23.206  1.00  0.00     0.043 A 
ATOM     12  C   UNL A   1      28.985  30.282  21.954  1.00  0.00     0.049 A 
ATOM     13  C   UNL A   1      30.105  29.476  22.143  1.00  0.00     0.128 A 
BRANCH   9  14
ATOM     14  N   UNL A   1      26.365  28.203  23.500  1.00  0.00    -0.399 N 
ATOM     15  H   UNL A   1      25.657  28.038  22.836  1.00  0.00     0.156 HD
ATOM     16  H   UNL A   1      26.186  28.054  24.456  1.00  0.00     0.156 HD
ENDBRANCH   9  14
BRANCH  13  17
ATOM     17  O   UNL A   1      31.278  29.974  21.634  1.00  0.00    -0.507 OA
ATOM     18  H   UNL A   1      31.321  30.249  20.739  1.00  0.00     0.293 HD
ENDBRANCH  13  17
ENDBRANCH   5   8
ENDBRANCH   3   4
ENDBRANCH   2   3
ENDBRANCH   1   2
BRANCH   1  19
ATOM     19  C   UNL A   1      32.595  30.129  26.066  1.00  0.00     0.116 C 
BRANCH  19  20
ATOM     20  N   UNL A   1      32.302  31.496  26.464  1.00  0.00    -0.352 N 
ATOM     21  C   UNL A   1      33.012  32.315  27.314  1.00  0.00     0.251 C 
ATOM     22  H   UNL A   1      31.489  31.889  26.074  1.00  0.00     0.163 HD
ATOM     23  O   UNL A   1      32.561  33.406  27.626  1.00  0.00    -0.269 OA
BRANCH  21  24
ATOM     24  C   UNL A   1      34.292  31.835  27.878  1.00  0.00     0.039 A 
ATOM     25  C   UNL A   1      35.351  32.738  28.002  1.00  0.00     0.014 A 
ATOM     26  C   UNL A   1      34.437  30.513  28.308  1.00  0.00     0.014 A 
ATOM     27  C   UNL A   1      36.534  32.335  28.624  1.00  0.00     0.010 A 
ATOM     28  C   UNL A   1      35.594  30.131  28.983  1.00  0.00     0.010 A 
ATOM     29  C   UNL A   1      36.651  31.039  29.153  1.00  0.00    -0.014 A 
BRANCH  29  30
ATOM     30  C   UNL A   1      37.865  30.617  29.895  1.00  0.00     0.031 A 
ATOM     31  C   UNL A   1      38.827  29.642  29.273  1.00  0.00     0.074 A 
ATOM     32  C   UNL A   1      38.060  31.051  31.155  1.00  0.00     0.049 A 
ATOM     33  N   UNL A   1      39.892  29.085  29.787  1.00  0.00    -0.248 NA
ATOM     34  C   UNL A   1      38.527  29.215  27.898  1.00  0.00     0.031 C 
ATOM     35  C   UNL A   1      37.171  31.961  31.881  1.00  0.00     0.029 A 
ATOM     36  N   UNL A   1      39.059  30.777  32.054  1.00  0.00    -0.354 N 
ATOM     37  C   UNL A   1      40.382  28.228  28.809  1.00  0.00     0.074 A 
ATOM     38  C   UNL A   1      39.460  28.298  27.693  1.00  0.00     0.031 C 
ATOM     39  C   UNL A   1      37.674  32.182  33.107  1.00  0.00     0.029 A 
ATOM     40  C   UNL A   1      38.897  31.402  33.269  1.00  0.00     0.049 A 
ATOM     41  H   UNL A   1      39.821  30.189  31.850  1.00  0.00     0.167 HD
ATOM     42  C   UNL A   1      41.508  27.470  28.829  1.00  0.00     0.034 A 
ATOM     43  C   UNL A   1      39.642  31.343  34.390  1.00  0.00     0.034 A 
ATOM     44  C   UNL A   1      42.421  27.424  29.946  1.00  0.00     0.049 A 
ATOM     45  C   UNL A   1      40.885  30.491  34.395  1.00  0.00     0.074 A 
ATOM     46  C   UNL A   1      43.619  26.739  30.054  1.00  0.00     0.029 A 
ATOM     47  N   UNL A   1      42.234  28.084  31.155  1.00  0.00    -0.354 N 
ATOM     48  N   UNL A   1      41.365  29.726  33.441  1.00  0.00    -0.248 NA
ATOM     49  C   UNL A   1      41.692  30.505  35.620  1.00  0.00     0.031 C 
ATOM     50  C   UNL A   1      44.124  26.936  31.344  1.00  0.00     0.029 A 
ATOM     51  C   UNL A   1      43.278  27.801  32.021  1.00  0.00     0.049 A 
ATOM     52  H   UNL A   1      41.469  28.668  31.364  1.00  0.00     0.167 HD
ATOM     53  C   UNL A   1      42.547  29.191  33.944  1.00  0.00     0.074 A 
ATOM     54  C   UNL A   1      42.711  29.730  35.279  1.00  0.00     0.031 C 
ATOM     55  C   UNL A   1      43.422  28.337  33.354  1.00  0.00     0.034 A 
BRANCH  42  56
ATOM     56  C   UNL A   1      41.789  26.618  27.614  1.00  0.00     0.023 A 
ATOM     57  C   UNL A   1      41.436  25.257  27.569  1.00  0.00     0.031 A 
ATOM     58  C   UNL A   1      42.458  27.159  26.502  1.00  0.00     0.131 A 
ATOM     59  C   UNL A   1      41.830  24.465  26.481  1.00  0.00     0.055 A 
ATOM     60  C   UNL A   1      42.772  26.385  25.382  1.00  0.00     0.041 A 
ATOM     61  F   UNL A   1      42.838  28.447  26.492  1.00  0.00    -0.206 F 
ATOM     62  C   UNL A   1      42.474  25.025  25.376  1.00  0.00     0.022 A 
BRANCH  59  63
ATOM     63  S   UNL A   1      41.633  22.667  26.606  1.00  0.00     0.124 S 
ATOM     64  O   UNL A   1      42.278  22.213  25.376  1.00  0.00    -0.237 OA
ATOM     65  O   UNL A   1      42.334  22.358  27.847  1.00  0.00    -0.237 OA
ATOM     66  O   UNL A   1      40.184  22.483  26.644  1.00  0.00    -0.744 OA
ENDBRANCH  59  63
ENDBRANCH  42  56
BRANCH  43  67
ATOM     67  C   UNL A   1      39.237  32.107  35.603  1.00  0.00     0.023 A 
ATOM     68  C   UNL A   1      38.499  31.496  36.629  1.00  0.00     0.031 A 
ATOM     69  C   UNL A   1      39.558  33.469  35.740  1.00  0.00     0.131 A 
ATOM     70  C   UNL A   1      38.070  32.255  37.729  1.00  0.00     0.055 A 
ATOM     71  C   UNL A   1      39.169  34.209  36.858  1.00  0.00     0.041 A 
ATOM     72  F   UNL A   1      40.270  34.098  34.791  1.00  0.00    -0.206 F 
ATOM     73  C   UNL A   1      38.410  33.604  37.855  1.00  0.00     0.022 A 
BRANCH  70  74
ATOM     74  S   UNL A   1      37.002  31.466  38.964  1.00  0.00     0.124 S 
ATOM     75  O   UNL A   1      37.799  31.601  40.178  1.00  0.00    -0.237 OA
ATOM     76  O   UNL A   1      35.798  32.287  38.890  1.00  0.00    -0.237 OA
ATOM     77  O   UNL A   1      36.853  30.101  38.461  1.00  0.00    -0.744 OA
ENDBRANCH  70  74
ENDBRANCH  43  67
BRANCH  55  78
ATOM     78  C   UNL A   1      44.657  27.974  34.141  1.00  0.00     0.023 A 
ATOM     79  C   UNL A   1      44.703  26.833  34.961  1.00  0.00     0.031 A 
ATOM     80  C   UNL A   1      45.799  28.791  34.074  1.00  0.00     0.131 A 
ATOM     81  C   UNL A   1      45.852  26.569  35.723  1.00  0.00     0.055 A 
ATOM     82  C   UNL A   1      46.958  28.492  34.791  1.00  0.00     0.041 A 
ATOM     83  F   UNL A   1      45.807  29.893  33.307  1.00  0.00    -0.206 F 
ATOM     84  C   UNL A   1      46.985  27.383  35.631  1.00  0.00     0.022 A 
BRANCH  81  85
ATOM     85  S   UNL A   1      45.818  25.191  36.901  1.00  0.00     0.124 S 
ATOM     86  O   UNL A   1      47.023  25.434  37.688  1.00  0.00    -0.237 OA
ATOM     87  O   UNL A   1      44.550  25.403  37.593  1.00  0.00    -0.237 OA
ATOM     88  O   UNL A   1      45.864  24.006  36.046  1.00  0.00    -0.744 OA
ENDBRANCH  81  85
ENDBRANCH  55  78
ENDBRANCH  29  30
ENDBRANCH  21  24
ENDBRANCH  19  20
ENDBRANCH   1  19
TORSDOF 16
ENDMDL
