MODEL 1
REMARK VINA RESULT:     -11.9      0.000      0.000
REMARK SMILES CC[C@]1(C(=O)NCCCCNC(=O)c2ccc(-c3c4nc(c(-c5cc(S(=O)(=O)[O-])ccc5F)c5ccc([nH]5)c(-c5cc(S(=O)(=O)[O-])ccc5F)c5nc(c(-c6cc(S(=O)(=O)[O-])ccc6F)c6ccc3[nH]6)C=C5)C=C4)cc2)CCC[N@@H+]([C@@H]2CCC[C@H](S(C)(=O)=O)C2)C1
REMARK SMILES IDX 9 1 8 2 7 3 6 4 4 5 5 6 3 8 77 9 91 10 78 11 80 12 79 13
REMARK SMILES IDX 2 15 1 16 81 17 82 18 90 19 83 20 85 21 84 22 86 23 87 24
REMARK SMILES IDX 88 25 89 26 10 27 11 28 12 29 13 31 14 32 15 33 76 34 16 35
REMARK SMILES IDX 75 36 17 37 18 38 19 39 69 40 20 41 74 42 68 43 70 44 21 45
REMARK SMILES IDX 73 46 67 47 66 48 22 50 54 51 34 52 53 53 35 54 38 55 52 56
REMARK SMILES IDX 71 57 36 58 37 59 51 61 72 62 39 63 23 64 24 65 32 66 25 67
REMARK SMILES IDX 31 68 33 69 30 70 26 71 27 72 28 73 29 74 55 75 56 76 64 77
REMARK SMILES IDX 57 78 63 79 65 80 62 81 58 82 59 83 60 84 61 85 40 86 41 87
REMARK SMILES IDX 49 88 42 89 48 90 50 91 47 92 43 93 44 94 45 95 46 96
REMARK H PARENT 6 7 80 14 11 30 70 49 38 60
REMARK Flexibility Score: inf
ROOT
ATOM      1  C   UNL A   1      37.624  20.731  25.362  1.00  0.00     0.023 C 
ENDROOT
BRANCH   1   2
ATOM      2  C   UNL A   1      37.127  21.716  24.307  1.00  0.00     0.023 C 
BRANCH   2   3
ATOM      3  C   UNL A   1      36.424  22.949  24.868  1.00  0.00     0.116 C 
BRANCH   3   4
ATOM      4  N   UNL A   1      35.792  22.697  26.152  1.00  0.00    -0.355 N 
ATOM      5  C   UNL A   1      34.483  22.563  26.520  1.00  0.00     0.231 C 
ATOM      6  O   UNL A   1      34.288  22.280  27.707  1.00  0.00    -0.274 OA
ATOM      7  H   UNL A   1      36.428  22.604  26.899  1.00  0.00     0.163 HD
BRANCH   5   8
ATOM      8  C   UNL A   1      33.308  22.718  25.512  1.00  0.00     0.098 C 
ATOM      9  C   UNL A   1      31.965  22.601  26.270  1.00  0.00     0.028 C 
ATOM     10  C   UNL A   1      33.518  24.083  24.793  1.00  0.00     0.279 C 
ATOM     11  C   UNL A   1      30.810  23.360  25.630  1.00  0.00     0.063 C 
ATOM     12  N   UNL A   1      32.320  24.692  24.188  1.00  0.00    -0.332 N 
ATOM     13  C   UNL A   1      31.209  24.748  25.147  1.00  0.00     0.262 C 
ATOM     14  H   UNL A   1      31.997  24.094  23.428  1.00  0.00     0.348 HD
BRANCH   8  15
ATOM     15  C   UNL A   1      33.429  21.549  24.470  1.00  0.00     0.019 C 
ATOM     16  C   UNL A   1      32.657  20.268  24.756  1.00  0.00     0.005 C 
ENDBRANCH   8  15
BRANCH  12  17
ATOM     17  C   UNL A   1      32.640  26.003  23.559  1.00  0.00     0.185 C 
ATOM     18  C   UNL A   1      33.753  26.810  24.263  1.00  0.00     0.065 C 
ATOM     19  C   UNL A   1      31.355  26.838  23.388  1.00  0.00     0.084 C 
ATOM     20  C   UNL A   1      33.988  28.161  23.599  1.00  0.00     0.007 C 
ATOM     21  C   UNL A   1      31.599  28.237  22.803  1.00  0.00     0.114 C 
ATOM     22  C   UNL A   1      32.704  28.977  23.559  1.00  0.00     0.020 C 
BRANCH  21  23
ATOM     23  S   UNL A   1      30.041  29.158  22.833  1.00  0.00     0.150 S 
ATOM     24  C   UNL A   1      28.789  27.939  23.154  1.00  0.00     0.158 C 
ATOM     25  O   UNL A   1      30.071  30.037  23.988  1.00  0.00    -0.229 OA
ATOM     26  O   UNL A   1      29.790  29.689  21.508  1.00  0.00    -0.229 OA
ENDBRANCH  21  23
ENDBRANCH  12  17
ENDBRANCH   5   8
ENDBRANCH   3   4
ENDBRANCH   2   3
ENDBRANCH   1   2
BRANCH   1  27
ATOM     27  C   UNL A   1      38.989  21.058  25.956  1.00  0.00     0.116 C 
BRANCH  27  28
ATOM     28  N   UNL A   1      39.882  19.909  25.996  1.00  0.00    -0.352 N 
ATOM     29  C   UNL A   1      41.248  19.882  26.152  1.00  0.00     0.251 C 
ATOM     30  H   UNL A   1      39.449  19.031  25.897  1.00  0.00     0.163 HD
ATOM     31  O   UNL A   1      41.857  18.825  26.015  1.00  0.00    -0.269 OA
BRANCH  29  32
ATOM     32  C   UNL A   1      41.972  21.136  26.447  1.00  0.00     0.039 A 
ATOM     33  C   UNL A   1      42.292  21.998  25.395  1.00  0.00     0.014 A 
ATOM     34  C   UNL A   1      42.295  21.481  27.762  1.00  0.00     0.014 A 
ATOM     35  C   UNL A   1      42.867  23.240  25.673  1.00  0.00     0.010 A 
ATOM     36  C   UNL A   1      42.788  22.751  28.043  1.00  0.00     0.010 A 
ATOM     37  C   UNL A   1      43.079  23.646  27.002  1.00  0.00    -0.014 A 
BRANCH  37  38
ATOM     38  C   UNL A   1      43.600  25.002  27.320  1.00  0.00     0.031 A 
ATOM     39  C   UNL A   1      42.681  26.043  27.905  1.00  0.00     0.074 A 
ATOM     40  C   UNL A   1      44.876  25.316  27.019  1.00  0.00     0.049 A 
ATOM     41  N   UNL A   1      42.923  27.300  28.176  1.00  0.00    -0.248 NA
ATOM     42  C   UNL A   1      41.300  25.622  28.192  1.00  0.00     0.031 C 
ATOM     43  C   UNL A   1      45.849  24.406  26.407  1.00  0.00     0.029 A 
ATOM     44  N   UNL A   1      45.577  26.487  27.174  1.00  0.00    -0.354 N 
ATOM     45  C   UNL A   1      41.723  27.824  28.646  1.00  0.00     0.074 A 
ATOM     46  C   UNL A   1      40.743  26.762  28.572  1.00  0.00     0.031 C 
ATOM     47  C   UNL A   1      47.020  25.046  26.256  1.00  0.00     0.029 A 
ATOM     48  C   UNL A   1      46.873  26.426  26.711  1.00  0.00     0.049 A 
ATOM     49  H   UNL A   1      45.189  27.297  27.578  1.00  0.00     0.167 HD
ATOM     50  C   UNL A   1      41.469  29.071  29.112  1.00  0.00     0.034 A 
ATOM     51  C   UNL A   1      47.828  27.375  26.639  1.00  0.00     0.034 A 
ATOM     52  C   UNL A   1      42.465  30.110  29.198  1.00  0.00     0.049 A 
ATOM     53  C   UNL A   1      47.515  28.759  27.155  1.00  0.00     0.074 A 
ATOM     54  C   UNL A   1      42.335  31.382  29.729  1.00  0.00     0.029 A 
ATOM     55  N   UNL A   1      43.770  30.008  28.732  1.00  0.00    -0.354 N 
ATOM     56  N   UNL A   1      46.394  29.216  27.666  1.00  0.00    -0.248 NA
ATOM     57  C   UNL A   1      48.596  29.751  27.097  1.00  0.00     0.031 C 
ATOM     58  C   UNL A   1      43.529  32.074  29.509  1.00  0.00     0.029 A 
ATOM     59  C   UNL A   1      44.439  31.207  28.925  1.00  0.00     0.049 A 
ATOM     60  H   UNL A   1      44.161  29.202  28.324  1.00  0.00     0.167 HD
ATOM     61  C   UNL A   1      46.650  30.538  28.020  1.00  0.00     0.074 A 
ATOM     62  C   UNL A   1      48.033  30.797  27.682  1.00  0.00     0.031 C 
ATOM     63  C   UNL A   1      45.818  31.455  28.578  1.00  0.00     0.034 A 
BRANCH  50  64
ATOM     64  C   UNL A   1      40.055  29.392  29.535  1.00  0.00     0.023 A 
ATOM     65  C   UNL A   1      39.679  29.463  30.887  1.00  0.00     0.031 A 
ATOM     66  C   UNL A   1      39.068  29.641  28.564  1.00  0.00     0.131 A 
ATOM     67  C   UNL A   1      38.342  29.715  31.229  1.00  0.00     0.055 A 
ATOM     68  C   UNL A   1      37.757  29.970  28.912  1.00  0.00     0.041 A 
ATOM     69  F   UNL A   1      39.361  29.564  27.256  1.00  0.00    -0.206 F 
ATOM     70  C   UNL A   1      37.384  29.998  30.253  1.00  0.00     0.022 A 
BRANCH  67  71
ATOM     71  S   UNL A   1      37.843  29.545  32.965  1.00  0.00     0.124 S 
ATOM     72  O   UNL A   1      36.838  30.598  33.087  1.00  0.00    -0.237 OA
ATOM     73  O   UNL A   1      37.344  28.176  33.017  1.00  0.00    -0.237 OA
ATOM     74  O   UNL A   1      39.081  29.786  33.703  1.00  0.00    -0.744 OA
ENDBRANCH  67  71
ENDBRANCH  50  64
BRANCH  51  75
ATOM     75  C   UNL A   1      49.158  27.074  26.031  1.00  0.00     0.023 A 
ATOM     76  C   UNL A   1      49.456  27.445  24.709  1.00  0.00     0.031 A 
ATOM     77  C   UNL A   1      50.131  26.348  26.742  1.00  0.00     0.131 A 
ATOM     78  C   UNL A   1      50.665  27.037  24.121  1.00  0.00     0.055 A 
ATOM     79  C   UNL A   1      51.358  26.002  26.175  1.00  0.00     0.041 A 
ATOM     80  F   UNL A   1      49.903  25.967  28.009  1.00  0.00    -0.206 F 
ATOM     81  C   UNL A   1      51.624  26.331  24.850  1.00  0.00     0.022 A 
BRANCH  78  82
ATOM     82  S   UNL A   1      50.914  27.340  22.350  1.00  0.00     0.124 S 
ATOM     83  O   UNL A   1      49.759  26.662  21.768  1.00  0.00    -0.237 OA
ATOM     84  O   UNL A   1      50.902  28.797  22.288  1.00  0.00    -0.237 OA
ATOM     85  O   UNL A   1      52.207  26.716  22.077  1.00  0.00    -0.744 OA
ENDBRANCH  78  82
ENDBRANCH  51  75
BRANCH  63  86
ATOM     86  C   UNL A   1      46.403  32.809  28.904  1.00  0.00     0.023 A 
ATOM     87  C   UNL A   1      46.342  33.884  28.001  1.00  0.00     0.031 A 
ATOM     88  C   UNL A   1      47.036  33.022  30.142  1.00  0.00     0.131 A 
ATOM     89  C   UNL A   1      46.954  35.104  28.324  1.00  0.00     0.055 A 
ATOM     90  C   UNL A   1      47.582  34.259  30.486  1.00  0.00     0.041 A 
ATOM     91  F   UNL A   1      47.129  32.030  31.043  1.00  0.00    -0.206 F 
ATOM     92  C   UNL A   1      47.556  35.305  29.568  1.00  0.00     0.022 A 
BRANCH  89  93
ATOM     93  S   UNL A   1      47.042  36.398  27.055  1.00  0.00     0.124 S 
ATOM     94  O   UNL A   1      46.019  37.335  27.508  1.00  0.00    -0.237 OA
ATOM     95  O   UNL A   1      48.423  36.855  27.171  1.00  0.00    -0.237 OA
ATOM     96  O   UNL A   1      46.727  35.686  25.818  1.00  0.00    -0.744 OA
ENDBRANCH  89  93
ENDBRANCH  63  86
ENDBRANCH  37  38
ENDBRANCH  29  32
ENDBRANCH  27  28
ENDBRANCH   1  27
TORSDOF 17
ENDMDL
MODEL 2
REMARK VINA RESULT:     -11.8      2.579      8.198
REMARK SMILES CC[C@]1(C(=O)NCCCCNC(=O)c2ccc(-c3c4nc(c(-c5cc(S(=O)(=O)[O-])ccc5F)c5ccc([nH]5)c(-c5cc(S(=O)(=O)[O-])ccc5F)c5nc(c(-c6cc(S(=O)(=O)[O-])ccc6F)c6ccc3[nH]6)C=C5)C=C4)cc2)CCC[N@@H+]([C@@H]2CCC[C@H](S(C)(=O)=O)C2)C1
REMARK SMILES IDX 9 1 8 2 7 3 6 4 4 5 5 6 3 8 77 9 91 10 78 11 80 12 79 13
REMARK SMILES IDX 2 15 1 16 81 17 82 18 90 19 83 20 85 21 84 22 86 23 87 24
REMARK SMILES IDX 88 25 89 26 10 27 11 28 12 29 13 31 14 32 15 33 76 34 16 35
REMARK SMILES IDX 75 36 17 37 18 38 19 39 69 40 20 41 74 42 68 43 70 44 21 45
REMARK SMILES IDX 73 46 67 47 66 48 22 50 54 51 34 52 53 53 35 54 38 55 52 56
REMARK SMILES IDX 71 57 36 58 37 59 51 61 72 62 39 63 23 64 24 65 32 66 25 67
REMARK SMILES IDX 31 68 33 69 30 70 26 71 27 72 28 73 29 74 55 75 56 76 64 77
REMARK SMILES IDX 57 78 63 79 65 80 62 81 58 82 59 83 60 84 61 85 40 86 41 87
REMARK SMILES IDX 49 88 42 89 48 90 50 91 47 92 43 93 44 94 45 95 46 96
REMARK H PARENT 6 7 80 14 11 30 70 49 38 60
REMARK Flexibility Score: inf
ROOT
ATOM      1  C   UNL A   1      35.593  21.330  25.154  1.00  0.00     0.023 C 
ENDROOT
BRANCH   1   2
ATOM      2  C   UNL A   1      34.494  21.482  26.202  1.00  0.00     0.023 C 
BRANCH   2   3
ATOM      3  C   UNL A   1      33.073  21.349  25.660  1.00  0.00     0.116 C 
BRANCH   3   4
ATOM      4  N   UNL A   1      32.089  22.004  26.505  1.00  0.00    -0.355 N 
ATOM      5  C   UNL A   1      31.567  23.266  26.497  1.00  0.00     0.231 C 
ATOM      6  O   UNL A   1      30.680  23.484  27.330  1.00  0.00    -0.274 OA
ATOM      7  H   UNL A   1      31.731  21.429  27.220  1.00  0.00     0.163 HD
BRANCH   5   8
ATOM      8  C   UNL A   1      32.023  24.356  25.485  1.00  0.00     0.098 C 
ATOM      9  C   UNL A   1      32.376  23.687  24.136  1.00  0.00     0.028 C 
ATOM     10  C   UNL A   1      30.864  25.392  25.397  1.00  0.00     0.279 C 
ATOM     11  C   UNL A   1      32.185  24.580  22.917  1.00  0.00     0.063 C 
ATOM     12  N   UNL A   1      30.816  26.216  24.176  1.00  0.00    -0.332 N 
ATOM     13  C   UNL A   1      30.891  25.383  22.969  1.00  0.00     0.262 C 
ATOM     14  H   UNL A   1      31.643  26.812  24.151  1.00  0.00     0.348 HD
BRANCH   8  15
ATOM     15  C   UNL A   1      33.302  25.043  26.082  1.00  0.00     0.019 C 
ATOM     16  C   UNL A   1      34.594  24.947  25.282  1.00  0.00     0.005 C 
ENDBRANCH   8  15
BRANCH  12  17
ATOM     17  C   UNL A   1      29.653  27.144  24.196  1.00  0.00     0.185 C 
ATOM     18  C   UNL A   1      28.274  26.467  24.029  1.00  0.00     0.065 C 
ATOM     19  C   UNL A   1      29.858  28.275  23.168  1.00  0.00     0.084 C 
ATOM     20  C   UNL A   1      27.137  27.480  24.003  1.00  0.00     0.007 C 
ATOM     21  C   UNL A   1      28.672  29.247  23.073  1.00  0.00     0.114 C 
ATOM     22  C   UNL A   1      27.347  28.504  22.897  1.00  0.00     0.020 C 
BRANCH  21  23
ATOM     23  S   UNL A   1      28.975  30.399  21.710  1.00  0.00     0.150 S 
ATOM     24  C   UNL A   1      28.949  32.013  22.452  1.00  0.00     0.158 C 
ATOM     25  O   UNL A   1      30.332  30.181  21.242  1.00  0.00    -0.229 OA
ATOM     26  O   UNL A   1      27.859  30.335  20.789  1.00  0.00    -0.229 OA
ENDBRANCH  21  23
ENDBRANCH  12  17
ENDBRANCH   5   8
ENDBRANCH   3   4
ENDBRANCH   2   3
ENDBRANCH   1   2
BRANCH   1  27
ATOM     27  C   UNL A   1      36.925  21.972  25.519  1.00  0.00     0.116 C 
BRANCH  27  28
ATOM     28  N   UNL A   1      37.994  21.000  25.704  1.00  0.00    -0.352 N 
ATOM     29  C   UNL A   1      39.278  21.204  26.149  1.00  0.00     0.251 C 
ATOM     30  H   UNL A   1      37.764  20.070  25.479  1.00  0.00     0.163 HD
ATOM     31  O   UNL A   1      40.092  20.286  26.104  1.00  0.00    -0.269 OA
BRANCH  29  32
ATOM     32  C   UNL A   1      39.675  22.539  26.643  1.00  0.00     0.039 A 
ATOM     33  C   UNL A   1      40.676  22.634  27.612  1.00  0.00     0.014 A 
ATOM     34  C   UNL A   1      39.092  23.695  26.118  1.00  0.00     0.014 A 
ATOM     35  C   UNL A   1      41.144  23.892  27.999  1.00  0.00     0.010 A 
ATOM     36  C   UNL A   1      39.618  24.942  26.441  1.00  0.00     0.010 A 
ATOM     37  C   UNL A   1      40.651  25.055  27.384  1.00  0.00    -0.014 A 
BRANCH  37  38
ATOM     38  C   UNL A   1      41.206  26.396  27.712  1.00  0.00     0.031 A 
ATOM     39  C   UNL A   1      42.616  26.744  27.317  1.00  0.00     0.074 A 
ATOM     40  C   UNL A   1      40.465  27.270  28.424  1.00  0.00     0.049 A 
ATOM     41  N   UNL A   1      43.305  27.824  27.580  1.00  0.00    -0.248 NA
ATOM     42  C   UNL A   1      43.360  25.730  26.552  1.00  0.00     0.031 C 
ATOM     43  C   UNL A   1      39.102  27.027  28.906  1.00  0.00     0.029 A 
ATOM     44  N   UNL A   1      40.753  28.532  28.881  1.00  0.00    -0.354 N 
ATOM     45  C   UNL A   1      44.566  27.613  27.032  1.00  0.00     0.074 A 
ATOM     46  C   UNL A   1      44.562  26.280  26.469  1.00  0.00     0.031 C 
ATOM     47  C   UNL A   1      38.668  28.111  29.570  1.00  0.00     0.029 A 
ATOM     48  C   UNL A   1      39.735  29.106  29.612  1.00  0.00     0.049 A 
ATOM     49  H   UNL A   1      41.608  28.986  28.703  1.00  0.00     0.167 HD
ATOM     50  C   UNL A   1      45.623  28.460  26.988  1.00  0.00     0.034 A 
ATOM     51  C   UNL A   1      39.674  30.287  30.259  1.00  0.00     0.034 A 
ATOM     52  C   UNL A   1      45.602  29.794  27.536  1.00  0.00     0.049 A 
ATOM     53  C   UNL A   1      40.870  31.207  30.204  1.00  0.00     0.074 A 
ATOM     54  C   UNL A   1      46.588  30.763  27.474  1.00  0.00     0.029 A 
ATOM     55  N   UNL A   1      44.550  30.345  28.257  1.00  0.00    -0.354 N 
ATOM     56  N   UNL A   1      42.030  31.019  29.615  1.00  0.00    -0.248 NA
ATOM     57  C   UNL A   1      40.746  32.501  30.887  1.00  0.00     0.031 C 
ATOM     58  C   UNL A   1      46.169  31.864  28.227  1.00  0.00     0.029 A 
ATOM     59  C   UNL A   1      44.882  31.622  28.681  1.00  0.00     0.049 A 
ATOM     60  H   UNL A   1      43.695  29.894  28.440  1.00  0.00     0.167 HD
ATOM     61  C   UNL A   1      42.757  32.187  29.831  1.00  0.00     0.074 A 
ATOM     62  C   UNL A   1      41.900  33.077  30.584  1.00  0.00     0.031 C 
ATOM     63  C   UNL A   1      44.020  32.499  29.438  1.00  0.00     0.034 A 
BRANCH  50  64
ATOM     64  C   UNL A   1      46.901  27.963  26.355  1.00  0.00     0.023 A 
ATOM     65  C   UNL A   1      47.159  28.108  24.981  1.00  0.00     0.031 A 
ATOM     66  C   UNL A   1      47.883  27.339  27.146  1.00  0.00     0.131 A 
ATOM     67  C   UNL A   1      48.338  27.584  24.431  1.00  0.00     0.055 A 
ATOM     68  C   UNL A   1      49.090  26.892  26.606  1.00  0.00     0.041 A 
ATOM     69  F   UNL A   1      47.684  27.150  28.460  1.00  0.00    -0.206 F 
ATOM     70  C   UNL A   1      49.319  27.003  25.238  1.00  0.00     0.022 A 
BRANCH  67  71
ATOM     71  S   UNL A   1      48.519  27.560  22.626  1.00  0.00     0.124 S 
ATOM     72  O   UNL A   1      48.511  26.126  22.348  1.00  0.00    -0.237 OA
ATOM     73  O   UNL A   1      47.345  28.304  22.182  1.00  0.00    -0.237 OA
ATOM     74  O   UNL A   1      49.800  28.225  22.400  1.00  0.00    -0.744 OA
ENDBRANCH  67  71
ENDBRANCH  50  64
BRANCH  51  75
ATOM     75  C   UNL A   1      38.461  30.664  31.044  1.00  0.00     0.023 A 
ATOM     76  C   UNL A   1      37.384  31.337  30.442  1.00  0.00     0.031 A 
ATOM     77  C   UNL A   1      38.388  30.417  32.427  1.00  0.00     0.131 A 
ATOM     78  C   UNL A   1      36.313  31.792  31.228  1.00  0.00     0.055 A 
ATOM     79  C   UNL A   1      37.291  30.813  33.193  1.00  0.00     0.041 A 
ATOM     80  F   UNL A   1      39.387  29.777  33.056  1.00  0.00    -0.206 F 
ATOM     81  C   UNL A   1      36.252  31.521  32.597  1.00  0.00     0.022 A 
BRANCH  78  82
ATOM     82  S   UNL A   1      35.057  32.848  30.456  1.00  0.00     0.124 S 
ATOM     83  O   UNL A   1      34.132  33.066  31.563  1.00  0.00    -0.237 OA
ATOM     84  O   UNL A   1      35.846  34.003  30.042  1.00  0.00    -0.237 OA
ATOM     85  O   UNL A   1      34.543  32.023  29.365  1.00  0.00    -0.744 OA
ENDBRANCH  78  82
ENDBRANCH  51  75
BRANCH  63  86
ATOM     86  C   UNL A   1      44.526  33.881  29.775  1.00  0.00     0.023 A 
ATOM     87  C   UNL A   1      45.227  34.148  30.963  1.00  0.00     0.031 A 
ATOM     88  C   UNL A   1      44.296  34.950  28.889  1.00  0.00     0.131 A 
ATOM     89  C   UNL A   1      45.623  35.460  31.261  1.00  0.00     0.055 A 
ATOM     90  C   UNL A   1      44.754  36.240  29.159  1.00  0.00     0.041 A 
ATOM     91  F   UNL A   1      43.627  34.755  27.740  1.00  0.00    -0.206 F 
ATOM     92  C   UNL A   1      45.409  36.504  30.357  1.00  0.00     0.022 A 
BRANCH  89  93
ATOM     93  S   UNL A   1      46.335  35.807  32.893  1.00  0.00     0.124 S 
ATOM     94  O   UNL A   1      45.728  34.765  33.715  1.00  0.00    -0.237 OA
ATOM     95  O   UNL A   1      47.767  35.670  32.645  1.00  0.00    -0.237 OA
ATOM     96  O   UNL A   1      45.884  37.167  33.182  1.00  0.00    -0.744 OA
ENDBRANCH  89  93
ENDBRANCH  63  86
ENDBRANCH  37  38
ENDBRANCH  29  32
ENDBRANCH  27  28
ENDBRANCH   1  27
TORSDOF 17
ENDMDL
MODEL 3
REMARK VINA RESULT:     -11.7      5.369      8.782
REMARK SMILES CC[C@]1(C(=O)NCCCCNC(=O)c2ccc(-c3c4nc(c(-c5cc(S(=O)(=O)[O-])ccc5F)c5ccc([nH]5)c(-c5cc(S(=O)(=O)[O-])ccc5F)c5nc(c(-c6cc(S(=O)(=O)[O-])ccc6F)c6ccc3[nH]6)C=C5)C=C4)cc2)CCC[N@@H+]([C@@H]2CCC[C@H](S(C)(=O)=O)C2)C1
REMARK SMILES IDX 9 1 8 2 7 3 6 4 4 5 5 6 3 8 77 9 91 10 78 11 80 12 79 13
REMARK SMILES IDX 2 15 1 16 81 17 82 18 90 19 83 20 85 21 84 22 86 23 87 24
REMARK SMILES IDX 88 25 89 26 10 27 11 28 12 29 13 31 14 32 15 33 76 34 16 35
REMARK SMILES IDX 75 36 17 37 18 38 19 39 69 40 20 41 74 42 68 43 70 44 21 45
REMARK SMILES IDX 73 46 67 47 66 48 22 50 54 51 34 52 53 53 35 54 38 55 52 56
REMARK SMILES IDX 71 57 36 58 37 59 51 61 72 62 39 63 23 64 24 65 32 66 25 67
REMARK SMILES IDX 31 68 33 69 30 70 26 71 27 72 28 73 29 74 55 75 56 76 64 77
REMARK SMILES IDX 57 78 63 79 65 80 62 81 58 82 59 83 60 84 61 85 40 86 41 87
REMARK SMILES IDX 49 88 42 89 48 90 50 91 47 92 43 93 44 94 45 95 46 96
REMARK H PARENT 6 7 80 14 11 30 70 49 38 60
REMARK Flexibility Score: inf
ROOT
ATOM      1  C   UNL A   1      31.861  28.854  24.750  1.00  0.00     0.023 C 
ENDROOT
BRANCH   1   2
ATOM      2  C   UNL A   1      31.132  27.795  25.573  1.00  0.00     0.023 C 
BRANCH   2   3
ATOM      3  C   UNL A   1      32.002  27.076  26.599  1.00  0.00     0.116 C 
BRANCH   3   4
ATOM      4  N   UNL A   1      31.496  25.755  26.933  1.00  0.00    -0.355 N 
ATOM      5  C   UNL A   1      31.866  24.502  26.533  1.00  0.00     0.231 C 
ATOM      6  O   UNL A   1      31.260  23.568  27.070  1.00  0.00    -0.274 OA
ATOM      7  H   UNL A   1      30.744  25.764  27.569  1.00  0.00     0.163 HD
BRANCH   5   8
ATOM      8  C   UNL A   1      33.000  24.253  25.497  1.00  0.00     0.098 C 
ATOM      9  C   UNL A   1      34.158  25.244  25.757  1.00  0.00     0.028 C 
ATOM     10  C   UNL A   1      33.401  22.755  25.630  1.00  0.00     0.279 C 
ATOM     11  C   UNL A   1      35.531  24.738  25.335  1.00  0.00     0.063 C 
ATOM     12  N   UNL A   1      34.748  22.395  25.153  1.00  0.00    -0.332 N 
ATOM     13  C   UNL A   1      35.769  23.284  25.721  1.00  0.00     0.262 C 
ATOM     14  H   UNL A   1      34.787  22.541  24.144  1.00  0.00     0.348 HD
BRANCH   8  15
ATOM     15  C   UNL A   1      32.395  24.513  24.071  1.00  0.00     0.019 C 
ATOM     16  C   UNL A   1      31.221  23.648  23.634  1.00  0.00     0.005 C 
ENDBRANCH   8  15
BRANCH  12  17
ATOM     17  C   UNL A   1      35.025  20.947  25.358  1.00  0.00     0.185 C 
ATOM     18  C   UNL A   1      36.410  20.472  24.865  1.00  0.00     0.065 C 
ATOM     19  C   UNL A   1      33.886  20.098  24.758  1.00  0.00     0.084 C 
ATOM     20  C   UNL A   1      36.602  18.973  25.056  1.00  0.00     0.007 C 
ATOM     21  C   UNL A   1      34.120  18.584  24.867  1.00  0.00     0.114 C 
ATOM     22  C   UNL A   1      35.505  18.190  24.350  1.00  0.00     0.020 C 
BRANCH  21  23
ATOM     23  S   UNL A   1      32.805  17.728  23.966  1.00  0.00     0.150 S 
ATOM     24  C   UNL A   1      32.123  18.949  22.871  1.00  0.00     0.158 C 
ATOM     25  O   UNL A   1      33.429  16.721  23.127  1.00  0.00    -0.229 OA
ATOM     26  O   UNL A   1      31.761  17.363  24.902  1.00  0.00    -0.229 OA
ENDBRANCH  21  23
ENDBRANCH  12  17
ENDBRANCH   5   8
ENDBRANCH   3   4
ENDBRANCH   2   3
ENDBRANCH   1   2
BRANCH   1  27
ATOM     27  C   UNL A   1      32.995  29.567  25.476  1.00  0.00     0.116 C 
BRANCH  27  28
ATOM     28  N   UNL A   1      32.598  30.855  26.026  1.00  0.00    -0.352 N 
ATOM     29  C   UNL A   1      33.188  31.584  27.031  1.00  0.00     0.251 C 
ATOM     30  H   UNL A   1      31.797  31.260  25.622  1.00  0.00     0.163 HD
ATOM     31  O   UNL A   1      32.630  32.587  27.466  1.00  0.00    -0.269 OA
BRANCH  29  32
ATOM     32  C   UNL A   1      34.473  31.129  27.603  1.00  0.00     0.039 A 
ATOM     33  C   UNL A   1      35.431  32.080  27.960  1.00  0.00     0.014 A 
ATOM     34  C   UNL A   1      34.713  29.771  27.826  1.00  0.00     0.014 A 
ATOM     35  C   UNL A   1      36.597  31.672  28.611  1.00  0.00     0.010 A 
ATOM     36  C   UNL A   1      35.834  29.376  28.549  1.00  0.00     0.010 A 
ATOM     37  C   UNL A   1      36.789  30.322  28.952  1.00  0.00    -0.014 A 
BRANCH  37  38
ATOM     38  C   UNL A   1      37.978  29.884  29.730  1.00  0.00     0.031 A 
ATOM     39  C   UNL A   1      38.222  30.441  31.108  1.00  0.00     0.074 A 
ATOM     40  C   UNL A   1      38.870  29.041  29.171  1.00  0.00     0.049 A 
ATOM     41  N   UNL A   1      39.237  30.246  31.910  1.00  0.00    -0.248 NA
ATOM     42  C   UNL A   1      37.206  31.363  31.640  1.00  0.00     0.031 C 
ATOM     43  C   UNL A   1      38.765  28.472  27.824  1.00  0.00     0.029 A 
ATOM     44  N   UNL A   1      40.046  28.523  29.654  1.00  0.00    -0.354 N 
ATOM     45  C   UNL A   1      38.993  31.033  33.030  1.00  0.00     0.074 A 
ATOM     46  C   UNL A   1      37.761  31.749  32.780  1.00  0.00     0.031 C 
ATOM     47  C   UNL A   1      39.820  27.672  27.599  1.00  0.00     0.029 A 
ATOM     48  C   UNL A   1      40.705  27.709  28.759  1.00  0.00     0.049 A 
ATOM     49  H   UNL A   1      40.388  28.716  30.557  1.00  0.00     0.167 HD
ATOM     50  C   UNL A   1      39.721  31.136  34.168  1.00  0.00     0.034 A 
ATOM     51  C   UNL A   1      41.895  27.081  28.852  1.00  0.00     0.034 A 
ATOM     52  C   UNL A   1      40.936  30.397  34.409  1.00  0.00     0.049 A 
ATOM     53  C   UNL A   1      42.691  27.221  30.127  1.00  0.00     0.074 A 
ATOM     54  C   UNL A   1      41.708  30.365  35.558  1.00  0.00     0.029 A 
ATOM     55  N   UNL A   1      41.567  29.572  33.486  1.00  0.00    -0.354 N 
ATOM     56  N   UNL A   1      42.407  27.913  31.206  1.00  0.00    -0.248 NA
ATOM     57  C   UNL A   1      43.961  26.487  30.202  1.00  0.00     0.031 C 
ATOM     58  C   UNL A   1      42.844  29.591  35.301  1.00  0.00     0.029 A 
ATOM     59  C   UNL A   1      42.738  29.063  34.024  1.00  0.00     0.049 A 
ATOM     60  H   UNL A   1      41.231  29.380  32.581  1.00  0.00     0.167 HD
ATOM     61  C   UNL A   1      43.447  27.668  32.099  1.00  0.00     0.074 A 
ATOM     62  C   UNL A   1      44.353  26.752  31.439  1.00  0.00     0.031 C 
ATOM     63  C   UNL A   1      43.636  28.154  33.353  1.00  0.00     0.034 A 
BRANCH  50  64
ATOM     64  C   UNL A   1      39.245  32.102  35.227  1.00  0.00     0.023 A 
ATOM     65  C   UNL A   1      39.705  33.428  35.288  1.00  0.00     0.031 A 
ATOM     66  C   UNL A   1      38.305  31.687  36.188  1.00  0.00     0.131 A 
ATOM     67  C   UNL A   1      39.272  34.272  36.322  1.00  0.00     0.055 A 
ATOM     68  C   UNL A   1      37.817  32.556  37.166  1.00  0.00     0.041 A 
ATOM     69  F   UNL A   1      37.847  30.425  36.195  1.00  0.00    -0.206 F 
ATOM     70  C   UNL A   1      38.309  33.855  37.244  1.00  0.00     0.022 A 
BRANCH  67  71
ATOM     71  S   UNL A   1      40.077  35.886  36.521  1.00  0.00     0.124 S 
ATOM     72  O   UNL A   1      39.490  36.356  37.773  1.00  0.00    -0.237 OA
ATOM     73  O   UNL A   1      41.490  35.528  36.571  1.00  0.00    -0.237 OA
ATOM     74  O   UNL A   1      39.663  36.625  35.330  1.00  0.00    -0.744 OA
ENDBRANCH  67  71
ENDBRANCH  50  64
BRANCH  51  75
ATOM     75  C   UNL A   1      42.431  26.290  27.704  1.00  0.00     0.023 A 
ATOM     76  C   UNL A   1      41.980  24.984  27.447  1.00  0.00     0.031 A 
ATOM     77  C   UNL A   1      43.453  26.804  26.885  1.00  0.00     0.131 A 
ATOM     78  C   UNL A   1      42.591  24.217  26.441  1.00  0.00     0.055 A 
ATOM     79  C   UNL A   1      44.011  26.061  25.844  1.00  0.00     0.041 A 
ATOM     80  F   UNL A   1      43.922  28.045  27.084  1.00  0.00    -0.206 F 
ATOM     81  C   UNL A   1      43.592  24.752  25.628  1.00  0.00     0.022 A 
BRANCH  78  82
ATOM     82  S   UNL A   1      42.138  22.467  26.289  1.00  0.00     0.124 S 
ATOM     83  O   UNL A   1      40.681  22.539  26.264  1.00  0.00    -0.237 OA
ATOM     84  O   UNL A   1      42.785  22.095  25.035  1.00  0.00    -0.237 OA
ATOM     85  O   UNL A   1      42.713  21.862  27.489  1.00  0.00    -0.744 OA
ENDBRANCH  78  82
ENDBRANCH  51  75
BRANCH  63  86
ATOM     86  C   UNL A   1      44.846  27.658  34.110  1.00  0.00     0.023 A 
ATOM     87  C   UNL A   1      44.802  26.504  34.911  1.00  0.00     0.031 A 
ATOM     88  C   UNL A   1      46.062  28.360  34.030  1.00  0.00     0.131 A 
ATOM     89  C   UNL A   1      45.933  26.118  35.644  1.00  0.00     0.055 A 
ATOM     90  C   UNL A   1      47.205  27.931  34.707  1.00  0.00     0.041 A 
ATOM     91  F   UNL A   1      46.163  29.472  33.284  1.00  0.00    -0.206 F 
ATOM     92  C   UNL A   1      47.140  26.813  35.531  1.00  0.00     0.022 A 
BRANCH  89  93
ATOM     93  S   UNL A   1      45.781  24.752  36.828  1.00  0.00     0.124 S 
ATOM     94  O   UNL A   1      47.153  24.612  37.306  1.00  0.00    -0.237 OA
ATOM     95  O   UNL A   1      44.820  25.280  37.792  1.00  0.00    -0.237 OA
ATOM     96  O   UNL A   1      45.293  23.643  36.010  1.00  0.00    -0.744 OA
ENDBRANCH  89  93
ENDBRANCH  63  86
ENDBRANCH  37  38
ENDBRANCH  29  32
ENDBRANCH  27  28
ENDBRANCH   1  27
TORSDOF 17
ENDMDL
