MODEL 1
REMARK VINA RESULT:     -13.0      0.000      0.000
REMARK SMILES COc1ccc(C(=O)Nc2cc(C(=O)NCCCCNC(=O)c3ccc(-c4c5nc(c(-c6cc(S(=O)(=O)[O-])ccc6F)c6ccc([nH]6)c(-c6cc(S(=O)(=O)[O-])ccc6F)c6nc(c(-c7cc(S(=O)(=O)[O-])ccc7F)c7ccc4[nH]7)C=C6)C=C5)cc3)c(Cl)cc2Cl)cc1Cl
REMARK SMILES IDX 17 1 16 2 15 3 13 4 14 5 12 7 10 8 11 9 89 10 88 11 90 12
REMARK SMILES IDX 86 13 87 14 9 15 7 16 8 17 6 19 3 20 4 21 92 22 5 23 91 24
REMARK SMILES IDX 93 25 2 26 1 27 18 28 19 29 20 30 21 31 22 33 23 34 24 35
REMARK SMILES IDX 85 36 25 37 84 38 26 39 27 40 28 41 78 42 29 43 83 44 77 45
REMARK SMILES IDX 79 46 30 47 82 48 76 49 75 50 31 52 63 53 43 54 62 55 44 56
REMARK SMILES IDX 47 57 61 58 80 59 45 60 46 61 60 63 81 64 48 65 32 66 33 67
REMARK SMILES IDX 41 68 34 69 40 70 42 71 39 72 35 73 36 74 37 75 38 76 64 77
REMARK SMILES IDX 65 78 73 79 66 80 72 81 74 82 71 83 67 84 68 85 69 86 70 87
REMARK SMILES IDX 49 88 50 89 58 90 51 91 57 92 59 93 56 94 52 95 53 96 54 97
REMARK SMILES IDX 55 98
REMARK H PARENT 15 6 9 18 20 32 79 51 47 62
REMARK Flexibility Score: inf
ROOT
ATOM      1  C   UNL A   1      31.956  27.837  27.427  1.00  0.00     0.023 C 
ENDROOT
BRANCH   1   2
ATOM      2  C   UNL A   1      31.540  26.838  26.350  1.00  0.00     0.116 C 
BRANCH   2   3
ATOM      3  N   UNL A   1      31.028  25.572  26.845  1.00  0.00    -0.352 N 
ATOM      4  C   UNL A   1      31.563  24.305  26.792  1.00  0.00     0.252 C 
ATOM      5  O   UNL A   1      30.978  23.386  27.363  1.00  0.00    -0.269 OA
ATOM      6  H   UNL A   1      30.151  25.630  27.292  1.00  0.00     0.163 HD
BRANCH   4   7
ATOM      7  C   UNL A   1      32.752  23.963  25.970  1.00  0.00     0.060 A 
ATOM      8  C   UNL A   1      33.726  24.087  23.720  1.00  0.00     0.061 A 
ATOM      9  C   UNL A   1      32.654  24.288  24.598  1.00  0.00     0.043 A 
ATOM     10  C   UNL A   1      34.890  23.483  24.219  1.00  0.00     0.066 A 
ATOM     11  C   UNL A   1      34.977  23.099  25.558  1.00  0.00     0.044 A 
ATOM     12  Cl  UNL A   1      36.272  23.232  23.208  1.00  0.00    -0.082 Cl
ATOM     13  C   UNL A   1      33.896  23.301  26.424  1.00  0.00     0.055 A 
ATOM     14  Cl  UNL A   1      34.029  22.578  27.986  1.00  0.00    -0.083 Cl
BRANCH   8  15
ATOM     15  N   UNL A   1      33.689  24.442  22.355  1.00  0.00    -0.321 N 
ATOM     16  C   UNL A   1      32.901  25.302  21.623  1.00  0.00     0.255 C 
ATOM     17  O   UNL A   1      32.903  25.204  20.394  1.00  0.00    -0.269 OA
ATOM     18  H   UNL A   1      34.367  23.978  21.813  1.00  0.00     0.170 HD
BRANCH  16  19
ATOM     19  C   UNL A   1      32.145  26.423  22.243  1.00  0.00     0.041 A 
ATOM     20  C   UNL A   1      30.747  28.607  23.370  1.00  0.00     0.137 A 
ATOM     21  C   UNL A   1      32.089  28.727  22.977  1.00  0.00     0.049 A 
ATOM     22  C   UNL A   1      30.120  27.366  23.219  1.00  0.00     0.083 A 
ATOM     23  C   UNL A   1      32.782  27.653  22.410  1.00  0.00     0.018 A 
ATOM     24  C   UNL A   1      30.844  26.272  22.729  1.00  0.00     0.038 A 
ATOM     25  Cl  UNL A   1      28.444  27.050  23.501  1.00  0.00    -0.080 Cl
BRANCH  20  26
ATOM     26  O   UNL A   1      30.238  29.787  23.833  1.00  0.00    -0.495 OA
ATOM     27  C   UNL A   1      29.192  30.416  23.108  1.00  0.00     0.278 C 
ENDBRANCH  20  26
ENDBRANCH  16  19
ENDBRANCH   8  15
ENDBRANCH   4   7
ENDBRANCH   2   3
ENDBRANCH   1   2
BRANCH   1  28
ATOM     28  C   UNL A   1      31.514  29.289  27.245  1.00  0.00     0.023 C 
BRANCH  28  29
ATOM     29  C   UNL A   1      32.399  30.187  26.385  1.00  0.00     0.116 C 
BRANCH  29  30
ATOM     30  N   UNL A   1      32.328  31.600  26.722  1.00  0.00    -0.352 N 
ATOM     31  C   UNL A   1      33.226  32.393  27.402  1.00  0.00     0.251 C 
ATOM     32  H   UNL A   1      31.513  32.060  26.418  1.00  0.00     0.163 HD
ATOM     33  O   UNL A   1      32.938  33.566  27.627  1.00  0.00    -0.269 OA
BRANCH  31  34
ATOM     34  C   UNL A   1      34.502  31.830  27.908  1.00  0.00     0.039 A 
ATOM     35  C   UNL A   1      35.565  32.702  28.163  1.00  0.00     0.014 A 
ATOM     36  C   UNL A   1      34.654  30.464  28.151  1.00  0.00     0.014 A 
ATOM     37  C   UNL A   1      36.740  32.216  28.747  1.00  0.00     0.010 A 
ATOM     38  C   UNL A   1      35.789  29.997  28.814  1.00  0.00     0.010 A 
ATOM     39  C   UNL A   1      36.844  30.867  29.127  1.00  0.00    -0.014 A 
BRANCH  39  40
ATOM     40  C   UNL A   1      38.043  30.364  29.853  1.00  0.00     0.031 A 
ATOM     41  C   UNL A   1      38.311  30.792  31.272  1.00  0.00     0.074 A 
ATOM     42  C   UNL A   1      38.918  29.557  29.219  1.00  0.00     0.049 A 
ATOM     43  N   UNL A   1      39.316  30.488  32.054  1.00  0.00    -0.248 NA
ATOM     44  C   UNL A   1      37.339  31.713  31.879  1.00  0.00     0.031 C 
ATOM     45  C   UNL A   1      38.804  29.114  27.826  1.00  0.00     0.029 A 
ATOM     46  N   UNL A   1      40.077  28.963  29.656  1.00  0.00    -0.354 N 
ATOM     47  C   UNL A   1      39.099  31.182  33.241  1.00  0.00     0.074 A 
ATOM     48  C   UNL A   1      37.909  31.982  33.043  1.00  0.00     0.031 C 
ATOM     49  C   UNL A   1      39.823  28.288  27.539  1.00  0.00     0.029 A 
ATOM     50  C   UNL A   1      40.689  28.173  28.708  1.00  0.00     0.049 A 
ATOM     51  H   UNL A   1      40.437  29.090  30.563  1.00  0.00     0.167 HD
ATOM     52  C   UNL A   1      39.807  31.135  34.398  1.00  0.00     0.034 A 
ATOM     53  C   UNL A   1      41.816  27.438  28.774  1.00  0.00     0.034 A 
ATOM     54  C   UNL A   1      40.987  30.326  34.586  1.00  0.00     0.049 A 
ATOM     55  C   UNL A   1      42.588  27.404  30.071  1.00  0.00     0.074 A 
ATOM     56  C   UNL A   1      41.762  30.177  35.725  1.00  0.00     0.029 A 
ATOM     57  N   UNL A   1      41.569  29.528  33.608  1.00  0.00    -0.354 N 
ATOM     58  N   UNL A   1      42.338  28.028  31.199  1.00  0.00    -0.248 NA
ATOM     59  C   UNL A   1      43.781  26.549  30.106  1.00  0.00     0.031 C 
ATOM     60  C   UNL A   1      42.841  29.340  35.419  1.00  0.00     0.029 A 
ATOM     61  C   UNL A   1      42.699  28.901  34.112  1.00  0.00     0.049 A 
ATOM     62  H   UNL A   1      41.228  29.424  32.690  1.00  0.00     0.167 HD
ATOM     63  C   UNL A   1      43.323  27.605  32.089  1.00  0.00     0.074 A 
ATOM     64  C   UNL A   1      44.152  26.661  31.371  1.00  0.00     0.031 C 
ATOM     65  C   UNL A   1      43.523  27.964  33.385  1.00  0.00     0.034 A 
BRANCH  52  66
ATOM     66  C   UNL A   1      39.321  31.996  35.542  1.00  0.00     0.023 A 
ATOM     67  C   UNL A   1      39.704  33.344  35.663  1.00  0.00     0.031 A 
ATOM     68  C   UNL A   1      38.488  31.460  36.541  1.00  0.00     0.131 A 
ATOM     69  C   UNL A   1      39.326  34.083  36.794  1.00  0.00     0.055 A 
ATOM     70  C   UNL A   1      38.044  32.228  37.620  1.00  0.00     0.041 A 
ATOM     71  F   UNL A   1      38.103  30.175  36.494  1.00  0.00    -0.206 F 
ATOM     72  C   UNL A   1      38.476  33.543  37.760  1.00  0.00     0.022 A 
BRANCH  69  73
ATOM     73  S   UNL A   1      40.084  35.711  37.056  1.00  0.00     0.124 S 
ATOM     74  O   UNL A   1      41.503  35.369  37.114  1.00  0.00    -0.237 OA
ATOM     75  O   UNL A   1      39.653  36.453  35.877  1.00  0.00    -0.237 OA
ATOM     76  O   UNL A   1      39.505  36.159  38.322  1.00  0.00    -0.744 OA
ENDBRANCH  69  73
ENDBRANCH  52  66
BRANCH  53  77
ATOM     77  C   UNL A   1      42.290  26.658  27.593  1.00  0.00     0.023 A 
ATOM     78  C   UNL A   1      41.941  25.307  27.432  1.00  0.00     0.031 A 
ATOM     79  C   UNL A   1      43.150  27.231  26.639  1.00  0.00     0.131 A 
ATOM     80  C   UNL A   1      42.496  24.558  26.382  1.00  0.00     0.055 A 
ATOM     81  C   UNL A   1      43.652  26.498  25.562  1.00  0.00     0.041 A 
ATOM     82  F   UNL A   1      43.511  28.521  26.739  1.00  0.00    -0.206 F 
ATOM     83  C   UNL A   1      43.339  25.149  25.438  1.00  0.00     0.022 A 
BRANCH  80  84
ATOM     84  S   UNL A   1      42.179  22.772  26.328  1.00  0.00     0.124 S 
ATOM     85  O   UNL A   1      42.987  22.294  27.444  1.00  0.00    -0.237 OA
ATOM     86  O   UNL A   1      40.733  22.716  26.509  1.00  0.00    -0.237 OA
ATOM     87  O   UNL A   1      42.653  22.384  25.001  1.00  0.00    -0.744 OA
ENDBRANCH  80  84
ENDBRANCH  53  77
BRANCH  65  88
ATOM     88  C   UNL A   1      44.655  27.280  34.115  1.00  0.00     0.023 A 
ATOM     89  C   UNL A   1      44.491  26.029  34.736  1.00  0.00     0.031 A 
ATOM     90  C   UNL A   1      45.905  27.914  34.230  1.00  0.00     0.131 A 
ATOM     91  C   UNL A   1      45.530  25.491  35.510  1.00  0.00     0.055 A 
ATOM     92  C   UNL A   1      46.959  27.339  34.941  1.00  0.00     0.041 A 
ATOM     93  F   UNL A   1      46.121  29.111  33.660  1.00  0.00    -0.206 F 
ATOM     94  C   UNL A   1      46.768  26.130  35.604  1.00  0.00     0.022 A 
BRANCH  91  95
ATOM     95  S   UNL A   1      45.195  24.008  36.502  1.00  0.00     0.124 S 
ATOM     96  O   UNL A   1      44.020  23.455  35.835  1.00  0.00    -0.237 OA
ATOM     97  O   UNL A   1      46.431  23.247  36.350  1.00  0.00    -0.237 OA
ATOM     98  O   UNL A   1      44.954  24.541  37.842  1.00  0.00    -0.744 OA
ENDBRANCH  91  95
ENDBRANCH  65  88
ENDBRANCH  39  40
ENDBRANCH  31  34
ENDBRANCH  29  30
ENDBRANCH  28  29
ENDBRANCH   1  28
TORSDOF 17
ENDMDL
MODEL 2
REMARK VINA RESULT:     -12.9      1.644      2.026
REMARK SMILES COc1ccc(C(=O)Nc2cc(C(=O)NCCCCNC(=O)c3ccc(-c4c5nc(c(-c6cc(S(=O)(=O)[O-])ccc6F)c6ccc([nH]6)c(-c6cc(S(=O)(=O)[O-])ccc6F)c6nc(c(-c7cc(S(=O)(=O)[O-])ccc7F)c7ccc4[nH]7)C=C6)C=C5)cc3)c(Cl)cc2Cl)cc1Cl
REMARK SMILES IDX 17 1 16 2 15 3 13 4 14 5 12 7 10 8 11 9 89 10 88 11 90 12
REMARK SMILES IDX 86 13 87 14 9 15 7 16 8 17 6 19 3 20 4 21 92 22 5 23 91 24
REMARK SMILES IDX 93 25 2 26 1 27 18 28 19 29 20 30 21 31 22 33 23 34 24 35
REMARK SMILES IDX 85 36 25 37 84 38 26 39 27 40 28 41 78 42 29 43 83 44 77 45
REMARK SMILES IDX 79 46 30 47 82 48 76 49 75 50 31 52 63 53 43 54 62 55 44 56
REMARK SMILES IDX 47 57 61 58 80 59 45 60 46 61 60 63 81 64 48 65 32 66 33 67
REMARK SMILES IDX 41 68 34 69 40 70 42 71 39 72 35 73 36 74 37 75 38 76 64 77
REMARK SMILES IDX 65 78 73 79 66 80 72 81 74 82 71 83 67 84 68 85 69 86 70 87
REMARK SMILES IDX 49 88 50 89 58 90 51 91 57 92 59 93 56 94 52 95 53 96 54 97
REMARK SMILES IDX 55 98
REMARK H PARENT 15 6 9 18 20 32 79 51 47 62
REMARK Flexibility Score: inf
ROOT
ATOM      1  C   UNL A   1      31.645  27.817  27.131  1.00  0.00     0.023 C 
ENDROOT
BRANCH   1   2
ATOM      2  C   UNL A   1      31.782  26.602  26.217  1.00  0.00     0.116 C 
BRANCH   2   3
ATOM      3  N   UNL A   1      31.123  25.396  26.687  1.00  0.00    -0.352 N 
ATOM      4  C   UNL A   1      31.553  24.088  26.705  1.00  0.00     0.252 C 
ATOM      5  O   UNL A   1      30.845  23.235  27.238  1.00  0.00    -0.269 OA
ATOM      6  H   UNL A   1      30.219  25.537  27.051  1.00  0.00     0.163 HD
BRANCH   4   7
ATOM      7  C   UNL A   1      32.777  23.629  26.000  1.00  0.00     0.060 A 
ATOM      8  C   UNL A   1      33.851  23.407  23.804  1.00  0.00     0.061 A 
ATOM      9  C   UNL A   1      32.741  23.736  24.591  1.00  0.00     0.043 A 
ATOM     10  C   UNL A   1      34.991  22.895  24.442  1.00  0.00     0.066 A 
ATOM     11  C   UNL A   1      35.017  22.724  25.826  1.00  0.00     0.044 A 
ATOM     12  Cl  UNL A   1      36.416  22.497  23.544  1.00  0.00    -0.082 Cl
ATOM     13  C   UNL A   1      33.899  23.052  26.602  1.00  0.00     0.055 A 
ATOM     14  Cl  UNL A   1      33.961  22.582  28.261  1.00  0.00    -0.083 Cl
BRANCH   8  15
ATOM     15  N   UNL A   1      33.876  23.545  22.399  1.00  0.00    -0.321 N 
ATOM     16  C   UNL A   1      33.267  24.417  21.524  1.00  0.00     0.255 C 
ATOM     17  O   UNL A   1      33.241  24.130  20.326  1.00  0.00    -0.269 OA
ATOM     18  H   UNL A   1      34.445  22.879  21.952  1.00  0.00     0.170 HD
BRANCH  16  19
ATOM     19  C   UNL A   1      32.749  25.747  21.946  1.00  0.00     0.041 A 
ATOM     20  C   UNL A   1      31.702  28.234  22.789  1.00  0.00     0.137 A 
ATOM     21  C   UNL A   1      30.857  27.167  22.447  1.00  0.00     0.049 A 
ATOM     22  C   UNL A   1      33.084  28.049  22.673  1.00  0.00     0.083 A 
ATOM     23  C   UNL A   1      31.369  25.932  22.040  1.00  0.00     0.018 A 
ATOM     24  C   UNL A   1      33.588  26.837  22.184  1.00  0.00     0.038 A 
ATOM     25  Cl  UNL A   1      34.292  29.177  23.180  1.00  0.00    -0.080 Cl
BRANCH  20  26
ATOM     26  O   UNL A   1      31.006  29.325  23.227  1.00  0.00    -0.495 OA
ATOM     27  C   UNL A   1      29.712  29.573  22.697  1.00  0.00     0.278 C 
ENDBRANCH  20  26
ENDBRANCH  16  19
ENDBRANCH   8  15
ENDBRANCH   4   7
ENDBRANCH   2   3
ENDBRANCH   1   2
BRANCH   1  28
ATOM     28  C   UNL A   1      31.666  29.196  26.473  1.00  0.00     0.023 C 
BRANCH  28  29
ATOM     29  C   UNL A   1      33.010  29.914  26.397  1.00  0.00     0.116 C 
BRANCH  29  30
ATOM     30  N   UNL A   1      32.988  31.284  26.885  1.00  0.00    -0.352 N 
ATOM     31  C   UNL A   1      33.918  31.971  27.634  1.00  0.00     0.251 C 
ATOM     32  H   UNL A   1      32.185  31.799  26.643  1.00  0.00     0.163 HD
ATOM     33  O   UNL A   1      33.670  33.121  27.988  1.00  0.00    -0.269 OA
BRANCH  31  34
ATOM     34  C   UNL A   1      35.180  31.318  28.059  1.00  0.00     0.039 A 
ATOM     35  C   UNL A   1      36.356  32.075  28.069  1.00  0.00     0.014 A 
ATOM     36  C   UNL A   1      35.214  29.982  28.463  1.00  0.00     0.014 A 
ATOM     37  C   UNL A   1      37.538  31.520  28.573  1.00  0.00     0.010 A 
ATOM     38  C   UNL A   1      36.369  29.460  29.046  1.00  0.00     0.010 A 
ATOM     39  C   UNL A   1      37.544  30.224  29.115  1.00  0.00    -0.014 A 
BRANCH  39  40
ATOM     40  C   UNL A   1      38.766  29.665  29.758  1.00  0.00     0.031 A 
ATOM     41  C   UNL A   1      39.195  30.139  31.122  1.00  0.00     0.074 A 
ATOM     42  C   UNL A   1      39.518  28.765  29.092  1.00  0.00     0.049 A 
ATOM     43  N   UNL A   1      40.244  29.796  31.827  1.00  0.00    -0.248 NA
ATOM     44  C   UNL A   1      38.351  31.158  31.763  1.00  0.00     0.031 C 
ATOM     45  C   UNL A   1      39.244  28.266  27.741  1.00  0.00     0.029 A 
ATOM     46  N   UNL A   1      40.668  28.106  29.456  1.00  0.00    -0.354 N 
ATOM     47  C   UNL A   1      40.188  30.560  32.990  1.00  0.00     0.074 A 
ATOM     48  C   UNL A   1      39.045  31.438  32.855  1.00  0.00     0.031 C 
ATOM     49  C   UNL A   1      40.171  27.353  27.410  1.00  0.00     0.029 A 
ATOM     50  C   UNL A   1      41.131  27.228  28.502  1.00  0.00     0.049 A 
ATOM     51  H   UNL A   1      41.118  28.248  30.320  1.00  0.00     0.167 HD
ATOM     52  C   UNL A   1      40.995  30.514  34.080  1.00  0.00     0.034 A 
ATOM     53  C   UNL A   1      42.204  26.413  28.506  1.00  0.00     0.034 A 
ATOM     54  C   UNL A   1      42.126  29.627  34.205  1.00  0.00     0.049 A 
ATOM     55  C   UNL A   1      43.089  26.382  29.729  1.00  0.00     0.074 A 
ATOM     56  C   UNL A   1      42.990  29.474  35.277  1.00  0.00     0.029 A 
ATOM     57  N   UNL A   1      42.556  28.742  33.223  1.00  0.00    -0.354 N 
ATOM     58  N   UNL A   1      42.989  27.075  30.840  1.00  0.00    -0.248 NA
ATOM     59  C   UNL A   1      44.215  25.441  29.704  1.00  0.00     0.031 C 
ATOM     60  C   UNL A   1      43.974  28.543  34.922  1.00  0.00     0.029 A 
ATOM     61  C   UNL A   1      43.680  28.055  33.658  1.00  0.00     0.049 A 
ATOM     62  H   UNL A   1      42.125  28.621  32.347  1.00  0.00     0.167 HD
ATOM     63  C   UNL A   1      44.020  26.621  31.660  1.00  0.00     0.074 A 
ATOM     64  C   UNL A   1      44.709  25.584  30.923  1.00  0.00     0.031 C 
ATOM     65  C   UNL A   1      44.364  27.024  32.912  1.00  0.00     0.034 A 
BRANCH  52  66
ATOM     66  C   UNL A   1      40.679  31.462  35.214  1.00  0.00     0.023 A 
ATOM     67  C   UNL A   1      39.616  31.217  36.103  1.00  0.00     0.031 A 
ATOM     68  C   UNL A   1      41.427  32.639  35.396  1.00  0.00     0.131 A 
ATOM     69  C   UNL A   1      39.281  32.172  37.076  1.00  0.00     0.055 A 
ATOM     70  C   UNL A   1      41.142  33.543  36.422  1.00  0.00     0.041 A 
ATOM     71  F   UNL A   1      42.441  32.939  34.569  1.00  0.00    -0.206 F 
ATOM     72  C   UNL A   1      40.053  33.319  37.260  1.00  0.00     0.022 A 
BRANCH  69  73
ATOM     73  S   UNL A   1      37.733  31.959  37.998  1.00  0.00     0.124 S 
ATOM     74  O   UNL A   1      37.406  30.565  37.705  1.00  0.00    -0.237 OA
ATOM     75  O   UNL A   1      38.139  32.246  39.369  1.00  0.00    -0.237 OA
ATOM     76  O   UNL A   1      36.836  32.942  37.393  1.00  0.00    -0.744 OA
ENDBRANCH  69  73
ENDBRANCH  52  66
BRANCH  53  77
ATOM     77  C   UNL A   1      42.509  25.544  27.331  1.00  0.00     0.023 A 
ATOM     78  C   UNL A   1      42.056  24.216  27.278  1.00  0.00     0.031 A 
ATOM     79  C   UNL A   1      43.311  26.007  26.273  1.00  0.00     0.131 A 
ATOM     80  C   UNL A   1      42.456  23.379  26.225  1.00  0.00     0.055 A 
ATOM     81  C   UNL A   1      43.657  25.188  25.196  1.00  0.00     0.041 A 
ATOM     82  F   UNL A   1      43.767  27.270  26.268  1.00  0.00    -0.206 F 
ATOM     83  C   UNL A   1      43.243  23.860  25.176  1.00  0.00     0.022 A 
BRANCH  80  84
ATOM     84  S   UNL A   1      42.015  21.620  26.298  1.00  0.00     0.124 S 
ATOM     85  O   UNL A   1      40.624  21.645  25.862  1.00  0.00    -0.237 OA
ATOM     86  O   UNL A   1      42.971  21.030  25.367  1.00  0.00    -0.237 OA
ATOM     87  O   UNL A   1      42.224  21.276  27.703  1.00  0.00    -0.744 OA
ENDBRANCH  80  84
ENDBRANCH  53  77
BRANCH  65  88
ATOM     88  C   UNL A   1      45.507  26.292  33.574  1.00  0.00     0.023 A 
ATOM     89  C   UNL A   1      45.297  25.151  34.369  1.00  0.00     0.031 A 
ATOM     90  C   UNL A   1      46.823  26.772  33.445  1.00  0.00     0.131 A 
ATOM     91  C   UNL A   1      46.371  24.578  35.068  1.00  0.00     0.055 A 
ATOM     92  C   UNL A   1      47.898  26.154  34.084  1.00  0.00     0.041 A 
ATOM     93  F   UNL A   1      47.084  27.858  32.700  1.00  0.00    -0.206 F 
ATOM     94  C   UNL A   1      47.673  25.062  34.918  1.00  0.00     0.022 A 
BRANCH  91  95
ATOM     95  S   UNL A   1      46.022  23.273  36.280  1.00  0.00     0.124 S 
ATOM     96  O   UNL A   1      47.355  22.742  36.547  1.00  0.00    -0.237 OA
ATOM     97  O   UNL A   1      45.403  24.020  37.371  1.00  0.00    -0.237 OA
ATOM     98  O   UNL A   1      45.127  22.369  35.561  1.00  0.00    -0.744 OA
ENDBRANCH  91  95
ENDBRANCH  65  88
ENDBRANCH  39  40
ENDBRANCH  31  34
ENDBRANCH  29  30
ENDBRANCH  28  29
ENDBRANCH   1  28
TORSDOF 17
ENDMDL
MODEL 3
REMARK VINA RESULT:     -12.2      2.229      3.943
REMARK SMILES COc1ccc(C(=O)Nc2cc(C(=O)NCCCCNC(=O)c3ccc(-c4c5nc(c(-c6cc(S(=O)(=O)[O-])ccc6F)c6ccc([nH]6)c(-c6cc(S(=O)(=O)[O-])ccc6F)c6nc(c(-c7cc(S(=O)(=O)[O-])ccc7F)c7ccc4[nH]7)C=C6)C=C5)cc3)c(Cl)cc2Cl)cc1Cl
REMARK SMILES IDX 17 1 16 2 15 3 13 4 14 5 12 7 10 8 11 9 89 10 88 11 90 12
REMARK SMILES IDX 86 13 87 14 9 15 7 16 8 17 6 19 3 20 4 21 92 22 5 23 91 24
REMARK SMILES IDX 93 25 2 26 1 27 18 28 19 29 20 30 21 31 22 33 23 34 24 35
REMARK SMILES IDX 85 36 25 37 84 38 26 39 27 40 28 41 78 42 29 43 83 44 77 45
REMARK SMILES IDX 79 46 30 47 82 48 76 49 75 50 31 52 63 53 43 54 62 55 44 56
REMARK SMILES IDX 47 57 61 58 80 59 45 60 46 61 60 63 81 64 48 65 32 66 33 67
REMARK SMILES IDX 41 68 34 69 40 70 42 71 39 72 35 73 36 74 37 75 38 76 64 77
REMARK SMILES IDX 65 78 73 79 66 80 72 81 74 82 71 83 67 84 68 85 69 86 70 87
REMARK SMILES IDX 49 88 50 89 58 90 51 91 57 92 59 93 56 94 52 95 53 96 54 97
REMARK SMILES IDX 55 98
REMARK H PARENT 15 6 9 18 20 32 79 51 47 62
REMARK Flexibility Score: inf
ROOT
ATOM      1  C   UNL A   1      31.045  31.897  25.960  1.00  0.00     0.023 C 
ENDROOT
BRANCH   1   2
ATOM      2  C   UNL A   1      31.423  30.499  25.479  1.00  0.00     0.116 C 
BRANCH   2   3
ATOM      3  N   UNL A   1      32.709  30.010  25.945  1.00  0.00    -0.352 N 
ATOM      4  C   UNL A   1      33.340  28.805  25.735  1.00  0.00     0.252 C 
ATOM      5  O   UNL A   1      34.481  28.646  26.165  1.00  0.00    -0.269 OA
ATOM      6  H   UNL A   1      33.212  30.646  26.504  1.00  0.00     0.163 HD
BRANCH   4   7
ATOM      7  C   UNL A   1      32.664  27.634  25.121  1.00  0.00     0.060 A 
ATOM      8  C   UNL A   1      31.372  25.601  25.593  1.00  0.00     0.061 A 
ATOM      9  C   UNL A   1      32.100  26.713  26.034  1.00  0.00     0.043 A 
ATOM     10  C   UNL A   1      31.270  25.375  24.213  1.00  0.00     0.066 A 
ATOM     11  C   UNL A   1      31.875  26.242  23.302  1.00  0.00     0.044 A 
ATOM     12  Cl  UNL A   1      30.358  24.044  23.588  1.00  0.00    -0.082 Cl
ATOM     13  C   UNL A   1      32.605  27.347  23.754  1.00  0.00     0.055 A 
ATOM     14  Cl  UNL A   1      33.500  28.208  22.556  1.00  0.00    -0.083 Cl
BRANCH   8  15
ATOM     15  N   UNL A   1      30.750  24.684  26.469  1.00  0.00    -0.321 N 
ATOM     16  C   UNL A   1      30.862  23.322  26.647  1.00  0.00     0.255 C 
ATOM     17  O   UNL A   1      29.991  22.738  27.293  1.00  0.00    -0.269 OA
ATOM     18  H   UNL A   1      30.102  25.104  27.077  1.00  0.00     0.170 HD
BRANCH  16  19
ATOM     19  C   UNL A   1      32.052  22.549  26.201  1.00  0.00     0.041 A 
ATOM     20  C   UNL A   1      34.352  21.098  25.427  1.00  0.00     0.137 A 
ATOM     21  C   UNL A   1      34.456  22.281  26.175  1.00  0.00     0.049 A 
ATOM     22  C   UNL A   1      33.078  20.665  25.043  1.00  0.00     0.083 A 
ATOM     23  C   UNL A   1      33.322  22.997  26.569  1.00  0.00     0.018 A 
ATOM     24  C   UNL A   1      31.953  21.432  25.369  1.00  0.00     0.038 A 
ATOM     25  Cl  UNL A   1      32.724  19.170  24.252  1.00  0.00    -0.080 Cl
BRANCH  20  26
ATOM     26  O   UNL A   1      35.569  20.517  25.207  1.00  0.00    -0.495 OA
ATOM     27  C   UNL A   1      36.746  21.266  25.474  1.00  0.00     0.278 C 
ENDBRANCH  20  26
ENDBRANCH  16  19
ENDBRANCH   8  15
ENDBRANCH   4   7
ENDBRANCH   2   3
ENDBRANCH   1   2
BRANCH   1  28
ATOM     28  C   UNL A   1      31.683  32.389  27.259  1.00  0.00     0.023 C 
BRANCH  28  29
ATOM     29  C   UNL A   1      32.767  33.457  27.145  1.00  0.00     0.116 C 
BRANCH  29  30
ATOM     30  N   UNL A   1      32.666  34.521  28.132  1.00  0.00    -0.352 N 
ATOM     31  C   UNL A   1      33.444  34.776  29.240  1.00  0.00     0.251 C 
ATOM     32  H   UNL A   1      31.929  35.157  27.985  1.00  0.00     0.163 HD
ATOM     33  O   UNL A   1      33.146  35.711  29.978  1.00  0.00    -0.269 OA
BRANCH  31  34
ATOM     34  C   UNL A   1      34.597  33.904  29.573  1.00  0.00     0.039 A 
ATOM     35  C   UNL A   1      35.872  34.282  29.139  1.00  0.00     0.014 A 
ATOM     36  C   UNL A   1      34.439  32.735  30.320  1.00  0.00     0.014 A 
ATOM     37  C   UNL A   1      36.990  33.541  29.536  1.00  0.00     0.010 A 
ATOM     38  C   UNL A   1      35.561  32.050  30.786  1.00  0.00     0.010 A 
ATOM     39  C   UNL A   1      36.851  32.447  30.406  1.00  0.00    -0.014 A 
BRANCH  39  40
ATOM     40  C   UNL A   1      38.044  31.722  30.926  1.00  0.00     0.031 A 
ATOM     41  C   UNL A   1      38.603  32.049  32.287  1.00  0.00     0.074 A 
ATOM     42  C   UNL A   1      38.654  30.800  30.153  1.00  0.00     0.049 A 
ATOM     43  N   UNL A   1      39.650  31.551  32.895  1.00  0.00    -0.248 NA
ATOM     44  C   UNL A   1      37.913  33.099  33.049  1.00  0.00     0.031 C 
ATOM     45  C   UNL A   1      38.247  30.432  28.794  1.00  0.00     0.029 A 
ATOM     46  N   UNL A   1      39.747  30.003  30.394  1.00  0.00    -0.354 N 
ATOM     47  C   UNL A   1      39.746  32.230  34.106  1.00  0.00     0.074 A 
ATOM     48  C   UNL A   1      38.697  33.227  34.108  1.00  0.00     0.031 C 
ATOM     49  C   UNL A   1      39.050  29.456  28.341  1.00  0.00     0.029 A 
ATOM     50  C   UNL A   1      40.056  29.155  29.354  1.00  0.00     0.049 A 
ATOM     51  H   UNL A   1      40.262  30.035  31.232  1.00  0.00     0.167 HD
ATOM     52  C   UNL A   1      40.609  32.023  35.133  1.00  0.00     0.034 A 
ATOM     53  C   UNL A   1      41.035  28.236  29.232  1.00  0.00     0.034 A 
ATOM     54  C   UNL A   1      41.645  31.019  35.122  1.00  0.00     0.049 A 
ATOM     55  C   UNL A   1      41.984  28.027  30.387  1.00  0.00     0.074 A 
ATOM     56  C   UNL A   1      42.552  30.701  36.120  1.00  0.00     0.029 A 
ATOM     57  N   UNL A   1      41.918  30.168  34.058  1.00  0.00    -0.354 N 
ATOM     58  N   UNL A   1      42.026  28.644  31.546  1.00  0.00    -0.248 NA
ATOM     59  C   UNL A   1      43.000  26.981  30.223  1.00  0.00     0.031 C 
ATOM     60  C   UNL A   1      43.407  29.703  35.639  1.00  0.00     0.029 A 
ATOM     61  C   UNL A   1      42.988  29.341  34.369  1.00  0.00     0.049 A 
ATOM     62  H   UNL A   1      41.424  30.156  33.206  1.00  0.00     0.167 HD
ATOM     63  C   UNL A   1      43.051  28.029  32.262  1.00  0.00     0.074 A 
ATOM     64  C   UNL A   1      43.580  26.984  31.413  1.00  0.00     0.031 C 
ATOM     65  C   UNL A   1      43.511  28.303  33.511  1.00  0.00     0.034 A 
BRANCH  52  66
ATOM     66  C   UNL A   1      40.465  32.913  36.347  1.00  0.00     0.023 A 
ATOM     67  C   UNL A   1      39.642  32.554  37.429  1.00  0.00     0.031 A 
ATOM     68  C   UNL A   1      41.133  34.149  36.414  1.00  0.00     0.131 A 
ATOM     69  C   UNL A   1      39.443  33.452  38.490  1.00  0.00     0.055 A 
ATOM     70  C   UNL A   1      41.000  35.000  37.514  1.00  0.00     0.041 A 
ATOM     71  F   UNL A   1      41.918  34.558  35.404  1.00  0.00    -0.206 F 
ATOM     72  C   UNL A   1      40.138  34.661  38.552  1.00  0.00     0.022 A 
BRANCH  69  73
ATOM     73  S   UNL A   1      38.152  33.080  39.708  1.00  0.00     0.124 S 
ATOM     74  O   UNL A   1      38.159  34.292  40.523  1.00  0.00    -0.237 OA
ATOM     75  O   UNL A   1      36.976  32.879  38.871  1.00  0.00    -0.237 OA
ATOM     76  O   UNL A   1      38.651  31.882  40.381  1.00  0.00    -0.744 OA
ENDBRANCH  69  73
ENDBRANCH  52  66
BRANCH  53  77
ATOM     77  C   UNL A   1      41.174  27.429  27.984  1.00  0.00     0.023 A 
ATOM     78  C   UNL A   1      40.808  26.073  27.957  1.00  0.00     0.031 A 
ATOM     79  C   UNL A   1      41.732  27.982  26.818  1.00  0.00     0.131 A 
ATOM     80  C   UNL A   1      41.061  25.301  26.813  1.00  0.00     0.055 A 
ATOM     81  C   UNL A   1      41.926  27.224  25.662  1.00  0.00     0.041 A 
ATOM     82  F   UNL A   1      42.094  29.275  26.785  1.00  0.00    -0.206 F 
ATOM     83  C   UNL A   1      41.606  25.870  25.660  1.00  0.00     0.022 A 
BRANCH  80  84
ATOM     84  S   UNL A   1      40.760  23.512  26.889  1.00  0.00     0.124 S 
ATOM     85  O   UNL A   1      39.336  23.438  26.586  1.00  0.00    -0.237 OA
ATOM     86  O   UNL A   1      41.664  23.010  25.859  1.00  0.00    -0.237 OA
ATOM     87  O   UNL A   1      41.127  23.165  28.260  1.00  0.00    -0.744 OA
ENDBRANCH  80  84
ENDBRANCH  53  77
BRANCH  65  88
ATOM     88  C   UNL A   1      44.608  27.412  34.044  1.00  0.00     0.023 A 
ATOM     89  C   UNL A   1      44.333  26.159  34.621  1.00  0.00     0.031 A 
ATOM     90  C   UNL A   1      45.946  27.845  34.016  1.00  0.00     0.131 A 
ATOM     91  C   UNL A   1      45.367  25.422  35.218  1.00  0.00     0.055 A 
ATOM     92  C   UNL A   1      46.981  27.074  34.547  1.00  0.00     0.041 A 
ATOM     93  F   UNL A   1      46.269  29.033  33.480  1.00  0.00    -0.206 F 
ATOM     94  C   UNL A   1      46.692  25.864  35.170  1.00  0.00     0.022 A 
BRANCH  91  95
ATOM     95  S   UNL A   1      44.938  23.941  36.174  1.00  0.00     0.124 S 
ATOM     96  O   UNL A   1      46.161  23.151  36.076  1.00  0.00    -0.237 OA
ATOM     97  O   UNL A   1      44.643  24.496  37.491  1.00  0.00    -0.237 OA
ATOM     98  O   UNL A   1      43.787  23.393  35.459  1.00  0.00    -0.744 OA
ENDBRANCH  91  95
ENDBRANCH  65  88
ENDBRANCH  39  40
ENDBRANCH  31  34
ENDBRANCH  29  30
ENDBRANCH  28  29
ENDBRANCH   1  28
TORSDOF 17
ENDMDL
