MODEL 1
REMARK VINA RESULT:     -10.9      0.000      0.000
REMARK SMILES COC[C@@H](C)CC(=O)N1[C@@H](C2CC2)SC[C@H]1C(=O)NCCCCNC(=O)c1ccc(-c2c3nc(c(-c4cc(S(=O)(=O)[O-])ccc4F)c4ccc([nH]4)c(-c4cc(S(=O)(=O)[O-])ccc4F)c4nc(c(-c5cc(S(=O)(=O)[O-])ccc5F)c5ccc2[nH]5)C=C4)C=C3)cc1
REMARK SMILES IDX 20 1 19 2 17 3 18 4 16 6 9 7 10 8 14 9 15 10 7 11 8 12 6 13
REMARK SMILES IDX 4 14 5 15 3 16 2 17 1 18 11 19 12 20 13 21 21 22 22 23 23 24
REMARK SMILES IDX 24 25 25 26 26 28 27 29 28 30 89 31 29 32 88 33 30 34 31 35
REMARK SMILES IDX 32 36 82 37 33 38 87 39 81 40 83 41 34 42 86 43 80 44 79 45
REMARK SMILES IDX 35 47 67 48 47 49 66 50 48 51 51 52 65 53 84 54 49 55 50 56
REMARK SMILES IDX 64 58 85 59 52 60 36 61 37 62 45 63 38 64 44 65 46 66 43 67
REMARK SMILES IDX 39 68 40 69 41 70 42 71 68 72 69 73 77 74 70 75 76 76 78 77
REMARK SMILES IDX 75 78 71 79 72 80 73 81 74 82 53 83 54 84 62 85 55 86 61 87
REMARK SMILES IDX 63 88 60 89 56 90 57 91 58 92 59 93
REMARK H PARENT 19 5 24 27 83 46 51 57
REMARK Flexibility Score: inf
ROOT
ATOM      1  C   UNL A   1      34.927  23.691  23.520  1.00  0.00     0.116 C 
ENDROOT
BRANCH   1   2
ATOM      2  N   UNL A   1      34.505  24.925  24.140  1.00  0.00    -0.354 N 
ATOM      3  C   UNL A   1      33.916  25.133  25.348  1.00  0.00     0.243 C 
ATOM      4  O   UNL A   1      33.931  26.290  25.788  1.00  0.00    -0.273 OA
ATOM      5  H   UNL A   1      34.666  25.738  23.607  1.00  0.00     0.163 HD
BRANCH   3   6
ATOM      6  C   UNL A   1      33.438  23.983  26.261  1.00  0.00     0.185 C 
ATOM      7  N   UNL A   1      32.479  22.987  25.747  1.00  0.00    -0.318 N 
ATOM      8  C   UNL A   1      32.779  21.602  26.095  1.00  0.00     0.147 C 
ATOM      9  S   UNL A   1      34.026  21.664  27.386  1.00  0.00    -0.134 SA
ATOM     10  C   UNL A   1      34.652  23.273  26.853  1.00  0.00     0.107 C 
BRANCH   7  11
ATOM     11  C   UNL A   1      31.231  23.475  25.403  1.00  0.00     0.224 C 
ATOM     12  O   UNL A   1      30.257  23.312  26.139  1.00  0.00    -0.275 OA
BRANCH  11  13
ATOM     13  C   UNL A   1      31.021  24.029  24.004  1.00  0.00     0.106 C 
BRANCH  13  14
ATOM     14  C   UNL A   1      30.855  25.551  23.904  1.00  0.00     0.021 C 
ATOM     15  C   UNL A   1      29.376  25.908  24.122  1.00  0.00     0.010 C 
BRANCH  14  16
ATOM     16  C   UNL A   1      31.349  26.083  22.548  1.00  0.00     0.163 C 
BRANCH  16  17
ATOM     17  O   UNL A   1      32.152  25.098  21.903  1.00  0.00    -0.384 OA
ATOM     18  C   UNL A   1      32.793  25.587  20.733  1.00  0.00     0.194 C 
ENDBRANCH  16  17
ENDBRANCH  14  16
ENDBRANCH  13  14
ENDBRANCH  11  13
ENDBRANCH   7  11
BRANCH   8  19
ATOM     19  C   UNL A   1      33.162  20.853  24.843  1.00  0.00     0.022 C 
ATOM     20  C   UNL A   1      32.798  19.417  24.510  1.00  0.00     0.007 C 
ATOM     21  C   UNL A   1      32.149  20.546  23.763  1.00  0.00     0.007 C 
ENDBRANCH   8  19
ENDBRANCH   3   6
ENDBRANCH   1   2
BRANCH   1  22
ATOM     22  C   UNL A   1      36.386  23.343  23.806  1.00  0.00     0.023 C 
BRANCH  22  23
ATOM     23  C   UNL A   1      36.653  21.849  23.976  1.00  0.00     0.023 C 
BRANCH  23  24
ATOM     24  C   UNL A   1      37.113  21.417  25.367  1.00  0.00     0.116 C 
BRANCH  24  25
ATOM     25  N   UNL A   1      38.160  20.404  25.379  1.00  0.00    -0.352 N 
ATOM     26  C   UNL A   1      39.418  20.513  25.938  1.00  0.00     0.251 C 
ATOM     27  H   UNL A   1      37.949  19.549  24.939  1.00  0.00     0.163 HD
ATOM     28  O   UNL A   1      40.226  19.593  25.845  1.00  0.00    -0.269 OA
BRANCH  26  29
ATOM     29  C   UNL A   1      39.790  21.788  26.590  1.00  0.00     0.039 A 
ATOM     30  C   UNL A   1      40.813  21.788  27.542  1.00  0.00     0.014 A 
ATOM     31  C   UNL A   1      39.233  22.991  26.150  1.00  0.00     0.014 A 
ATOM     32  C   UNL A   1      41.357  23.004  27.967  1.00  0.00     0.010 A 
ATOM     33  C   UNL A   1      39.832  24.194  26.511  1.00  0.00     0.010 A 
ATOM     34  C   UNL A   1      40.915  24.213  27.406  1.00  0.00    -0.014 A 
BRANCH  34  35
ATOM     35  C   UNL A   1      41.580  25.509  27.711  1.00  0.00     0.031 A 
ATOM     36  C   UNL A   1      40.844  26.562  28.493  1.00  0.00     0.074 A 
ATOM     37  C   UNL A   1      42.802  25.777  27.207  1.00  0.00     0.049 A 
ATOM     38  N   UNL A   1      41.187  27.799  28.750  1.00  0.00    -0.248 NA
ATOM     39  C   UNL A   1      39.528  26.179  29.019  1.00  0.00     0.031 C 
ATOM     40  C   UNL A   1      43.607  24.858  26.399  1.00  0.00     0.029 A 
ATOM     41  N   UNL A   1      43.578  26.907  27.290  1.00  0.00    -0.354 N 
ATOM     42  C   UNL A   1      40.118  28.348  29.450  1.00  0.00     0.074 A 
ATOM     43  C   UNL A   1      39.091  27.329  29.507  1.00  0.00     0.031 C 
ATOM     44  C   UNL A   1      44.773  25.449  26.090  1.00  0.00     0.029 A 
ATOM     45  C   UNL A   1      44.782  26.803  26.632  1.00  0.00     0.049 A 
ATOM     46  H   UNL A   1      43.299  27.717  27.776  1.00  0.00     0.167 HD
ATOM     47  C   UNL A   1      40.012  29.577  30.018  1.00  0.00     0.034 A 
ATOM     48  C   UNL A   1      45.776  27.701  26.476  1.00  0.00     0.034 A 
ATOM     49  C   UNL A   1      41.050  30.578  29.963  1.00  0.00     0.049 A 
ATOM     50  C   UNL A   1      45.626  29.072  27.083  1.00  0.00     0.074 A 
ATOM     51  C   UNL A   1      41.069  31.838  30.536  1.00  0.00     0.029 A 
ATOM     52  N   UNL A   1      42.257  30.434  29.288  1.00  0.00    -0.354 N 
ATOM     53  N   UNL A   1      44.623  29.567  27.770  1.00  0.00    -0.248 NA
ATOM     54  C   UNL A   1      46.746  30.005  26.895  1.00  0.00     0.031 C 
ATOM     55  C   UNL A   1      42.258  32.474  30.162  1.00  0.00     0.029 A 
ATOM     56  C   UNL A   1      43.014  31.589  29.411  1.00  0.00     0.049 A 
ATOM     57  H   UNL A   1      42.533  29.629  28.793  1.00  0.00     0.167 HD
ATOM     58  C   UNL A   1      45.011  30.854  28.130  1.00  0.00     0.074 A 
ATOM     59  C   UNL A   1      46.336  31.059  27.583  1.00  0.00     0.031 C 
ATOM     60  C   UNL A   1      44.334  31.780  28.858  1.00  0.00     0.034 A 
BRANCH  47  61
ATOM     61  C   UNL A   1      38.713  29.893  30.722  1.00  0.00     0.023 A 
ATOM     62  C   UNL A   1      37.689  30.612  30.081  1.00  0.00     0.031 A 
ATOM     63  C   UNL A   1      38.523  29.541  32.070  1.00  0.00     0.131 A 
ATOM     64  C   UNL A   1      36.579  31.056  30.815  1.00  0.00     0.055 A 
ATOM     65  C   UNL A   1      37.368  29.900  32.768  1.00  0.00     0.041 A 
ATOM     66  F   UNL A   1      39.470  28.870  32.743  1.00  0.00    -0.206 F 
ATOM     67  C   UNL A   1      36.398  30.683  32.147  1.00  0.00     0.022 A 
BRANCH  64  68
ATOM     68  S   UNL A   1      35.484  32.288  30.055  1.00  0.00     0.124 S 
ATOM     69  O   UNL A   1      34.435  32.410  31.066  1.00  0.00    -0.237 OA
ATOM     70  O   UNL A   1      36.363  33.441  29.902  1.00  0.00    -0.237 OA
ATOM     71  O   UNL A   1      35.065  31.651  28.809  1.00  0.00    -0.744 OA
ENDBRANCH  64  68
ENDBRANCH  47  61
BRANCH  48  72
ATOM     72  C   UNL A   1      47.009  27.339  25.719  1.00  0.00     0.023 A 
ATOM     73  C   UNL A   1      47.155  27.708  24.373  1.00  0.00     0.031 A 
ATOM     74  C   UNL A   1      48.038  26.591  26.315  1.00  0.00     0.131 A 
ATOM     75  C   UNL A   1      48.286  27.296  23.653  1.00  0.00     0.055 A 
ATOM     76  C   UNL A   1      49.184  26.222  25.608  1.00  0.00     0.041 A 
ATOM     77  F   UNL A   1      47.949  26.219  27.602  1.00  0.00    -0.206 F 
ATOM     78  C   UNL A   1      49.308  26.565  24.265  1.00  0.00     0.022 A 
BRANCH  75  79
ATOM     79  S   UNL A   1      48.375  27.676  21.882  1.00  0.00     0.124 S 
ATOM     80  O   UNL A   1      49.544  28.546  21.823  1.00  0.00    -0.237 OA
ATOM     81  O   UNL A   1      48.531  26.349  21.294  1.00  0.00    -0.237 OA
ATOM     82  O   UNL A   1      47.095  28.328  21.610  1.00  0.00    -0.744 OA
ENDBRANCH  75  79
ENDBRANCH  48  72
BRANCH  60  83
ATOM     83  C   UNL A   1      45.050  33.073  29.156  1.00  0.00     0.023 A 
ATOM     84  C   UNL A   1      44.841  34.232  28.390  1.00  0.00     0.031 A 
ATOM     85  C   UNL A   1      45.961  33.140  30.226  1.00  0.00     0.131 A 
ATOM     86  C   UNL A   1      45.568  35.399  28.678  1.00  0.00     0.055 A 
ATOM     87  C   UNL A   1      46.642  34.316  30.538  1.00  0.00     0.041 A 
ATOM     88  F   UNL A   1      46.198  32.060  30.987  1.00  0.00    -0.206 F 
ATOM     89  C   UNL A   1      46.455  35.452  29.757  1.00  0.00     0.022 A 
BRANCH  86  90
ATOM     90  S   UNL A   1      45.390  36.832  27.581  1.00  0.00     0.124 S 
ATOM     91  O   UNL A   1      44.160  36.514  26.862  1.00  0.00    -0.237 OA
ATOM     92  O   UNL A   1      45.308  37.942  28.525  1.00  0.00    -0.237 OA
ATOM     93  O   UNL A   1      46.607  36.798  26.771  1.00  0.00    -0.744 OA
ENDBRANCH  86  90
ENDBRANCH  60  83
ENDBRANCH  34  35
ENDBRANCH  26  29
ENDBRANCH  24  25
ENDBRANCH  23  24
ENDBRANCH  22  23
ENDBRANCH   1  22
TORSDOF 20
ENDMDL
MODEL 2
REMARK VINA RESULT:     -10.7      5.058     10.155
REMARK SMILES COC[C@@H](C)CC(=O)N1[C@@H](C2CC2)SC[C@H]1C(=O)NCCCCNC(=O)c1ccc(-c2c3nc(c(-c4cc(S(=O)(=O)[O-])ccc4F)c4ccc([nH]4)c(-c4cc(S(=O)(=O)[O-])ccc4F)c4nc(c(-c5cc(S(=O)(=O)[O-])ccc5F)c5ccc2[nH]5)C=C4)C=C3)cc1
REMARK SMILES IDX 20 1 19 2 17 3 18 4 16 6 9 7 10 8 14 9 15 10 7 11 8 12 6 13
REMARK SMILES IDX 4 14 5 15 3 16 2 17 1 18 11 19 12 20 13 21 21 22 22 23 23 24
REMARK SMILES IDX 24 25 25 26 26 28 27 29 28 30 89 31 29 32 88 33 30 34 31 35
REMARK SMILES IDX 32 36 82 37 33 38 87 39 81 40 83 41 34 42 86 43 80 44 79 45
REMARK SMILES IDX 35 47 67 48 47 49 66 50 48 51 51 52 65 53 84 54 49 55 50 56
REMARK SMILES IDX 64 58 85 59 52 60 36 61 37 62 45 63 38 64 44 65 46 66 43 67
REMARK SMILES IDX 39 68 40 69 41 70 42 71 68 72 69 73 77 74 70 75 76 76 78 77
REMARK SMILES IDX 75 78 71 79 72 80 73 81 74 82 53 83 54 84 62 85 55 86 61 87
REMARK SMILES IDX 63 88 60 89 56 90 57 91 58 92 59 93
REMARK H PARENT 19 5 24 27 83 46 51 57
REMARK Flexibility Score: inf
ROOT
ATOM      1  C   UNL A   1      30.955  26.506  25.952  1.00  0.00     0.116 C 
ENDROOT
BRANCH   1   2
ATOM      2  N   UNL A   1      30.977  25.296  26.739  1.00  0.00    -0.354 N 
ATOM      3  C   UNL A   1      31.543  24.089  26.462  1.00  0.00     0.243 C 
ATOM      4  O   UNL A   1      31.696  23.311  27.412  1.00  0.00    -0.273 OA
ATOM      5  H   UNL A   1      30.513  25.351  27.606  1.00  0.00     0.163 HD
BRANCH   3   6
ATOM      6  C   UNL A   1      32.177  23.750  25.096  1.00  0.00     0.185 C 
ATOM      7  N   UNL A   1      33.566  23.256  25.033  1.00  0.00    -0.318 N 
ATOM      8  C   UNL A   1      33.785  22.141  24.119  1.00  0.00     0.147 C 
ATOM      9  S   UNL A   1      32.317  22.035  23.089  1.00  0.00    -0.134 SA
ATOM     10  C   UNL A   1      31.256  22.799  24.336  1.00  0.00     0.107 C 
BRANCH   7  11
ATOM     11  C   UNL A   1      34.538  24.138  25.469  1.00  0.00     0.224 C 
ATOM     12  O   UNL A   1      34.251  25.118  26.158  1.00  0.00    -0.275 OA
BRANCH  11  13
ATOM     13  C   UNL A   1      35.946  24.010  24.909  1.00  0.00     0.106 C 
BRANCH  13  14
ATOM     14  C   UNL A   1      36.916  23.147  25.726  1.00  0.00     0.021 C 
ATOM     15  C   UNL A   1      38.017  24.047  26.308  1.00  0.00     0.010 C 
BRANCH  14  16
ATOM     16  C   UNL A   1      37.526  22.023  24.871  1.00  0.00     0.163 C 
BRANCH  16  17
ATOM     17  O   UNL A   1      37.522  20.800  25.603  1.00  0.00    -0.384 OA
ATOM     18  C   UNL A   1      38.032  19.706  24.854  1.00  0.00     0.194 C 
ENDBRANCH  16  17
ENDBRANCH  14  16
ENDBRANCH  13  14
ENDBRANCH  11  13
ENDBRANCH   7  11
BRANCH   8  19
ATOM     19  C   UNL A   1      34.119  20.907  24.920  1.00  0.00     0.022 C 
ATOM     20  C   UNL A   1      33.141  20.060  25.713  1.00  0.00     0.007 C 
ATOM     21  C   UNL A   1      33.733  19.525  24.442  1.00  0.00     0.007 C 
ENDBRANCH   8  19
ENDBRANCH   3   6
ENDBRANCH   1   2
BRANCH   1  22
ATOM     22  C   UNL A   1      31.487  27.723  26.706  1.00  0.00     0.023 C 
BRANCH  22  23
ATOM     23  C   UNL A   1      31.607  28.986  25.854  1.00  0.00     0.023 C 
BRANCH  23  24
ATOM     24  C   UNL A   1      32.810  29.874  26.162  1.00  0.00     0.116 C 
BRANCH  24  25
ATOM     25  N   UNL A   1      32.479  31.206  26.650  1.00  0.00    -0.352 N 
ATOM     26  C   UNL A   1      33.289  32.050  27.385  1.00  0.00     0.251 C 
ATOM     27  H   UNL A   1      31.579  31.541  26.434  1.00  0.00     0.163 HD
ATOM     28  O   UNL A   1      32.872  33.139  27.769  1.00  0.00    -0.269 OA
BRANCH  26  29
ATOM     29  C   UNL A   1      34.643  31.581  27.753  1.00  0.00     0.039 A 
ATOM     30  C   UNL A   1      35.666  32.519  27.904  1.00  0.00     0.014 A 
ATOM     31  C   UNL A   1      34.854  30.242  28.092  1.00  0.00     0.014 A 
ATOM     32  C   UNL A   1      36.869  32.135  28.507  1.00  0.00     0.010 A 
ATOM     33  C   UNL A   1      36.018  29.884  28.766  1.00  0.00     0.010 A 
ATOM     34  C   UNL A   1      37.029  30.831  29.001  1.00  0.00    -0.014 A 
BRANCH  34  35
ATOM     35  C   UNL A   1      38.226  30.432  29.790  1.00  0.00     0.031 A 
ATOM     36  C   UNL A   1      39.190  29.423  29.230  1.00  0.00     0.074 A 
ATOM     37  C   UNL A   1      38.396  30.901  31.043  1.00  0.00     0.049 A 
ATOM     38  N   UNL A   1      40.214  28.844  29.803  1.00  0.00    -0.248 NA
ATOM     39  C   UNL A   1      38.939  28.980  27.852  1.00  0.00     0.031 C 
ATOM     40  C   UNL A   1      37.512  31.853  31.721  1.00  0.00     0.029 A 
ATOM     41  N   UNL A   1      39.366  30.631  31.978  1.00  0.00    -0.354 N 
ATOM     42  C   UNL A   1      40.717  27.951  28.862  1.00  0.00     0.074 A 
ATOM     43  C   UNL A   1      39.836  28.017  27.714  1.00  0.00     0.031 C 
ATOM     44  C   UNL A   1      37.999  32.110  32.945  1.00  0.00     0.029 A 
ATOM     45  C   UNL A   1      39.198  31.309  33.163  1.00  0.00     0.049 A 
ATOM     46  H   UNL A   1      40.112  30.010  31.814  1.00  0.00     0.167 HD
ATOM     47  C   UNL A   1      41.825  27.169  28.935  1.00  0.00     0.034 A 
ATOM     48  C   UNL A   1      39.922  31.279  34.300  1.00  0.00     0.034 A 
ATOM     49  C   UNL A   1      42.699  27.123  30.082  1.00  0.00     0.049 A 
ATOM     50  C   UNL A   1      41.129  30.379  34.376  1.00  0.00     0.074 A 
ATOM     51  C   UNL A   1      43.869  26.403  30.250  1.00  0.00     0.029 A 
ATOM     52  N   UNL A   1      42.496  27.826  31.264  1.00  0.00    -0.354 N 
ATOM     53  N   UNL A   1      41.611  29.565  33.466  1.00  0.00    -0.248 NA
ATOM     54  C   UNL A   1      41.891  30.399  35.632  1.00  0.00     0.031 C 
ATOM     55  C   UNL A   1      44.342  26.626  31.548  1.00  0.00     0.029 A 
ATOM     56  C   UNL A   1      43.504  27.538  32.171  1.00  0.00     0.049 A 
ATOM     57  H   UNL A   1      41.745  28.439  31.432  1.00  0.00     0.167 HD
ATOM     58  C   UNL A   1      42.756  29.006  34.028  1.00  0.00     0.074 A 
ATOM     59  C   UNL A   1      42.890  29.576  35.353  1.00  0.00     0.031 C 
ATOM     60  C   UNL A   1      43.624  28.112  33.490  1.00  0.00     0.034 A 
BRANCH  47  61
ATOM     61  C   UNL A   1      42.121  26.293  27.740  1.00  0.00     0.023 A 
ATOM     62  C   UNL A   1      41.727  24.944  27.707  1.00  0.00     0.031 A 
ATOM     63  C   UNL A   1      42.869  26.784  26.657  1.00  0.00     0.131 A 
ATOM     64  C   UNL A   1      42.179  24.107  26.677  1.00  0.00     0.055 A 
ATOM     65  C   UNL A   1      43.231  25.969  25.582  1.00  0.00     0.041 A 
ATOM     66  F   UNL A   1      43.290  28.059  26.638  1.00  0.00    -0.206 F 
ATOM     67  C   UNL A   1      42.907  24.615  25.599  1.00  0.00     0.022 A 
BRANCH  64  68
ATOM     68  S   UNL A   1      41.968  22.315  26.870  1.00  0.00     0.124 S 
ATOM     69  O   UNL A   1      43.318  21.829  26.589  1.00  0.00    -0.237 OA
ATOM     70  O   UNL A   1      41.522  22.197  28.253  1.00  0.00    -0.237 OA
ATOM     71  O   UNL A   1      40.970  21.976  25.859  1.00  0.00    -0.744 OA
ENDBRANCH  64  68
ENDBRANCH  47  61
BRANCH  48  72
ATOM     72  C   UNL A   1      39.539  32.131  35.462  1.00  0.00     0.023 A 
ATOM     73  C   UNL A   1      38.760  31.607  36.505  1.00  0.00     0.031 A 
ATOM     74  C   UNL A   1      39.914  33.483  35.531  1.00  0.00     0.131 A 
ATOM     75  C   UNL A   1      38.344  32.440  37.555  1.00  0.00     0.055 A 
ATOM     76  C   UNL A   1      39.536  34.298  36.601  1.00  0.00     0.041 A 
ATOM     77  F   UNL A   1      40.665  34.030  34.562  1.00  0.00    -0.206 F 
ATOM     78  C   UNL A   1      38.737  33.780  37.616  1.00  0.00     0.022 A 
BRANCH  75  79
ATOM     79  S   UNL A   1      37.226  31.762  38.811  1.00  0.00     0.124 S 
ATOM     80  O   UNL A   1      38.040  31.858  40.016  1.00  0.00    -0.237 OA
ATOM     81  O   UNL A   1      36.089  32.674  38.729  1.00  0.00    -0.237 OA
ATOM     82  O   UNL A   1      36.966  30.404  38.337  1.00  0.00    -0.744 OA
ENDBRANCH  75  79
ENDBRANCH  48  72
BRANCH  60  83
ATOM     83  C   UNL A   1      44.830  27.746  34.318  1.00  0.00     0.023 A 
ATOM     84  C   UNL A   1      44.847  26.612  35.148  1.00  0.00     0.031 A 
ATOM     85  C   UNL A   1      45.981  28.554  34.275  1.00  0.00     0.131 A 
ATOM     86  C   UNL A   1      45.978  26.341  35.936  1.00  0.00     0.055 A 
ATOM     87  C   UNL A   1      47.119  28.252  35.022  1.00  0.00     0.041 A 
ATOM     88  F   UNL A   1      46.015  29.650  33.500  1.00  0.00    -0.206 F 
ATOM     89  C   UNL A   1      47.119  27.146  35.865  1.00  0.00     0.022 A 
BRANCH  86  90
ATOM     90  S   UNL A   1      45.915  24.959  37.108  1.00  0.00     0.124 S 
ATOM     91  O   UNL A   1      44.628  24.349  36.790  1.00  0.00    -0.237 OA
ATOM     92  O   UNL A   1      47.096  24.183  36.742  1.00  0.00    -0.237 OA
ATOM     93  O   UNL A   1      45.985  25.613  38.414  1.00  0.00    -0.744 OA
ENDBRANCH  86  90
ENDBRANCH  60  83
ENDBRANCH  34  35
ENDBRANCH  26  29
ENDBRANCH  24  25
ENDBRANCH  23  24
ENDBRANCH  22  23
ENDBRANCH   1  22
TORSDOF 20
ENDMDL
MODEL 3
REMARK VINA RESULT:     -10.6      5.006      7.646
REMARK SMILES COC[C@@H](C)CC(=O)N1[C@@H](C2CC2)SC[C@H]1C(=O)NCCCCNC(=O)c1ccc(-c2c3nc(c(-c4cc(S(=O)(=O)[O-])ccc4F)c4ccc([nH]4)c(-c4cc(S(=O)(=O)[O-])ccc4F)c4nc(c(-c5cc(S(=O)(=O)[O-])ccc5F)c5ccc2[nH]5)C=C4)C=C3)cc1
REMARK SMILES IDX 20 1 19 2 17 3 18 4 16 6 9 7 10 8 14 9 15 10 7 11 8 12 6 13
REMARK SMILES IDX 4 14 5 15 3 16 2 17 1 18 11 19 12 20 13 21 21 22 22 23 23 24
REMARK SMILES IDX 24 25 25 26 26 28 27 29 28 30 89 31 29 32 88 33 30 34 31 35
REMARK SMILES IDX 32 36 82 37 33 38 87 39 81 40 83 41 34 42 86 43 80 44 79 45
REMARK SMILES IDX 35 47 67 48 47 49 66 50 48 51 51 52 65 53 84 54 49 55 50 56
REMARK SMILES IDX 64 58 85 59 52 60 36 61 37 62 45 63 38 64 44 65 46 66 43 67
REMARK SMILES IDX 39 68 40 69 41 70 42 71 68 72 69 73 77 74 70 75 76 76 78 77
REMARK SMILES IDX 75 78 71 79 72 80 73 81 74 82 53 83 54 84 62 85 55 86 61 87
REMARK SMILES IDX 63 88 60 89 56 90 57 91 58 92 59 93
REMARK H PARENT 19 5 24 27 83 46 51 57
REMARK Flexibility Score: inf
ROOT
ATOM      1  C   UNL A   1      30.812  26.260  25.740  1.00  0.00     0.116 C 
ENDROOT
BRANCH   1   2
ATOM      2  N   UNL A   1      30.694  25.090  26.577  1.00  0.00    -0.354 N 
ATOM      3  C   UNL A   1      31.340  23.896  26.498  1.00  0.00     0.243 C 
ATOM      4  O   UNL A   1      31.302  23.170  27.500  1.00  0.00    -0.273 OA
ATOM      5  H   UNL A   1      30.047  25.168  27.316  1.00  0.00     0.163 HD
BRANCH   3   6
ATOM      6  C   UNL A   1      32.271  23.519  25.326  1.00  0.00     0.185 C 
ATOM      7  N   UNL A   1      33.097  22.299  25.406  1.00  0.00    -0.318 N 
ATOM      8  C   UNL A   1      33.136  21.496  24.189  1.00  0.00     0.147 C 
ATOM      9  S   UNL A   1      32.456  22.525  22.883  1.00  0.00    -0.134 SA
ATOM     10  C   UNL A   1      31.468  23.513  24.027  1.00  0.00     0.107 C 
BRANCH   7  11
ATOM     11  C   UNL A   1      34.053  22.285  26.406  1.00  0.00     0.224 C 
ATOM     12  O   UNL A   1      33.974  21.503  27.354  1.00  0.00    -0.275 OA
BRANCH  11  13
ATOM     13  C   UNL A   1      35.093  23.393  26.440  1.00  0.00     0.106 C 
BRANCH  13  14
ATOM     14  C   UNL A   1      36.466  23.042  25.852  1.00  0.00     0.021 C 
ATOM     15  C   UNL A   1      37.462  24.157  26.207  1.00  0.00     0.010 C 
BRANCH  14  16
ATOM     16  C   UNL A   1      36.391  22.843  24.329  1.00  0.00     0.163 C 
BRANCH  16  17
ATOM     17  O   UNL A   1      36.733  21.499  23.997  1.00  0.00    -0.384 OA
ATOM     18  C   UNL A   1      37.350  20.804  25.072  1.00  0.00     0.194 C 
ENDBRANCH  16  17
ENDBRANCH  14  16
ENDBRANCH  13  14
ENDBRANCH  11  13
ENDBRANCH   7  11
BRANCH   8  19
ATOM     19  C   UNL A   1      32.422  20.190  24.438  1.00  0.00     0.022 C 
ATOM     20  C   UNL A   1      32.533  18.932  23.596  1.00  0.00     0.007 C 
ATOM     21  C   UNL A   1      33.155  18.975  24.961  1.00  0.00     0.007 C 
ENDBRANCH   8  19
ENDBRANCH   3   6
ENDBRANCH   1   2
BRANCH   1  22
ATOM     22  C   UNL A   1      31.592  27.396  26.399  1.00  0.00     0.023 C 
BRANCH  22  23
ATOM     23  C   UNL A   1      31.634  28.686  25.581  1.00  0.00     0.023 C 
BRANCH  23  24
ATOM     24  C   UNL A   1      32.826  29.600  25.858  1.00  0.00     0.116 C 
BRANCH  24  25
ATOM     25  N   UNL A   1      32.482  30.907  26.403  1.00  0.00    -0.352 N 
ATOM     26  C   UNL A   1      33.260  31.697  27.227  1.00  0.00     0.251 C 
ATOM     27  H   UNL A   1      31.599  31.265  26.159  1.00  0.00     0.163 HD
ATOM     28  O   UNL A   1      32.835  32.767  27.650  1.00  0.00    -0.269 OA
BRANCH  26  29
ATOM     29  C   UNL A   1      34.588  31.189  27.640  1.00  0.00     0.039 A 
ATOM     30  C   UNL A   1      35.605  32.104  27.919  1.00  0.00     0.014 A 
ATOM     31  C   UNL A   1      34.771  29.827  27.892  1.00  0.00     0.014 A 
ATOM     32  C   UNL A   1      36.767  31.666  28.562  1.00  0.00     0.010 A 
ATOM     33  C   UNL A   1      35.891  29.410  28.605  1.00  0.00     0.010 A 
ATOM     34  C   UNL A   1      36.891  30.328  28.968  1.00  0.00    -0.014 A 
BRANCH  34  35
ATOM     35  C   UNL A   1      38.037  29.862  29.795  1.00  0.00     0.031 A 
ATOM     36  C   UNL A   1      38.270  30.457  31.156  1.00  0.00     0.074 A 
ATOM     37  C   UNL A   1      38.920  28.977  29.288  1.00  0.00     0.049 A 
ATOM     38  N   UNL A   1      39.276  30.290  31.976  1.00  0.00    -0.248 NA
ATOM     39  C   UNL A   1      37.250  31.399  31.636  1.00  0.00     0.031 C 
ATOM     40  C   UNL A   1      38.832  28.353  27.966  1.00  0.00     0.029 A 
ATOM     41  N   UNL A   1      40.073  28.455  29.821  1.00  0.00    -0.354 N 
ATOM     42  C   UNL A   1      39.020  31.123  33.061  1.00  0.00     0.074 A 
ATOM     43  C   UNL A   1      37.803  31.844  32.753  1.00  0.00     0.031 C 
ATOM     44  C   UNL A   1      39.867  27.512  27.806  1.00  0.00     0.029 A 
ATOM     45  C   UNL A   1      40.719  27.571  28.989  1.00  0.00     0.049 A 
ATOM     46  H   UNL A   1      40.407  28.694  30.717  1.00  0.00     0.167 HD
ATOM     47  C   UNL A   1      39.718  31.253  34.218  1.00  0.00     0.034 A 
ATOM     48  C   UNL A   1      41.871  26.892  29.156  1.00  0.00     0.034 A 
ATOM     49  C   UNL A   1      40.923  30.518  34.516  1.00  0.00     0.049 A 
ATOM     50  C   UNL A   1      42.651  27.076  30.432  1.00  0.00     0.074 A 
ATOM     51  C   UNL A   1      41.687  30.538  35.670  1.00  0.00     0.029 A 
ATOM     52  N   UNL A   1      41.545  29.629  33.647  1.00  0.00    -0.354 N 
ATOM     53  N   UNL A   1      42.380  27.842  31.464  1.00  0.00    -0.248 NA
ATOM     54  C   UNL A   1      43.891  26.299  30.569  1.00  0.00     0.031 C 
ATOM     55  C   UNL A   1      42.797  29.707  35.478  1.00  0.00     0.029 A 
ATOM     56  C   UNL A   1      42.693  29.115  34.230  1.00  0.00     0.049 A 
ATOM     57  H   UNL A   1      41.218  29.398  32.748  1.00  0.00     0.167 HD
ATOM     58  C   UNL A   1      43.396  27.607  32.386  1.00  0.00     0.074 A 
ATOM     59  C   UNL A   1      44.284  26.631  31.789  1.00  0.00     0.031 C 
ATOM     60  C   UNL A   1      43.571  28.143  33.621  1.00  0.00     0.034 A 
BRANCH  47  61
ATOM     61  C   UNL A   1      39.189  32.249  35.224  1.00  0.00     0.023 A 
ATOM     62  C   UNL A   1      39.623  33.587  35.228  1.00  0.00     0.031 A 
ATOM     63  C   UNL A   1      38.303  31.845  36.237  1.00  0.00     0.131 A 
ATOM     64  C   UNL A   1      39.265  34.437  36.284  1.00  0.00     0.055 A 
ATOM     65  C   UNL A   1      37.870  32.726  37.231  1.00  0.00     0.041 A 
ATOM     66  F   UNL A   1      37.866  30.577  36.299  1.00  0.00    -0.206 F 
ATOM     67  C   UNL A   1      38.370  34.024  37.272  1.00  0.00     0.022 A 
BRANCH  64  68
ATOM     68  S   UNL A   1      40.142  36.017  36.449  1.00  0.00     0.124 S 
ATOM     69  O   UNL A   1      39.530  36.567  37.657  1.00  0.00    -0.237 OA
ATOM     70  O   UNL A   1      41.532  35.596  36.572  1.00  0.00    -0.237 OA
ATOM     71  O   UNL A   1      39.810  36.724  35.215  1.00  0.00    -0.744 OA
ENDBRANCH  64  68
ENDBRANCH  47  61
BRANCH  48  72
ATOM     72  C   UNL A   1      42.363  25.966  28.096  1.00  0.00     0.023 A 
ATOM     73  C   UNL A   1      41.813  24.682  27.957  1.00  0.00     0.031 A 
ATOM     74  C   UNL A   1      43.409  26.334  27.233  1.00  0.00     0.131 A 
ATOM     75  C   UNL A   1      42.337  23.795  27.004  1.00  0.00     0.055 A 
ATOM     76  C   UNL A   1      43.898  25.464  26.256  1.00  0.00     0.041 A 
ATOM     77  F   UNL A   1      43.965  27.553  27.321  1.00  0.00    -0.206 F 
ATOM     78  C   UNL A   1      43.368  24.182  26.145  1.00  0.00     0.022 A 
BRANCH  75  79
ATOM     79  S   UNL A   1      41.692  22.101  26.948  1.00  0.00     0.124 S 
ATOM     80  O   UNL A   1      41.690  21.832  25.515  1.00  0.00    -0.237 OA
ATOM     81  O   UNL A   1      42.681  21.374  27.737  1.00  0.00    -0.237 OA
ATOM     82  O   UNL A   1      40.372  22.219  27.564  1.00  0.00    -0.744 OA
ENDBRANCH  75  79
ENDBRANCH  48  72
BRANCH  60  83
ATOM     83  C   UNL A   1      44.737  27.632  34.430  1.00  0.00     0.023 A 
ATOM     84  C   UNL A   1      44.603  26.568  35.337  1.00  0.00     0.031 A 
ATOM     85  C   UNL A   1      46.003  28.230  34.288  1.00  0.00     0.131 A 
ATOM     86  C   UNL A   1      45.709  26.161  36.102  1.00  0.00     0.055 A 
ATOM     87  C   UNL A   1      47.108  27.788  35.014  1.00  0.00     0.041 A 
ATOM     88  F   UNL A   1      46.183  29.252  33.437  1.00  0.00    -0.206 F 
ATOM     89  C   UNL A   1      46.963  26.755  35.935  1.00  0.00     0.022 A 
BRANCH  86  90
ATOM     90  S   UNL A   1      45.471  24.888  37.372  1.00  0.00     0.124 S 
ATOM     91  O   UNL A   1      44.689  25.602  38.376  1.00  0.00    -0.237 OA
ATOM     92  O   UNL A   1      44.766  23.842  36.639  1.00  0.00    -0.237 OA
ATOM     93  O   UNL A   1      46.835  24.548  37.776  1.00  0.00    -0.744 OA
ENDBRANCH  86  90
ENDBRANCH  60  83
ENDBRANCH  34  35
ENDBRANCH  26  29
ENDBRANCH  24  25
ENDBRANCH  23  24
ENDBRANCH  22  23
ENDBRANCH   1  22
TORSDOF 20
ENDMDL
