MODEL 1
REMARK VINA RESULT:      -9.6      0.000      0.000
REMARK SMILES CCCCCCNC(=O)Oc1cccc(-c2ccc([C@@H](C)C(=O)NCCCCNC(=O)c3ccc(-c4c5nc(c(-c6cc(S(=O)(=O)[O-])ccc6F)c6ccc([nH]6)c(-c6cc(S(=O)(=O)[O-])ccc6F)c6nc(c(-c7cc(S(=O)(=O)[O-])ccc7F)c7ccc4[nH]7)C=C6)C=C5)cc3)cc2F)c1
REMARK SMILES IDX 20 1 21 2 19 3 16 4 17 5 96 6 18 7 95 8 97 9 15 10 11 11
REMARK SMILES IDX 12 12 98 13 13 14 14 15 10 16 8 17 7 18 9 20 6 21 5 22 4 23
REMARK SMILES IDX 3 24 2 25 1 26 22 27 23 28 24 29 25 31 26 32 27 33 28 34
REMARK SMILES IDX 29 35 30 36 31 38 32 39 33 40 94 41 34 42 93 43 35 44 36 45
REMARK SMILES IDX 37 46 87 47 38 48 92 49 86 50 88 51 39 52 91 53 85 54 84 55
REMARK SMILES IDX 40 57 72 58 52 59 71 60 53 61 56 62 70 63 89 64 54 65 55 66
REMARK SMILES IDX 69 68 90 69 57 70 41 71 42 72 50 73 43 74 49 75 51 76 48 77
REMARK SMILES IDX 44 78 45 79 46 80 47 81 73 82 74 83 82 84 75 85 81 86 83 87
REMARK SMILES IDX 80 88 76 89 77 90 78 91 79 92 58 93 59 94 67 95 60 96 66 97
REMARK SMILES IDX 68 98 65 99 61 100 62 101 63 102 64 103
REMARK H PARENT 7 19 24 30 29 37 88 56 56 67
REMARK Flexibility Score: inf
ROOT
ATOM      1  C   UNL A   1      44.637  22.191  25.234  1.00  0.00     0.105 C 
ATOM      2  C   UNL A   1      45.241  22.948  24.053  1.00  0.00     0.023 C 
ENDROOT
BRANCH   1   3
ATOM      3  C   UNL A   1      44.645  22.926  26.565  1.00  0.00    -0.033 A 
ATOM      4  C   UNL A   1      44.621  24.100  29.180  1.00  0.00     0.018 A 
ATOM      5  C   UNL A   1      45.796  24.014  28.416  1.00  0.00     0.012 A 
ATOM      6  C   UNL A   1      43.449  23.625  28.570  1.00  0.00     0.131 A 
ATOM      7  C   UNL A   1      45.798  23.481  27.121  1.00  0.00     0.005 A 
ATOM      8  C   UNL A   1      43.459  23.028  27.305  1.00  0.00     0.044 A 
ATOM      9  F   UNL A   1      42.262  23.733  29.188  1.00  0.00    -0.206 F 
BRANCH   4  10
ATOM     10  C   UNL A   1      44.651  24.646  30.558  1.00  0.00    -0.012 A 
ATOM     11  C   UNL A   1      44.159  24.465  32.936  1.00  0.00     0.133 A 
ATOM     12  C   UNL A   1      44.765  25.690  33.194  1.00  0.00     0.047 A 
ATOM     13  C   UNL A   1      44.097  23.944  31.642  1.00  0.00     0.056 A 
ATOM     14  C   UNL A   1      45.327  26.399  32.142  1.00  0.00     0.004 A 
ATOM     15  C   UNL A   1      45.261  25.888  30.841  1.00  0.00     0.009 A 
BRANCH  11  16
ATOM     16  O   UNL A   1      43.485  23.854  34.005  1.00  0.00    -0.410 OA
BRANCH  16  17
ATOM     17  C   UNL A   1      44.216  23.447  35.111  1.00  0.00     0.412 C 
ATOM     18  N   UNL A   1      43.788  24.036  36.269  1.00  0.00    -0.321 N 
ATOM     19  H   UNL A   1      44.291  23.819  37.088  1.00  0.00     0.167 HD
ATOM     20  O   UNL A   1      45.154  22.662  35.108  1.00  0.00    -0.224 OA
BRANCH  18  21
ATOM     21  C   UNL A   1      42.670  24.945  36.413  1.00  0.00     0.119 C 
BRANCH  21  22
ATOM     22  C   UNL A   1      43.094  26.279  37.026  1.00  0.00     0.021 C 
BRANCH  22  23
ATOM     23  C   UNL A   1      42.445  27.512  36.385  1.00  0.00     0.002 C 
BRANCH  23  24
ATOM     24  C   UNL A   1      41.886  27.302  34.973  1.00  0.00    -0.000 C 
BRANCH  24  25
ATOM     25  C   UNL A   1      41.594  28.582  34.186  1.00  0.00    -0.003 C 
ATOM     26  C   UNL A   1      42.676  28.925  33.174  1.00  0.00     0.004 C 
ENDBRANCH  24  25
ENDBRANCH  23  24
ENDBRANCH  22  23
ENDBRANCH  21  22
ENDBRANCH  18  21
ENDBRANCH  16  17
ENDBRANCH  11  16
ENDBRANCH   4  10
ENDBRANCH   1   3
BRANCH   1  27
ATOM     27  C   UNL A   1      45.088  20.723  25.335  1.00  0.00     0.227 C 
ATOM     28  O   UNL A   1      46.293  20.451  25.276  1.00  0.00    -0.274 OA
ATOM     29  N   UNL A   1      44.234  19.677  25.506  1.00  0.00    -0.356 N 
ATOM     30  H   UNL A   1      44.682  18.808  25.623  1.00  0.00     0.163 HD
BRANCH  29  31
ATOM     31  C   UNL A   1      42.789  19.611  25.548  1.00  0.00     0.116 C 
BRANCH  31  32
ATOM     32  C   UNL A   1      42.255  19.633  26.981  1.00  0.00     0.023 C 
BRANCH  32  33
ATOM     33  C   UNL A   1      40.965  20.428  27.175  1.00  0.00     0.023 C 
BRANCH  33  34
ATOM     34  C   UNL A   1      40.720  21.526  26.147  1.00  0.00     0.116 C 
BRANCH  34  35
ATOM     35  N   UNL A   1      39.311  21.772  25.868  1.00  0.00    -0.352 N 
ATOM     36  C   UNL A   1      38.585  22.917  26.112  1.00  0.00     0.251 C 
ATOM     37  H   UNL A   1      38.818  21.028  25.453  1.00  0.00     0.163 HD
ATOM     38  O   UNL A   1      37.377  22.938  25.900  1.00  0.00    -0.269 OA
BRANCH  36  39
ATOM     39  C   UNL A   1      39.278  24.093  26.679  1.00  0.00     0.039 A 
ATOM     40  C   UNL A   1      39.965  24.953  25.821  1.00  0.00     0.014 A 
ATOM     41  C   UNL A   1      39.173  24.386  28.041  1.00  0.00     0.014 A 
ATOM     42  C   UNL A   1      40.475  26.154  26.317  1.00  0.00     0.010 A 
ATOM     43  C   UNL A   1      39.604  25.621  28.513  1.00  0.00     0.010 A 
ATOM     44  C   UNL A   1      40.256  26.520  27.656  1.00  0.00    -0.014 A 
BRANCH  44  45
ATOM     45  C   UNL A   1      40.696  27.841  28.175  1.00  0.00     0.031 A 
ATOM     46  C   UNL A   1      42.163  28.147  28.312  1.00  0.00     0.074 A 
ATOM     47  C   UNL A   1      39.776  28.734  28.591  1.00  0.00     0.049 A 
ATOM     48  N   UNL A   1      42.745  29.213  28.798  1.00  0.00    -0.248 NA
ATOM     49  C   UNL A   1      43.096  27.096  27.879  1.00  0.00     0.031 C 
ATOM     50  C   UNL A   1      38.325  28.525  28.568  1.00  0.00     0.029 A 
ATOM     51  N   UNL A   1      39.920  29.991  29.122  1.00  0.00    -0.354 N 
ATOM     52  C   UNL A   1      44.111  28.956  28.742  1.00  0.00     0.074 A 
ATOM     53  C   UNL A   1      44.262  27.604  28.247  1.00  0.00     0.031 C 
ATOM     54  C   UNL A   1      37.715  29.627  29.032  1.00  0.00     0.029 A 
ATOM     55  C   UNL A   1      38.725  30.602  29.428  1.00  0.00     0.049 A 
ATOM     56  H   UNL A   1      40.795  30.416  29.271  1.00  0.00     0.167 HD
ATOM     57  C   UNL A   1      45.144  29.780  29.049  1.00  0.00     0.034 A 
ATOM     58  C   UNL A   1      38.472  31.809  29.974  1.00  0.00     0.034 A 
ATOM     59  C   UNL A   1      44.971  31.128  29.532  1.00  0.00     0.049 A 
ATOM     60  C   UNL A   1      39.632  32.706  30.317  1.00  0.00     0.074 A 
ATOM     61  C   UNL A   1      45.940  32.077  29.808  1.00  0.00     0.029 A 
ATOM     62  N   UNL A   1      43.746  31.718  29.825  1.00  0.00    -0.354 N 
ATOM     63  N   UNL A   1      40.919  32.478  30.192  1.00  0.00    -0.248 NA
ATOM     64  C   UNL A   1      39.305  34.029  30.865  1.00  0.00     0.031 C 
ATOM     65  C   UNL A   1      45.308  33.208  30.338  1.00  0.00     0.029 A 
ATOM     66  C   UNL A   1      43.937  33.002  30.314  1.00  0.00     0.049 A 
ATOM     67  H   UNL A   1      42.869  31.286  29.703  1.00  0.00     0.167 HD
ATOM     68  C   UNL A   1      41.556  33.639  30.622  1.00  0.00     0.074 A 
ATOM     69  C   UNL A   1      40.508  34.570  30.992  1.00  0.00     0.031 C 
ATOM     70  C   UNL A   1      42.884  33.913  30.701  1.00  0.00     0.034 A 
BRANCH  57  71
ATOM     71  C   UNL A   1      46.542  29.226  28.893  1.00  0.00     0.023 A 
ATOM     72  C   UNL A   1      47.092  28.952  27.628  1.00  0.00     0.031 A 
ATOM     73  C   UNL A   1      47.318  28.918  30.024  1.00  0.00     0.131 A 
ATOM     74  C   UNL A   1      48.331  28.302  27.526  1.00  0.00     0.055 A 
ATOM     75  C   UNL A   1      48.593  28.358  29.914  1.00  0.00     0.041 A 
ATOM     76  F   UNL A   1      46.843  29.135  31.260  1.00  0.00    -0.206 F 
ATOM     77  C   UNL A   1      49.098  28.027  28.660  1.00  0.00     0.022 A 
BRANCH  74  78
ATOM     78  S   UNL A   1      48.842  27.664  25.905  1.00  0.00     0.124 S 
ATOM     79  O   UNL A   1      49.619  28.784  25.380  1.00  0.00    -0.237 OA
ATOM     80  O   UNL A   1      49.600  26.471  26.261  1.00  0.00    -0.237 OA
ATOM     81  O   UNL A   1      47.575  27.419  25.218  1.00  0.00    -0.744 OA
ENDBRANCH  74  78
ENDBRANCH  57  71
BRANCH  58  82
ATOM     82  C   UNL A   1      37.067  32.237  30.232  1.00  0.00     0.023 A 
ATOM     83  C   UNL A   1      36.351  32.987  29.285  1.00  0.00     0.031 A 
ATOM     84  C   UNL A   1      36.425  31.918  31.442  1.00  0.00     0.131 A 
ATOM     85  C   UNL A   1      35.049  33.423  29.579  1.00  0.00     0.055 A 
ATOM     86  C   UNL A   1      35.113  32.313  31.709  1.00  0.00     0.041 A 
ATOM     87  F   UNL A   1      37.064  31.198  32.379  1.00  0.00    -0.206 F 
ATOM     88  C   UNL A   1      34.421  33.079  30.777  1.00  0.00     0.022 A 
BRANCH  85  89
ATOM     89  S   UNL A   1      34.208  34.509  28.393  1.00  0.00     0.124 S 
ATOM     90  O   UNL A   1      34.332  35.810  29.041  1.00  0.00    -0.237 OA
ATOM     91  O   UNL A   1      35.005  34.316  27.186  1.00  0.00    -0.237 OA
ATOM     92  O   UNL A   1      32.853  33.965  28.335  1.00  0.00    -0.744 OA
ENDBRANCH  85  89
ENDBRANCH  58  82
BRANCH  70  93
ATOM     93  C   UNL A   1      43.271  35.293  31.176  1.00  0.00     0.023 A 
ATOM     94  C   UNL A   1      43.450  36.361  30.278  1.00  0.00     0.031 A 
ATOM     95  C   UNL A   1      43.478  35.539  32.544  1.00  0.00     0.131 A 
ATOM     96  C   UNL A   1      43.881  37.608  30.753  1.00  0.00     0.055 A 
ATOM     97  C   UNL A   1      43.843  36.799  33.019  1.00  0.00     0.041 A 
ATOM     98  F   UNL A   1      43.326  34.556  33.446  1.00  0.00    -0.206 F 
ATOM     99  C   UNL A   1      44.061  37.840  32.120  1.00  0.00     0.022 A 
BRANCH  96 100
ATOM    100  S   UNL A   1      44.303  38.900  29.552  1.00  0.00     0.124 S 
ATOM    101  O   UNL A   1      45.548  39.428  30.100  1.00  0.00    -0.237 OA
ATOM    102  O   UNL A   1      44.422  38.144  28.309  1.00  0.00    -0.237 OA
ATOM    103  O   UNL A   1      43.163  39.812  29.614  1.00  0.00    -0.744 OA
ENDBRANCH  96 100
ENDBRANCH  70  93
ENDBRANCH  44  45
ENDBRANCH  36  39
ENDBRANCH  34  35
ENDBRANCH  33  34
ENDBRANCH  32  33
ENDBRANCH  31  32
ENDBRANCH  29  31
ENDBRANCH   1  27
TORSDOF 23
ENDMDL
MODEL 2
REMARK VINA RESULT:      -9.4      1.658      2.091
REMARK SMILES CCCCCCNC(=O)Oc1cccc(-c2ccc([C@@H](C)C(=O)NCCCCNC(=O)c3ccc(-c4c5nc(c(-c6cc(S(=O)(=O)[O-])ccc6F)c6ccc([nH]6)c(-c6cc(S(=O)(=O)[O-])ccc6F)c6nc(c(-c7cc(S(=O)(=O)[O-])ccc7F)c7ccc4[nH]7)C=C6)C=C5)cc3)cc2F)c1
REMARK SMILES IDX 20 1 21 2 19 3 16 4 17 5 96 6 18 7 95 8 97 9 15 10 11 11
REMARK SMILES IDX 12 12 98 13 13 14 14 15 10 16 8 17 7 18 9 20 6 21 5 22 4 23
REMARK SMILES IDX 3 24 2 25 1 26 22 27 23 28 24 29 25 31 26 32 27 33 28 34
REMARK SMILES IDX 29 35 30 36 31 38 32 39 33 40 94 41 34 42 93 43 35 44 36 45
REMARK SMILES IDX 37 46 87 47 38 48 92 49 86 50 88 51 39 52 91 53 85 54 84 55
REMARK SMILES IDX 40 57 72 58 52 59 71 60 53 61 56 62 70 63 89 64 54 65 55 66
REMARK SMILES IDX 69 68 90 69 57 70 41 71 42 72 50 73 43 74 49 75 51 76 48 77
REMARK SMILES IDX 44 78 45 79 46 80 47 81 73 82 74 83 82 84 75 85 81 86 83 87
REMARK SMILES IDX 80 88 76 89 77 90 78 91 79 92 58 93 59 94 67 95 60 96 66 97
REMARK SMILES IDX 68 98 65 99 61 100 62 101 63 102 64 103
REMARK H PARENT 7 19 24 30 29 37 88 56 56 67
REMARK Flexibility Score: inf
ROOT
ATOM      1  C   UNL A   1      44.634  22.263  25.342  1.00  0.00     0.105 C 
ATOM      2  C   UNL A   1      45.200  23.055  24.165  1.00  0.00     0.023 C 
ENDROOT
BRANCH   1   3
ATOM      3  C   UNL A   1      44.630  22.981  26.683  1.00  0.00    -0.033 A 
ATOM      4  C   UNL A   1      44.607  24.119  29.313  1.00  0.00     0.018 A 
ATOM      5  C   UNL A   1      45.754  24.145  28.503  1.00  0.00     0.012 A 
ATOM      6  C   UNL A   1      43.458  23.551  28.741  1.00  0.00     0.131 A 
ATOM      7  C   UNL A   1      45.752  23.629  27.201  1.00  0.00     0.005 A 
ATOM      8  C   UNL A   1      43.469  22.971  27.468  1.00  0.00     0.044 A 
ATOM      9  F   UNL A   1      42.291  23.549  29.406  1.00  0.00    -0.206 F 
BRANCH   4  10
ATOM     10  C   UNL A   1      44.644  24.651  30.696  1.00  0.00    -0.012 A 
ATOM     11  C   UNL A   1      44.953  26.483  32.270  1.00  0.00     0.133 A 
ATOM     12  C   UNL A   1      44.663  25.656  33.350  1.00  0.00     0.047 A 
ATOM     13  C   UNL A   1      44.947  25.997  30.961  1.00  0.00     0.056 A 
ATOM     14  C   UNL A   1      44.352  24.324  33.114  1.00  0.00     0.004 A 
ATOM     15  C   UNL A   1      44.354  23.828  31.806  1.00  0.00     0.009 A 
BRANCH  11  16
ATOM     16  O   UNL A   1      45.394  27.782  32.568  1.00  0.00    -0.410 OA
BRANCH  16  17
ATOM     17  C   UNL A   1      45.742  28.087  33.875  1.00  0.00     0.412 C 
ATOM     18  N   UNL A   1      44.935  29.046  34.423  1.00  0.00    -0.321 N 
ATOM     19  H   UNL A   1      45.153  29.337  35.339  1.00  0.00     0.167 HD
ATOM     20  O   UNL A   1      46.663  27.593  34.511  1.00  0.00    -0.224 OA
BRANCH  18  21
ATOM     21  C   UNL A   1      43.792  29.675  33.794  1.00  0.00     0.119 C 
BRANCH  21  22
ATOM     22  C   UNL A   1      42.571  28.756  33.779  1.00  0.00     0.021 C 
BRANCH  22  23
ATOM     23  C   UNL A   1      41.746  28.812  32.487  1.00  0.00     0.002 C 
BRANCH  23  24
ATOM     24  C   UNL A   1      40.517  29.726  32.531  1.00  0.00    -0.000 C 
BRANCH  24  25
ATOM     25  C   UNL A   1      39.829  29.836  33.894  1.00  0.00    -0.003 C 
ATOM     26  C   UNL A   1      39.995  31.202  34.543  1.00  0.00     0.004 C 
ENDBRANCH  24  25
ENDBRANCH  23  24
ENDBRANCH  22  23
ENDBRANCH  21  22
ENDBRANCH  18  21
ENDBRANCH  16  17
ENDBRANCH  11  16
ENDBRANCH   4  10
ENDBRANCH   1   3
BRANCH   1  27
ATOM     27  C   UNL A   1      45.134  20.811  25.420  1.00  0.00     0.227 C 
ATOM     28  O   UNL A   1      46.350  20.584  25.401  1.00  0.00    -0.274 OA
ATOM     29  N   UNL A   1      44.314  19.730  25.527  1.00  0.00    -0.356 N 
ATOM     30  H   UNL A   1      44.789  18.875  25.637  1.00  0.00     0.163 HD
BRANCH  29  31
ATOM     31  C   UNL A   1      42.871  19.611  25.509  1.00  0.00     0.116 C 
BRANCH  31  32
ATOM     32  C   UNL A   1      42.292  19.451  26.916  1.00  0.00     0.023 C 
BRANCH  32  33
ATOM     33  C   UNL A   1      41.082  20.333  27.216  1.00  0.00     0.023 C 
BRANCH  33  34
ATOM     34  C   UNL A   1      40.846  21.469  26.228  1.00  0.00     0.116 C 
BRANCH  34  35
ATOM     35  N   UNL A   1      39.442  21.711  25.927  1.00  0.00    -0.352 N 
ATOM     36  C   UNL A   1      38.716  22.863  26.129  1.00  0.00     0.251 C 
ATOM     37  H   UNL A   1      38.951  20.956  25.528  1.00  0.00     0.163 HD
ATOM     38  O   UNL A   1      37.511  22.882  25.904  1.00  0.00    -0.269 OA
BRANCH  36  39
ATOM     39  C   UNL A   1      39.405  24.053  26.670  1.00  0.00     0.039 A 
ATOM     40  C   UNL A   1      40.053  24.920  25.788  1.00  0.00     0.014 A 
ATOM     41  C   UNL A   1      39.335  24.353  28.033  1.00  0.00     0.014 A 
ATOM     42  C   UNL A   1      40.557  26.132  26.264  1.00  0.00     0.010 A 
ATOM     43  C   UNL A   1      39.759  25.597  28.487  1.00  0.00     0.010 A 
ATOM     44  C   UNL A   1      40.371  26.502  27.607  1.00  0.00    -0.014 A 
BRANCH  44  45
ATOM     45  C   UNL A   1      40.804  27.833  28.106  1.00  0.00     0.031 A 
ATOM     46  C   UNL A   1      42.268  28.168  28.186  1.00  0.00     0.074 A 
ATOM     47  C   UNL A   1      39.882  28.708  28.556  1.00  0.00     0.049 A 
ATOM     48  N   UNL A   1      42.848  29.246  28.648  1.00  0.00    -0.248 NA
ATOM     49  C   UNL A   1      43.205  27.135  27.720  1.00  0.00     0.031 C 
ATOM     50  C   UNL A   1      38.436  28.470  28.588  1.00  0.00     0.029 A 
ATOM     51  N   UNL A   1      40.021  29.969  29.079  1.00  0.00    -0.354 N 
ATOM     52  C   UNL A   1      44.215  29.016  28.541  1.00  0.00     0.074 A 
ATOM     53  C   UNL A   1      44.374  27.666  28.043  1.00  0.00     0.031 C 
ATOM     54  C   UNL A   1      37.822  29.561  29.074  1.00  0.00     0.029 A 
ATOM     55  C   UNL A   1      38.827  30.557  29.429  1.00  0.00     0.049 A 
ATOM     56  H   UNL A   1      40.893  30.412  29.193  1.00  0.00     0.167 HD
ATOM     57  C   UNL A   1      45.242  29.862  28.807  1.00  0.00     0.034 A 
ATOM     58  C   UNL A   1      38.572  31.760  29.982  1.00  0.00     0.034 A 
ATOM     59  C   UNL A   1      45.061  31.208  29.294  1.00  0.00     0.049 A 
ATOM     60  C   UNL A   1      39.726  32.681  30.280  1.00  0.00     0.074 A 
ATOM     61  C   UNL A   1      46.020  32.176  29.531  1.00  0.00     0.029 A 
ATOM     62  N   UNL A   1      43.837  31.773  29.632  1.00  0.00    -0.354 N 
ATOM     63  N   UNL A   1      41.011  32.478  30.106  1.00  0.00    -0.248 NA
ATOM     64  C   UNL A   1      39.393  33.998  30.837  1.00  0.00     0.031 C 
ATOM     65  C   UNL A   1      45.387  33.296  30.083  1.00  0.00     0.029 A 
ATOM     66  C   UNL A   1      44.021  33.062  30.111  1.00  0.00     0.049 A 
ATOM     67  H   UNL A   1      42.964  31.324  29.544  1.00  0.00     0.167 HD
ATOM     68  C   UNL A   1      41.640  33.652  30.509  1.00  0.00     0.074 A 
ATOM     69  C   UNL A   1      40.589  34.563  30.917  1.00  0.00     0.031 C 
ATOM     70  C   UNL A   1      42.965  33.953  30.537  1.00  0.00     0.034 A 
BRANCH  57  71
ATOM     71  C   UNL A   1      46.644  29.335  28.598  1.00  0.00     0.023 A 
ATOM     72  C   UNL A   1      47.322  28.618  29.601  1.00  0.00     0.031 A 
ATOM     73  C   UNL A   1      47.334  29.596  27.401  1.00  0.00     0.131 A 
ATOM     74  C   UNL A   1      48.671  28.273  29.428  1.00  0.00     0.055 A 
ATOM     75  C   UNL A   1      48.648  29.166  27.198  1.00  0.00     0.041 A 
ATOM     76  F   UNL A   1      46.751  30.294  26.413  1.00  0.00    -0.206 F 
ATOM     77  C   UNL A   1      49.331  28.519  28.223  1.00  0.00     0.022 A 
BRANCH  74  78
ATOM     78  S   UNL A   1      49.596  27.660  30.864  1.00  0.00     0.124 S 
ATOM     79  O   UNL A   1      50.287  28.869  31.306  1.00  0.00    -0.237 OA
ATOM     80  O   UNL A   1      48.536  27.173  31.738  1.00  0.00    -0.237 OA
ATOM     81  O   UNL A   1      50.464  26.629  30.298  1.00  0.00    -0.744 OA
ENDBRANCH  74  78
ENDBRANCH  57  71
BRANCH  58  82
ATOM     82  C   UNL A   1      37.169  32.160  30.293  1.00  0.00     0.023 A 
ATOM     83  C   UNL A   1      36.340  32.725  29.310  1.00  0.00     0.031 A 
ATOM     84  C   UNL A   1      36.642  32.002  31.587  1.00  0.00     0.131 A 
ATOM     85  C   UNL A   1      35.043  33.144  29.645  1.00  0.00     0.055 A 
ATOM     86  C   UNL A   1      35.335  32.376  31.903  1.00  0.00     0.041 A 
ATOM     87  F   UNL A   1      37.391  31.463  32.563  1.00  0.00    -0.206 F 
ATOM     88  C   UNL A   1      34.531  32.960  30.931  1.00  0.00     0.022 A 
BRANCH  85  89
ATOM     89  S   UNL A   1      34.053  33.998  28.388  1.00  0.00     0.124 S 
ATOM     90  O   UNL A   1      33.189  32.924  27.910  1.00  0.00    -0.237 OA
ATOM     91  O   UNL A   1      33.403  35.044  29.171  1.00  0.00    -0.237 OA
ATOM     92  O   UNL A   1      35.051  34.470  27.430  1.00  0.00    -0.744 OA
ENDBRANCH  85  89
ENDBRANCH  58  82
BRANCH  70  93
ATOM     93  C   UNL A   1      43.342  35.341  30.994  1.00  0.00     0.023 A 
ATOM     94  C   UNL A   1      43.462  36.411  30.089  1.00  0.00     0.031 A 
ATOM     95  C   UNL A   1      43.599  35.595  32.353  1.00  0.00     0.131 A 
ATOM     96  C   UNL A   1      43.886  37.668  30.545  1.00  0.00     0.055 A 
ATOM     97  C   UNL A   1      43.957  36.863  32.811  1.00  0.00     0.041 A 
ATOM     98  F   UNL A   1      43.504  34.610  33.261  1.00  0.00    -0.206 F 
ATOM     99  C   UNL A   1      44.116  37.906  31.903  1.00  0.00     0.022 A 
BRANCH  96 100
ATOM    100  S   UNL A   1      44.232  38.967  29.326  1.00  0.00     0.124 S 
ATOM    101  O   UNL A   1      44.852  39.999  30.151  1.00  0.00    -0.237 OA
ATOM    102  O   UNL A   1      45.116  38.285  28.386  1.00  0.00    -0.237 OA
ATOM    103  O   UNL A   1      42.911  39.304  28.800  1.00  0.00    -0.744 OA
ENDBRANCH  96 100
ENDBRANCH  70  93
ENDBRANCH  44  45
ENDBRANCH  36  39
ENDBRANCH  34  35
ENDBRANCH  33  34
ENDBRANCH  32  33
ENDBRANCH  31  32
ENDBRANCH  29  31
ENDBRANCH   1  27
TORSDOF 23
ENDMDL
MODEL 3
REMARK VINA RESULT:      -8.9      3.633      8.454
REMARK SMILES CCCCCCNC(=O)Oc1cccc(-c2ccc([C@@H](C)C(=O)NCCCCNC(=O)c3ccc(-c4c5nc(c(-c6cc(S(=O)(=O)[O-])ccc6F)c6ccc([nH]6)c(-c6cc(S(=O)(=O)[O-])ccc6F)c6nc(c(-c7cc(S(=O)(=O)[O-])ccc7F)c7ccc4[nH]7)C=C6)C=C5)cc3)cc2F)c1
REMARK SMILES IDX 20 1 21 2 19 3 16 4 17 5 96 6 18 7 95 8 97 9 15 10 11 11
REMARK SMILES IDX 12 12 98 13 13 14 14 15 10 16 8 17 7 18 9 20 6 21 5 22 4 23
REMARK SMILES IDX 3 24 2 25 1 26 22 27 23 28 24 29 25 31 26 32 27 33 28 34
REMARK SMILES IDX 29 35 30 36 31 38 32 39 33 40 94 41 34 42 93 43 35 44 36 45
REMARK SMILES IDX 37 46 87 47 38 48 92 49 86 50 88 51 39 52 91 53 85 54 84 55
REMARK SMILES IDX 40 57 72 58 52 59 71 60 53 61 56 62 70 63 89 64 54 65 55 66
REMARK SMILES IDX 69 68 90 69 57 70 41 71 42 72 50 73 43 74 49 75 51 76 48 77
REMARK SMILES IDX 44 78 45 79 46 80 47 81 73 82 74 83 82 84 75 85 81 86 83 87
REMARK SMILES IDX 80 88 76 89 77 90 78 91 79 92 58 93 59 94 67 95 60 96 66 97
REMARK SMILES IDX 68 98 65 99 61 100 62 101 63 102 64 103
REMARK H PARENT 7 19 24 30 29 37 88 56 56 67
REMARK Flexibility Score: inf
ROOT
ATOM      1  C   UNL A   1      41.497  24.429  27.514  1.00  0.00     0.105 C 
ATOM      2  C   UNL A   1      42.210  23.858  28.739  1.00  0.00     0.023 C 
ENDROOT
BRANCH   1   3
ATOM      3  C   UNL A   1      40.746  25.733  27.733  1.00  0.00    -0.033 A 
ATOM      4  C   UNL A   1      39.479  28.233  28.328  1.00  0.00     0.018 A 
ATOM      5  C   UNL A   1      40.251  28.050  27.170  1.00  0.00     0.012 A 
ATOM      6  C   UNL A   1      39.322  27.108  29.152  1.00  0.00     0.131 A 
ATOM      7  C   UNL A   1      40.832  26.815  26.856  1.00  0.00     0.005 A 
ATOM      8  C   UNL A   1      39.958  25.892  28.880  1.00  0.00     0.044 A 
ATOM      9  F   UNL A   1      38.540  27.161  30.242  1.00  0.00    -0.206 F 
BRANCH   4  10
ATOM     10  C   UNL A   1      38.895  29.558  28.648  1.00  0.00    -0.012 A 
ATOM     11  C   UNL A   1      37.107  31.201  28.468  1.00  0.00     0.133 A 
ATOM     12  C   UNL A   1      37.776  32.080  29.313  1.00  0.00     0.047 A 
ATOM     13  C   UNL A   1      37.650  29.959  28.134  1.00  0.00     0.056 A 
ATOM     14  C   UNL A   1      39.004  31.704  29.840  1.00  0.00     0.004 A 
ATOM     15  C   UNL A   1      39.559  30.465  29.503  1.00  0.00     0.009 A 
BRANCH  11  16
ATOM     16  O   UNL A   1      35.940  31.680  27.852  1.00  0.00    -0.410 OA
BRANCH  16  17
ATOM     17  C   UNL A   1      34.744  31.622  28.550  1.00  0.00     0.412 C 
ATOM     18  N   UNL A   1      33.827  30.799  27.955  1.00  0.00    -0.321 N 
ATOM     19  H   UNL A   1      32.940  30.744  28.381  1.00  0.00     0.167 HD
ATOM     20  O   UNL A   1      34.479  32.226  29.580  1.00  0.00    -0.224 OA
BRANCH  18  21
ATOM     21  C   UNL A   1      34.029  30.000  26.764  1.00  0.00     0.119 C 
BRANCH  21  22
ATOM     22  C   UNL A   1      32.715  29.439  26.224  1.00  0.00     0.021 C 
BRANCH  22  23
ATOM     23  C   UNL A   1      32.467  27.961  26.553  1.00  0.00     0.002 C 
BRANCH  23  24
ATOM     24  C   UNL A   1      33.586  26.999  26.139  1.00  0.00    -0.000 C 
BRANCH  24  25
ATOM     25  C   UNL A   1      33.126  25.601  25.718  1.00  0.00    -0.003 C 
ATOM     26  C   UNL A   1      31.836  25.164  26.394  1.00  0.00     0.004 C 
ENDBRANCH  24  25
ENDBRANCH  23  24
ENDBRANCH  22  23
ENDBRANCH  21  22
ENDBRANCH  18  21
ENDBRANCH  16  17
ENDBRANCH  11  16
ENDBRANCH   4  10
ENDBRANCH   1   3
BRANCH   1  27
ATOM     27  C   UNL A   1      40.705  23.386  26.707  1.00  0.00     0.227 C 
ATOM     28  O   UNL A   1      39.483  23.289  26.872  1.00  0.00    -0.274 OA
ATOM     29  N   UNL A   1      41.264  22.552  25.789  1.00  0.00    -0.356 N 
ATOM     30  H   UNL A   1      40.614  21.992  25.306  1.00  0.00     0.163 HD
BRANCH  29  31
ATOM     31  C   UNL A   1      42.640  22.341  25.391  1.00  0.00     0.116 C 
BRANCH  31  32
ATOM     32  C   UNL A   1      43.118  20.923  25.709  1.00  0.00     0.023 C 
BRANCH  32  33
ATOM     33  C   UNL A   1      44.461  20.544  25.091  1.00  0.00     0.023 C 
BRANCH  33  34
ATOM     34  C   UNL A   1      45.655  21.348  25.591  1.00  0.00     0.116 C 
BRANCH  34  35
ATOM     35  N   UNL A   1      46.343  22.099  24.549  1.00  0.00    -0.352 N 
ATOM     36  C   UNL A   1      46.561  23.457  24.484  1.00  0.00     0.251 C 
ATOM     37  H   UNL A   1      46.696  21.568  23.798  1.00  0.00     0.163 HD
ATOM     38  O   UNL A   1      47.082  23.952  23.491  1.00  0.00    -0.269 OA
BRANCH  36  39
ATOM     39  C   UNL A   1      46.109  24.305  25.607  1.00  0.00     0.039 A 
ATOM     40  C   UNL A   1      46.975  24.528  26.679  1.00  0.00     0.014 A 
ATOM     41  C   UNL A   1      44.868  24.944  25.555  1.00  0.00     0.014 A 
ATOM     42  C   UNL A   1      46.629  25.460  27.659  1.00  0.00     0.010 A 
ATOM     43  C   UNL A   1      44.565  25.935  26.482  1.00  0.00     0.010 A 
ATOM     44  C   UNL A   1      45.444  26.207  27.542  1.00  0.00    -0.014 A 
BRANCH  44  45
ATOM     45  C   UNL A   1      45.111  27.280  28.515  1.00  0.00     0.031 A 
ATOM     46  C   UNL A   1      45.246  28.725  28.118  1.00  0.00     0.074 A 
ATOM     47  C   UNL A   1      44.761  26.952  29.775  1.00  0.00     0.049 A 
ATOM     48  N   UNL A   1      45.063  29.802  28.838  1.00  0.00    -0.248 NA
ATOM     49  C   UNL A   1      45.681  28.990  26.739  1.00  0.00     0.031 C 
ATOM     50  C   UNL A   1      44.659  25.586  30.295  1.00  0.00     0.029 A 
ATOM     51  N   UNL A   1      44.434  27.740  30.850  1.00  0.00    -0.354 N 
ATOM     52  C   UNL A   1      45.374  30.871  28.004  1.00  0.00     0.074 A 
ATOM     53  C   UNL A   1      45.830  30.305  26.752  1.00  0.00     0.031 C 
ATOM     54  C   UNL A   1      44.265  25.632  31.578  1.00  0.00     0.029 A 
ATOM     55  C   UNL A   1      44.129  27.026  31.986  1.00  0.00     0.049 A 
ATOM     56  H   UNL A   1      44.419  28.724  30.812  1.00  0.00     0.167 HD
ATOM     57  C   UNL A   1      45.263  32.201  28.250  1.00  0.00     0.034 A 
ATOM     58  C   UNL A   1      43.786  27.447  33.220  1.00  0.00     0.034 A 
ATOM     59  C   UNL A   1      44.797  32.743  29.503  1.00  0.00     0.049 A 
ATOM     60  C   UNL A   1      43.678  28.928  33.477  1.00  0.00     0.074 A 
ATOM     61  C   UNL A   1      44.578  34.067  29.841  1.00  0.00     0.029 A 
ATOM     62  N   UNL A   1      44.491  31.991  30.631  1.00  0.00    -0.354 N 
ATOM     63  N   UNL A   1      43.906  29.928  32.657  1.00  0.00    -0.248 NA
ATOM     64  C   UNL A   1      43.256  29.336  34.823  1.00  0.00     0.031 C 
ATOM     65  C   UNL A   1      44.213  34.120  31.192  1.00  0.00     0.029 A 
ATOM     66  C   UNL A   1      44.121  32.824  31.676  1.00  0.00     0.049 A 
ATOM     67  H   UNL A   1      44.530  31.008  30.681  1.00  0.00     0.167 HD
ATOM     68  C   UNL A   1      43.629  31.084  33.380  1.00  0.00     0.074 A 
ATOM     69  C   UNL A   1      43.201  30.653  34.697  1.00  0.00     0.031 C 
ATOM     70  C   UNL A   1      43.718  32.383  32.993  1.00  0.00     0.034 A 
BRANCH  57  71
ATOM     71  C   UNL A   1      45.681  33.146  27.146  1.00  0.00     0.023 A 
ATOM     72  C   UNL A   1      47.020  33.538  26.975  1.00  0.00     0.031 A 
ATOM     73  C   UNL A   1      44.720  33.705  26.284  1.00  0.00     0.131 A 
ATOM     74  C   UNL A   1      47.349  34.527  26.036  1.00  0.00     0.055 A 
ATOM     75  C   UNL A   1      45.068  34.619  25.287  1.00  0.00     0.041 A 
ATOM     76  F   UNL A   1      43.422  33.388  26.409  1.00  0.00    -0.206 F 
ATOM     77  C   UNL A   1      46.386  35.052  25.172  1.00  0.00     0.022 A 
BRANCH  74  78
ATOM     78  S   UNL A   1      49.016  35.244  26.083  1.00  0.00     0.124 S 
ATOM     79  O   UNL A   1      48.742  36.646  25.777  1.00  0.00    -0.237 OA
ATOM     80  O   UNL A   1      49.443  34.958  27.447  1.00  0.00    -0.237 OA
ATOM     81  O   UNL A   1      49.732  34.516  25.037  1.00  0.00    -0.744 OA
ENDBRANCH  74  78
ENDBRANCH  57  71
BRANCH  58  82
ATOM     82  C   UNL A   1      43.524  26.458  34.305  1.00  0.00     0.023 A 
ATOM     83  C   UNL A   1      44.577  25.782  34.942  1.00  0.00     0.031 A 
ATOM     84  C   UNL A   1      42.210  26.159  34.707  1.00  0.00     0.131 A 
ATOM     85  C   UNL A   1      44.297  24.815  35.920  1.00  0.00     0.055 A 
ATOM     86  C   UNL A   1      41.939  25.232  35.715  1.00  0.00     0.041 A 
ATOM     87  F   UNL A   1      41.167  26.781  34.134  1.00  0.00    -0.206 F 
ATOM     88  C   UNL A   1      42.986  24.546  36.321  1.00  0.00     0.022 A 
BRANCH  85  89
ATOM     89  S   UNL A   1      45.672  23.861  36.619  1.00  0.00     0.124 S 
ATOM     90  O   UNL A   1      45.142  22.502  36.580  1.00  0.00    -0.237 OA
ATOM     91  O   UNL A   1      46.753  24.155  35.683  1.00  0.00    -0.237 OA
ATOM     92  O   UNL A   1      45.837  24.429  37.955  1.00  0.00    -0.744 OA
ENDBRANCH  85  89
ENDBRANCH  58  82
BRANCH  70  93
ATOM     93  C   UNL A   1      43.307  33.428  34.002  1.00  0.00     0.023 A 
ATOM     94  C   UNL A   1      41.955  33.730  34.245  1.00  0.00     0.031 A 
ATOM     95  C   UNL A   1      44.283  34.141  34.720  1.00  0.00     0.131 A 
ATOM     96  C   UNL A   1      41.619  34.760  35.138  1.00  0.00     0.055 A 
ATOM     97  C   UNL A   1      43.941  35.119  35.655  1.00  0.00     0.041 A 
ATOM     98  F   UNL A   1      45.589  33.897  34.525  1.00  0.00    -0.206 F 
ATOM     99  C   UNL A   1      42.602  35.443  35.858  1.00  0.00     0.022 A 
BRANCH  96 100
ATOM    100  S   UNL A   1      39.882  35.265  35.272  1.00  0.00     0.124 S 
ATOM    101  O   UNL A   1      39.402  35.060  33.908  1.00  0.00    -0.237 OA
ATOM    102  O   UNL A   1      39.365  34.341  36.276  1.00  0.00    -0.237 OA
ATOM    103  O   UNL A   1      39.962  36.661  35.697  1.00  0.00    -0.744 OA
ENDBRANCH  96 100
ENDBRANCH  70  93
ENDBRANCH  44  45
ENDBRANCH  36  39
ENDBRANCH  34  35
ENDBRANCH  33  34
ENDBRANCH  32  33
ENDBRANCH  31  32
ENDBRANCH  29  31
ENDBRANCH   1  27
TORSDOF 23
ENDMDL
