MODEL 1
REMARK VINA RESULT:     -12.6      0.000      0.000
REMARK SMILES NC(=O)c1ccc(C[N@H+]2CCC[C@@H](C(=O)NCCCCNC(=O)c3ccc(-c4c5nc(c(-c6cc(S(=O)(=O)[O-])ccc6F)c6ccc([nH]6)c(-c6cc(S(=O)(=O)[O-])ccc6F)c6nc(c(-c7cc(S(=O)(=O)[O-])ccc7F)c7ccc4[nH]7)C=C6)C=C5)cc3)C2)cc1
REMARK SMILES IDX 18 1 17 2 16 3 14 4 15 5 13 7 9 8 10 9 87 10 11 12 12 13
REMARK SMILES IDX 8 14 7 15 4 16 5 17 89 18 6 19 88 20 2 21 1 22 3 25 19 26
REMARK SMILES IDX 20 27 21 28 22 29 23 31 24 32 25 33 86 34 26 35 85 36 27 37
REMARK SMILES IDX 28 38 29 39 79 40 30 41 84 42 78 43 80 44 31 45 83 46 77 47
REMARK SMILES IDX 76 48 32 50 64 51 44 52 63 53 45 54 48 55 62 56 81 57 46 58
REMARK SMILES IDX 47 59 61 61 82 62 49 63 33 64 34 65 42 66 35 67 41 68 43 69
REMARK SMILES IDX 40 70 36 71 37 72 38 73 39 74 65 75 66 76 74 77 67 78 73 79
REMARK SMILES IDX 75 80 72 81 68 82 69 83 70 84 71 85 50 86 51 87 59 88 52 89
REMARK SMILES IDX 58 90 60 91 57 92 53 93 54 94 55 95 56 96
REMARK H PARENT 16 6 9 11 1 23 1 24 21 30 80 49 48 60
REMARK Flexibility Score: inf
ROOT
ATOM      1  C   UNL A   1      35.082  20.387  25.123  1.00  0.00     0.023 C 
ENDROOT
BRANCH   1   2
ATOM      2  C   UNL A   1      33.571  20.562  25.240  1.00  0.00     0.116 C 
BRANCH   2   3
ATOM      3  N   UNL A   1      33.198  20.992  26.570  1.00  0.00    -0.356 N 
ATOM      4  C   UNL A   1      32.980  22.249  27.039  1.00  0.00     0.228 C 
ATOM      5  O   UNL A   1      32.692  22.380  28.229  1.00  0.00    -0.275 OA
ATOM      6  H   UNL A   1      33.088  20.271  27.231  1.00  0.00     0.163 HD
BRANCH   4   7
ATOM      7  C   UNL A   1      33.080  23.429  26.081  1.00  0.00     0.133 C 
ATOM      8  N   UNL A   1      32.004  25.630  25.592  1.00  0.00    -0.331 N 
ATOM      9  C   UNL A   1      33.300  26.316  25.659  1.00  0.00     0.262 C 
ATOM     10  C   UNL A   1      31.988  24.435  26.448  1.00  0.00     0.276 C 
ATOM     11  H   UNL A   1      31.888  25.327  24.625  1.00  0.00     0.348 HD
ATOM     12  C   UNL A   1      34.452  25.372  25.297  1.00  0.00     0.062 C 
ATOM     13  C   UNL A   1      34.446  24.115  26.165  1.00  0.00     0.025 C 
BRANCH   8  14
ATOM     14  C   UNL A   1      30.859  26.522  25.876  1.00  0.00     0.299 C 
BRANCH  14  15
ATOM     15  C   UNL A   1      30.462  27.486  24.770  1.00  0.00     0.006 A 
ATOM     16  C   UNL A   1      29.550  29.350  22.883  1.00  0.00     0.039 A 
ATOM     17  C   UNL A   1      28.984  28.077  22.927  1.00  0.00     0.014 A 
ATOM     18  C   UNL A   1      30.592  29.691  23.752  1.00  0.00     0.014 A 
ATOM     19  C   UNL A   1      29.469  27.140  23.837  1.00  0.00     0.010 A 
ATOM     20  C   UNL A   1      31.036  28.765  24.699  1.00  0.00     0.010 A 
BRANCH  16  21
ATOM     21  C   UNL A   1      29.005  30.327  21.918  1.00  0.00     0.248 C 
ATOM     22  N   UNL A   1      29.479  31.602  22.022  1.00  0.00    -0.366 N 
ATOM     23  H   UNL A   1      29.154  32.299  21.409  1.00  0.00     0.159 HD
ATOM     24  H   UNL A   1      30.145  31.825  22.712  1.00  0.00     0.159 HD
ATOM     25  O   UNL A   1      28.206  30.005  21.050  1.00  0.00    -0.270 OA
ENDBRANCH  16  21
ENDBRANCH  14  15
ENDBRANCH   8  14
ENDBRANCH   4   7
ENDBRANCH   2   3
ENDBRANCH   1   2
BRANCH   1  26
ATOM     26  C   UNL A   1      35.775  21.451  24.269  1.00  0.00     0.023 C 
BRANCH  26  27
ATOM     27  C   UNL A   1      37.115  21.931  24.809  1.00  0.00     0.116 C 
BRANCH  27  28
ATOM     28  N   UNL A   1      37.953  20.838  25.277  1.00  0.00    -0.352 N 
ATOM     29  C   UNL A   1      39.156  20.904  25.940  1.00  0.00     0.251 C 
ATOM     30  H   UNL A   1      37.614  19.932  25.096  1.00  0.00     0.163 HD
ATOM     31  O   UNL A   1      39.819  19.888  26.114  1.00  0.00    -0.269 OA
BRANCH  29  32
ATOM     32  C   UNL A   1      39.647  22.219  26.402  1.00  0.00     0.039 A 
ATOM     33  C   UNL A   1      40.850  22.287  27.108  1.00  0.00     0.014 A 
ATOM     34  C   UNL A   1      38.940  23.385  26.094  1.00  0.00     0.014 A 
ATOM     35  C   UNL A   1      41.380  23.534  27.447  1.00  0.00     0.010 A 
ATOM     36  C   UNL A   1      39.511  24.624  26.357  1.00  0.00     0.010 A 
ATOM     37  C   UNL A   1      40.734  24.714  27.042  1.00  0.00    -0.014 A 
BRANCH  37  38
ATOM     38  C   UNL A   1      41.298  26.057  27.341  1.00  0.00     0.031 A 
ATOM     39  C   UNL A   1      42.678  26.407  26.852  1.00  0.00     0.074 A 
ATOM     40  C   UNL A   1      40.611  26.925  28.109  1.00  0.00     0.049 A 
ATOM     41  N   UNL A   1      43.405  27.464  27.106  1.00  0.00    -0.248 NA
ATOM     42  C   UNL A   1      43.337  25.416  25.988  1.00  0.00     0.031 C 
ATOM     43  C   UNL A   1      39.276  26.691  28.664  1.00  0.00     0.029 A 
ATOM     44  N   UNL A   1      40.945  28.175  28.568  1.00  0.00    -0.354 N 
ATOM     45  C   UNL A   1      44.614  27.256  26.450  1.00  0.00     0.074 A 
ATOM     46  C   UNL A   1      44.544  25.943  25.846  1.00  0.00     0.031 C 
ATOM     47  C   UNL A   1      38.897  27.771  29.367  1.00  0.00     0.029 A 
ATOM     48  C   UNL A   1      39.980  28.750  29.363  1.00  0.00     0.049 A 
ATOM     49  H   UNL A   1      41.795  28.620  28.348  1.00  0.00     0.167 HD
ATOM     50  C   UNL A   1      45.675  28.094  26.340  1.00  0.00     0.034 A 
ATOM     51  C   UNL A   1      39.977  29.921  30.032  1.00  0.00     0.034 A 
ATOM     52  C   UNL A   1      45.723  29.404  26.942  1.00  0.00     0.049 A 
ATOM     53  C   UNL A   1      41.189  30.817  29.937  1.00  0.00     0.074 A 
ATOM     54  C   UNL A   1      46.728  30.353  26.860  1.00  0.00     0.029 A 
ATOM     55  N   UNL A   1      44.729  29.949  27.745  1.00  0.00    -0.354 N 
ATOM     56  N   UNL A   1      42.311  30.624  29.284  1.00  0.00    -0.248 NA
ATOM     57  C   UNL A   1      41.128  32.094  30.661  1.00  0.00     0.031 C 
ATOM     58  C   UNL A   1      46.378  31.433  27.675  1.00  0.00     0.029 A 
ATOM     59  C   UNL A   1      45.112  31.205  28.190  1.00  0.00     0.049 A 
ATOM     60  H   UNL A   1      43.877  29.508  27.966  1.00  0.00     0.167 HD
ATOM     61  C   UNL A   1      43.071  31.774  29.486  1.00  0.00     0.074 A 
ATOM     62  C   UNL A   1      42.276  32.656  30.315  1.00  0.00     0.031 C 
ATOM     63  C   UNL A   1      44.310  32.077  29.019  1.00  0.00     0.034 A 
BRANCH  50  64
ATOM     64  C   UNL A   1      46.874  27.598  25.566  1.00  0.00     0.023 A 
ATOM     65  C   UNL A   1      47.138  28.029  24.253  1.00  0.00     0.031 A 
ATOM     66  C   UNL A   1      47.747  26.652  26.132  1.00  0.00     0.131 A 
ATOM     67  C   UNL A   1      48.186  27.451  23.523  1.00  0.00     0.055 A 
ATOM     68  C   UNL A   1      48.847  26.152  25.432  1.00  0.00     0.041 A 
ATOM     69  F   UNL A   1      47.537  26.183  27.372  1.00  0.00    -0.206 F 
ATOM     70  C   UNL A   1      49.061  26.537  24.112  1.00  0.00     0.022 A 
BRANCH  67  71
ATOM     71  S   UNL A   1      48.286  27.787  21.743  1.00  0.00     0.124 S 
ATOM     72  O   UNL A   1      49.313  28.825  21.696  1.00  0.00    -0.237 OA
ATOM     73  O   UNL A   1      48.664  26.489  21.197  1.00  0.00    -0.237 OA
ATOM     74  O   UNL A   1      46.939  28.239  21.403  1.00  0.00    -0.744 OA
ENDBRANCH  67  71
ENDBRANCH  50  64
BRANCH  51  75
ATOM     75  C   UNL A   1      38.802  30.316  30.863  1.00  0.00     0.023 A 
ATOM     76  C   UNL A   1      37.721  31.014  30.300  1.00  0.00     0.031 A 
ATOM     77  C   UNL A   1      38.762  30.045  32.242  1.00  0.00     0.131 A 
ATOM     78  C   UNL A   1      36.672  31.459  31.119  1.00  0.00     0.055 A 
ATOM     79  C   UNL A   1      37.688  30.438  33.042  1.00  0.00     0.041 A 
ATOM     80  F   UNL A   1      39.768  29.381  32.833  1.00  0.00    -0.206 F 
ATOM     81  C   UNL A   1      36.640  31.163  32.483  1.00  0.00     0.022 A 
BRANCH  78  82
ATOM     82  S   UNL A   1      35.392  32.519  30.390  1.00  0.00     0.124 S 
ATOM     83  O   UNL A   1      36.108  33.779  30.229  1.00  0.00    -0.237 OA
ATOM     84  O   UNL A   1      35.068  31.801  29.162  1.00  0.00    -0.237 OA
ATOM     85  O   UNL A   1      34.338  32.523  31.403  1.00  0.00    -0.744 OA
ENDBRANCH  78  82
ENDBRANCH  51  75
BRANCH  63  86
ATOM     86  C   UNL A   1      44.855  33.449  29.336  1.00  0.00     0.023 A 
ATOM     87  C   UNL A   1      44.512  34.584  28.581  1.00  0.00     0.031 A 
ATOM     88  C   UNL A   1      45.732  33.621  30.423  1.00  0.00     0.131 A 
ATOM     89  C   UNL A   1      45.082  35.828  28.892  1.00  0.00     0.055 A 
ATOM     90  C   UNL A   1      46.244  34.872  30.768  1.00  0.00     0.041 A 
ATOM     91  F   UNL A   1      46.099  32.571  31.177  1.00  0.00    -0.206 F 
ATOM     92  C   UNL A   1      45.928  35.983  29.992  1.00  0.00     0.022 A 
BRANCH  89  93
ATOM     93  S   UNL A   1      44.776  37.230  27.783  1.00  0.00     0.124 S 
ATOM     94  O   UNL A   1      44.248  38.235  28.701  1.00  0.00    -0.237 OA
ATOM     95  O   UNL A   1      46.104  37.496  27.241  1.00  0.00    -0.237 OA
ATOM     96  O   UNL A   1      43.809  36.702  26.820  1.00  0.00    -0.744 OA
ENDBRANCH  89  93
ENDBRANCH  63  86
ENDBRANCH  37  38
ENDBRANCH  29  32
ENDBRANCH  27  28
ENDBRANCH  26  27
ENDBRANCH   1  26
TORSDOF 17
ENDMDL
MODEL 2
REMARK VINA RESULT:     -12.3      5.059      8.473
REMARK SMILES NC(=O)c1ccc(C[N@H+]2CCC[C@@H](C(=O)NCCCCNC(=O)c3ccc(-c4c5nc(c(-c6cc(S(=O)(=O)[O-])ccc6F)c6ccc([nH]6)c(-c6cc(S(=O)(=O)[O-])ccc6F)c6nc(c(-c7cc(S(=O)(=O)[O-])ccc7F)c7ccc4[nH]7)C=C6)C=C5)cc3)C2)cc1
REMARK SMILES IDX 18 1 17 2 16 3 14 4 15 5 13 7 9 8 10 9 87 10 11 12 12 13
REMARK SMILES IDX 8 14 7 15 4 16 5 17 89 18 6 19 88 20 2 21 1 22 3 25 19 26
REMARK SMILES IDX 20 27 21 28 22 29 23 31 24 32 25 33 86 34 26 35 85 36 27 37
REMARK SMILES IDX 28 38 29 39 79 40 30 41 84 42 78 43 80 44 31 45 83 46 77 47
REMARK SMILES IDX 76 48 32 50 64 51 44 52 63 53 45 54 48 55 62 56 81 57 46 58
REMARK SMILES IDX 47 59 61 61 82 62 49 63 33 64 34 65 42 66 35 67 41 68 43 69
REMARK SMILES IDX 40 70 36 71 37 72 38 73 39 74 65 75 66 76 74 77 67 78 73 79
REMARK SMILES IDX 75 80 72 81 68 82 69 83 70 84 71 85 50 86 51 87 59 88 52 89
REMARK SMILES IDX 58 90 60 91 57 92 53 93 54 94 55 95 56 96
REMARK H PARENT 16 6 9 11 1 23 1 24 21 30 80 49 48 60
REMARK Flexibility Score: inf
ROOT
ATOM      1  C   UNL A   1      30.923  30.360  24.859  1.00  0.00     0.023 C 
ENDROOT
BRANCH   1   2
ATOM      2  C   UNL A   1      30.879  29.286  23.776  1.00  0.00     0.116 C 
BRANCH   2   3
ATOM      3  N   UNL A   1      32.109  29.263  23.015  1.00  0.00    -0.356 N 
ATOM      4  C   UNL A   1      33.114  28.347  23.031  1.00  0.00     0.228 C 
ATOM      5  O   UNL A   1      34.089  28.548  22.307  1.00  0.00    -0.275 OA
ATOM      6  H   UNL A   1      32.238  30.020  22.398  1.00  0.00     0.163 HD
BRANCH   4   7
ATOM      7  C   UNL A   1      32.986  27.117  23.918  1.00  0.00     0.133 C 
ATOM      8  N   UNL A   1      33.557  24.684  23.960  1.00  0.00    -0.331 N 
ATOM      9  C   UNL A   1      34.239  24.833  25.251  1.00  0.00     0.262 C 
ATOM     10  C   UNL A   1      33.610  25.931  23.181  1.00  0.00     0.276 C 
ATOM     11  H   UNL A   1      32.579  24.487  24.172  1.00  0.00     0.348 HD
ATOM     12  C   UNL A   1      33.663  26.003  26.057  1.00  0.00     0.062 C 
ATOM     13  C   UNL A   1      33.695  27.306  25.261  1.00  0.00     0.025 C 
BRANCH   8  14
ATOM     14  C   UNL A   1      34.042  23.528  23.176  1.00  0.00     0.299 C 
BRANCH  14  15
ATOM     15  C   UNL A   1      33.812  22.155  23.784  1.00  0.00     0.006 A 
ATOM     16  C   UNL A   1      33.462  19.522  24.686  1.00  0.00     0.039 A 
ATOM     17  C   UNL A   1      32.414  20.177  24.042  1.00  0.00     0.014 A 
ATOM     18  C   UNL A   1      34.674  20.182  24.916  1.00  0.00     0.014 A 
ATOM     19  C   UNL A   1      32.578  21.499  23.632  1.00  0.00     0.010 A 
ATOM     20  C   UNL A   1      34.850  21.489  24.454  1.00  0.00     0.010 A 
BRANCH  16  21
ATOM     21  C   UNL A   1      33.265  18.116  25.095  1.00  0.00     0.248 C 
ATOM     22  N   UNL A   1      32.734  17.919  26.336  1.00  0.00    -0.366 N 
ATOM     23  H   UNL A   1      32.580  17.005  26.666  1.00  0.00     0.159 HD
ATOM     24  H   UNL A   1      32.506  18.692  26.902  1.00  0.00     0.159 HD
ATOM     25  O   UNL A   1      33.526  17.181  24.349  1.00  0.00    -0.270 OA
ENDBRANCH  16  21
ENDBRANCH  14  15
ENDBRANCH   8  14
ENDBRANCH   4   7
ENDBRANCH   2   3
ENDBRANCH   1   2
BRANCH   1  26
ATOM     26  C   UNL A   1      31.439  29.867  26.213  1.00  0.00     0.023 C 
BRANCH  26  27
ATOM     27  C   UNL A   1      32.741  30.507  26.673  1.00  0.00     0.116 C 
BRANCH  27  28
ATOM     28  N   UNL A   1      32.623  31.946  26.854  1.00  0.00    -0.352 N 
ATOM     29  C   UNL A   1      33.447  32.791  27.558  1.00  0.00     0.251 C 
ATOM     30  H   UNL A   1      31.851  32.370  26.415  1.00  0.00     0.163 HD
ATOM     31  O   UNL A   1      33.113  33.954  27.755  1.00  0.00    -0.269 OA
BRANCH  29  32
ATOM     32  C   UNL A   1      34.718  32.266  28.099  1.00  0.00     0.039 A 
ATOM     33  C   UNL A   1      35.856  33.075  28.074  1.00  0.00     0.014 A 
ATOM     34  C   UNL A   1      34.767  30.992  28.674  1.00  0.00     0.014 A 
ATOM     35  C   UNL A   1      37.030  32.631  28.688  1.00  0.00     0.010 A 
ATOM     36  C   UNL A   1      35.909  30.590  29.357  1.00  0.00     0.010 A 
ATOM     37  C   UNL A   1      37.055  31.401  29.367  1.00  0.00    -0.014 A 
BRANCH  37  38
ATOM     38  C   UNL A   1      38.273  30.924  30.074  1.00  0.00     0.031 A 
ATOM     39  C   UNL A   1      39.174  29.922  29.404  1.00  0.00     0.074 A 
ATOM     40  C   UNL A   1      38.527  31.328  31.334  1.00  0.00     0.049 A 
ATOM     41  N   UNL A   1      40.208  29.283  29.887  1.00  0.00    -0.248 NA
ATOM     42  C   UNL A   1      38.842  29.568  28.016  1.00  0.00     0.031 C 
ATOM     43  C   UNL A   1      37.715  32.277  32.099  1.00  0.00     0.029 A 
ATOM     44  N   UNL A   1      39.534  30.982  32.201  1.00  0.00    -0.354 N 
ATOM     45  C   UNL A   1      40.639  28.438  28.869  1.00  0.00     0.074 A 
ATOM     46  C   UNL A   1      39.710  28.599  27.770  1.00  0.00     0.031 C 
ATOM     47  C   UNL A   1      38.270  32.454  33.309  1.00  0.00     0.029 A 
ATOM     48  C   UNL A   1      39.441  31.591  33.432  1.00  0.00     0.049 A 
ATOM     49  H   UNL A   1      40.257  30.357  31.964  1.00  0.00     0.167 HD
ATOM     50  C   UNL A   1      41.723  27.624  28.843  1.00  0.00     0.034 A 
ATOM     51  C   UNL A   1      40.198  31.453  34.539  1.00  0.00     0.034 A 
ATOM     52  C   UNL A   1      42.642  27.483  29.946  1.00  0.00     0.049 A 
ATOM     53  C   UNL A   1      41.371  30.503  34.506  1.00  0.00     0.074 A 
ATOM     54  C   UNL A   1      43.795  26.720  30.013  1.00  0.00     0.029 A 
ATOM     55  N   UNL A   1      42.511  28.112  31.178  1.00  0.00    -0.354 N 
ATOM     56  N   UNL A   1      41.787  29.737  33.524  1.00  0.00    -0.248 NA
ATOM     57  C   UNL A   1      42.181  30.407  35.727  1.00  0.00     0.031 C 
ATOM     58  C   UNL A   1      44.314  26.825  31.307  1.00  0.00     0.029 A 
ATOM     59  C   UNL A   1      43.543  27.728  32.021  1.00  0.00     0.049 A 
ATOM     60  H   UNL A   1      41.790  28.738  31.417  1.00  0.00     0.167 HD
ATOM     61  C   UNL A   1      42.932  29.101  33.998  1.00  0.00     0.074 A 
ATOM     62  C   UNL A   1      43.143  29.578  35.348  1.00  0.00     0.031 C 
ATOM     63  C   UNL A   1      43.742  28.211  33.369  1.00  0.00     0.034 A 
BRANCH  50  64
ATOM     64  C   UNL A   1      41.945  26.803  27.593  1.00  0.00     0.023 A 
ATOM     65  C   UNL A   1      41.574  25.448  27.522  1.00  0.00     0.031 A 
ATOM     66  C   UNL A   1      42.569  27.371  26.469  1.00  0.00     0.131 A 
ATOM     67  C   UNL A   1      41.910  24.688  26.393  1.00  0.00     0.055 A 
ATOM     68  C   UNL A   1      42.815  26.632  25.310  1.00  0.00     0.041 A 
ATOM     69  F   UNL A   1      42.968  28.653  26.482  1.00  0.00    -0.206 F 
ATOM     70  C   UNL A   1      42.501  25.277  25.274  1.00  0.00     0.022 A 
BRANCH  67  71
ATOM     71  S   UNL A   1      41.716  22.886  26.476  1.00  0.00     0.124 S 
ATOM     72  O   UNL A   1      42.399  22.575  27.730  1.00  0.00    -0.237 OA
ATOM     73  O   UNL A   1      40.267  22.724  26.482  1.00  0.00    -0.237 OA
ATOM     74  O   UNL A   1      42.394  22.412  25.272  1.00  0.00    -0.744 OA
ENDBRANCH  67  71
ENDBRANCH  50  64
BRANCH  51  75
ATOM     75  C   UNL A   1      39.872  32.217  35.779  1.00  0.00     0.023 A 
ATOM     76  C   UNL A   1      38.923  31.735  36.696  1.00  0.00     0.031 A 
ATOM     77  C   UNL A   1      40.468  33.462  36.045  1.00  0.00     0.131 A 
ATOM     78  C   UNL A   1      38.562  32.514  37.805  1.00  0.00     0.055 A 
ATOM     79  C   UNL A   1      40.149  34.206  37.182  1.00  0.00     0.041 A 
ATOM     80  F   UNL A   1      41.382  33.970  35.203  1.00  0.00    -0.206 F 
ATOM     81  C   UNL A   1      39.180  33.739  38.063  1.00  0.00     0.022 A 
BRANCH  78  82
ATOM     82  S   UNL A   1      37.199  31.945  38.859  1.00  0.00     0.124 S 
ATOM     83  O   UNL A   1      36.114  32.824  38.438  1.00  0.00    -0.237 OA
ATOM     84  O   UNL A   1      37.080  30.544  38.471  1.00  0.00    -0.237 OA
ATOM     85  O   UNL A   1      37.699  32.174  40.213  1.00  0.00    -0.744 OA
ENDBRANCH  78  82
ENDBRANCH  51  75
BRANCH  63  86
ATOM     86  C   UNL A   1      44.973  27.747  34.110  1.00  0.00     0.023 A 
ATOM     87  C   UNL A   1      44.989  26.564  34.868  1.00  0.00     0.031 A 
ATOM     88  C   UNL A   1      46.156  28.507  34.049  1.00  0.00     0.131 A 
ATOM     89  C   UNL A   1      46.148  26.201  35.574  1.00  0.00     0.055 A 
ATOM     90  C   UNL A   1      47.324  28.107  34.698  1.00  0.00     0.041 A 
ATOM     91  F   UNL A   1      46.198  29.649  33.344  1.00  0.00    -0.206 F 
ATOM     92  C   UNL A   1      47.321  26.954  35.477  1.00  0.00     0.022 A 
BRANCH  89  93
ATOM     93  S   UNL A   1      46.077  24.779  36.697  1.00  0.00     0.124 S 
ATOM     94  O   UNL A   1      47.122  23.914  36.160  1.00  0.00    -0.237 OA
ATOM     95  O   UNL A   1      46.357  25.390  37.992  1.00  0.00    -0.237 OA
ATOM     96  O   UNL A   1      44.713  24.279  36.532  1.00  0.00    -0.744 OA
ENDBRANCH  89  93
ENDBRANCH  63  86
ENDBRANCH  37  38
ENDBRANCH  29  32
ENDBRANCH  27  28
ENDBRANCH  26  27
ENDBRANCH   1  26
TORSDOF 17
ENDMDL
MODEL 3
REMARK VINA RESULT:     -12.3      2.320      8.052
REMARK SMILES NC(=O)c1ccc(C[N@H+]2CCC[C@@H](C(=O)NCCCCNC(=O)c3ccc(-c4c5nc(c(-c6cc(S(=O)(=O)[O-])ccc6F)c6ccc([nH]6)c(-c6cc(S(=O)(=O)[O-])ccc6F)c6nc(c(-c7cc(S(=O)(=O)[O-])ccc7F)c7ccc4[nH]7)C=C6)C=C5)cc3)C2)cc1
REMARK SMILES IDX 18 1 17 2 16 3 14 4 15 5 13 7 9 8 10 9 87 10 11 12 12 13
REMARK SMILES IDX 8 14 7 15 4 16 5 17 89 18 6 19 88 20 2 21 1 22 3 25 19 26
REMARK SMILES IDX 20 27 21 28 22 29 23 31 24 32 25 33 86 34 26 35 85 36 27 37
REMARK SMILES IDX 28 38 29 39 79 40 30 41 84 42 78 43 80 44 31 45 83 46 77 47
REMARK SMILES IDX 76 48 32 50 64 51 44 52 63 53 45 54 48 55 62 56 81 57 46 58
REMARK SMILES IDX 47 59 61 61 82 62 49 63 33 64 34 65 42 66 35 67 41 68 43 69
REMARK SMILES IDX 40 70 36 71 37 72 38 73 39 74 65 75 66 76 74 77 67 78 73 79
REMARK SMILES IDX 75 80 72 81 68 82 69 83 70 84 71 85 50 86 51 87 59 88 52 89
REMARK SMILES IDX 58 90 60 91 57 92 53 93 54 94 55 95 56 96
REMARK H PARENT 16 6 9 11 1 23 1 24 21 30 80 49 48 60
REMARK Flexibility Score: inf
ROOT
ATOM      1  C   UNL A   1      37.180  21.395  24.780  1.00  0.00     0.023 C 
ENDROOT
BRANCH   1   2
ATOM      2  C   UNL A   1      36.025  21.420  25.777  1.00  0.00     0.116 C 
BRANCH   2   3
ATOM      3  N   UNL A   1      34.931  20.587  25.327  1.00  0.00    -0.356 N 
ATOM      4  C   UNL A   1      33.621  20.907  25.152  1.00  0.00     0.228 C 
ATOM      5  O   UNL A   1      32.855  20.018  24.780  1.00  0.00    -0.275 OA
ATOM      6  H   UNL A   1      35.169  19.654  25.119  1.00  0.00     0.163 HD
BRANCH   4   7
ATOM      7  C   UNL A   1      33.164  22.337  25.403  1.00  0.00     0.133 C 
ATOM      8  N   UNL A   1      31.503  24.016  24.587  1.00  0.00    -0.331 N 
ATOM      9  C   UNL A   1      30.999  24.229  25.950  1.00  0.00     0.262 C 
ATOM     10  C   UNL A   1      32.036  22.656  24.420  1.00  0.00     0.276 C 
ATOM     11  H   UNL A   1      32.272  24.674  24.459  1.00  0.00     0.348 HD
ATOM     12  C   UNL A   1      32.079  23.935  26.997  1.00  0.00     0.062 C 
ATOM     13  C   UNL A   1      32.657  22.531  26.834  1.00  0.00     0.025 C 
BRANCH   8  14
ATOM     14  C   UNL A   1      30.511  24.347  23.542  1.00  0.00     0.299 C 
BRANCH  14  15
ATOM     15  C   UNL A   1      30.180  25.820  23.366  1.00  0.00     0.006 A 
ATOM     16  C   UNL A   1      29.479  28.479  22.812  1.00  0.00     0.039 A 
ATOM     17  C   UNL A   1      30.735  28.003  22.439  1.00  0.00     0.014 A 
ATOM     18  C   UNL A   1      28.581  27.648  23.490  1.00  0.00     0.014 A 
ATOM     19  C   UNL A   1      31.095  26.694  22.753  1.00  0.00     0.010 A 
ATOM     20  C   UNL A   1      28.927  26.320  23.753  1.00  0.00     0.010 A 
BRANCH  16  21
ATOM     21  C   UNL A   1      29.119  29.866  22.452  1.00  0.00     0.248 C 
ATOM     22  N   UNL A   1      29.985  30.516  21.623  1.00  0.00    -0.366 N 
ATOM     23  H   UNL A   1      29.801  31.442  21.347  1.00  0.00     0.159 HD
ATOM     24  H   UNL A   1      30.796  30.058  21.301  1.00  0.00     0.159 HD
ATOM     25  O   UNL A   1      28.083  30.389  22.841  1.00  0.00    -0.270 OA
ENDBRANCH  16  21
ENDBRANCH  14  15
ENDBRANCH   8  14
ENDBRANCH   4   7
ENDBRANCH   2   3
ENDBRANCH   1   2
BRANCH   1  26
ATOM     26  C   UNL A   1      38.147  20.223  24.967  1.00  0.00     0.023 C 
BRANCH  26  27
ATOM     27  C   UNL A   1      39.373  20.535  25.813  1.00  0.00     0.116 C 
BRANCH  27  28
ATOM     28  N   UNL A   1      40.278  19.401  25.925  1.00  0.00    -0.352 N 
ATOM     29  C   UNL A   1      41.641  19.406  26.102  1.00  0.00     0.251 C 
ATOM     30  H   UNL A   1      39.859  18.512  25.865  1.00  0.00     0.163 HD
ATOM     31  O   UNL A   1      42.279  18.363  26.006  1.00  0.00    -0.269 OA
BRANCH  29  32
ATOM     32  C   UNL A   1      42.322  20.689  26.375  1.00  0.00     0.039 A 
ATOM     33  C   UNL A   1      42.607  21.550  25.313  1.00  0.00     0.014 A 
ATOM     34  C   UNL A   1      42.634  21.057  27.687  1.00  0.00     0.014 A 
ATOM     35  C   UNL A   1      43.144  22.812  25.574  1.00  0.00     0.010 A 
ATOM     36  C   UNL A   1      43.088  22.344  27.950  1.00  0.00     0.010 A 
ATOM     37  C   UNL A   1      43.354  23.235  26.897  1.00  0.00    -0.014 A 
BRANCH  37  38
ATOM     38  C   UNL A   1      43.875  24.591  27.211  1.00  0.00     0.031 A 
ATOM     39  C   UNL A   1      42.938  25.639  27.749  1.00  0.00     0.074 A 
ATOM     40  C   UNL A   1      45.159  24.902  26.945  1.00  0.00     0.049 A 
ATOM     41  N   UNL A   1      43.153  26.910  27.968  1.00  0.00    -0.248 NA
ATOM     42  C   UNL A   1      41.566  25.200  28.046  1.00  0.00     0.031 C 
ATOM     43  C   UNL A   1      46.158  23.980  26.400  1.00  0.00     0.029 A 
ATOM     44  N   UNL A   1      45.842  26.085  27.085  1.00  0.00    -0.354 N 
ATOM     45  C   UNL A   1      41.939  27.427  28.410  1.00  0.00     0.074 A 
ATOM     46  C   UNL A   1      40.980  26.345  28.360  1.00  0.00     0.031 C 
ATOM     47  C   UNL A   1      47.329  24.626  26.275  1.00  0.00     0.029 A 
ATOM     48  C   UNL A   1      47.154  26.019  26.674  1.00  0.00     0.049 A 
ATOM     49  H   UNL A   1      45.433  26.904  27.446  1.00  0.00     0.167 HD
ATOM     50  C   UNL A   1      41.658  28.682  28.842  1.00  0.00     0.034 A 
ATOM     51  C   UNL A   1      48.101  26.977  26.605  1.00  0.00     0.034 A 
ATOM     52  C   UNL A   1      42.630  29.745  28.893  1.00  0.00     0.049 A 
ATOM     53  C   UNL A   1      47.753  28.379  27.043  1.00  0.00     0.074 A 
ATOM     54  C   UNL A   1      42.466  31.041  29.351  1.00  0.00     0.029 A 
ATOM     55  N   UNL A   1      43.947  29.642  28.462  1.00  0.00    -0.354 N 
ATOM     56  N   UNL A   1      46.611  28.845  27.492  1.00  0.00    -0.248 NA
ATOM     57  C   UNL A   1      48.825  29.380  26.974  1.00  0.00     0.031 C 
ATOM     58  C   UNL A   1      43.656  31.740  29.125  1.00  0.00     0.029 A 
ATOM     59  C   UNL A   1      44.595  30.859  28.615  1.00  0.00     0.049 A 
ATOM     60  H   UNL A   1      44.361  28.825  28.102  1.00  0.00     0.167 HD
ATOM     61  C   UNL A   1      46.841  30.185  27.799  1.00  0.00     0.074 A 
ATOM     62  C   UNL A   1      48.231  30.447  27.489  1.00  0.00     0.031 C 
ATOM     63  C   UNL A   1      45.984  31.110  28.300  1.00  0.00     0.034 A 
BRANCH  50  64
ATOM     64  C   UNL A   1      40.234  28.969  29.260  1.00  0.00     0.023 A 
ATOM     65  C   UNL A   1      39.844  28.966  30.611  1.00  0.00     0.031 A 
ATOM     66  C   UNL A   1      39.242  29.212  28.293  1.00  0.00     0.131 A 
ATOM     67  C   UNL A   1      38.492  29.111  30.951  1.00  0.00     0.055 A 
ATOM     68  C   UNL A   1      37.912  29.451  28.645  1.00  0.00     0.041 A 
ATOM     69  F   UNL A   1      39.545  29.205  26.986  1.00  0.00    -0.206 F 
ATOM     70  C   UNL A   1      37.527  29.384  29.980  1.00  0.00     0.022 A 
BRANCH  67  71
ATOM     71  S   UNL A   1      37.991  28.771  32.662  1.00  0.00     0.124 S 
ATOM     72  O   UNL A   1      38.079  27.313  32.710  1.00  0.00    -0.237 OA
ATOM     73  O   UNL A   1      38.991  29.497  33.435  1.00  0.00    -0.237 OA
ATOM     74  O   UNL A   1      36.634  29.308  32.735  1.00  0.00    -0.744 OA
ENDBRANCH  67  71
ENDBRANCH  50  64
BRANCH  51  75
ATOM     75  C   UNL A   1      49.465  26.657  26.089  1.00  0.00     0.023 A 
ATOM     76  C   UNL A   1      49.888  27.116  24.831  1.00  0.00     0.031 A 
ATOM     77  C   UNL A   1      50.350  25.850  26.826  1.00  0.00     0.131 A 
ATOM     78  C   UNL A   1      51.136  26.723  24.326  1.00  0.00     0.055 A 
ATOM     79  C   UNL A   1      51.616  25.512  26.344  1.00  0.00     0.041 A 
ATOM     80  F   UNL A   1      49.998  25.385  28.035  1.00  0.00    -0.206 F 
ATOM     81  C   UNL A   1      52.010  25.937  25.080  1.00  0.00     0.022 A 
BRANCH  78  82
ATOM     82  S   UNL A   1      51.565  27.177  22.622  1.00  0.00     0.124 S 
ATOM     83  O   UNL A   1      52.750  26.360  22.388  1.00  0.00    -0.237 OA
ATOM     84  O   UNL A   1      50.362  26.790  21.893  1.00  0.00    -0.237 OA
ATOM     85  O   UNL A   1      51.805  28.617  22.704  1.00  0.00    -0.744 OA
ENDBRANCH  78  82
ENDBRANCH  51  75
BRANCH  63  86
ATOM     86  C   UNL A   1      46.543  32.477  28.613  1.00  0.00     0.023 A 
ATOM     87  C   UNL A   1      46.550  33.517  27.668  1.00  0.00     0.031 A 
ATOM     88  C   UNL A   1      47.073  32.743  29.889  1.00  0.00     0.131 A 
ATOM     89  C   UNL A   1      47.122  34.757  27.997  1.00  0.00     0.055 A 
ATOM     90  C   UNL A   1      47.580  33.996  30.231  1.00  0.00     0.041 A 
ATOM     91  F   UNL A   1      47.097  31.786  30.831  1.00  0.00    -0.206 F 
ATOM     92  C   UNL A   1      47.617  35.009  29.278  1.00  0.00     0.022 A 
BRANCH  89  93
ATOM     93  S   UNL A   1      47.294  36.011  26.698  1.00  0.00     0.124 S 
ATOM     94  O   UNL A   1      47.333  35.193  25.489  1.00  0.00    -0.237 OA
ATOM     95  O   UNL A   1      46.094  36.819  26.883  1.00  0.00    -0.237 OA
ATOM     96  O   UNL A   1      48.550  36.682  27.033  1.00  0.00    -0.744 OA
ENDBRANCH  89  93
ENDBRANCH  63  86
ENDBRANCH  37  38
ENDBRANCH  29  32
ENDBRANCH  27  28
ENDBRANCH  26  27
ENDBRANCH   1  26
TORSDOF 17
ENDMDL
