MODEL 1
REMARK VINA RESULT:     -11.7      0.000      0.000
REMARK SMILES COCCN1C(=O)C[C@H](C(=O)NCCCCNC(=O)c2ccc(-c3c4nc(c(-c5cc(S(=O)(=O)[O-])ccc5F)c5ccc([nH]5)c(-c5cc(S(=O)(=O)[O-])ccc5F)c5nc(c(-c6cc(S(=O)(=O)[O-])ccc6F)c6ccc3[nH]6)C=C5)C=C4)cc2)[C@@H]1c1ccccc1N1CCOCC1
REMARK SMILES IDX 14 1 13 2 12 3 10 4 11 5 9 7 5 8 6 9 83 10 7 11 8 12 4 13
REMARK SMILES IDX 3 14 2 15 1 16 84 17 85 18 89 19 86 20 88 21 87 22 90 23
REMARK SMILES IDX 91 24 95 25 92 26 94 27 93 28 15 29 16 30 17 31 18 32 19 34
REMARK SMILES IDX 20 35 21 36 82 37 22 38 81 39 23 40 24 41 25 42 75 43 26 44
REMARK SMILES IDX 80 45 74 46 76 47 27 48 79 49 73 50 72 51 28 53 60 54 40 55
REMARK SMILES IDX 59 56 41 57 44 58 58 59 77 60 42 61 43 62 57 64 78 65 45 66
REMARK SMILES IDX 29 67 30 68 38 69 31 70 37 71 39 72 36 73 32 74 33 75 34 76
REMARK SMILES IDX 35 77 61 78 62 79 70 80 63 81 69 82 71 83 68 84 64 85 65 86
REMARK SMILES IDX 66 87 67 88 46 89 47 90 55 91 48 92 54 93 56 94 53 95 49 96
REMARK SMILES IDX 50 97 51 98 52 99
REMARK H PARENT 12 6 17 33 76 52 44 63
REMARK Flexibility Score: inf
ROOT
ATOM      1  C   UNL A   1      37.352  20.571  25.059  1.00  0.00     0.023 C 
ENDROOT
BRANCH   1   2
ATOM      2  C   UNL A   1      37.827  22.009  24.927  1.00  0.00     0.116 C 
BRANCH   2   3
ATOM      3  N   UNL A   1      37.126  22.720  23.885  1.00  0.00    -0.356 N 
ATOM      4  C   UNL A   1      36.017  23.492  23.951  1.00  0.00     0.226 C 
ATOM      5  O   UNL A   1      35.564  23.895  22.872  1.00  0.00    -0.275 OA
ATOM      6  H   UNL A   1      37.515  22.629  22.986  1.00  0.00     0.163 HD
BRANCH   4   7
ATOM      7  C   UNL A   1      35.198  23.716  25.203  1.00  0.00     0.115 C 
ATOM      8  N   UNL A   1      33.006  23.942  26.073  1.00  0.00    -0.332 N 
ATOM      9  C   UNL A   1      33.559  25.214  26.030  1.00  0.00     0.224 C 
ATOM     10  C   UNL A   1      33.966  22.891  25.652  1.00  0.00     0.130 C 
ATOM     11  O   UNL A   1      33.108  26.226  26.549  1.00  0.00    -0.275 OA
ATOM     12  C   UNL A   1      34.783  25.184  25.193  1.00  0.00     0.116 C 
BRANCH   8  13
ATOM     13  C   UNL A   1      31.824  23.716  26.907  1.00  0.00     0.148 C 
BRANCH  13  14
ATOM     14  C   UNL A   1      30.580  24.534  26.474  1.00  0.00     0.181 C 
BRANCH  14  15
ATOM     15  O   UNL A   1      29.361  24.134  27.109  1.00  0.00    -0.383 OA
ATOM     16  C   UNL A   1      29.290  22.739  27.387  1.00  0.00     0.194 C 
ENDBRANCH  14  15
ENDBRANCH  13  14
ENDBRANCH   8  13
BRANCH  10  17
ATOM     17  C   UNL A   1      33.451  21.711  24.817  1.00  0.00    -0.001 A 
ATOM     18  C   UNL A   1      33.736  20.382  25.210  1.00  0.00     0.008 A 
ATOM     19  C   UNL A   1      32.666  21.884  23.641  1.00  0.00     0.042 A 
ATOM     20  C   UNL A   1      33.265  19.263  24.525  1.00  0.00     0.001 A 
ATOM     21  C   UNL A   1      32.205  20.728  22.963  1.00  0.00     0.026 A 
ATOM     22  C   UNL A   1      32.488  19.435  23.400  1.00  0.00     0.002 A 
BRANCH  19  23
ATOM     23  N   UNL A   1      32.280  23.146  23.181  1.00  0.00    -0.367 N 
ATOM     24  C   UNL A   1      32.892  23.648  21.940  1.00  0.00     0.145 C 
ATOM     25  C   UNL A   1      30.847  23.532  23.287  1.00  0.00     0.145 C 
ATOM     26  C   UNL A   1      32.688  25.171  21.873  1.00  0.00     0.181 C 
ATOM     27  C   UNL A   1      30.661  25.043  23.074  1.00  0.00     0.181 C 
ATOM     28  O   UNL A   1      31.289  25.500  21.864  1.00  0.00    -0.378 OA
ENDBRANCH  19  23
ENDBRANCH  10  17
ENDBRANCH   4   7
ENDBRANCH   2   3
ENDBRANCH   1   2
BRANCH   1  29
ATOM     29  C   UNL A   1      38.492  19.551  25.133  1.00  0.00     0.023 C 
BRANCH  29  30
ATOM     30  C   UNL A   1      39.740  20.018  25.884  1.00  0.00     0.116 C 
BRANCH  30  31
ATOM     31  N   UNL A   1      40.774  18.996  25.946  1.00  0.00    -0.352 N 
ATOM     32  C   UNL A   1      42.133  19.132  26.099  1.00  0.00     0.251 C 
ATOM     33  H   UNL A   1      40.453  18.069  25.866  1.00  0.00     0.163 HD
ATOM     34  O   UNL A   1      42.866  18.162  25.925  1.00  0.00    -0.269 OA
BRANCH  32  35
ATOM     35  C   UNL A   1      42.706  20.450  26.451  1.00  0.00     0.039 A 
ATOM     36  C   UNL A   1      43.330  21.204  25.456  1.00  0.00     0.014 A 
ATOM     37  C   UNL A   1      42.619  20.942  27.756  1.00  0.00     0.014 A 
ATOM     38  C   UNL A   1      43.796  22.487  25.755  1.00  0.00     0.010 A 
ATOM     39  C   UNL A   1      43.011  22.250  28.031  1.00  0.00     0.010 A 
ATOM     40  C   UNL A   1      43.598  23.040  27.032  1.00  0.00    -0.014 A 
BRANCH  40  41
ATOM     41  C   UNL A   1      43.972  24.452  27.312  1.00  0.00     0.031 A 
ATOM     42  C   UNL A   1      45.398  24.913  27.179  1.00  0.00     0.074 A 
ATOM     43  C   UNL A   1      43.020  25.314  27.727  1.00  0.00     0.049 A 
ATOM     44  N   UNL A   1      45.905  26.102  27.381  1.00  0.00    -0.248 NA
ATOM     45  C   UNL A   1      46.389  23.897  26.793  1.00  0.00     0.031 C 
ATOM     46  C   UNL A   1      41.614  24.972  27.949  1.00  0.00     0.029 A 
ATOM     47  N   UNL A   1      43.086  26.650  28.032  1.00  0.00    -0.354 N 
ATOM     48  C   UNL A   1      47.272  25.980  27.149  1.00  0.00     0.074 A 
ATOM     49  C   UNL A   1      47.520  24.583  26.859  1.00  0.00     0.031 C 
ATOM     50  C   UNL A   1      40.943  26.076  28.311  1.00  0.00     0.029 A 
ATOM     51  C   UNL A   1      41.875  27.195  28.397  1.00  0.00     0.049 A 
ATOM     52  H   UNL A   1      43.921  27.171  27.994  1.00  0.00     0.167 HD
ATOM     53  C   UNL A   1      48.223  26.946  27.152  1.00  0.00     0.034 A 
ATOM     54  C   UNL A   1      41.552  28.450  28.764  1.00  0.00     0.034 A 
ATOM     55  C   UNL A   1      47.958  28.335  27.447  1.00  0.00     0.049 A 
ATOM     56  C   UNL A   1      42.633  29.501  28.782  1.00  0.00     0.074 A 
ATOM     57  C   UNL A   1      48.836  29.405  27.427  1.00  0.00     0.029 A 
ATOM     58  N   UNL A   1      46.722  28.849  27.827  1.00  0.00    -0.354 N 
ATOM     59  N   UNL A   1      43.909  29.381  28.493  1.00  0.00    -0.248 NA
ATOM     60  C   UNL A   1      42.225  30.858  29.160  1.00  0.00     0.031 C 
ATOM     61  C   UNL A   1      48.156  30.544  27.872  1.00  0.00     0.029 A 
ATOM     62  C   UNL A   1      46.827  30.209  28.082  1.00  0.00     0.049 A 
ATOM     63  H   UNL A   1      45.893  28.324  27.905  1.00  0.00     0.167 HD
ATOM     64  C   UNL A   1      44.449  30.657  28.630  1.00  0.00     0.074 A 
ATOM     65  C   UNL A   1      43.352  31.531  28.994  1.00  0.00     0.031 C 
ATOM     66  C   UNL A   1      45.733  31.069  28.472  1.00  0.00     0.034 A 
BRANCH  53  67
ATOM     67  C   UNL A   1      49.645  26.525  26.855  1.00  0.00     0.023 A 
ATOM     68  C   UNL A   1      50.639  26.514  27.851  1.00  0.00     0.031 A 
ATOM     69  C   UNL A   1      50.019  26.144  25.554  1.00  0.00     0.131 A 
ATOM     70  C   UNL A   1      51.965  26.204  27.517  1.00  0.00     0.055 A 
ATOM     71  C   UNL A   1      51.324  25.753  25.246  1.00  0.00     0.041 A 
ATOM     72  F   UNL A   1      49.124  26.156  24.553  1.00  0.00    -0.206 F 
ATOM     73  C   UNL A   1      52.310  25.796  26.227  1.00  0.00     0.022 A 
BRANCH  70  74
ATOM     74  S   UNL A   1      53.260  26.487  28.756  1.00  0.00     0.124 S 
ATOM     75  O   UNL A   1      54.297  25.556  28.315  1.00  0.00    -0.237 OA
ATOM     76  O   UNL A   1      53.558  27.903  28.584  1.00  0.00    -0.237 OA
ATOM     77  O   UNL A   1      52.611  26.132  30.017  1.00  0.00    -0.744 OA
ENDBRANCH  70  74
ENDBRANCH  53  67
BRANCH  54  78
ATOM     78  C   UNL A   1      40.151  28.791  29.151  1.00  0.00     0.023 A 
ATOM     79  C   UNL A   1      39.761  28.837  30.499  1.00  0.00     0.031 A 
ATOM     80  C   UNL A   1      39.168  29.026  28.173  1.00  0.00     0.131 A 
ATOM     81  C   UNL A   1      38.415  29.060  30.831  1.00  0.00     0.055 A 
ATOM     82  C   UNL A   1      37.843  29.308  28.510  1.00  0.00     0.041 A 
ATOM     83  F   UNL A   1      39.486  28.996  26.869  1.00  0.00    -0.206 F 
ATOM     84  C   UNL A   1      37.457  29.311  29.847  1.00  0.00     0.022 A 
BRANCH  81  85
ATOM     85  S   UNL A   1      37.914  28.918  32.569  1.00  0.00     0.124 S 
ATOM     86  O   UNL A   1      36.570  29.481  32.538  1.00  0.00    -0.237 OA
ATOM     87  O   UNL A   1      38.004  27.478  32.792  1.00  0.00    -0.237 OA
ATOM     88  O   UNL A   1      38.911  29.718  33.276  1.00  0.00    -0.744 OA
ENDBRANCH  81  85
ENDBRANCH  54  78
BRANCH  66  89
ATOM     89  C   UNL A   1      46.003  32.544  28.666  1.00  0.00     0.023 A 
ATOM     90  C   UNL A   1      46.000  33.443  27.584  1.00  0.00     0.031 A 
ATOM     91  C   UNL A   1      46.316  33.050  29.940  1.00  0.00     0.131 A 
ATOM     92  C   UNL A   1      46.392  34.776  27.780  1.00  0.00     0.055 A 
ATOM     93  C   UNL A   1      46.626  34.397  30.143  1.00  0.00     0.041 A 
ATOM     94  F   UNL A   1      46.338  32.242  31.012  1.00  0.00    -0.206 F 
ATOM     95  C   UNL A   1      46.686  35.264  29.056  1.00  0.00     0.022 A 
BRANCH  92  96
ATOM     96  S   UNL A   1      46.652  35.827  26.324  1.00  0.00     0.124 S 
ATOM     97  O   UNL A   1      45.493  36.712  26.379  1.00  0.00    -0.237 OA
ATOM     98  O   UNL A   1      47.941  36.446  26.614  1.00  0.00    -0.237 OA
ATOM     99  O   UNL A   1      46.657  34.878  25.212  1.00  0.00    -0.744 OA
ENDBRANCH  92  96
ENDBRANCH  66  89
ENDBRANCH  40  41
ENDBRANCH  32  35
ENDBRANCH  30  31
ENDBRANCH  29  30
ENDBRANCH   1  29
TORSDOF 19
ENDMDL
MODEL 2
REMARK VINA RESULT:     -11.6      2.210      3.213
REMARK SMILES COCCN1C(=O)C[C@H](C(=O)NCCCCNC(=O)c2ccc(-c3c4nc(c(-c5cc(S(=O)(=O)[O-])ccc5F)c5ccc([nH]5)c(-c5cc(S(=O)(=O)[O-])ccc5F)c5nc(c(-c6cc(S(=O)(=O)[O-])ccc6F)c6ccc3[nH]6)C=C5)C=C4)cc2)[C@@H]1c1ccccc1N1CCOCC1
REMARK SMILES IDX 14 1 13 2 12 3 10 4 11 5 9 7 5 8 6 9 83 10 7 11 8 12 4 13
REMARK SMILES IDX 3 14 2 15 1 16 84 17 85 18 89 19 86 20 88 21 87 22 90 23
REMARK SMILES IDX 91 24 95 25 92 26 94 27 93 28 15 29 16 30 17 31 18 32 19 34
REMARK SMILES IDX 20 35 21 36 82 37 22 38 81 39 23 40 24 41 25 42 75 43 26 44
REMARK SMILES IDX 80 45 74 46 76 47 27 48 79 49 73 50 72 51 28 53 60 54 40 55
REMARK SMILES IDX 59 56 41 57 44 58 58 59 77 60 42 61 43 62 57 64 78 65 45 66
REMARK SMILES IDX 29 67 30 68 38 69 31 70 37 71 39 72 36 73 32 74 33 75 34 76
REMARK SMILES IDX 35 77 61 78 62 79 70 80 63 81 69 82 71 83 68 84 64 85 65 86
REMARK SMILES IDX 66 87 67 88 46 89 47 90 55 91 48 92 54 93 56 94 53 95 49 96
REMARK SMILES IDX 50 97 51 98 52 99
REMARK H PARENT 12 6 17 33 76 52 44 63
REMARK Flexibility Score: inf
ROOT
ATOM      1  C   UNL A   1      35.155  21.228  24.745  1.00  0.00     0.023 C 
ENDROOT
BRANCH   1   2
ATOM      2  C   UNL A   1      35.583  22.517  24.060  1.00  0.00     0.116 C 
BRANCH   2   3
ATOM      3  N   UNL A   1      34.634  22.943  23.060  1.00  0.00    -0.356 N 
ATOM      4  C   UNL A   1      34.107  24.167  22.826  1.00  0.00     0.226 C 
ATOM      5  O   UNL A   1      33.221  24.227  21.963  1.00  0.00    -0.275 OA
ATOM      6  H   UNL A   1      34.321  22.233  22.455  1.00  0.00     0.163 HD
BRANCH   4   7
ATOM      7  C   UNL A   1      34.373  25.394  23.669  1.00  0.00     0.115 C 
ATOM      8  N   UNL A   1      33.468  26.869  25.288  1.00  0.00    -0.332 N 
ATOM      9  C   UNL A   1      33.436  27.533  24.069  1.00  0.00     0.224 C 
ATOM     10  C   UNL A   1      34.111  25.534  25.190  1.00  0.00     0.130 C 
ATOM     11  O   UNL A   1      33.208  28.721  23.889  1.00  0.00    -0.275 OA
ATOM     12  C   UNL A   1      33.669  26.557  22.978  1.00  0.00     0.116 C 
BRANCH   8  13
ATOM     13  C   UNL A   1      33.335  27.651  26.518  1.00  0.00     0.148 C 
BRANCH  13  14
ATOM     14  C   UNL A   1      34.562  28.542  26.836  1.00  0.00     0.181 C 
BRANCH  14  15
ATOM     15  O   UNL A   1      34.291  29.948  26.818  1.00  0.00    -0.383 OA
ATOM     16  C   UNL A   1      32.928  30.272  27.068  1.00  0.00     0.194 C 
ENDBRANCH  14  15
ENDBRANCH  13  14
ENDBRANCH   8  13
BRANCH  10  17
ATOM     17  C   UNL A   1      33.532  24.374  26.009  1.00  0.00    -0.001 A 
ATOM     18  C   UNL A   1      34.363  23.637  26.886  1.00  0.00     0.008 A 
ATOM     19  C   UNL A   1      32.161  23.994  25.944  1.00  0.00     0.042 A 
ATOM     20  C   UNL A   1      33.896  22.599  27.692  1.00  0.00     0.001 A 
ATOM     21  C   UNL A   1      31.715  22.933  26.772  1.00  0.00     0.026 A 
ATOM     22  C   UNL A   1      32.564  22.250  27.642  1.00  0.00     0.002 A 
BRANCH  19  23
ATOM     23  N   UNL A   1      31.234  24.677  25.152  1.00  0.00    -0.367 N 
ATOM     24  C   UNL A   1      30.665  23.975  23.990  1.00  0.00     0.145 C 
ATOM     25  C   UNL A   1      30.227  25.542  25.824  1.00  0.00     0.145 C 
ATOM     26  C   UNL A   1      30.057  25.016  23.036  1.00  0.00     0.181 C 
ATOM     27  C   UNL A   1      29.534  26.475  24.816  1.00  0.00     0.181 C 
ATOM     28  O   UNL A   1      29.010  25.756  23.685  1.00  0.00    -0.378 OA
ENDBRANCH  19  23
ENDBRANCH  10  17
ENDBRANCH   4   7
ENDBRANCH   2   3
ENDBRANCH   1   2
BRANCH   1  29
ATOM     29  C   UNL A   1      36.301  20.236  24.962  1.00  0.00     0.023 C 
BRANCH  29  30
ATOM     30  C   UNL A   1      37.692  20.860  25.086  1.00  0.00     0.116 C 
BRANCH  30  31
ATOM     31  N   UNL A   1      38.703  19.901  25.506  1.00  0.00    -0.352 N 
ATOM     32  C   UNL A   1      39.935  20.119  26.073  1.00  0.00     0.251 C 
ATOM     33  H   UNL A   1      38.470  18.955  25.362  1.00  0.00     0.163 HD
ATOM     34  O   UNL A   1      40.733  19.190  26.172  1.00  0.00    -0.269 OA
BRANCH  32  35
ATOM     35  C   UNL A   1      40.302  21.473  26.541  1.00  0.00     0.039 A 
ATOM     36  C   UNL A   1      41.231  21.604  27.574  1.00  0.00     0.014 A 
ATOM     37  C   UNL A   1      39.736  22.609  25.956  1.00  0.00     0.014 A 
ATOM     38  C   UNL A   1      41.652  22.877  27.965  1.00  0.00     0.010 A 
ATOM     39  C   UNL A   1      40.216  23.873  26.291  1.00  0.00     0.010 A 
ATOM     40  C   UNL A   1      41.184  24.022  27.295  1.00  0.00    -0.014 A 
BRANCH  40  41
ATOM     41  C   UNL A   1      41.732  25.366  27.619  1.00  0.00     0.031 A 
ATOM     42  C   UNL A   1      43.115  25.761  27.179  1.00  0.00     0.074 A 
ATOM     43  C   UNL A   1      40.987  26.220  28.351  1.00  0.00     0.049 A 
ATOM     44  N   UNL A   1      43.754  26.887  27.371  1.00  0.00    -0.248 NA
ATOM     45  C   UNL A   1      43.893  24.749  26.449  1.00  0.00     0.031 C 
ATOM     46  C   UNL A   1      39.654  25.930  28.884  1.00  0.00     0.029 A 
ATOM     47  N   UNL A   1      41.237  27.502  28.770  1.00  0.00    -0.354 N 
ATOM     48  C   UNL A   1      45.007  26.720  26.789  1.00  0.00     0.074 A 
ATOM     49  C   UNL A   1      45.058  25.359  26.298  1.00  0.00     0.031 C 
ATOM     50  C   UNL A   1      39.187  27.016  29.520  1.00  0.00     0.029 A 
ATOM     51  C   UNL A   1      40.203  28.063  29.485  1.00  0.00     0.049 A 
ATOM     52  H   UNL A   1      42.077  27.978  28.576  1.00  0.00     0.167 HD
ATOM     53  C   UNL A   1      46.008  27.626  26.653  1.00  0.00     0.034 A 
ATOM     54  C   UNL A   1      40.085  29.279  30.053  1.00  0.00     0.034 A 
ATOM     55  C   UNL A   1      45.939  28.980  27.151  1.00  0.00     0.049 A 
ATOM     56  C   UNL A   1      41.222  30.259  29.908  1.00  0.00     0.074 A 
ATOM     57  C   UNL A   1      46.873  29.994  27.023  1.00  0.00     0.029 A 
ATOM     58  N   UNL A   1      44.882  29.509  27.884  1.00  0.00    -0.354 N 
ATOM     59  N   UNL A   1      42.373  30.107  29.294  1.00  0.00    -0.248 NA
ATOM     60  C   UNL A   1      41.034  31.580  30.519  1.00  0.00     0.031 C 
ATOM     61  C   UNL A   1      46.420  31.105  27.744  1.00  0.00     0.029 A 
ATOM     62  C   UNL A   1      45.160  30.819  28.247  1.00  0.00     0.049 A 
ATOM     63  H   UNL A   1      44.057  29.024  28.113  1.00  0.00     0.167 HD
ATOM     64  C   UNL A   1      43.035  31.324  29.425  1.00  0.00     0.074 A 
ATOM     65  C   UNL A   1      42.138  32.206  30.145  1.00  0.00     0.031 C 
ATOM     66  C   UNL A   1      44.271  31.683  28.990  1.00  0.00     0.034 A 
BRANCH  53  67
ATOM     67  C   UNL A   1      47.272  27.168  25.962  1.00  0.00     0.023 A 
ATOM     68  C   UNL A   1      48.270  26.446  26.643  1.00  0.00     0.031 A 
ATOM     69  C   UNL A   1      47.494  27.469  24.606  1.00  0.00     0.131 A 
ATOM     70  C   UNL A   1      49.468  26.118  25.993  1.00  0.00     0.055 A 
ATOM     71  C   UNL A   1      48.653  27.063  23.940  1.00  0.00     0.041 A 
ATOM     72  F   UNL A   1      46.593  28.175  23.906  1.00  0.00    -0.206 F 
ATOM     73  C   UNL A   1      49.655  26.397  24.637  1.00  0.00     0.022 A 
BRANCH  70  74
ATOM     74  S   UNL A   1      50.837  25.455  26.980  1.00  0.00     0.124 S 
ATOM     75  O   UNL A   1      51.792  25.075  25.942  1.00  0.00    -0.237 OA
ATOM     76  O   UNL A   1      51.212  26.596  27.806  1.00  0.00    -0.237 OA
ATOM     77  O   UNL A   1      50.232  24.335  27.698  1.00  0.00    -0.744 OA
ENDBRANCH  70  74
ENDBRANCH  53  67
BRANCH  54  78
ATOM     78  C   UNL A   1      38.856  29.645  30.816  1.00  0.00     0.023 A 
ATOM     79  C   UNL A   1      37.950  30.598  30.321  1.00  0.00     0.031 A 
ATOM     80  C   UNL A   1      38.594  29.082  32.079  1.00  0.00     0.131 A 
ATOM     81  C   UNL A   1      36.856  30.997  31.105  1.00  0.00     0.055 A 
ATOM     82  C   UNL A   1      37.471  29.437  32.827  1.00  0.00     0.041 A 
ATOM     83  F   UNL A   1      39.425  28.165  32.598  1.00  0.00    -0.206 F 
ATOM     84  C   UNL A   1      36.602  30.412  32.348  1.00  0.00     0.022 A 
BRANCH  81  85
ATOM     85  S   UNL A   1      35.822  32.367  30.519  1.00  0.00     0.124 S 
ATOM     86  O   UNL A   1      35.168  32.794  31.751  1.00  0.00    -0.237 OA
ATOM     87  O   UNL A   1      36.817  33.282  29.969  1.00  0.00    -0.237 OA
ATOM     88  O   UNL A   1      34.948  31.736  29.533  1.00  0.00    -0.744 OA
ENDBRANCH  81  85
ENDBRANCH  54  78
BRANCH  66  89
ATOM     89  C   UNL A   1      44.703  33.106  29.265  1.00  0.00     0.023 A 
ATOM     90  C   UNL A   1      44.445  34.144  28.352  1.00  0.00     0.031 A 
ATOM     91  C   UNL A   1      45.424  33.420  30.431  1.00  0.00     0.131 A 
ATOM     92  C   UNL A   1      44.982  35.421  28.574  1.00  0.00     0.055 A 
ATOM     93  C   UNL A   1      45.886  34.712  30.686  1.00  0.00     0.041 A 
ATOM     94  F   UNL A   1      45.704  32.471  31.339  1.00  0.00    -0.206 F 
ATOM     95  C   UNL A   1      45.684  35.717  29.745  1.00  0.00     0.022 A 
BRANCH  92  96
ATOM     96  S   UNL A   1      44.874  36.651  27.244  1.00  0.00     0.124 S 
ATOM     97  O   UNL A   1      45.930  36.210  26.339  1.00  0.00    -0.237 OA
ATOM     98  O   UNL A   1      43.508  36.472  26.765  1.00  0.00    -0.237 OA
ATOM     99  O   UNL A   1      45.131  37.918  27.927  1.00  0.00    -0.744 OA
ENDBRANCH  92  96
ENDBRANCH  66  89
ENDBRANCH  40  41
ENDBRANCH  32  35
ENDBRANCH  30  31
ENDBRANCH  29  30
ENDBRANCH   1  29
TORSDOF 19
ENDMDL
MODEL 3
REMARK VINA RESULT:     -11.4      5.801     10.067
REMARK SMILES COCCN1C(=O)C[C@H](C(=O)NCCCCNC(=O)c2ccc(-c3c4nc(c(-c5cc(S(=O)(=O)[O-])ccc5F)c5ccc([nH]5)c(-c5cc(S(=O)(=O)[O-])ccc5F)c5nc(c(-c6cc(S(=O)(=O)[O-])ccc6F)c6ccc3[nH]6)C=C5)C=C4)cc2)[C@@H]1c1ccccc1N1CCOCC1
REMARK SMILES IDX 14 1 13 2 12 3 10 4 11 5 9 7 5 8 6 9 83 10 7 11 8 12 4 13
REMARK SMILES IDX 3 14 2 15 1 16 84 17 85 18 89 19 86 20 88 21 87 22 90 23
REMARK SMILES IDX 91 24 95 25 92 26 94 27 93 28 15 29 16 30 17 31 18 32 19 34
REMARK SMILES IDX 20 35 21 36 82 37 22 38 81 39 23 40 24 41 25 42 75 43 26 44
REMARK SMILES IDX 80 45 74 46 76 47 27 48 79 49 73 50 72 51 28 53 60 54 40 55
REMARK SMILES IDX 59 56 41 57 44 58 58 59 77 60 42 61 43 62 57 64 78 65 45 66
REMARK SMILES IDX 29 67 30 68 38 69 31 70 37 71 39 72 36 73 32 74 33 75 34 76
REMARK SMILES IDX 35 77 61 78 62 79 70 80 63 81 69 82 71 83 68 84 64 85 65 86
REMARK SMILES IDX 66 87 67 88 46 89 47 90 55 91 48 92 54 93 56 94 53 95 49 96
REMARK SMILES IDX 50 97 51 98 52 99
REMARK H PARENT 12 6 17 33 76 52 44 63
REMARK Flexibility Score: inf
ROOT
ATOM      1  C   UNL A   1      31.831  30.488  26.111  1.00  0.00     0.023 C 
ENDROOT
BRANCH   1   2
ATOM      2  C   UNL A   1      31.860  29.238  26.977  1.00  0.00     0.116 C 
BRANCH   2   3
ATOM      3  N   UNL A   1      33.182  28.663  27.058  1.00  0.00    -0.356 N 
ATOM      4  C   UNL A   1      33.843  27.873  26.182  1.00  0.00     0.226 C 
ATOM      5  O   UNL A   1      34.936  27.429  26.559  1.00  0.00    -0.275 OA
ATOM      6  H   UNL A   1      33.678  28.879  27.880  1.00  0.00     0.163 HD
BRANCH   4   7
ATOM      7  C   UNL A   1      33.260  27.344  24.890  1.00  0.00     0.115 C 
ATOM      8  N   UNL A   1      33.691  26.047  22.955  1.00  0.00    -0.332 N 
ATOM      9  C   UNL A   1      33.721  27.379  22.566  1.00  0.00     0.224 C 
ATOM     10  C   UNL A   1      33.330  25.881  24.386  1.00  0.00     0.130 C 
ATOM     11  O   UNL A   1      33.733  27.807  21.421  1.00  0.00    -0.275 OA
ATOM     12  C   UNL A   1      33.795  28.236  23.774  1.00  0.00     0.116 C 
BRANCH   8  13
ATOM     13  C   UNL A   1      33.543  25.017  21.925  1.00  0.00     0.148 C 
BRANCH  13  14
ATOM     14  C   UNL A   1      32.537  23.896  22.293  1.00  0.00     0.181 C 
BRANCH  14  15
ATOM     15  O   UNL A   1      33.125  22.598  22.436  1.00  0.00    -0.383 OA
ATOM     16  C   UNL A   1      32.390  21.727  23.289  1.00  0.00     0.194 C 
ENDBRANCH  14  15
ENDBRANCH  13  14
ENDBRANCH   8  13
BRANCH  10  17
ATOM     17  C   UNL A   1      34.033  24.790  25.203  1.00  0.00    -0.001 A 
ATOM     18  C   UNL A   1      35.438  24.636  25.128  1.00  0.00     0.008 A 
ATOM     19  C   UNL A   1      33.331  23.903  26.070  1.00  0.00     0.042 A 
ATOM     20  C   UNL A   1      36.147  23.696  25.874  1.00  0.00     0.001 A 
ATOM     21  C   UNL A   1      34.078  22.955  26.813  1.00  0.00     0.026 A 
ATOM     22  C   UNL A   1      35.465  22.856  26.728  1.00  0.00     0.002 A 
BRANCH  19  23
ATOM     23  N   UNL A   1      31.949  23.989  26.265  1.00  0.00    -0.367 N 
ATOM     24  C   UNL A   1      31.295  22.934  27.055  1.00  0.00     0.145 C 
ATOM     25  C   UNL A   1      31.351  25.326  26.522  1.00  0.00     0.145 C 
ATOM     26  C   UNL A   1      29.785  22.967  26.763  1.00  0.00     0.181 C 
ATOM     27  C   UNL A   1      29.822  25.291  26.361  1.00  0.00     0.181 C 
ATOM     28  O   UNL A   1      29.220  24.236  27.130  1.00  0.00    -0.378 OA
ENDBRANCH  19  23
ENDBRANCH  10  17
ENDBRANCH   4   7
ENDBRANCH   2   3
ENDBRANCH   1   2
BRANCH   1  29
ATOM     29  C   UNL A   1      31.589  31.778  26.901  1.00  0.00     0.023 C 
BRANCH  29  30
ATOM     30  C   UNL A   1      32.850  32.503  27.373  1.00  0.00     0.116 C 
BRANCH  30  31
ATOM     31  N   UNL A   1      32.626  33.919  27.618  1.00  0.00    -0.352 N 
ATOM     32  C   UNL A   1      33.172  34.741  28.576  1.00  0.00     0.251 C 
ATOM     33  H   UNL A   1      31.989  34.355  27.007  1.00  0.00     0.163 HD
ATOM     34  O   UNL A   1      32.707  35.863  28.752  1.00  0.00    -0.269 OA
BRANCH  32  35
ATOM     35  C   UNL A   1      34.300  34.259  29.402  1.00  0.00     0.039 A 
ATOM     36  C   UNL A   1      34.034  33.428  30.491  1.00  0.00     0.014 A 
ATOM     37  C   UNL A   1      35.615  34.621  29.097  1.00  0.00     0.014 A 
ATOM     38  C   UNL A   1      35.096  32.895  31.226  1.00  0.00     0.010 A 
ATOM     39  C   UNL A   1      36.673  34.026  29.780  1.00  0.00     0.010 A 
ATOM     40  C   UNL A   1      36.427  33.151  30.848  1.00  0.00    -0.014 A 
BRANCH  40  41
ATOM     41  C   UNL A   1      37.555  32.477  31.546  1.00  0.00     0.031 A 
ATOM     42  C   UNL A   1      38.283  31.329  30.902  1.00  0.00     0.074 A 
ATOM     43  C   UNL A   1      37.896  32.883  32.786  1.00  0.00     0.049 A 
ATOM     44  N   UNL A   1      39.286  30.625  31.361  1.00  0.00    -0.248 NA
ATOM     45  C   UNL A   1      37.804  30.898  29.580  1.00  0.00     0.031 C 
ATOM     46  C   UNL A   1      37.228  33.948  33.538  1.00  0.00     0.029 A 
ATOM     47  N   UNL A   1      38.888  32.456  33.632  1.00  0.00    -0.354 N 
ATOM     48  C   UNL A   1      39.558  29.668  30.388  1.00  0.00     0.074 A 
ATOM     49  C   UNL A   1      38.568  29.842  29.346  1.00  0.00     0.031 C 
ATOM     50  C   UNL A   1      37.855  34.120  34.711  1.00  0.00     0.029 A 
ATOM     51  C   UNL A   1      38.937  33.147  34.822  1.00  0.00     0.049 A 
ATOM     52  H   UNL A   1      39.508  31.724  33.410  1.00  0.00     0.167 HD
ATOM     53  C   UNL A   1      40.557  28.751  30.355  1.00  0.00     0.034 A 
ATOM     54  C   UNL A   1      39.756  33.013  35.883  1.00  0.00     0.034 A 
ATOM     55  C   UNL A   1      41.536  28.590  31.405  1.00  0.00     0.049 A 
ATOM     56  C   UNL A   1      40.843  31.969  35.832  1.00  0.00     0.074 A 
ATOM     57  C   UNL A   1      42.619  27.729  31.451  1.00  0.00     0.029 A 
ATOM     58  N   UNL A   1      41.546  29.298  32.603  1.00  0.00    -0.354 N 
ATOM     59  N   UNL A   1      41.128  31.118  34.873  1.00  0.00    -0.248 NA
ATOM     60  C   UNL A   1      41.726  31.881  36.999  1.00  0.00     0.031 C 
ATOM     61  C   UNL A   1      43.232  27.856  32.702  1.00  0.00     0.029 A 
ATOM     62  C   UNL A   1      42.591  28.864  33.406  1.00  0.00     0.049 A 
ATOM     63  H   UNL A   1      40.905  30.004  32.846  1.00  0.00     0.167 HD
ATOM     64  C   UNL A   1      42.243  30.412  35.315  1.00  0.00     0.074 A 
ATOM     65  C   UNL A   1      42.594  30.962  36.608  1.00  0.00     0.031 C 
ATOM     66  C   UNL A   1      42.917  29.399  34.709  1.00  0.00     0.034 A 
BRANCH  53  67
ATOM     67  C   UNL A   1      40.620  27.832  29.156  1.00  0.00     0.023 A 
ATOM     68  C   UNL A   1      41.556  28.024  28.123  1.00  0.00     0.031 A 
ATOM     69  C   UNL A   1      39.723  26.755  29.033  1.00  0.00     0.131 A 
ATOM     70  C   UNL A   1      41.524  27.206  26.984  1.00  0.00     0.055 A 
ATOM     71  C   UNL A   1      39.753  25.890  27.937  1.00  0.00     0.041 A 
ATOM     72  F   UNL A   1      38.791  26.531  29.973  1.00  0.00    -0.206 F 
ATOM     73  C   UNL A   1      40.648  26.122  26.897  1.00  0.00     0.022 A 
BRANCH  70  74
ATOM     74  S   UNL A   1      42.541  27.668  25.556  1.00  0.00     0.124 S 
ATOM     75  O   UNL A   1      43.843  27.892  26.181  1.00  0.00    -0.237 OA
ATOM     76  O   UNL A   1      42.437  26.493  24.700  1.00  0.00    -0.237 OA
ATOM     77  O   UNL A   1      41.890  28.873  25.046  1.00  0.00    -0.744 OA
ENDBRANCH  70  74
ENDBRANCH  53  67
BRANCH  54  78
ATOM     78  C   UNL A   1      39.585  33.877  37.089  1.00  0.00     0.023 A 
ATOM     79  C   UNL A   1      38.961  33.389  38.249  1.00  0.00     0.031 A 
ATOM     80  C   UNL A   1      39.998  35.221  37.079  1.00  0.00     0.131 A 
ATOM     81  C   UNL A   1      38.723  34.252  39.330  1.00  0.00     0.055 A 
ATOM     82  C   UNL A   1      39.814  36.058  38.181  1.00  0.00     0.041 A 
ATOM     83  F   UNL A   1      40.602  35.739  35.997  1.00  0.00    -0.206 F 
ATOM     84  C   UNL A   1      39.158  35.579  39.310  1.00  0.00     0.022 A 
BRANCH  81  85
ATOM     85  S   UNL A   1      37.743  33.641  40.729  1.00  0.00     0.124 S 
ATOM     86  O   UNL A   1      38.691  32.753  41.391  1.00  0.00    -0.237 OA
ATOM     87  O   UNL A   1      37.419  34.877  41.434  1.00  0.00    -0.237 OA
ATOM     88  O   UNL A   1      36.610  32.978  40.086  1.00  0.00    -0.744 OA
ENDBRANCH  81  85
ENDBRANCH  54  78
BRANCH  66  89
ATOM     89  C   UNL A   1      44.121  28.849  35.440  1.00  0.00     0.023 A 
ATOM     90  C   UNL A   1      44.011  27.767  36.331  1.00  0.00     0.031 A 
ATOM     91  C   UNL A   1      45.385  29.446  35.283  1.00  0.00     0.131 A 
ATOM     92  C   UNL A   1      45.120  27.374  37.096  1.00  0.00     0.055 A 
ATOM     93  C   UNL A   1      46.504  28.998  35.987  1.00  0.00     0.041 A 
ATOM     94  F   UNL A   1      45.553  30.485  34.449  1.00  0.00    -0.206 F 
ATOM     95  C   UNL A   1      46.370  27.970  36.916  1.00  0.00     0.022 A 
BRANCH  92  96
ATOM     96  S   UNL A   1      44.870  26.174  38.433  1.00  0.00     0.124 S 
ATOM     97  O   UNL A   1      46.004  26.455  39.307  1.00  0.00    -0.237 OA
ATOM     98  O   UNL A   1      43.559  26.551  38.950  1.00  0.00    -0.237 OA
ATOM     99  O   UNL A   1      44.919  24.883  37.749  1.00  0.00    -0.744 OA
ENDBRANCH  92  96
ENDBRANCH  66  89
ENDBRANCH  40  41
ENDBRANCH  32  35
ENDBRANCH  30  31
ENDBRANCH  29  30
ENDBRANCH   1  29
TORSDOF 19
ENDMDL
