MODEL 1
REMARK VINA RESULT:     -14.3      0.000      0.000
REMARK SMILES O=C(NCCCCNC(=O)c1ccc([C@@H]2CC(O)=Nc3c2ncn3-c2cccc(Cl)c2)cc1)c1ccc(-c2c3nc(c(-c4cc(S(=O)(=O)[O-])ccc4F)c4ccc([nH]4)c(-c4cc(S(=O)(=O)[O-])ccc4F)c4nc(c(-c5cc(S(=O)(=O)[O-])ccc5F)c5ccc2[nH]5)C=C4)C=C3)cc1
REMARK SMILES IDX 5 1 4 2 3 3 1 4 2 5 34 7 35 8 96 9 36 10 95 11 37 12 38 13
REMARK SMILES IDX 39 14 89 15 40 16 94 17 88 18 90 19 41 20 93 21 87 22 86 23
REMARK SMILES IDX 42 25 74 26 54 27 73 28 55 29 58 30 72 31 91 32 56 33 57 34
REMARK SMILES IDX 71 36 92 37 59 38 43 39 44 40 52 41 45 42 51 43 53 44 50 45
REMARK SMILES IDX 46 46 47 47 48 48 49 49 75 50 76 51 84 52 77 53 83 54 85 55
REMARK SMILES IDX 82 56 78 57 79 58 80 59 81 60 60 61 61 62 69 63 62 64 68 65
REMARK SMILES IDX 70 66 67 67 63 68 64 69 65 70 66 71 6 72 7 73 8 74 9 75
REMARK SMILES IDX 10 77 11 78 12 79 33 80 13 81 32 82 14 83 15 84 16 85 21 86
REMARK SMILES IDX 17 87 20 88 22 89 19 90 24 91 23 92 18 93 25 95 26 96 31 97
REMARK SMILES IDX 27 98 29 99 28 100 30 101
REMARK H PARENT 3 6 90 24 58 35 8 76 18 94
REMARK Flexibility Score: inf
ROOT
ATOM      1  C   UNL A   1      33.683  29.088  26.809  1.00  0.00     0.023 C 
ENDROOT
BRANCH   1   2
ATOM      2  C   UNL A   1      35.094  29.428  27.281  1.00  0.00     0.116 C 
BRANCH   2   3
ATOM      3  N   UNL A   1      35.230  29.690  28.698  1.00  0.00    -0.352 N 
ATOM      4  O   UNL A   1      36.040  30.233  30.680  1.00  0.00    -0.269 OA
ATOM      5  C   UNL A   1      36.293  29.796  29.553  1.00  0.00     0.251 C 
ATOM      6  H   UNL A   1      34.363  29.820  29.148  1.00  0.00     0.163 HD
BRANCH   5   7
ATOM      7  C   UNL A   1      37.683  29.360  29.247  1.00  0.00     0.039 A 
ATOM      8  C   UNL A   1      38.427  29.730  28.125  1.00  0.00     0.014 A 
ATOM      9  C   UNL A   1      38.268  28.488  30.184  1.00  0.00     0.014 A 
ATOM     10  C   UNL A   1      39.684  29.168  27.897  1.00  0.00     0.010 A 
ATOM     11  C   UNL A   1      39.526  27.937  29.968  1.00  0.00     0.010 A 
ATOM     12  C   UNL A   1      40.222  28.253  28.806  1.00  0.00    -0.014 A 
BRANCH  12  13
ATOM     13  C   UNL A   1      41.598  27.792  28.608  1.00  0.00     0.031 A 
ATOM     14  C   UNL A   1      41.716  26.501  27.871  1.00  0.00     0.074 A 
ATOM     15  C   UNL A   1      42.693  28.530  28.893  1.00  0.00     0.049 A 
ATOM     16  N   UNL A   1      42.230  25.388  28.280  1.00  0.00    -0.248 NA
ATOM     17  C   UNL A   1      41.072  26.403  26.550  1.00  0.00     0.031 C 
ATOM     18  C   UNL A   1      42.740  29.920  29.349  1.00  0.00     0.029 A 
ATOM     19  N   UNL A   1      44.013  28.219  28.724  1.00  0.00    -0.354 N 
ATOM     20  C   UNL A   1      42.167  24.508  27.200  1.00  0.00     0.074 A 
ATOM     21  C   UNL A   1      41.303  25.129  26.232  1.00  0.00     0.031 C 
ATOM     22  C   UNL A   1      43.998  30.396  29.201  1.00  0.00     0.029 A 
ATOM     23  C   UNL A   1      44.869  29.318  28.758  1.00  0.00     0.049 A 
ATOM     24  H   UNL A   1      44.332  27.298  28.589  1.00  0.00     0.167 HD
ATOM     25  C   UNL A   1      42.995  23.430  27.103  1.00  0.00     0.034 A 
ATOM     26  C   UNL A   1      46.180  29.362  28.386  1.00  0.00     0.034 A 
ATOM     27  C   UNL A   1      43.593  23.115  28.378  1.00  0.00     0.049 A 
ATOM     28  C   UNL A   1      46.694  27.971  28.432  1.00  0.00     0.074 A 
ATOM     29  C   UNL A   1      43.101  22.767  29.622  1.00  0.00     0.029 A 
ATOM     30  N   UNL A   1      44.903  23.480  28.590  1.00  0.00    -0.354 N 
ATOM     31  N   UNL A   1      46.817  27.287  29.535  1.00  0.00    -0.248 NA
ATOM     32  C   UNL A   1      46.623  27.173  27.216  1.00  0.00     0.031 C 
ATOM     33  C   UNL A   1      43.954  23.435  30.549  1.00  0.00     0.029 A 
ATOM     34  C   UNL A   1      44.955  24.082  29.822  1.00  0.00     0.049 A 
ATOM     35  H   UNL A   1      45.659  23.334  27.976  1.00  0.00     0.167 HD
ATOM     36  C   UNL A   1      46.399  26.007  29.212  1.00  0.00     0.074 A 
ATOM     37  C   UNL A   1      46.386  25.972  27.750  1.00  0.00     0.031 C 
ATOM     38  C   UNL A   1      45.835  25.186  30.147  1.00  0.00     0.034 A 
BRANCH  25  39
ATOM     39  C   UNL A   1      43.542  22.862  25.811  1.00  0.00     0.023 A 
ATOM     40  C   UNL A   1      43.619  21.459  25.701  1.00  0.00     0.031 A 
ATOM     41  C   UNL A   1      44.260  23.593  24.837  1.00  0.00     0.131 A 
ATOM     42  C   UNL A   1      44.460  20.850  24.753  1.00  0.00     0.055 A 
ATOM     43  C   UNL A   1      45.038  22.981  23.849  1.00  0.00     0.041 A 
ATOM     44  F   UNL A   1      44.333  24.928  24.843  1.00  0.00    -0.206 F 
ATOM     45  C   UNL A   1      45.171  21.603  23.824  1.00  0.00     0.022 A 
BRANCH  42  46
ATOM     46  S   UNL A   1      44.758  19.068  24.887  1.00  0.00     0.124 S 
ATOM     47  O   UNL A   1      44.881  18.686  23.484  1.00  0.00    -0.237 OA
ATOM     48  O   UNL A   1      45.984  19.027  25.676  1.00  0.00    -0.237 OA
ATOM     49  O   UNL A   1      43.563  18.575  25.566  1.00  0.00    -0.744 OA
ENDBRANCH  42  46
ENDBRANCH  25  39
BRANCH  26  50
ATOM     50  C   UNL A   1      46.889  30.474  27.685  1.00  0.00     0.023 A 
ATOM     51  C   UNL A   1      46.221  31.538  27.038  1.00  0.00     0.031 A 
ATOM     52  C   UNL A   1      48.284  30.622  27.862  1.00  0.00     0.131 A 
ATOM     53  C   UNL A   1      46.946  32.675  26.597  1.00  0.00     0.055 A 
ATOM     54  C   UNL A   1      48.993  31.742  27.421  1.00  0.00     0.041 A 
ATOM     55  F   UNL A   1      48.999  29.719  28.551  1.00  0.00    -0.206 F 
ATOM     56  C   UNL A   1      48.325  32.778  26.794  1.00  0.00     0.022 A 
BRANCH  53  57
ATOM     57  S   UNL A   1      46.090  34.095  25.833  1.00  0.00     0.124 S 
ATOM     58  O   UNL A   1      47.152  34.717  25.052  1.00  0.00    -0.237 OA
ATOM     59  O   UNL A   1      45.022  33.447  25.077  1.00  0.00    -0.237 OA
ATOM     60  O   UNL A   1      45.633  34.878  26.982  1.00  0.00    -0.744 OA
ENDBRANCH  53  57
ENDBRANCH  26  50
BRANCH  38  61
ATOM     61  C   UNL A   1      45.943  25.566  31.609  1.00  0.00     0.023 A 
ATOM     62  C   UNL A   1      47.059  25.302  32.435  1.00  0.00     0.031 A 
ATOM     63  C   UNL A   1      44.906  26.351  32.146  1.00  0.00     0.131 A 
ATOM     64  C   UNL A   1      47.098  25.810  33.749  1.00  0.00     0.055 A 
ATOM     65  C   UNL A   1      44.960  26.872  33.437  1.00  0.00     0.041 A 
ATOM     66  F   UNL A   1      43.832  26.661  31.400  1.00  0.00    -0.206 F 
ATOM     67  C   UNL A   1      46.054  26.598  34.247  1.00  0.00     0.022 A 
BRANCH  64  68
ATOM     68  S   UNL A   1      48.509  25.449  34.845  1.00  0.00     0.124 S 
ATOM     69  O   UNL A   1      49.383  26.601  34.670  1.00  0.00    -0.237 OA
ATOM     70  O   UNL A   1      47.869  25.324  36.153  1.00  0.00    -0.237 OA
ATOM     71  O   UNL A   1      49.042  24.194  34.310  1.00  0.00    -0.744 OA
ENDBRANCH  64  68
ENDBRANCH  38  61
ENDBRANCH  12  13
ENDBRANCH   5   7
ENDBRANCH   2   3
ENDBRANCH   1   2
BRANCH   1  72
ATOM     72  C   UNL A   1      33.080  30.043  25.775  1.00  0.00     0.023 C 
BRANCH  72  73
ATOM     73  C   UNL A   1      31.558  30.139  25.755  1.00  0.00     0.116 C 
BRANCH  73  74
ATOM     74  N   UNL A   1      30.976  29.813  24.464  1.00  0.00    -0.352 N 
ATOM     75  C   UNL A   1      31.104  28.663  23.720  1.00  0.00     0.251 C 
ATOM     76  H   UNL A   1      30.410  30.512  24.065  1.00  0.00     0.163 HD
ATOM     77  O   UNL A   1      30.608  28.586  22.603  1.00  0.00    -0.269 OA
BRANCH  75  78
ATOM     78  C   UNL A   1      31.857  27.511  24.262  1.00  0.00     0.039 A 
ATOM     79  C   UNL A   1      33.051  27.146  23.637  1.00  0.00     0.014 A 
ATOM     80  C   UNL A   1      31.382  26.780  25.353  1.00  0.00     0.014 A 
ATOM     81  C   UNL A   1      33.799  26.081  24.142  1.00  0.00     0.005 A 
ATOM     82  C   UNL A   1      32.139  25.727  25.867  1.00  0.00     0.005 A 
ATOM     83  C   UNL A   1      33.359  25.363  25.269  1.00  0.00    -0.038 A 
BRANCH  83  84
ATOM     84  C   UNL A   1      34.193  24.203  25.783  1.00  0.00     0.081 C 
ATOM     85  C   UNL A   1      35.606  24.171  25.161  1.00  0.00     0.111 C 
ATOM     86  C   UNL A   1      33.439  22.956  25.496  1.00  0.00     0.093 A 
ATOM     87  C   UNL A   1      35.959  22.898  24.410  1.00  0.00     0.188 C 
ATOM     88  C   UNL A   1      34.028  21.893  24.850  1.00  0.00     0.164 A 
ATOM     89  N   UNL A   1      32.133  22.695  25.810  1.00  0.00    -0.238 NA
ATOM     90  N   UNL A   1      35.260  21.818  24.292  1.00  0.00    -0.198 NA
ATOM     91  N   UNL A   1      33.041  20.926  24.766  1.00  0.00    -0.283 N 
ATOM     92  C   UNL A   1      31.908  21.495  25.311  1.00  0.00     0.206 A 
BRANCH  87  93
ATOM     93  O   UNL A   1      37.171  22.937  23.817  1.00  0.00    -0.496 OA
ATOM     94  H   UNL A   1      37.817  23.548  24.112  1.00  0.00     0.294 HD
ENDBRANCH  87  93
BRANCH  91  95
ATOM     95  C   UNL A   1      33.166  19.618  24.242  1.00  0.00     0.050 A 
ATOM     96  C   UNL A   1      32.453  19.245  23.097  1.00  0.00     0.027 A 
ATOM     97  C   UNL A   1      34.014  18.702  24.878  1.00  0.00     0.047 A 
ATOM     98  C   UNL A   1      32.628  17.965  22.565  1.00  0.00     0.004 A 
ATOM     99  C   UNL A   1      34.140  17.413  24.367  1.00  0.00     0.043 A 
ATOM    100  C   UNL A   1      33.464  17.047  23.203  1.00  0.00     0.020 A 
ATOM    101  Cl  UNL A   1      35.122  16.261  25.185  1.00  0.00    -0.084 Cl
ENDBRANCH  91  95
ENDBRANCH  83  84
ENDBRANCH  75  78
ENDBRANCH  73  74
ENDBRANCH  72  73
ENDBRANCH   1  72
TORSDOF 17
ENDMDL
MODEL 2
REMARK VINA RESULT:     -14.3      2.246      6.961
REMARK SMILES O=C(NCCCCNC(=O)c1ccc([C@@H]2CC(O)=Nc3c2ncn3-c2cccc(Cl)c2)cc1)c1ccc(-c2c3nc(c(-c4cc(S(=O)(=O)[O-])ccc4F)c4ccc([nH]4)c(-c4cc(S(=O)(=O)[O-])ccc4F)c4nc(c(-c5cc(S(=O)(=O)[O-])ccc5F)c5ccc2[nH]5)C=C4)C=C3)cc1
REMARK SMILES IDX 5 1 4 2 3 3 1 4 2 5 34 7 35 8 96 9 36 10 95 11 37 12 38 13
REMARK SMILES IDX 39 14 89 15 40 16 94 17 88 18 90 19 41 20 93 21 87 22 86 23
REMARK SMILES IDX 42 25 74 26 54 27 73 28 55 29 58 30 72 31 91 32 56 33 57 34
REMARK SMILES IDX 71 36 92 37 59 38 43 39 44 40 52 41 45 42 51 43 53 44 50 45
REMARK SMILES IDX 46 46 47 47 48 48 49 49 75 50 76 51 84 52 77 53 83 54 85 55
REMARK SMILES IDX 82 56 78 57 79 58 80 59 81 60 60 61 61 62 69 63 62 64 68 65
REMARK SMILES IDX 70 66 67 67 63 68 64 69 65 70 66 71 6 72 7 73 8 74 9 75
REMARK SMILES IDX 10 77 11 78 12 79 33 80 13 81 32 82 14 83 15 84 16 85 21 86
REMARK SMILES IDX 17 87 20 88 22 89 19 90 24 91 23 92 18 93 25 95 26 96 31 97
REMARK SMILES IDX 27 98 29 99 28 100 30 101
REMARK H PARENT 3 6 90 24 58 35 8 76 18 94
REMARK Flexibility Score: inf
ROOT
ATOM      1  C   UNL A   1      32.165  29.898  27.217  1.00  0.00     0.023 C 
ENDROOT
BRANCH   1   2
ATOM      2  C   UNL A   1      33.673  30.125  27.178  1.00  0.00     0.116 C 
BRANCH   2   3
ATOM      3  N   UNL A   1      34.120  31.423  27.638  1.00  0.00    -0.352 N 
ATOM      4  O   UNL A   1      35.370  33.171  28.148  1.00  0.00    -0.269 OA
ATOM      5  C   UNL A   1      35.334  31.946  27.992  1.00  0.00     0.251 C 
ATOM      6  H   UNL A   1      33.385  32.075  27.715  1.00  0.00     0.163 HD
BRANCH   5   7
ATOM      7  C   UNL A   1      36.560  31.149  28.269  1.00  0.00     0.039 A 
ATOM      8  C   UNL A   1      36.717  29.783  28.031  1.00  0.00     0.014 A 
ATOM      9  C   UNL A   1      37.636  31.862  28.830  1.00  0.00     0.014 A 
ATOM     10  C   UNL A   1      37.882  29.128  28.433  1.00  0.00     0.010 A 
ATOM     11  C   UNL A   1      38.804  31.217  29.218  1.00  0.00     0.010 A 
ATOM     12  C   UNL A   1      38.916  29.840  29.048  1.00  0.00    -0.014 A 
BRANCH  12  13
ATOM     13  C   UNL A   1      40.176  29.150  29.327  1.00  0.00     0.031 A 
ATOM     14  C   UNL A   1      40.495  29.012  30.778  1.00  0.00     0.074 A 
ATOM     15  C   UNL A   1      40.920  28.522  28.391  1.00  0.00     0.049 A 
ATOM     16  N   UNL A   1      41.512  29.480  31.423  1.00  0.00    -0.248 NA
ATOM     17  C   UNL A   1      39.492  28.368  31.643  1.00  0.00     0.031 C 
ATOM     18  C   UNL A   1      40.595  28.323  26.978  1.00  0.00     0.029 A 
ATOM     19  N   UNL A   1      42.088  27.826  28.537  1.00  0.00    -0.354 N 
ATOM     20  C   UNL A   1      41.391  29.017  32.733  1.00  0.00     0.074 A 
ATOM     21  C   UNL A   1      40.058  28.487  32.844  1.00  0.00     0.031 C 
ATOM     22  C   UNL A   1      41.414  27.376  26.461  1.00  0.00     0.029 A 
ATOM     23  C   UNL A   1      42.396  26.994  27.464  1.00  0.00     0.049 A 
ATOM     24  H   UNL A   1      42.660  27.906  29.333  1.00  0.00     0.167 HD
ATOM     25  C   UNL A   1      42.467  28.921  33.563  1.00  0.00     0.034 A 
ATOM     26  C   UNL A   1      43.342  26.012  27.419  1.00  0.00     0.034 A 
ATOM     27  C   UNL A   1      43.574  29.709  33.076  1.00  0.00     0.049 A 
ATOM     28  C   UNL A   1      44.329  26.308  28.487  1.00  0.00     0.074 A 
ATOM     29  C   UNL A   1      43.764  31.049  32.799  1.00  0.00     0.029 A 
ATOM     30  N   UNL A   1      44.615  29.055  32.458  1.00  0.00    -0.354 N 
ATOM     31  N   UNL A   1      45.113  27.349  28.471  1.00  0.00    -0.248 NA
ATOM     32  C   UNL A   1      44.118  25.713  29.799  1.00  0.00     0.031 C 
ATOM     33  C   UNL A   1      44.574  31.066  31.626  1.00  0.00     0.029 A 
ATOM     34  C   UNL A   1      44.892  29.745  31.305  1.00  0.00     0.049 A 
ATOM     35  H   UNL A   1      45.076  28.248  32.783  1.00  0.00     0.167 HD
ATOM     36  C   UNL A   1      45.133  27.801  29.780  1.00  0.00     0.074 A 
ATOM     37  C   UNL A   1      44.584  26.700  30.569  1.00  0.00     0.031 C 
ATOM     38  C   UNL A   1      45.330  29.122  30.072  1.00  0.00     0.034 A 
BRANCH  25  39
ATOM     39  C   UNL A   1      42.659  27.861  34.627  1.00  0.00     0.023 A 
ATOM     40  C   UNL A   1      43.403  26.717  34.273  1.00  0.00     0.031 A 
ATOM     41  C   UNL A   1      41.918  27.763  35.826  1.00  0.00     0.131 A 
ATOM     42  C   UNL A   1      43.300  25.527  35.015  1.00  0.00     0.055 A 
ATOM     43  C   UNL A   1      41.877  26.599  36.601  1.00  0.00     0.041 A 
ATOM     44  F   UNL A   1      41.117  28.741  36.264  1.00  0.00    -0.206 F 
ATOM     45  C   UNL A   1      42.541  25.461  36.179  1.00  0.00     0.022 A 
BRANCH  42  46
ATOM     46  S   UNL A   1      44.019  24.016  34.320  1.00  0.00     0.124 S 
ATOM     47  O   UNL A   1      45.336  24.004  34.947  1.00  0.00    -0.237 OA
ATOM     48  O   UNL A   1      43.078  22.999  34.776  1.00  0.00    -0.237 OA
ATOM     49  O   UNL A   1      44.015  24.269  32.882  1.00  0.00    -0.744 OA
ENDBRANCH  42  46
ENDBRANCH  25  39
BRANCH  26  50
ATOM     50  C   UNL A   1      43.245  24.687  26.738  1.00  0.00     0.023 A 
ATOM     51  C   UNL A   1      42.300  23.697  27.092  1.00  0.00     0.031 A 
ATOM     52  C   UNL A   1      43.955  24.476  25.534  1.00  0.00     0.131 A 
ATOM     53  C   UNL A   1      42.106  22.563  26.261  1.00  0.00     0.055 A 
ATOM     54  C   UNL A   1      43.763  23.356  24.723  1.00  0.00     0.041 A 
ATOM     55  F   UNL A   1      44.801  25.401  25.054  1.00  0.00    -0.206 F 
ATOM     56  C   UNL A   1      42.831  22.397  25.078  1.00  0.00     0.022 A 
BRANCH  53  57
ATOM     57  S   UNL A   1      40.835  21.315  26.658  1.00  0.00     0.124 S 
ATOM     58  O   UNL A   1      40.751  21.406  28.110  1.00  0.00    -0.237 OA
ATOM     59  O   UNL A   1      39.678  21.797  25.909  1.00  0.00    -0.237 OA
ATOM     60  O   UNL A   1      41.409  20.068  26.153  1.00  0.00    -0.744 OA
ENDBRANCH  53  57
ENDBRANCH  26  50
BRANCH  38  61
ATOM     61  C   UNL A   1      45.825  30.044  28.978  1.00  0.00     0.023 A 
ATOM     62  C   UNL A   1      45.014  30.939  28.244  1.00  0.00     0.031 A 
ATOM     63  C   UNL A   1      47.215  30.101  28.768  1.00  0.00     0.131 A 
ATOM     64  C   UNL A   1      45.604  31.837  27.333  1.00  0.00     0.055 A 
ATOM     65  C   UNL A   1      47.797  31.007  27.884  1.00  0.00     0.041 A 
ATOM     66  F   UNL A   1      48.041  29.295  29.457  1.00  0.00    -0.206 F 
ATOM     67  C   UNL A   1      46.992  31.876  27.157  1.00  0.00     0.022 A 
BRANCH  64  68
ATOM     68  S   UNL A   1      44.576  32.973  26.346  1.00  0.00     0.124 S 
ATOM     69  O   UNL A   1      43.800  33.691  27.349  1.00  0.00    -0.237 OA
ATOM     70  O   UNL A   1      45.574  33.758  25.625  1.00  0.00    -0.237 OA
ATOM     71  O   UNL A   1      43.789  32.071  25.501  1.00  0.00    -0.744 OA
ENDBRANCH  64  68
ENDBRANCH  38  61
ENDBRANCH  12  13
ENDBRANCH   5   7
ENDBRANCH   2   3
ENDBRANCH   1   2
BRANCH   1  72
ATOM     72  C   UNL A   1      31.426  30.114  25.893  1.00  0.00     0.023 C 
BRANCH  72  73
ATOM     73  C   UNL A   1      32.228  29.846  24.624  1.00  0.00     0.116 C 
BRANCH  73  74
ATOM     74  N   UNL A   1      31.423  29.321  23.533  1.00  0.00    -0.352 N 
ATOM     75  C   UNL A   1      31.313  28.027  23.080  1.00  0.00     0.251 C 
ATOM     76  H   UNL A   1      30.879  29.984  23.051  1.00  0.00     0.163 HD
ATOM     77  O   UNL A   1      30.646  27.770  22.086  1.00  0.00    -0.269 OA
BRANCH  75  78
ATOM     78  C   UNL A   1      32.016  26.933  23.787  1.00  0.00     0.039 A 
ATOM     79  C   UNL A   1      33.119  26.344  23.167  1.00  0.00     0.014 A 
ATOM     80  C   UNL A   1      31.579  26.473  25.031  1.00  0.00     0.014 A 
ATOM     81  C   UNL A   1      33.820  25.329  23.821  1.00  0.00     0.005 A 
ATOM     82  C   UNL A   1      32.291  25.471  25.690  1.00  0.00     0.005 A 
ATOM     83  C   UNL A   1      33.422  24.885  25.094  1.00  0.00    -0.038 A 
BRANCH  83  84
ATOM     84  C   UNL A   1      34.202  23.771  25.770  1.00  0.00     0.081 C 
ATOM     85  C   UNL A   1      35.687  23.750  25.347  1.00  0.00     0.111 C 
ATOM     86  C   UNL A   1      33.520  22.493  25.443  1.00  0.00     0.093 A 
ATOM     87  C   UNL A   1      36.165  22.455  24.710  1.00  0.00     0.188 C 
ATOM     88  C   UNL A   1      34.212  21.419  24.932  1.00  0.00     0.164 A 
ATOM     89  N   UNL A   1      32.189  22.212  25.589  1.00  0.00    -0.238 NA
ATOM     90  N   UNL A   1      35.510  21.352  24.550  1.00  0.00    -0.198 NA
ATOM     91  N   UNL A   1      33.267  20.424  24.761  1.00  0.00    -0.283 N 
ATOM     92  C   UNL A   1      32.058  20.986  25.121  1.00  0.00     0.206 A 
BRANCH  87  93
ATOM     93  O   UNL A   1      37.445  22.500  24.285  1.00  0.00    -0.496 OA
ATOM     94  H   UNL A   1      37.707  22.007  23.533  1.00  0.00     0.294 HD
ENDBRANCH  87  93
BRANCH  91  95
ATOM     95  C   UNL A   1      33.488  19.098  24.320  1.00  0.00     0.050 A 
ATOM     96  C   UNL A   1      32.798  18.598  23.210  1.00  0.00     0.027 A 
ATOM     97  C   UNL A   1      34.408  18.292  25.003  1.00  0.00     0.047 A 
ATOM     98  C   UNL A   1      33.068  17.304  22.759  1.00  0.00     0.004 A 
ATOM     99  C   UNL A   1      34.630  16.986  24.574  1.00  0.00     0.043 A 
ATOM    100  C   UNL A   1      33.976  16.495  23.445  1.00  0.00     0.020 A 
ATOM    101  Cl  UNL A   1      35.703  15.968  25.452  1.00  0.00    -0.084 Cl
ENDBRANCH  91  95
ENDBRANCH  83  84
ENDBRANCH  75  78
ENDBRANCH  73  74
ENDBRANCH  72  73
ENDBRANCH   1  72
TORSDOF 17
ENDMDL
MODEL 3
REMARK VINA RESULT:     -14.2      2.692      7.249
REMARK SMILES O=C(NCCCCNC(=O)c1ccc([C@@H]2CC(O)=Nc3c2ncn3-c2cccc(Cl)c2)cc1)c1ccc(-c2c3nc(c(-c4cc(S(=O)(=O)[O-])ccc4F)c4ccc([nH]4)c(-c4cc(S(=O)(=O)[O-])ccc4F)c4nc(c(-c5cc(S(=O)(=O)[O-])ccc5F)c5ccc2[nH]5)C=C4)C=C3)cc1
REMARK SMILES IDX 5 1 4 2 3 3 1 4 2 5 34 7 35 8 96 9 36 10 95 11 37 12 38 13
REMARK SMILES IDX 39 14 89 15 40 16 94 17 88 18 90 19 41 20 93 21 87 22 86 23
REMARK SMILES IDX 42 25 74 26 54 27 73 28 55 29 58 30 72 31 91 32 56 33 57 34
REMARK SMILES IDX 71 36 92 37 59 38 43 39 44 40 52 41 45 42 51 43 53 44 50 45
REMARK SMILES IDX 46 46 47 47 48 48 49 49 75 50 76 51 84 52 77 53 83 54 85 55
REMARK SMILES IDX 82 56 78 57 79 58 80 59 81 60 60 61 61 62 69 63 62 64 68 65
REMARK SMILES IDX 70 66 67 67 63 68 64 69 65 70 66 71 6 72 7 73 8 74 9 75
REMARK SMILES IDX 10 77 11 78 12 79 33 80 13 81 32 82 14 83 15 84 16 85 21 86
REMARK SMILES IDX 17 87 20 88 22 89 19 90 24 91 23 92 18 93 25 95 26 96 31 97
REMARK SMILES IDX 27 98 29 99 28 100 30 101
REMARK H PARENT 3 6 90 24 58 35 8 76 18 94
REMARK Flexibility Score: inf
ROOT
ATOM      1  C   UNL A   1      32.363  29.629  27.140  1.00  0.00     0.023 C 
ENDROOT
BRANCH   1   2
ATOM      2  C   UNL A   1      33.863  29.897  27.040  1.00  0.00     0.116 C 
BRANCH   2   3
ATOM      3  N   UNL A   1      34.299  31.186  27.533  1.00  0.00    -0.352 N 
ATOM      4  O   UNL A   1      35.541  32.917  28.116  1.00  0.00    -0.269 OA
ATOM      5  C   UNL A   1      35.501  31.695  27.946  1.00  0.00     0.251 C 
ATOM      6  H   UNL A   1      33.567  31.844  27.585  1.00  0.00     0.163 HD
BRANCH   5   7
ATOM      7  C   UNL A   1      36.707  30.884  28.268  1.00  0.00     0.039 A 
ATOM      8  C   UNL A   1      36.880  29.528  27.984  1.00  0.00     0.014 A 
ATOM      9  C   UNL A   1      37.743  31.571  28.928  1.00  0.00     0.014 A 
ATOM     10  C   UNL A   1      38.016  28.855  28.433  1.00  0.00     0.010 A 
ATOM     11  C   UNL A   1      38.884  30.907  29.364  1.00  0.00     0.010 A 
ATOM     12  C   UNL A   1      39.007  29.538  29.144  1.00  0.00    -0.014 A 
BRANCH  12  13
ATOM     13  C   UNL A   1      40.247  28.834  29.476  1.00  0.00     0.031 A 
ATOM     14  C   UNL A   1      40.535  28.747  30.937  1.00  0.00     0.074 A 
ATOM     15  C   UNL A   1      40.995  28.155  28.581  1.00  0.00     0.049 A 
ATOM     16  N   UNL A   1      41.549  29.220  31.583  1.00  0.00    -0.248 NA
ATOM     17  C   UNL A   1      39.502  28.160  31.806  1.00  0.00     0.031 C 
ATOM     18  C   UNL A   1      40.694  27.905  27.170  1.00  0.00     0.029 A 
ATOM     19  N   UNL A   1      42.145  27.441  28.777  1.00  0.00    -0.354 N 
ATOM     20  C   UNL A   1      41.392  28.813  32.908  1.00  0.00     0.074 A 
ATOM     21  C   UNL A   1      40.047  28.315  33.013  1.00  0.00     0.031 C 
ATOM     22  C   UNL A   1      41.502  26.923  26.707  1.00  0.00     0.029 A 
ATOM     23  C   UNL A   1      42.456  26.560  27.744  1.00  0.00     0.049 A 
ATOM     24  H   UNL A   1      42.703  27.541  29.581  1.00  0.00     0.167 HD
ATOM     25  C   UNL A   1      42.451  28.728  33.763  1.00  0.00     0.034 A 
ATOM     26  C   UNL A   1      43.382  25.559  27.757  1.00  0.00     0.034 A 
ATOM     27  C   UNL A   1      43.583  29.473  33.267  1.00  0.00     0.049 A 
ATOM     28  C   UNL A   1      44.354  25.876  28.832  1.00  0.00     0.074 A 
ATOM     29  C   UNL A   1      43.807  30.797  32.942  1.00  0.00     0.029 A 
ATOM     30  N   UNL A   1      44.622  28.774  32.697  1.00  0.00    -0.354 N 
ATOM     31  N   UNL A   1      45.161  26.900  28.791  1.00  0.00    -0.248 NA
ATOM     32  C   UNL A   1      44.105  25.338  30.162  1.00  0.00     0.031 C 
ATOM     33  C   UNL A   1      44.640  30.750  31.786  1.00  0.00     0.029 A 
ATOM     34  C   UNL A   1      44.935  29.411  31.523  1.00  0.00     0.049 A 
ATOM     35  H   UNL A   1      45.059  27.971  33.062  1.00  0.00     0.167 HD
ATOM     36  C   UNL A   1      45.165  27.404  30.081  1.00  0.00     0.074 A 
ATOM     37  C   UNL A   1      44.577  26.346  30.902  1.00  0.00     0.031 C 
ATOM     38  C   UNL A   1      45.383  28.730  30.325  1.00  0.00     0.034 A 
BRANCH  25  39
ATOM     39  C   UNL A   1      42.599  27.707  34.871  1.00  0.00     0.023 A 
ATOM     40  C   UNL A   1      43.355  26.551  34.589  1.00  0.00     0.031 A 
ATOM     41  C   UNL A   1      41.811  27.653  36.043  1.00  0.00     0.131 A 
ATOM     42  C   UNL A   1      43.222  25.390  35.369  1.00  0.00     0.055 A 
ATOM     43  C   UNL A   1      41.738  26.518  36.857  1.00  0.00     0.041 A 
ATOM     44  F   UNL A   1      40.995  28.646  36.412  1.00  0.00    -0.206 F 
ATOM     45  C   UNL A   1      42.417  25.365  36.504  1.00  0.00     0.022 A 
BRANCH  42  46
ATOM     46  S   UNL A   1      43.966  23.854  34.759  1.00  0.00     0.124 S 
ATOM     47  O   UNL A   1      44.477  23.267  35.993  1.00  0.00    -0.237 OA
ATOM     48  O   UNL A   1      42.822  23.186  34.152  1.00  0.00    -0.237 OA
ATOM     49  O   UNL A   1      44.985  24.321  33.822  1.00  0.00    -0.744 OA
ENDBRANCH  42  46
ENDBRANCH  25  39
BRANCH  26  50
ATOM     50  C   UNL A   1      43.270  24.209  27.127  1.00  0.00     0.023 A 
ATOM     51  C   UNL A   1      44.090  23.778  26.060  1.00  0.00     0.031 A 
ATOM     52  C   UNL A   1      42.482  23.218  27.756  1.00  0.00     0.131 A 
ATOM     53  C   UNL A   1      44.092  22.415  25.665  1.00  0.00     0.055 A 
ATOM     54  C   UNL A   1      42.485  21.879  27.359  1.00  0.00     0.041 A 
ATOM     55  F   UNL A   1      41.744  23.499  28.841  1.00  0.00    -0.206 F 
ATOM     56  C   UNL A   1      43.297  21.469  26.316  1.00  0.00     0.022 A 
BRANCH  53  57
ATOM     57  S   UNL A   1      45.204  21.823  24.344  1.00  0.00     0.124 S 
ATOM     58  O   UNL A   1      45.342  23.003  23.499  1.00  0.00    -0.237 OA
ATOM     59  O   UNL A   1      46.391  21.417  25.091  1.00  0.00    -0.237 OA
ATOM     60  O   UNL A   1      44.460  20.718  23.739  1.00  0.00    -0.744 OA
ENDBRANCH  53  57
ENDBRANCH  26  50
BRANCH  38  61
ATOM     61  C   UNL A   1      45.920  29.597  29.206  1.00  0.00     0.023 A 
ATOM     62  C   UNL A   1      45.156  30.530  28.466  1.00  0.00     0.031 A 
ATOM     63  C   UNL A   1      47.307  29.561  28.974  1.00  0.00     0.131 A 
ATOM     64  C   UNL A   1      45.788  31.370  27.529  1.00  0.00     0.055 A 
ATOM     65  C   UNL A   1      47.931  30.411  28.063  1.00  0.00     0.041 A 
ATOM     66  F   UNL A   1      48.090  28.717  29.666  1.00  0.00    -0.206 F 
ATOM     67  C   UNL A   1      47.173  31.316  27.332  1.00  0.00     0.022 A 
BRANCH  64  68
ATOM     68  S   UNL A   1      44.819  32.552  26.535  1.00  0.00     0.124 S 
ATOM     69  O   UNL A   1      44.188  33.403  27.535  1.00  0.00    -0.237 OA
ATOM     70  O   UNL A   1      45.843  33.185  25.708  1.00  0.00    -0.237 OA
ATOM     71  O   UNL A   1      43.891  31.692  25.796  1.00  0.00    -0.744 OA
ENDBRANCH  64  68
ENDBRANCH  38  61
ENDBRANCH  12  13
ENDBRANCH   5   7
ENDBRANCH   2   3
ENDBRANCH   1   2
BRANCH   1  72
ATOM     72  C   UNL A   1      31.489  30.355  26.113  1.00  0.00     0.023 C 
BRANCH  72  73
ATOM     73  C   UNL A   1      31.642  29.906  24.663  1.00  0.00     0.116 C 
BRANCH  73  74
ATOM     74  N   UNL A   1      30.387  29.889  23.930  1.00  0.00    -0.352 N 
ATOM     75  C   UNL A   1      29.700  28.818  23.409  1.00  0.00     0.251 C 
ATOM     76  H   UNL A   1      29.968  30.768  23.787  1.00  0.00     0.163 HD
ATOM     77  O   UNL A   1      28.689  28.991  22.741  1.00  0.00    -0.269 OA
BRANCH  75  78
ATOM     78  C   UNL A   1      30.190  27.441  23.642  1.00  0.00     0.039 A 
ATOM     79  C   UNL A   1      30.056  26.897  24.921  1.00  0.00     0.014 A 
ATOM     80  C   UNL A   1      30.799  26.703  22.624  1.00  0.00     0.014 A 
ATOM     81  C   UNL A   1      30.481  25.590  25.165  1.00  0.00     0.005 A 
ATOM     82  C   UNL A   1      31.209  25.392  22.866  1.00  0.00     0.005 A 
ATOM     83  C   UNL A   1      31.054  24.817  24.140  1.00  0.00    -0.038 A 
BRANCH  83  84
ATOM     84  C   UNL A   1      31.517  23.403  24.446  1.00  0.00     0.081 C 
ATOM     85  C   UNL A   1      31.220  22.987  25.904  1.00  0.00     0.111 C 
ATOM     86  C   UNL A   1      32.969  23.338  24.142  1.00  0.00     0.093 A 
ATOM     87  C   UNL A   1      32.432  22.583  26.726  1.00  0.00     0.188 C 
ATOM     88  C   UNL A   1      33.874  22.847  25.057  1.00  0.00     0.164 A 
ATOM     89  N   UNL A   1      33.585  23.732  22.986  1.00  0.00    -0.238 NA
ATOM     90  N   UNL A   1      33.660  22.470  26.340  1.00  0.00    -0.198 NA
ATOM     91  N   UNL A   1      35.106  22.935  24.434  1.00  0.00    -0.283 N 
ATOM     92  C   UNL A   1      34.869  23.530  23.211  1.00  0.00     0.206 A 
BRANCH  87  93
ATOM     93  O   UNL A   1      32.143  22.300  28.013  1.00  0.00    -0.496 OA
ATOM     94  H   UNL A   1      31.528  22.829  28.483  1.00  0.00     0.294 HD
ENDBRANCH  87  93
BRANCH  91  95
ATOM     95  C   UNL A   1      36.353  22.496  24.936  1.00  0.00     0.050 A 
ATOM     96  C   UNL A   1      36.757  21.167  24.760  1.00  0.00     0.027 A 
ATOM     97  C   UNL A   1      37.181  23.404  25.609  1.00  0.00     0.047 A 
ATOM     98  C   UNL A   1      38.014  20.765  25.217  1.00  0.00     0.004 A 
ATOM     99  C   UNL A   1      38.409  22.977  26.105  1.00  0.00     0.043 A 
ATOM    100  C   UNL A   1      38.837  21.666  25.897  1.00  0.00     0.020 A 
ATOM    101  Cl  UNL A   1      39.398  24.068  26.995  1.00  0.00    -0.084 Cl
ENDBRANCH  91  95
ENDBRANCH  83  84
ENDBRANCH  75  78
ENDBRANCH  73  74
ENDBRANCH  72  73
ENDBRANCH   1  72
TORSDOF 17
ENDMDL
