MODEL 1
REMARK VINA RESULT:     -11.4      0.000      0.000
REMARK SMILES COCCC(=O)N1[C@@H](C(=O)NCCCCNC(=O)c2ccc(-c3c4nc(c(-c5cc(S(=O)(=O)[O-])ccc5F)c5ccc([nH]5)c(-c5cc(S(=O)(=O)[O-])ccc5F)c5nc(c(-c6cc(S(=O)(=O)[O-])ccc6F)c6ccc3[nH]6)C=C5)C=C4)cc2)CC[C@H]2CCCC[C@@H]21
REMARK SMILES IDX 13 1 12 2 11 3 9 4 10 5 8 7 7 8 89 9 82 10 84 11 88 12 83 13
REMARK SMILES IDX 85 14 87 15 86 16 5 17 6 18 4 19 3 20 2 21 1 22 14 23 15 24
REMARK SMILES IDX 16 25 17 26 18 28 19 29 20 30 81 31 21 32 80 33 22 34 23 35
REMARK SMILES IDX 24 36 74 37 25 38 79 39 73 40 75 41 26 42 78 43 72 44 71 45
REMARK SMILES IDX 27 47 59 48 39 49 58 50 40 51 43 52 57 53 76 54 41 55 42 56
REMARK SMILES IDX 56 58 77 59 44 60 28 61 29 62 37 63 30 64 36 65 38 66 35 67
REMARK SMILES IDX 31 68 32 69 33 70 34 71 60 72 61 73 69 74 62 75 68 76 70 77
REMARK SMILES IDX 67 78 63 79 64 80 65 81 66 82 45 83 46 84 54 85 47 86 53 87
REMARK SMILES IDX 55 88 52 89 48 90 49 91 50 92 51 93
REMARK H PARENT 11 6 16 27 75 46 43 57
REMARK Flexibility Score: inf
ROOT
ATOM      1  C   UNL A   1      31.484  28.004  26.878  1.00  0.00     0.023 C 
ENDROOT
BRANCH   1   2
ATOM      2  C   UNL A   1      32.200  26.702  26.504  1.00  0.00     0.116 C 
BRANCH   2   3
ATOM      3  N   UNL A   1      31.387  25.545  26.827  1.00  0.00    -0.354 N 
ATOM      4  C   UNL A   1      31.630  24.214  26.640  1.00  0.00     0.242 C 
ATOM      5  O   UNL A   1      30.658  23.454  26.670  1.00  0.00    -0.273 OA
ATOM      6  H   UNL A   1      30.522  25.752  27.249  1.00  0.00     0.163 HD
BRANCH   4   7
ATOM      7  C   UNL A   1      33.036  23.673  26.271  1.00  0.00     0.174 C 
ATOM      8  N   UNL A   1      33.124  23.082  24.926  1.00  0.00    -0.327 N 
ATOM      9  C   UNL A   1      34.402  22.460  24.555  1.00  0.00     0.089 C 
ATOM     10  C   UNL A   1      33.477  22.658  27.364  1.00  0.00     0.036 C 
ATOM     11  C   UNL A   1      35.204  21.963  25.768  1.00  0.00     0.012 C 
ATOM     12  C   UNL A   1      35.356  23.359  23.744  1.00  0.00     0.025 C 
ATOM     13  C   UNL A   1      34.251  21.445  26.826  1.00  0.00     0.008 C 
ATOM     14  C   UNL A   1      36.269  20.984  25.278  1.00  0.00     0.006 C 
ATOM     15  C   UNL A   1      36.589  22.567  23.282  1.00  0.00     0.002 C 
ATOM     16  C   UNL A   1      37.261  21.740  24.386  1.00  0.00     0.000 C 
BRANCH   8  17
ATOM     17  C   UNL A   1      32.380  23.656  23.895  1.00  0.00     0.225 C 
ATOM     18  O   UNL A   1      31.505  23.053  23.282  1.00  0.00    -0.275 OA
BRANCH  17  19
ATOM     19  C   UNL A   1      32.843  25.046  23.499  1.00  0.00     0.128 C 
BRANCH  19  20
ATOM     20  C   UNL A   1      31.895  25.718  22.518  1.00  0.00     0.169 C 
BRANCH  20  21
ATOM     21  O   UNL A   1      31.198  26.828  23.100  1.00  0.00    -0.384 OA
ATOM     22  C   UNL A   1      29.904  26.505  23.582  1.00  0.00     0.194 C 
ENDBRANCH  20  21
ENDBRANCH  19  20
ENDBRANCH  17  19
ENDBRANCH   8  17
ENDBRANCH   4   7
ENDBRANCH   2   3
ENDBRANCH   1   2
BRANCH   1  23
ATOM     23  C   UNL A   1      31.426  29.052  25.763  1.00  0.00     0.023 C 
BRANCH  23  24
ATOM     24  C   UNL A   1      32.593  30.030  25.735  1.00  0.00     0.116 C 
BRANCH  24  25
ATOM     25  N   UNL A   1      32.220  31.361  26.187  1.00  0.00    -0.352 N 
ATOM     26  C   UNL A   1      32.831  32.152  27.132  1.00  0.00     0.251 C 
ATOM     27  H   UNL A   1      31.423  31.749  25.759  1.00  0.00     0.163 HD
ATOM     28  O   UNL A   1      32.292  33.193  27.497  1.00  0.00    -0.269 OA
BRANCH  26  29
ATOM     29  C   UNL A   1      34.113  31.719  27.728  1.00  0.00     0.039 A 
ATOM     30  C   UNL A   1      35.112  32.670  27.947  1.00  0.00     0.014 A 
ATOM     31  C   UNL A   1      34.315  30.387  28.098  1.00  0.00     0.014 A 
ATOM     32  C   UNL A   1      36.287  32.298  28.604  1.00  0.00     0.010 A 
ATOM     33  C   UNL A   1      35.453  30.035  28.818  1.00  0.00     0.010 A 
ATOM     34  C   UNL A   1      36.451  30.986  29.080  1.00  0.00    -0.014 A 
BRANCH  34  35
ATOM     35  C   UNL A   1      37.658  30.588  29.849  1.00  0.00     0.031 A 
ATOM     36  C   UNL A   1      38.676  29.672  29.229  1.00  0.00     0.074 A 
ATOM     37  C   UNL A   1      37.800  30.996  31.126  1.00  0.00     0.049 A 
ATOM     38  N   UNL A   1      39.746  29.141  29.760  1.00  0.00    -0.248 NA
ATOM     39  C   UNL A   1      38.440  29.277  27.832  1.00  0.00     0.031 C 
ATOM     40  C   UNL A   1      36.857  31.850  31.852  1.00  0.00     0.029 A 
ATOM     41  N   UNL A   1      38.784  30.736  32.047  1.00  0.00    -0.354 N 
ATOM     42  C   UNL A   1      40.302  28.337  28.770  1.00  0.00     0.074 A 
ATOM     43  C   UNL A   1      39.415  28.405  27.629  1.00  0.00     0.031 C 
ATOM     44  C   UNL A   1      37.319  32.063  33.094  1.00  0.00     0.029 A 
ATOM     45  C   UNL A   1      38.565  31.323  33.274  1.00  0.00     0.049 A 
ATOM     46  H   UNL A   1      39.573  30.182  31.850  1.00  0.00     0.167 HD
ATOM     47  C   UNL A   1      41.459  27.629  28.802  1.00  0.00     0.034 A 
ATOM     48  C   UNL A   1      39.279  31.261  34.414  1.00  0.00     0.034 A 
ATOM     49  C   UNL A   1      42.339  27.585  29.945  1.00  0.00     0.049 A 
ATOM     50  C   UNL A   1      40.550  30.450  34.433  1.00  0.00     0.074 A 
ATOM     51  C   UNL A   1      43.560  26.946  30.068  1.00  0.00     0.029 A 
ATOM     52  N   UNL A   1      42.087  28.197  31.167  1.00  0.00    -0.354 N 
ATOM     53  N   UNL A   1      41.091  29.738  33.471  1.00  0.00    -0.248 NA
ATOM     54  C   UNL A   1      41.314  30.443  35.688  1.00  0.00     0.031 C 
ATOM     55  C   UNL A   1      44.015  27.116  31.381  1.00  0.00     0.029 A 
ATOM     56  C   UNL A   1      43.116  27.926  32.057  1.00  0.00     0.049 A 
ATOM     57  H   UNL A   1      41.295  28.744  31.371  1.00  0.00     0.167 HD
ATOM     58  C   UNL A   1      42.274  29.226  33.997  1.00  0.00     0.074 A 
ATOM     59  C   UNL A   1      42.374  29.723  35.353  1.00  0.00     0.031 C 
ATOM     60  C   UNL A   1      43.198  28.422  33.410  1.00  0.00     0.034 A 
BRANCH  47  61
ATOM     61  C   UNL A   1      41.819  26.829  27.572  1.00  0.00     0.023 A 
ATOM     62  C   UNL A   1      41.515  25.460  27.467  1.00  0.00     0.031 A 
ATOM     63  C   UNL A   1      42.499  27.435  26.501  1.00  0.00     0.131 A 
ATOM     64  C   UNL A   1      41.958  24.726  26.356  1.00  0.00     0.055 A 
ATOM     65  C   UNL A   1      42.863  26.717  25.360  1.00  0.00     0.041 A 
ATOM     66  F   UNL A   1      42.834  28.733  26.552  1.00  0.00    -0.206 F 
ATOM     67  C   UNL A   1      42.608  25.351  25.290  1.00  0.00     0.022 A 
BRANCH  64  68
ATOM     68  S   UNL A   1      41.803  22.919  26.395  1.00  0.00     0.124 S 
ATOM     69  O   UNL A   1      42.455  22.595  27.662  1.00  0.00    -0.237 OA
ATOM     70  O   UNL A   1      40.359  22.725  26.352  1.00  0.00    -0.237 OA
ATOM     71  O   UNL A   1      42.528  22.488  25.201  1.00  0.00    -0.744 OA
ENDBRANCH  64  68
ENDBRANCH  47  61
BRANCH  48  72
ATOM     72  C   UNL A   1      38.813  31.974  35.640  1.00  0.00     0.023 A 
ATOM     73  C   UNL A   1      38.204  31.276  36.695  1.00  0.00     0.031 A 
ATOM     74  C   UNL A   1      38.929  33.371  35.753  1.00  0.00     0.131 A 
ATOM     75  C   UNL A   1      37.688  31.981  37.794  1.00  0.00     0.055 A 
ATOM     76  C   UNL A   1      38.464  34.062  36.874  1.00  0.00     0.041 A 
ATOM     77  F   UNL A   1      39.509  34.086  34.776  1.00  0.00    -0.206 F 
ATOM     78  C   UNL A   1      37.826  33.367  37.897  1.00  0.00     0.022 A 
BRANCH  75  79
ATOM     79  S   UNL A   1      36.753  31.067  39.050  1.00  0.00     0.124 S 
ATOM     80  O   UNL A   1      35.543  31.873  39.166  1.00  0.00    -0.237 OA
ATOM     81  O   UNL A   1      36.596  29.760  38.419  1.00  0.00    -0.237 OA
ATOM     82  O   UNL A   1      37.634  31.091  40.215  1.00  0.00    -0.744 OA
ENDBRANCH  75  79
ENDBRANCH  48  72
BRANCH  60  83
ATOM     83  C   UNL A   1      44.419  28.074  34.225  1.00  0.00     0.023 A 
ATOM     84  C   UNL A   1      44.471  26.924  35.032  1.00  0.00     0.031 A 
ATOM     85  C   UNL A   1      45.547  28.914  34.199  1.00  0.00     0.131 A 
ATOM     86  C   UNL A   1      45.603  26.675  35.822  1.00  0.00     0.055 A 
ATOM     87  C   UNL A   1      46.694  28.628  34.940  1.00  0.00     0.041 A 
ATOM     88  F   UNL A   1      45.552  30.027  33.448  1.00  0.00    -0.206 F 
ATOM     89  C   UNL A   1      46.722  27.510  35.767  1.00  0.00     0.022 A 
BRANCH  86  90
ATOM     90  S   UNL A   1      45.562  25.290  36.993  1.00  0.00     0.124 S 
ATOM     91  O   UNL A   1      44.156  24.899  36.951  1.00  0.00    -0.237 OA
ATOM     92  O   UNL A   1      46.503  24.348  36.395  1.00  0.00    -0.237 OA
ATOM     93  O   UNL A   1      46.001  25.890  38.251  1.00  0.00    -0.744 OA
ENDBRANCH  86  90
ENDBRANCH  60  83
ENDBRANCH  34  35
ENDBRANCH  26  29
ENDBRANCH  24  25
ENDBRANCH  23  24
ENDBRANCH   1  23
TORSDOF 18
ENDMDL
MODEL 2
REMARK VINA RESULT:     -11.3      1.961      7.671
REMARK SMILES COCCC(=O)N1[C@@H](C(=O)NCCCCNC(=O)c2ccc(-c3c4nc(c(-c5cc(S(=O)(=O)[O-])ccc5F)c5ccc([nH]5)c(-c5cc(S(=O)(=O)[O-])ccc5F)c5nc(c(-c6cc(S(=O)(=O)[O-])ccc6F)c6ccc3[nH]6)C=C5)C=C4)cc2)CC[C@H]2CCCC[C@@H]21
REMARK SMILES IDX 13 1 12 2 11 3 9 4 10 5 8 7 7 8 89 9 82 10 84 11 88 12 83 13
REMARK SMILES IDX 85 14 87 15 86 16 5 17 6 18 4 19 3 20 2 21 1 22 14 23 15 24
REMARK SMILES IDX 16 25 17 26 18 28 19 29 20 30 81 31 21 32 80 33 22 34 23 35
REMARK SMILES IDX 24 36 74 37 25 38 79 39 73 40 75 41 26 42 78 43 72 44 71 45
REMARK SMILES IDX 27 47 59 48 39 49 58 50 40 51 43 52 57 53 76 54 41 55 42 56
REMARK SMILES IDX 56 58 77 59 44 60 28 61 29 62 37 63 30 64 36 65 38 66 35 67
REMARK SMILES IDX 31 68 32 69 33 70 34 71 60 72 61 73 69 74 62 75 68 76 70 77
REMARK SMILES IDX 67 78 63 79 64 80 65 81 66 82 45 83 46 84 54 85 47 86 53 87
REMARK SMILES IDX 55 88 52 89 48 90 49 91 50 92 51 93
REMARK H PARENT 11 6 16 27 75 46 43 57
REMARK Flexibility Score: inf
ROOT
ATOM      1  C   UNL A   1      31.798  27.839  27.521  1.00  0.00     0.023 C 
ENDROOT
BRANCH   1   2
ATOM      2  C   UNL A   1      32.061  26.735  26.492  1.00  0.00     0.116 C 
BRANCH   2   3
ATOM      3  N   UNL A   1      31.235  25.571  26.747  1.00  0.00    -0.354 N 
ATOM      4  C   UNL A   1      31.481  24.246  26.526  1.00  0.00     0.242 C 
ATOM      5  O   UNL A   1      30.506  23.489  26.496  1.00  0.00    -0.273 OA
ATOM      6  H   UNL A   1      30.355  25.768  27.144  1.00  0.00     0.163 HD
BRANCH   4   7
ATOM      7  C   UNL A   1      32.898  23.712  26.191  1.00  0.00     0.174 C 
ATOM      8  N   UNL A   1      33.029  23.151  24.836  1.00  0.00    -0.327 N 
ATOM      9  C   UNL A   1      34.318  22.536  24.493  1.00  0.00     0.089 C 
ATOM     10  C   UNL A   1      33.303  22.673  27.275  1.00  0.00     0.036 C 
ATOM     11  C   UNL A   1      35.081  22.012  25.720  1.00  0.00     0.012 C 
ATOM     12  C   UNL A   1      35.298  23.452  23.733  1.00  0.00     0.025 C 
ATOM     13  C   UNL A   1      34.094  21.471  26.735  1.00  0.00     0.008 C 
ATOM     14  C   UNL A   1      36.160  21.043  25.244  1.00  0.00     0.006 C 
ATOM     15  C   UNL A   1      36.545  22.669  23.294  1.00  0.00     0.002 C 
ATOM     16  C   UNL A   1      37.181  21.818  24.401  1.00  0.00     0.000 C 
BRANCH   8  17
ATOM     17  C   UNL A   1      32.319  23.749  23.795  1.00  0.00     0.225 C 
ATOM     18  O   UNL A   1      31.499  23.147  23.109  1.00  0.00    -0.275 OA
BRANCH  17  19
ATOM     19  C   UNL A   1      32.751  25.171  23.488  1.00  0.00     0.128 C 
BRANCH  19  20
ATOM     20  C   UNL A   1      32.835  25.445  21.995  1.00  0.00     0.169 C 
BRANCH  20  21
ATOM     21  O   UNL A   1      33.867  26.383  21.665  1.00  0.00    -0.384 OA
ATOM     22  C   UNL A   1      33.628  27.695  22.149  1.00  0.00     0.194 C 
ENDBRANCH  20  21
ENDBRANCH  19  20
ENDBRANCH  17  19
ENDBRANCH   8  17
ENDBRANCH   4   7
ENDBRANCH   2   3
ENDBRANCH   1   2
BRANCH   1  23
ATOM     23  C   UNL A   1      31.897  29.266  26.977  1.00  0.00     0.023 C 
BRANCH  23  24
ATOM     24  C   UNL A   1      33.302  29.853  26.954  1.00  0.00     0.116 C 
BRANCH  24  25
ATOM     25  N   UNL A   1      33.336  31.245  27.375  1.00  0.00    -0.352 N 
ATOM     26  C   UNL A   1      34.282  31.893  28.134  1.00  0.00     0.251 C 
ATOM     27  H   UNL A   1      32.579  31.799  27.077  1.00  0.00     0.163 HD
ATOM     28  O   UNL A   1      34.074  33.040  28.519  1.00  0.00    -0.269 OA
BRANCH  26  29
ATOM     29  C   UNL A   1      35.525  31.185  28.509  1.00  0.00     0.039 A 
ATOM     30  C   UNL A   1      36.756  31.775  28.212  1.00  0.00     0.014 A 
ATOM     31  C   UNL A   1      35.475  29.961  29.182  1.00  0.00     0.014 A 
ATOM     32  C   UNL A   1      37.935  31.171  28.652  1.00  0.00     0.010 A 
ATOM     33  C   UNL A   1      36.646  29.401  29.684  1.00  0.00     0.010 A 
ATOM     34  C   UNL A   1      37.888  30.000  29.426  1.00  0.00    -0.014 A 
BRANCH  34  35
ATOM     35  C   UNL A   1      39.125  29.383  29.971  1.00  0.00     0.031 A 
ATOM     36  C   UNL A   1      39.784  29.971  31.188  1.00  0.00     0.074 A 
ATOM     37  C   UNL A   1      39.689  28.340  29.330  1.00  0.00     0.049 A 
ATOM     38  N   UNL A   1      40.910  29.637  31.764  1.00  0.00    -0.248 NA
ATOM     39  C   UNL A   1      39.100  31.109  31.822  1.00  0.00     0.031 C 
ATOM     40  C   UNL A   1      39.167  27.710  28.116  1.00  0.00     0.029 A 
ATOM     41  N   UNL A   1      40.833  27.632  29.602  1.00  0.00    -0.354 N 
ATOM     42  C   UNL A   1      41.077  30.531  32.817  1.00  0.00     0.074 A 
ATOM     43  C   UNL A   1      39.968  31.458  32.759  1.00  0.00     0.031 C 
ATOM     44  C   UNL A   1      39.973  26.697  27.762  1.00  0.00     0.029 A 
ATOM     45  C   UNL A   1      41.097  26.632  28.692  1.00  0.00     0.049 A 
ATOM     46  H   UNL A   1      41.412  27.820  30.375  1.00  0.00     0.167 HD
ATOM     47  C   UNL A   1      42.052  30.559  33.760  1.00  0.00     0.034 A 
ATOM     48  C   UNL A   1      42.130  25.772  28.610  1.00  0.00     0.034 A 
ATOM     49  C   UNL A   1      43.143  29.616  33.811  1.00  0.00     0.049 A 
ATOM     50  C   UNL A   1      43.214  25.836  29.657  1.00  0.00     0.074 A 
ATOM     51  C   UNL A   1      44.154  29.517  34.751  1.00  0.00     0.029 A 
ATOM     52  N   UNL A   1      43.373  28.613  32.876  1.00  0.00    -0.354 N 
ATOM     53  N   UNL A   1      43.329  26.653  30.678  1.00  0.00    -0.248 NA
ATOM     54  C   UNL A   1      44.301  24.853  29.547  1.00  0.00     0.031 C 
ATOM     55  C   UNL A   1      45.028  28.501  34.351  1.00  0.00     0.029 A 
ATOM     56  C   UNL A   1      44.524  27.912  33.203  1.00  0.00     0.049 A 
ATOM     57  H   UNL A   1      42.802  28.428  32.097  1.00  0.00     0.167 HD
ATOM     58  C   UNL A   1      44.485  26.261  31.349  1.00  0.00     0.074 A 
ATOM     59  C   UNL A   1      45.019  25.127  30.625  1.00  0.00     0.031 C 
ATOM     60  C   UNL A   1      45.050  26.788  32.466  1.00  0.00     0.034 A 
BRANCH  47  61
ATOM     61  C   UNL A   1      41.988  31.659  34.793  1.00  0.00     0.023 A 
ATOM     62  C   UNL A   1      41.052  31.633  35.842  1.00  0.00     0.031 A 
ATOM     63  C   UNL A   1      42.856  32.763  34.714  1.00  0.00     0.131 A 
ATOM     64  C   UNL A   1      40.952  32.723  36.720  1.00  0.00     0.055 A 
ATOM     65  C   UNL A   1      42.808  33.804  35.642  1.00  0.00     0.041 A 
ATOM     66  F   UNL A   1      43.758  32.854  33.724  1.00  0.00    -0.206 F 
ATOM     67  C   UNL A   1      41.841  33.797  36.643  1.00  0.00     0.022 A 
BRANCH  64  68
ATOM     68  S   UNL A   1      39.550  32.783  37.869  1.00  0.00     0.124 S 
ATOM     69  O   UNL A   1      40.222  32.664  39.160  1.00  0.00    -0.237 OA
ATOM     70  O   UNL A   1      38.955  34.081  37.574  1.00  0.00    -0.237 OA
ATOM     71  O   UNL A   1      38.744  31.625  37.486  1.00  0.00    -0.744 OA
ENDBRANCH  64  68
ENDBRANCH  47  61
BRANCH  48  72
ATOM     72  C   UNL A   1      42.206  24.782  27.496  1.00  0.00     0.023 A 
ATOM     73  C   UNL A   1      41.611  23.515  27.613  1.00  0.00     0.031 A 
ATOM     74  C   UNL A   1      42.914  25.071  26.317  1.00  0.00     0.131 A 
ATOM     75  C   UNL A   1      41.777  22.567  26.592  1.00  0.00     0.055 A 
ATOM     76  C   UNL A   1      43.030  24.143  25.279  1.00  0.00     0.041 A 
ATOM     77  F   UNL A   1      43.497  26.269  26.150  1.00  0.00    -0.206 F 
ATOM     78  C   UNL A   1      42.472  22.877  25.420  1.00  0.00     0.022 A 
BRANCH  75  79
ATOM     79  S   UNL A   1      41.147  20.887  26.856  1.00  0.00     0.124 S 
ATOM     80  O   UNL A   1      40.780  20.925  28.267  1.00  0.00    -0.237 OA
ATOM     81  O   UNL A   1      40.040  20.828  25.907  1.00  0.00    -0.237 OA
ATOM     82  O   UNL A   1      42.291  20.039  26.529  1.00  0.00    -0.744 OA
ENDBRANCH  75  79
ENDBRANCH  48  72
BRANCH  60  83
ATOM     83  C   UNL A   1      46.287  26.104  32.995  1.00  0.00     0.023 A 
ATOM     84  C   UNL A   1      46.213  24.981  33.836  1.00  0.00     0.031 A 
ATOM     85  C   UNL A   1      47.561  26.593  32.656  1.00  0.00     0.131 A 
ATOM     86  C   UNL A   1      47.388  24.418  34.356  1.00  0.00     0.055 A 
ATOM     87  C   UNL A   1      48.729  25.991  33.126  1.00  0.00     0.041 A 
ATOM     88  F   UNL A   1      47.692  27.665  31.857  1.00  0.00    -0.206 F 
ATOM     89  C   UNL A   1      48.647  24.905  33.992  1.00  0.00     0.022 A 
BRANCH  86  90
ATOM     90  S   UNL A   1      47.251  23.093  35.587  1.00  0.00     0.124 S 
ATOM     91  O   UNL A   1      48.626  22.612  35.669  1.00  0.00    -0.237 OA
ATOM     92  O   UNL A   1      46.755  23.806  36.760  1.00  0.00    -0.237 OA
ATOM     93  O   UNL A   1      46.302  22.159  34.984  1.00  0.00    -0.744 OA
ENDBRANCH  86  90
ENDBRANCH  60  83
ENDBRANCH  34  35
ENDBRANCH  26  29
ENDBRANCH  24  25
ENDBRANCH  23  24
ENDBRANCH   1  23
TORSDOF 18
ENDMDL
MODEL 3
REMARK VINA RESULT:     -11.2      5.066     10.328
REMARK SMILES COCCC(=O)N1[C@@H](C(=O)NCCCCNC(=O)c2ccc(-c3c4nc(c(-c5cc(S(=O)(=O)[O-])ccc5F)c5ccc([nH]5)c(-c5cc(S(=O)(=O)[O-])ccc5F)c5nc(c(-c6cc(S(=O)(=O)[O-])ccc6F)c6ccc3[nH]6)C=C5)C=C4)cc2)CC[C@H]2CCCC[C@@H]21
REMARK SMILES IDX 13 1 12 2 11 3 9 4 10 5 8 7 7 8 89 9 82 10 84 11 88 12 83 13
REMARK SMILES IDX 85 14 87 15 86 16 5 17 6 18 4 19 3 20 2 21 1 22 14 23 15 24
REMARK SMILES IDX 16 25 17 26 18 28 19 29 20 30 81 31 21 32 80 33 22 34 23 35
REMARK SMILES IDX 24 36 74 37 25 38 79 39 73 40 75 41 26 42 78 43 72 44 71 45
REMARK SMILES IDX 27 47 59 48 39 49 58 50 40 51 43 52 57 53 76 54 41 55 42 56
REMARK SMILES IDX 56 58 77 59 44 60 28 61 29 62 37 63 30 64 36 65 38 66 35 67
REMARK SMILES IDX 31 68 32 69 33 70 34 71 60 72 61 73 69 74 62 75 68 76 70 77
REMARK SMILES IDX 67 78 63 79 64 80 65 81 66 82 45 83 46 84 54 85 47 86 53 87
REMARK SMILES IDX 55 88 52 89 48 90 49 91 50 92 51 93
REMARK H PARENT 11 6 16 27 75 46 43 57
REMARK Flexibility Score: inf
ROOT
ATOM      1  C   UNL A   1      35.575  23.033  23.542  1.00  0.00     0.023 C 
ENDROOT
BRANCH   1   2
ATOM      2  C   UNL A   1      34.127  23.498  23.729  1.00  0.00     0.116 C 
BRANCH   2   3
ATOM      3  N   UNL A   1      33.626  24.150  22.534  1.00  0.00    -0.354 N 
ATOM      4  C   UNL A   1      33.041  25.373  22.373  1.00  0.00     0.242 C 
ATOM      5  O   UNL A   1      32.390  25.555  21.340  1.00  0.00    -0.273 OA
ATOM      6  H   UNL A   1      33.725  23.626  21.705  1.00  0.00     0.163 HD
BRANCH   4   7
ATOM      7  C   UNL A   1      33.064  26.454  23.485  1.00  0.00     0.174 C 
ATOM      8  N   UNL A   1      31.767  26.671  24.147  1.00  0.00    -0.327 N 
ATOM      9  C   UNL A   1      31.699  27.753  25.137  1.00  0.00     0.089 C 
ATOM     10  C   UNL A   1      33.616  27.775  22.877  1.00  0.00     0.036 C 
ATOM     11  C   UNL A   1      32.736  28.860  24.893  1.00  0.00     0.012 C 
ATOM     12  C   UNL A   1      31.876  27.309  26.603  1.00  0.00     0.025 C 
ATOM     13  C   UNL A   1      32.933  29.047  23.402  1.00  0.00     0.008 C 
ATOM     14  C   UNL A   1      32.320  30.099  25.681  1.00  0.00     0.006 C 
ATOM     15  C   UNL A   1      31.638  28.487  27.561  1.00  0.00     0.002 C 
ATOM     16  C   UNL A   1      32.381  29.774  27.179  1.00  0.00     0.000 C 
BRANCH   8  17
ATOM     17  C   UNL A   1      30.932  25.572  24.354  1.00  0.00     0.225 C 
ATOM     18  O   UNL A   1      29.842  25.445  23.806  1.00  0.00    -0.275 OA
BRANCH  17  19
ATOM     19  C   UNL A   1      31.423  24.617  25.426  1.00  0.00     0.128 C 
BRANCH  19  20
ATOM     20  C   UNL A   1      30.298  24.113  26.316  1.00  0.00     0.169 C 
BRANCH  20  21
ATOM     21  O   UNL A   1      30.751  23.168  27.293  1.00  0.00    -0.384 OA
ATOM     22  C   UNL A   1      32.158  22.987  27.309  1.00  0.00     0.194 C 
ENDBRANCH  20  21
ENDBRANCH  19  20
ENDBRANCH  17  19
ENDBRANCH   8  17
ENDBRANCH   4   7
ENDBRANCH   2   3
ENDBRANCH   1   2
BRANCH   1  23
ATOM     23  C   UNL A   1      35.943  21.751  24.293  1.00  0.00     0.023 C 
BRANCH  23  24
ATOM     24  C   UNL A   1      36.845  21.949  25.504  1.00  0.00     0.116 C 
BRANCH  24  25
ATOM     25  N   UNL A   1      37.803  20.867  25.672  1.00  0.00    -0.352 N 
ATOM     26  C   UNL A   1      39.113  20.934  26.085  1.00  0.00     0.251 C 
ATOM     27  H   UNL A   1      37.469  19.965  25.463  1.00  0.00     0.163 HD
ATOM     28  O   UNL A   1      39.822  19.934  26.028  1.00  0.00    -0.269 OA
BRANCH  26  29
ATOM     29  C   UNL A   1      39.664  22.222  26.559  1.00  0.00     0.039 A 
ATOM     30  C   UNL A   1      40.708  22.211  27.487  1.00  0.00     0.014 A 
ATOM     31  C   UNL A   1      39.175  23.433  26.062  1.00  0.00     0.014 A 
ATOM     32  C   UNL A   1      41.309  23.414  27.864  1.00  0.00     0.010 A 
ATOM     33  C   UNL A   1      39.824  24.623  26.383  1.00  0.00     0.010 A 
ATOM     34  C   UNL A   1      40.898  24.626  27.285  1.00  0.00    -0.014 A 
BRANCH  34  35
ATOM     35  C   UNL A   1      41.574  25.908  27.613  1.00  0.00     0.031 A 
ATOM     36  C   UNL A   1      40.853  26.955  28.414  1.00  0.00     0.074 A 
ATOM     37  C   UNL A   1      42.810  26.153  27.130  1.00  0.00     0.049 A 
ATOM     38  N   UNL A   1      41.233  28.167  28.728  1.00  0.00    -0.248 NA
ATOM     39  C   UNL A   1      39.509  26.603  28.898  1.00  0.00     0.031 C 
ATOM     40  C   UNL A   1      43.594  25.231  26.305  1.00  0.00     0.029 A 
ATOM     41  N   UNL A   1      43.619  27.255  27.252  1.00  0.00    -0.354 N 
ATOM     42  C   UNL A   1      40.172  28.726  29.433  1.00  0.00     0.074 A 
ATOM     43  C   UNL A   1      39.111  27.742  29.443  1.00  0.00     0.031 C 
ATOM     44  C   UNL A   1      44.777  25.795  26.015  1.00  0.00     0.029 A 
ATOM     45  C   UNL A   1      44.820  27.137  26.591  1.00  0.00     0.049 A 
ATOM     46  H   UNL A   1      43.364  28.055  27.765  1.00  0.00     0.167 HD
ATOM     47  C   UNL A   1      40.099  29.939  30.036  1.00  0.00     0.034 A 
ATOM     48  C   UNL A   1      45.834  28.013  26.453  1.00  0.00     0.034 A 
ATOM     49  C   UNL A   1      41.174  30.902  30.028  1.00  0.00     0.049 A 
ATOM     50  C   UNL A   1      45.723  29.364  27.115  1.00  0.00     0.074 A 
ATOM     51  C   UNL A   1      41.230  32.136  30.652  1.00  0.00     0.029 A 
ATOM     52  N   UNL A   1      42.378  30.745  29.353  1.00  0.00    -0.354 N 
ATOM     53  N   UNL A   1      44.734  29.857  27.823  1.00  0.00    -0.248 NA
ATOM     54  C   UNL A   1      46.869  30.270  26.968  1.00  0.00     0.031 C 
ATOM     55  C   UNL A   1      42.437  32.751  30.302  1.00  0.00     0.029 A 
ATOM     56  C   UNL A   1      43.170  31.871  29.523  1.00  0.00     0.049 A 
ATOM     57  H   UNL A   1      42.633  29.950  28.832  1.00  0.00     0.167 HD
ATOM     58  C   UNL A   1      45.154  31.120  28.233  1.00  0.00     0.074 A 
ATOM     59  C   UNL A   1      46.490  31.304  27.704  1.00  0.00     0.031 C 
ATOM     60  C   UNL A   1      44.498  32.043  28.982  1.00  0.00     0.034 A 
BRANCH  47  61
ATOM     61  C   UNL A   1      38.807  30.293  30.733  1.00  0.00     0.023 A 
ATOM     62  C   UNL A   1      37.759  30.944  30.057  1.00  0.00     0.031 A 
ATOM     63  C   UNL A   1      38.628  30.001  32.096  1.00  0.00     0.131 A 
ATOM     64  C   UNL A   1      36.616  31.352  30.762  1.00  0.00     0.055 A 
ATOM     65  C   UNL A   1      37.452  30.334  32.772  1.00  0.00     0.041 A 
ATOM     66  F   UNL A   1      39.599  29.399  32.800  1.00  0.00    -0.206 F 
ATOM     67  C   UNL A   1      36.445  31.028  32.109  1.00  0.00     0.022 A 
BRANCH  64  68
ATOM     68  S   UNL A   1      35.427  32.438  29.928  1.00  0.00     0.124 S 
ATOM     69  O   UNL A   1      36.242  33.622  29.668  1.00  0.00    -0.237 OA
ATOM     70  O   UNL A   1      35.049  31.653  28.758  1.00  0.00    -0.237 OA
ATOM     71  O   UNL A   1      34.373  32.621  30.924  1.00  0.00    -0.744 OA
ENDBRANCH  64  68
ENDBRANCH  47  61
BRANCH  48  72
ATOM     72  C   UNL A   1      47.041  27.656  25.651  1.00  0.00     0.023 A 
ATOM     73  C   UNL A   1      47.130  27.991  24.290  1.00  0.00     0.031 A 
ATOM     74  C   UNL A   1      48.103  26.933  26.222  1.00  0.00     0.131 A 
ATOM     75  C   UNL A   1      48.232  27.561  23.534  1.00  0.00     0.055 A 
ATOM     76  C   UNL A   1      49.223  26.555  25.479  1.00  0.00     0.041 A 
ATOM     77  F   UNL A   1      48.072  26.592  27.521  1.00  0.00    -0.206 F 
ATOM     78  C   UNL A   1      49.285  26.857  24.123  1.00  0.00     0.022 A 
BRANCH  75  79
ATOM     79  S   UNL A   1      48.227  27.859  21.745  1.00  0.00     0.124 S 
ATOM     80  O   UNL A   1      48.511  26.528  21.221  1.00  0.00    -0.237 OA
ATOM     81  O   UNL A   1      46.874  28.359  21.526  1.00  0.00    -0.237 OA
ATOM     82  O   UNL A   1      49.291  28.844  21.562  1.00  0.00    -0.744 OA
ENDBRANCH  75  79
ENDBRANCH  48  72
BRANCH  60  83
ATOM     83  C   UNL A   1      45.243  33.314  29.311  1.00  0.00     0.023 A 
ATOM     84  C   UNL A   1      45.165  34.453  28.492  1.00  0.00     0.031 A 
ATOM     85  C   UNL A   1      46.051  33.379  30.461  1.00  0.00     0.131 A 
ATOM     86  C   UNL A   1      45.926  35.590  28.803  1.00  0.00     0.055 A 
ATOM     87  C   UNL A   1      46.757  34.534  30.799  1.00  0.00     0.041 A 
ATOM     88  F   UNL A   1      46.164  32.319  31.278  1.00  0.00    -0.206 F 
ATOM     89  C   UNL A   1      46.708  35.644  29.961  1.00  0.00     0.022 A 
BRANCH  86  90
ATOM     90  S   UNL A   1      45.953  36.971  27.627  1.00  0.00     0.124 S 
ATOM     91  O   UNL A   1      46.826  37.926  28.302  1.00  0.00    -0.237 OA
ATOM     92  O   UNL A   1      46.499  36.348  26.426  1.00  0.00    -0.237 OA
ATOM     93  O   UNL A   1      44.551  37.371  27.534  1.00  0.00    -0.744 OA
ENDBRANCH  86  90
ENDBRANCH  60  83
ENDBRANCH  34  35
ENDBRANCH  26  29
ENDBRANCH  24  25
ENDBRANCH  23  24
ENDBRANCH   1  23
TORSDOF 18
ENDMDL
