MODEL 1
REMARK VINA RESULT:      -9.6      0.000      0.000
REMARK SMILES O=C(CC(=O)OC/C=C\c1ccccc1)NCCCCNC(=O)c1ccc(-c2c3nc(c(-c4cc(S(=O)(=O)[O-])ccc4F)c4ccc([nH]4)c(-c4cc(S(=O)(=O)[O-])ccc4F)c4nc(c(-c5cc(S(=O)(=O)[O-])ccc5F)c5ccc2[nH]5)C=C4)C=C3)cc1
REMARK SMILES IDX 17 1 16 2 1 3 2 4 3 6 4 7 5 8 6 9 7 10 8 11 9 12 10 13 11 14
REMARK SMILES IDX 15 15 12 16 14 17 13 18 18 19 19 20 20 21 21 22 22 23 23 25
REMARK SMILES IDX 24 26 25 27 86 28 26 29 85 30 27 31 28 32 29 33 79 34 30 35
REMARK SMILES IDX 84 36 78 37 80 38 31 39 83 40 77 41 76 42 32 44 64 45 44 46
REMARK SMILES IDX 63 47 45 48 48 49 62 50 81 51 46 52 47 53 61 55 82 56 49 57
REMARK SMILES IDX 33 58 34 59 42 60 35 61 41 62 43 63 40 64 36 65 37 66 38 67
REMARK SMILES IDX 39 68 65 69 66 70 74 71 67 72 73 73 75 74 72 75 68 76 69 77
REMARK SMILES IDX 70 78 71 79 50 80 51 81 59 82 52 83 58 84 60 85 57 86 53 87
REMARK SMILES IDX 54 88 55 89 56 90
REMARK H PARENT 16 5 21 24 80 43 48 54
REMARK Flexibility Score: inf
ROOT
ATOM      1  C   UNL A   1      42.838  19.073  25.773  1.00  0.00     0.116 C 
ENDROOT
BRANCH   1   2
ATOM      2  N   UNL A   1      44.160  19.591  25.480  1.00  0.00    -0.356 N 
ATOM      3  O   UNL A   1      43.453  21.646  24.734  1.00  0.00    -0.274 OA
ATOM      4  C   UNL A   1      44.364  20.858  24.977  1.00  0.00     0.231 C 
ATOM      5  H   UNL A   1      44.942  19.016  25.647  1.00  0.00     0.163 HD
BRANCH   4   6
ATOM      6  C   UNL A   1      45.794  21.183  24.656  1.00  0.00     0.222 C 
BRANCH   6   7
ATOM      7  C   UNL A   1      46.214  22.600  24.882  1.00  0.00     0.315 C 
ATOM      8  O   UNL A   1      46.178  23.439  23.988  1.00  0.00    -0.252 OA
BRANCH   7   9
ATOM      9  O   UNL A   1      46.560  22.844  26.172  1.00  0.00    -0.461 OA
BRANCH   9  10
ATOM     10  C   UNL A   1      45.628  23.634  26.923  1.00  0.00     0.260 C 
BRANCH  10  11
ATOM     11  C   UNL A   1      46.364  24.451  27.941  1.00  0.00     0.015 C 
ATOM     12  C   UNL A   1      47.250  25.437  27.715  1.00  0.00     0.007 C 
BRANCH  12  13
ATOM     13  C   UNL A   1      47.669  25.932  26.398  1.00  0.00    -0.026 A 
ATOM     14  C   UNL A   1      48.986  25.716  25.975  1.00  0.00     0.008 A 
ATOM     15  C   UNL A   1      46.798  26.650  25.570  1.00  0.00     0.008 A 
ATOM     16  C   UNL A   1      49.414  26.182  24.729  1.00  0.00     0.001 A 
ATOM     17  C   UNL A   1      47.223  27.106  24.319  1.00  0.00     0.001 A 
ATOM     18  C   UNL A   1      48.530  26.870  23.899  1.00  0.00     0.000 A 
ENDBRANCH  12  13
ENDBRANCH  10  11
ENDBRANCH   9  10
ENDBRANCH   7   9
ENDBRANCH   6   7
ENDBRANCH   4   6
ENDBRANCH   1   2
BRANCH   1  19
ATOM     19  C   UNL A   1      42.454  19.294  27.235  1.00  0.00     0.023 C 
BRANCH  19  20
ATOM     20  C   UNL A   1      41.090  19.959  27.452  1.00  0.00     0.023 C 
BRANCH  20  21
ATOM     21  C   UNL A   1      40.959  21.380  26.911  1.00  0.00     0.116 C 
BRANCH  21  22
ATOM     22  N   UNL A   1      39.664  21.635  26.305  1.00  0.00    -0.352 N 
ATOM     23  C   UNL A   1      38.923  22.794  26.279  1.00  0.00     0.251 C 
ATOM     24  H   UNL A   1      39.256  20.866  25.846  1.00  0.00     0.163 HD
ATOM     25  O   UNL A   1      37.773  22.763  25.848  1.00  0.00    -0.269 OA
BRANCH  23  26
ATOM     26  C   UNL A   1      39.490  24.059  26.799  1.00  0.00     0.039 A 
ATOM     27  C   UNL A   1      40.125  24.929  25.908  1.00  0.00     0.014 A 
ATOM     28  C   UNL A   1      39.402  24.394  28.154  1.00  0.00     0.014 A 
ATOM     29  C   UNL A   1      40.603  26.162  26.360  1.00  0.00     0.010 A 
ATOM     30  C   UNL A   1      39.811  25.655  28.587  1.00  0.00     0.010 A 
ATOM     31  C   UNL A   1      40.413  26.557  27.695  1.00  0.00    -0.014 A 
BRANCH  31  32
ATOM     32  C   UNL A   1      40.827  27.906  28.169  1.00  0.00     0.031 A 
ATOM     33  C   UNL A   1      42.283  28.282  28.213  1.00  0.00     0.074 A 
ATOM     34  C   UNL A   1      39.895  28.772  28.617  1.00  0.00     0.049 A 
ATOM     35  N   UNL A   1      42.844  29.374  28.668  1.00  0.00    -0.248 NA
ATOM     36  C   UNL A   1      43.236  27.285  27.704  1.00  0.00     0.031 C 
ATOM     37  C   UNL A   1      38.455  28.514  28.660  1.00  0.00     0.029 A 
ATOM     38  N   UNL A   1      40.018  30.041  29.131  1.00  0.00    -0.354 N 
ATOM     39  C   UNL A   1      44.214  29.195  28.506  1.00  0.00     0.074 A 
ATOM     40  C   UNL A   1      44.398  27.860  27.975  1.00  0.00     0.031 C 
ATOM     41  C   UNL A   1      37.828  29.597  29.149  1.00  0.00     0.029 A 
ATOM     42  C   UNL A   1      38.820  30.605  29.504  1.00  0.00     0.049 A 
ATOM     43  H   UNL A   1      40.883  30.503  29.222  1.00  0.00     0.167 HD
ATOM     44  C   UNL A   1      45.222  30.069  28.754  1.00  0.00     0.034 A 
ATOM     45  C   UNL A   1      38.549  31.793  30.086  1.00  0.00     0.034 A 
ATOM     46  C   UNL A   1      45.022  31.397  29.282  1.00  0.00     0.049 A 
ATOM     47  C   UNL A   1      39.690  32.732  30.392  1.00  0.00     0.074 A 
ATOM     48  C   UNL A   1      45.968  32.378  29.529  1.00  0.00     0.029 A 
ATOM     49  N   UNL A   1      43.795  31.932  29.655  1.00  0.00    -0.354 N 
ATOM     50  N   UNL A   1      40.976  32.562  30.191  1.00  0.00    -0.248 NA
ATOM     51  C   UNL A   1      39.340  34.025  30.992  1.00  0.00     0.031 C 
ATOM     52  C   UNL A   1      45.326  33.471  30.120  1.00  0.00     0.029 A 
ATOM     53  C   UNL A   1      43.966  33.212  30.162  1.00  0.00     0.049 A 
ATOM     54  H   UNL A   1      42.930  31.469  29.572  1.00  0.00     0.167 HD
ATOM     55  C   UNL A   1      41.584  33.744  30.611  1.00  0.00     0.074 A 
ATOM     56  C   UNL A   1      40.522  34.619  31.061  1.00  0.00     0.031 C 
ATOM     57  C   UNL A   1      42.900  34.075  30.620  1.00  0.00     0.034 A 
BRANCH  44  58
ATOM     58  C   UNL A   1      46.632  29.599  28.478  1.00  0.00     0.023 A 
ATOM     59  C   UNL A   1      47.359  28.850  29.421  1.00  0.00     0.031 A 
ATOM     60  C   UNL A   1      47.271  29.924  27.268  1.00  0.00     0.131 A 
ATOM     61  C   UNL A   1      48.702  28.526  29.177  1.00  0.00     0.055 A 
ATOM     62  C   UNL A   1      48.580  29.520  26.993  1.00  0.00     0.041 A 
ATOM     63  F   UNL A   1      46.639  30.654  26.335  1.00  0.00    -0.206 F 
ATOM     64  C   UNL A   1      49.310  28.831  27.958  1.00  0.00     0.022 A 
BRANCH  61  65
ATOM     65  S   UNL A   1      49.687  27.842  30.537  1.00  0.00     0.124 S 
ATOM     66  O   UNL A   1      49.901  26.469  30.085  1.00  0.00    -0.237 OA
ATOM     67  O   UNL A   1      50.864  28.704  30.540  1.00  0.00    -0.237 OA
ATOM     68  O   UNL A   1      48.811  27.978  31.698  1.00  0.00    -0.744 OA
ENDBRANCH  61  65
ENDBRANCH  44  58
BRANCH  45  69
ATOM     69  C   UNL A   1      37.146  32.158  30.436  1.00  0.00     0.023 A 
ATOM     70  C   UNL A   1      36.263  32.661  29.469  1.00  0.00     0.031 A 
ATOM     71  C   UNL A   1      36.680  32.050  31.759  1.00  0.00     0.131 A 
ATOM     72  C   UNL A   1      34.978  33.082  29.845  1.00  0.00     0.055 A 
ATOM     73  C   UNL A   1      35.381  32.414  32.118  1.00  0.00     0.041 A 
ATOM     74  F   UNL A   1      37.482  31.572  32.725  1.00  0.00    -0.206 F 
ATOM     75  C   UNL A   1      34.525  32.947  31.160  1.00  0.00     0.022 A 
BRANCH  72  76
ATOM     76  S   UNL A   1      33.931  33.896  28.606  1.00  0.00     0.124 S 
ATOM     77  O   UNL A   1      33.452  32.758  27.829  1.00  0.00    -0.237 OA
ATOM     78  O   UNL A   1      32.940  34.566  29.441  1.00  0.00    -0.237 OA
ATOM     79  O   UNL A   1      34.859  34.783  27.908  1.00  0.00    -0.744 OA
ENDBRANCH  72  76
ENDBRANCH  45  69
BRANCH  57  80
ATOM     80  C   UNL A   1      43.258  35.466  31.088  1.00  0.00     0.023 A 
ATOM     81  C   UNL A   1      43.433  36.532  30.188  1.00  0.00     0.031 A 
ATOM     82  C   UNL A   1      43.436  35.725  32.459  1.00  0.00     0.131 A 
ATOM     83  C   UNL A   1      43.831  37.791  30.663  1.00  0.00     0.055 A 
ATOM     84  C   UNL A   1      43.768  36.997  32.932  1.00  0.00     0.041 A 
ATOM     85  F   UNL A   1      43.286  34.746  33.365  1.00  0.00    -0.206 F 
ATOM     86  C   UNL A   1      43.980  38.035  32.031  1.00  0.00     0.022 A 
BRANCH  83  87
ATOM     87  S   UNL A   1      44.250  39.084  29.461  1.00  0.00     0.124 S 
ATOM     88  O   UNL A   1      45.486  39.625  30.016  1.00  0.00    -0.237 OA
ATOM     89  O   UNL A   1      44.385  38.327  28.222  1.00  0.00    -0.237 OA
ATOM     90  O   UNL A   1      43.100  39.986  29.513  1.00  0.00    -0.744 OA
ENDBRANCH  83  87
ENDBRANCH  57  80
ENDBRANCH  31  32
ENDBRANCH  23  26
ENDBRANCH  21  22
ENDBRANCH  20  21
ENDBRANCH  19  20
ENDBRANCH   1  19
TORSDOF 19
ENDMDL
MODEL 2
REMARK VINA RESULT:      -9.6      6.162     12.472
REMARK SMILES O=C(CC(=O)OC/C=C\c1ccccc1)NCCCCNC(=O)c1ccc(-c2c3nc(c(-c4cc(S(=O)(=O)[O-])ccc4F)c4ccc([nH]4)c(-c4cc(S(=O)(=O)[O-])ccc4F)c4nc(c(-c5cc(S(=O)(=O)[O-])ccc5F)c5ccc2[nH]5)C=C4)C=C3)cc1
REMARK SMILES IDX 17 1 16 2 1 3 2 4 3 6 4 7 5 8 6 9 7 10 8 11 9 12 10 13 11 14
REMARK SMILES IDX 15 15 12 16 14 17 13 18 18 19 19 20 20 21 21 22 22 23 23 25
REMARK SMILES IDX 24 26 25 27 86 28 26 29 85 30 27 31 28 32 29 33 79 34 30 35
REMARK SMILES IDX 84 36 78 37 80 38 31 39 83 40 77 41 76 42 32 44 64 45 44 46
REMARK SMILES IDX 63 47 45 48 48 49 62 50 81 51 46 52 47 53 61 55 82 56 49 57
REMARK SMILES IDX 33 58 34 59 42 60 35 61 41 62 43 63 40 64 36 65 37 66 38 67
REMARK SMILES IDX 39 68 65 69 66 70 74 71 67 72 73 73 75 74 72 75 68 76 69 77
REMARK SMILES IDX 70 78 71 79 50 80 51 81 59 82 52 83 58 84 60 85 57 86 53 87
REMARK SMILES IDX 54 88 55 89 56 90
REMARK H PARENT 16 5 21 24 80 43 48 54
REMARK Flexibility Score: inf
ROOT
ATOM      1  C   UNL A   1      32.429  29.395  25.968  1.00  0.00     0.116 C 
ENDROOT
BRANCH   1   2
ATOM      2  N   UNL A   1      32.369  28.107  25.306  1.00  0.00    -0.356 N 
ATOM      3  O   UNL A   1      34.188  28.454  23.945  1.00  0.00    -0.274 OA
ATOM      4  C   UNL A   1      33.270  27.733  24.332  1.00  0.00     0.231 C 
ATOM      5  H   UNL A   1      31.659  27.474  25.562  1.00  0.00     0.163 HD
BRANCH   4   6
ATOM      6  C   UNL A   1      32.996  26.399  23.702  1.00  0.00     0.222 C 
BRANCH   6   7
ATOM      7  C   UNL A   1      31.940  26.376  22.643  1.00  0.00     0.315 C 
ATOM      8  O   UNL A   1      32.207  26.161  21.465  1.00  0.00    -0.252 OA
BRANCH   7   9
ATOM      9  O   UNL A   1      30.691  26.548  23.145  1.00  0.00    -0.461 OA
BRANCH   9  10
ATOM     10  C   UNL A   1      30.011  27.736  22.716  1.00  0.00     0.260 C 
BRANCH  10  11
ATOM     11  C   UNL A   1      28.603  27.723  23.228  1.00  0.00     0.015 C 
ATOM     12  C   UNL A   1      27.723  28.741  23.231  1.00  0.00     0.007 C 
BRANCH  12  13
ATOM     13  C   UNL A   1      27.967  30.091  22.710  1.00  0.00    -0.026 A 
ATOM     14  C   UNL A   1      28.162  31.145  23.609  1.00  0.00     0.008 A 
ATOM     15  C   UNL A   1      27.970  30.361  21.336  1.00  0.00     0.008 A 
ATOM     16  C   UNL A   1      28.390  32.442  23.141  1.00  0.00     0.001 A 
ATOM     17  C   UNL A   1      28.208  31.654  20.867  1.00  0.00     0.001 A 
ATOM     18  C   UNL A   1      28.421  32.694  21.770  1.00  0.00     0.000 A 
ENDBRANCH  12  13
ENDBRANCH  10  11
ENDBRANCH   9  10
ENDBRANCH   7   9
ENDBRANCH   6   7
ENDBRANCH   4   6
ENDBRANCH   1   2
BRANCH   1  19
ATOM     19  C   UNL A   1      31.338  30.341  25.469  1.00  0.00     0.023 C 
BRANCH  19  20
ATOM     20  C   UNL A   1      31.254  31.680  26.207  1.00  0.00     0.023 C 
BRANCH  20  21
ATOM     21  C   UNL A   1      32.349  31.929  27.241  1.00  0.00     0.116 C 
BRANCH  21  22
ATOM     22  N   UNL A   1      32.637  33.340  27.429  1.00  0.00    -0.352 N 
ATOM     23  C   UNL A   1      33.691  33.939  28.082  1.00  0.00     0.251 C 
ATOM     24  H   UNL A   1      31.984  33.959  27.032  1.00  0.00     0.163 HD
ATOM     25  O   UNL A   1      33.672  35.153  28.267  1.00  0.00    -0.269 OA
BRANCH  23  26
ATOM     26  C   UNL A   1      34.819  33.125  28.589  1.00  0.00     0.039 A 
ATOM     27  C   UNL A   1      36.126  33.534  28.305  1.00  0.00     0.014 A 
ATOM     28  C   UNL A   1      34.601  31.966  29.340  1.00  0.00     0.014 A 
ATOM     29  C   UNL A   1      37.208  32.824  28.834  1.00  0.00     0.010 A 
ATOM     30  C   UNL A   1      35.679  31.305  29.929  1.00  0.00     0.010 A 
ATOM     31  C   UNL A   1      36.995  31.729  29.687  1.00  0.00    -0.014 A 
BRANCH  31  32
ATOM     32  C   UNL A   1      38.133  31.024  30.339  1.00  0.00     0.031 A 
ATOM     33  C   UNL A   1      38.559  31.395  31.734  1.00  0.00     0.074 A 
ATOM     34  C   UNL A   1      38.823  30.091  29.652  1.00  0.00     0.049 A 
ATOM     35  N   UNL A   1      39.571  30.954  32.437  1.00  0.00    -0.248 NA
ATOM     36  C   UNL A   1      37.754  32.418  32.417  1.00  0.00     0.031 C 
ATOM     37  C   UNL A   1      38.534  29.667  28.280  1.00  0.00     0.029 A 
ATOM     38  N   UNL A   1      39.914  29.335  30.007  1.00  0.00    -0.354 N 
ATOM     39  C   UNL A   1      39.530  31.647  33.642  1.00  0.00     0.074 A 
ATOM     40  C   UNL A   1      38.432  32.588  33.542  1.00  0.00     0.031 C 
ATOM     41  C   UNL A   1      39.408  28.714  27.920  1.00  0.00     0.029 A 
ATOM     42  C   UNL A   1      40.353  28.493  29.009  1.00  0.00     0.049 A 
ATOM     43  H   UNL A   1      40.342  29.390  30.892  1.00  0.00     0.167 HD
ATOM     44  C   UNL A   1      40.317  31.499  34.737  1.00  0.00     0.034 A 
ATOM     45  C   UNL A   1      41.408  27.653  28.968  1.00  0.00     0.034 A 
ATOM     46  C   UNL A   1      41.407  30.556  34.821  1.00  0.00     0.049 A 
ATOM     47  C   UNL A   1      42.296  27.535  30.181  1.00  0.00     0.074 A 
ATOM     48  C   UNL A   1      42.239  30.295  35.897  1.00  0.00     0.029 A 
ATOM     49  N   UNL A   1      41.826  29.726  33.789  1.00  0.00    -0.354 N 
ATOM     50  N   UNL A   1      42.215  28.169  31.328  1.00  0.00    -0.248 NA
ATOM     51  C   UNL A   1      43.409  26.582  30.098  1.00  0.00     0.031 C 
ATOM     52  C   UNL A   1      43.204  29.367  35.493  1.00  0.00     0.029 A 
ATOM     53  C   UNL A   1      42.924  28.980  34.192  1.00  0.00     0.049 A 
ATOM     54  H   UNL A   1      41.405  29.675  32.901  1.00  0.00     0.167 HD
ATOM     55  C   UNL A   1      43.249  27.664  32.114  1.00  0.00     0.074 A 
ATOM     56  C   UNL A   1      43.927  26.665  31.314  1.00  0.00     0.031 C 
ATOM     57  C   UNL A   1      43.603  27.993  33.382  1.00  0.00     0.034 A 
BRANCH  44  58
ATOM     58  C   UNL A   1      40.038  32.399  35.920  1.00  0.00     0.023 A 
ATOM     59  C   UNL A   1      39.100  32.050  36.908  1.00  0.00     0.031 A 
ATOM     60  C   UNL A   1      40.697  33.634  36.051  1.00  0.00     0.131 A 
ATOM     61  C   UNL A   1      38.786  32.957  37.931  1.00  0.00     0.055 A 
ATOM     62  C   UNL A   1      40.446  34.494  37.123  1.00  0.00     0.041 A 
ATOM     63  F   UNL A   1      41.588  34.035  35.131  1.00  0.00    -0.206 F 
ATOM     64  C   UNL A   1      39.472  34.165  38.062  1.00  0.00     0.022 A 
BRANCH  61  65
ATOM     65  S   UNL A   1      37.358  32.603  38.992  1.00  0.00     0.124 S 
ATOM     66  O   UNL A   1      36.244  32.871  38.084  1.00  0.00    -0.237 OA
ATOM     67  O   UNL A   1      37.569  31.206  39.349  1.00  0.00    -0.237 OA
ATOM     68  O   UNL A   1      37.501  33.557  40.089  1.00  0.00    -0.744 OA
ENDBRANCH  61  65
ENDBRANCH  44  58
BRANCH  45  69
ATOM     69  C   UNL A   1      41.699  26.870  27.731  1.00  0.00     0.023 A 
ATOM     70  C   UNL A   1      41.393  25.503  27.649  1.00  0.00     0.031 A 
ATOM     71  C   UNL A   1      42.330  27.471  26.627  1.00  0.00     0.131 A 
ATOM     72  C   UNL A   1      41.760  24.771  26.509  1.00  0.00     0.055 A 
ATOM     73  C   UNL A   1      42.640  26.752  25.472  1.00  0.00     0.041 A 
ATOM     74  F   UNL A   1      42.643  28.776  26.651  1.00  0.00    -0.206 F 
ATOM     75  C   UNL A   1      42.368  25.390  25.413  1.00  0.00     0.022 A 
BRANCH  72  76
ATOM     76  S   UNL A   1      41.515  22.973  26.513  1.00  0.00     0.124 S 
ATOM     77  O   UNL A   1      42.252  22.571  25.320  1.00  0.00    -0.237 OA
ATOM     78  O   UNL A   1      42.104  22.590  27.791  1.00  0.00    -0.237 OA
ATOM     79  O   UNL A   1      40.063  22.828  26.429  1.00  0.00    -0.744 OA
ENDBRANCH  72  76
ENDBRANCH  45  69
BRANCH  57  80
ATOM     80  C   UNL A   1      44.749  27.227  34.000  1.00  0.00     0.023 A 
ATOM     81  C   UNL A   1      44.545  26.037  34.722  1.00  0.00     0.031 A 
ATOM     82  C   UNL A   1      46.066  27.702  33.871  1.00  0.00     0.131 A 
ATOM     83  C   UNL A   1      45.632  25.396  35.335  1.00  0.00     0.055 A 
ATOM     84  C   UNL A   1      47.152  27.023  34.428  1.00  0.00     0.041 A 
ATOM     85  F   UNL A   1      46.322  28.834  33.197  1.00  0.00    -0.206 F 
ATOM     86  C   UNL A   1      46.937  25.870  35.176  1.00  0.00     0.022 A 
BRANCH  83  87
ATOM     87  S   UNL A   1      45.308  23.985  36.430  1.00  0.00     0.124 S 
ATOM     88  O   UNL A   1      44.667  24.628  37.572  1.00  0.00    -0.237 OA
ATOM     89  O   UNL A   1      44.448  23.142  35.606  1.00  0.00    -0.237 OA
ATOM     90  O   UNL A   1      46.640  23.442  36.691  1.00  0.00    -0.744 OA
ENDBRANCH  83  87
ENDBRANCH  57  80
ENDBRANCH  31  32
ENDBRANCH  23  26
ENDBRANCH  21  22
ENDBRANCH  20  21
ENDBRANCH  19  20
ENDBRANCH   1  19
TORSDOF 19
ENDMDL
MODEL 3
REMARK VINA RESULT:      -9.5      5.349     11.325
REMARK SMILES O=C(CC(=O)OC/C=C\c1ccccc1)NCCCCNC(=O)c1ccc(-c2c3nc(c(-c4cc(S(=O)(=O)[O-])ccc4F)c4ccc([nH]4)c(-c4cc(S(=O)(=O)[O-])ccc4F)c4nc(c(-c5cc(S(=O)(=O)[O-])ccc5F)c5ccc2[nH]5)C=C4)C=C3)cc1
REMARK SMILES IDX 17 1 16 2 1 3 2 4 3 6 4 7 5 8 6 9 7 10 8 11 9 12 10 13 11 14
REMARK SMILES IDX 15 15 12 16 14 17 13 18 18 19 19 20 20 21 21 22 22 23 23 25
REMARK SMILES IDX 24 26 25 27 86 28 26 29 85 30 27 31 28 32 29 33 79 34 30 35
REMARK SMILES IDX 84 36 78 37 80 38 31 39 83 40 77 41 76 42 32 44 64 45 44 46
REMARK SMILES IDX 63 47 45 48 48 49 62 50 81 51 46 52 47 53 61 55 82 56 49 57
REMARK SMILES IDX 33 58 34 59 42 60 35 61 41 62 43 63 40 64 36 65 37 66 38 67
REMARK SMILES IDX 39 68 65 69 66 70 74 71 67 72 73 73 75 74 72 75 68 76 69 77
REMARK SMILES IDX 70 78 71 79 50 80 51 81 59 82 52 83 58 84 60 85 57 86 53 87
REMARK SMILES IDX 54 88 55 89 56 90
REMARK H PARENT 16 5 21 24 80 43 48 54
REMARK Flexibility Score: inf
ROOT
ATOM      1  C   UNL A   1      31.423  28.057  24.978  1.00  0.00     0.116 C 
ENDROOT
BRANCH   1   2
ATOM      2  N   UNL A   1      31.928  27.031  24.087  1.00  0.00    -0.356 N 
ATOM      3  O   UNL A   1      30.758  27.725  22.235  1.00  0.00    -0.274 OA
ATOM      4  C   UNL A   1      31.549  26.948  22.764  1.00  0.00     0.231 C 
ATOM      5  H   UNL A   1      32.566  26.369  24.439  1.00  0.00     0.163 HD
BRANCH   4   6
ATOM      6  C   UNL A   1      32.109  25.768  22.024  1.00  0.00     0.222 C 
BRANCH   6   7
ATOM      7  C   UNL A   1      32.014  24.448  22.722  1.00  0.00     0.315 C 
ATOM      8  O   UNL A   1      32.923  23.626  22.681  1.00  0.00    -0.252 OA
BRANCH   7   9
ATOM      9  O   UNL A   1      30.868  24.314  23.434  1.00  0.00    -0.461 OA
BRANCH   9  10
ATOM     10  C   UNL A   1      30.909  23.351  24.497  1.00  0.00     0.260 C 
BRANCH  10  11
ATOM     11  C   UNL A   1      30.960  24.059  25.817  1.00  0.00     0.015 C 
ATOM     12  C   UNL A   1      32.029  24.225  26.616  1.00  0.00     0.007 C 
BRANCH  12  13
ATOM     13  C   UNL A   1      33.391  23.750  26.342  1.00  0.00    -0.026 A 
ATOM     14  C   UNL A   1      34.292  24.600  25.692  1.00  0.00     0.008 A 
ATOM     15  C   UNL A   1      33.800  22.454  26.678  1.00  0.00     0.008 A 
ATOM     16  C   UNL A   1      35.592  24.171  25.413  1.00  0.00     0.001 A 
ATOM     17  C   UNL A   1      35.103  22.029  26.410  1.00  0.00     0.001 A 
ATOM     18  C   UNL A   1      35.999  22.889  25.779  1.00  0.00     0.000 A 
ENDBRANCH  12  13
ENDBRANCH  10  11
ENDBRANCH   9  10
ENDBRANCH   7   9
ENDBRANCH   6   7
ENDBRANCH   4   6
ENDBRANCH   1   2
BRANCH   1  19
ATOM     19  C   UNL A   1      31.823  27.796  26.429  1.00  0.00     0.023 C 
BRANCH  19  20
ATOM     20  C   UNL A   1      33.331  27.834  26.701  1.00  0.00     0.023 C 
BRANCH  20  21
ATOM     21  C   UNL A   1      34.091  28.975  26.031  1.00  0.00     0.116 C 
BRANCH  21  22
ATOM     22  N   UNL A   1      33.700  30.282  26.530  1.00  0.00    -0.352 N 
ATOM     23  C   UNL A   1      34.269  31.047  27.522  1.00  0.00     0.251 C 
ATOM     24  H   UNL A   1      32.911  30.679  26.094  1.00  0.00     0.163 HD
ATOM     25  O   UNL A   1      33.692  32.061  27.906  1.00  0.00    -0.269 OA
BRANCH  23  26
ATOM     26  C   UNL A   1      35.546  30.633  28.148  1.00  0.00     0.039 A 
ATOM     27  C   UNL A   1      35.509  29.786  29.259  1.00  0.00     0.014 A 
ATOM     28  C   UNL A   1      36.776  31.073  27.650  1.00  0.00     0.014 A 
ATOM     29  C   UNL A   1      36.701  29.322  29.822  1.00  0.00     0.010 A 
ATOM     30  C   UNL A   1      37.963  30.549  28.165  1.00  0.00     0.010 A 
ATOM     31  C   UNL A   1      37.939  29.664  29.254  1.00  0.00    -0.014 A 
BRANCH  31  32
ATOM     32  C   UNL A   1      39.213  29.100  29.780  1.00  0.00     0.031 A 
ATOM     33  C   UNL A   1      39.898  29.739  30.958  1.00  0.00     0.074 A 
ATOM     34  C   UNL A   1      39.785  28.048  29.159  1.00  0.00     0.049 A 
ATOM     35  N   UNL A   1      41.049  29.444  31.508  1.00  0.00    -0.248 NA
ATOM     36  C   UNL A   1      39.209  30.879  31.581  1.00  0.00     0.031 C 
ATOM     37  C   UNL A   1      39.240  27.362  27.986  1.00  0.00     0.029 A 
ATOM     38  N   UNL A   1      40.955  27.376  29.420  1.00  0.00    -0.354 N 
ATOM     39  C   UNL A   1      41.226  30.363  32.537  1.00  0.00     0.074 A 
ATOM     40  C   UNL A   1      40.095  31.266  32.486  1.00  0.00     0.031 C 
ATOM     41  C   UNL A   1      40.060  26.355  27.644  1.00  0.00     0.029 A 
ATOM     42  C   UNL A   1      41.215  26.353  28.536  1.00  0.00     0.049 A 
ATOM     43  H   UNL A   1      41.551  27.604  30.169  1.00  0.00     0.167 HD
ATOM     44  C   UNL A   1      42.225  30.433  33.453  1.00  0.00     0.034 A 
ATOM     45  C   UNL A   1      42.271  25.520  28.440  1.00  0.00     0.034 A 
ATOM     46  C   UNL A   1      43.345  29.524  33.491  1.00  0.00     0.049 A 
ATOM     47  C   UNL A   1      43.391  25.643  29.443  1.00  0.00     0.074 A 
ATOM     48  C   UNL A   1      44.388  29.479  34.401  1.00  0.00     0.029 A 
ATOM     49  N   UNL A   1      43.579  28.505  32.575  1.00  0.00    -0.354 N 
ATOM     50  N   UNL A   1      43.521  26.491  30.437  1.00  0.00    -0.248 NA
ATOM     51  C   UNL A   1      44.501  24.690  29.317  1.00  0.00     0.031 C 
ATOM     52  C   UNL A   1      45.287  28.488  33.993  1.00  0.00     0.029 A 
ATOM     53  C   UNL A   1      44.764  27.852  32.879  1.00  0.00     0.049 A 
ATOM     54  H   UNL A   1      42.988  28.280  31.821  1.00  0.00     0.167 HD
ATOM     55  C   UNL A   1      44.712  26.150  31.074  1.00  0.00     0.074 A 
ATOM     56  C   UNL A   1      45.252  25.012  30.360  1.00  0.00     0.031 C 
ATOM     57  C   UNL A   1      45.302  26.724  32.153  1.00  0.00     0.034 A 
BRANCH  44  58
ATOM     58  C   UNL A   1      42.157  31.549  34.470  1.00  0.00     0.023 A 
ATOM     59  C   UNL A   1      41.255  31.510  35.550  1.00  0.00     0.031 A 
ATOM     60  C   UNL A   1      42.983  32.681  34.348  1.00  0.00     0.131 A 
ATOM     61  C   UNL A   1      41.143  32.613  36.411  1.00  0.00     0.055 A 
ATOM     62  C   UNL A   1      42.929  33.736  35.263  1.00  0.00     0.041 A 
ATOM     63  F   UNL A   1      43.850  32.788  33.329  1.00  0.00    -0.206 F 
ATOM     64  C   UNL A   1      41.992  33.713  36.292  1.00  0.00     0.022 A 
BRANCH  61  65
ATOM     65  S   UNL A   1      39.762  32.652  37.587  1.00  0.00     0.124 S 
ATOM     66  O   UNL A   1      38.943  31.537  37.116  1.00  0.00    -0.237 OA
ATOM     67  O   UNL A   1      40.432  32.457  38.867  1.00  0.00    -0.237 OA
ATOM     68  O   UNL A   1      39.176  33.975  37.384  1.00  0.00    -0.744 OA
ENDBRANCH  61  65
ENDBRANCH  44  58
BRANCH  45  69
ATOM     69  C   UNL A   1      42.336  24.507  27.346  1.00  0.00     0.023 A 
ATOM     70  C   UNL A   1      41.562  23.338  27.393  1.00  0.00     0.031 A 
ATOM     71  C   UNL A   1      43.209  24.675  26.257  1.00  0.00     0.131 A 
ATOM     72  C   UNL A   1      41.709  22.360  26.396  1.00  0.00     0.055 A 
ATOM     73  C   UNL A   1      43.309  23.727  25.237  1.00  0.00     0.041 A 
ATOM     74  F   UNL A   1      43.971  25.776  26.160  1.00  0.00    -0.206 F 
ATOM     75  C   UNL A   1      42.566  22.554  25.310  1.00  0.00     0.022 A 
BRANCH  72  76
ATOM     76  S   UNL A   1      40.830  20.784  26.586  1.00  0.00     0.124 S 
ATOM     77  O   UNL A   1      41.654  19.887  25.785  1.00  0.00    -0.237 OA
ATOM     78  O   UNL A   1      40.879  20.583  28.030  1.00  0.00    -0.237 OA
ATOM     79  O   UNL A   1      39.503  21.067  26.043  1.00  0.00    -0.744 OA
ENDBRANCH  72  76
ENDBRANCH  45  69
BRANCH  57  80
ATOM     80  C   UNL A   1      46.580  26.093  32.657  1.00  0.00     0.023 A 
ATOM     81  C   UNL A   1      46.574  25.066  33.618  1.00  0.00     0.031 A 
ATOM     82  C   UNL A   1      47.824  26.535  32.173  1.00  0.00     0.131 A 
ATOM     83  C   UNL A   1      47.787  24.557  34.105  1.00  0.00     0.055 A 
ATOM     84  C   UNL A   1      49.026  25.978  32.613  1.00  0.00     0.041 A 
ATOM     85  F   UNL A   1      47.892  27.515  31.257  1.00  0.00    -0.206 F 
ATOM     86  C   UNL A   1      49.013  24.993  33.595  1.00  0.00     0.022 A 
BRANCH  83  87
ATOM     87  S   UNL A   1      47.748  23.385  35.491  1.00  0.00     0.124 S 
ATOM     88  O   UNL A   1      46.969  22.284  34.934  1.00  0.00    -0.237 OA
ATOM     89  O   UNL A   1      49.165  23.116  35.712  1.00  0.00    -0.237 OA
ATOM     90  O   UNL A   1      47.086  24.136  36.556  1.00  0.00    -0.744 OA
ENDBRANCH  83  87
ENDBRANCH  57  80
ENDBRANCH  31  32
ENDBRANCH  23  26
ENDBRANCH  21  22
ENDBRANCH  20  21
ENDBRANCH  19  20
ENDBRANCH   1  19
TORSDOF 19
ENDMDL
