MODEL 1
REMARK VINA RESULT:     -14.2      0.000      0.000
REMARK SMILES Cc1ccc(N2C(=O)[NH+]=C(NCCCCNC(=O)c3ccc(-c4c5nc(c(-c6cc(S(=O)(=O)[O-])ccc6F)c6ccc([nH]6)c(-c6cc(S(=O)(=O)[O-])ccc6F)c6nc(c(-c7cc(S(=O)(=O)[O-])ccc7F)c7ccc4[nH]7)C=C6)C=C5)cc3)/C(=C\c3ccccc3OCc3cccc(C(=O)[O-])c3)C2=O)cc1
REMARK SMILES IDX 13 1 12 2 11 3 6 4 7 5 101 6 8 7 9 8 82 9 102 10 10 11 83 13
REMARK SMILES IDX 5 15 1 16 2 17 3 18 104 19 4 20 103 21 84 22 85 23 89 24
REMARK SMILES IDX 86 25 88 26 87 27 90 28 91 29 92 30 93 31 100 32 94 33 96 34
REMARK SMILES IDX 95 35 97 36 98 37 99 38 14 39 15 40 16 41 17 42 18 44 19 45
REMARK SMILES IDX 20 46 81 47 21 48 80 49 22 50 23 51 24 52 74 53 25 54 79 55
REMARK SMILES IDX 73 56 75 57 26 58 78 59 72 60 71 61 27 63 59 64 39 65 58 66
REMARK SMILES IDX 40 67 43 68 57 69 76 70 41 71 42 72 56 74 77 75 44 76 28 77
REMARK SMILES IDX 29 78 37 79 30 80 36 81 38 82 35 83 31 84 32 85 33 86 34 87
REMARK SMILES IDX 60 88 61 89 69 90 62 91 68 92 70 93 67 94 63 95 64 96 65 97
REMARK SMILES IDX 66 98 45 99 46 100 54 101 47 102 53 103 55 104 52 105 48 106
REMARK SMILES IDX 49 107 50 108 51 109
REMARK H PARENT 9 12 11 14 16 43 75 62 43 73
REMARK Flexibility Score: inf
ROOT
ATOM      1  C   UNL A   1      32.541  31.234  26.457  1.00  0.00     0.039 C 
ENDROOT
BRANCH   1   2
ATOM      2  C   UNL A   1      31.390  30.399  25.891  1.00  0.00     0.194 C 
BRANCH   2   3
ATOM      3  N   UNL A   1      31.769  29.798  24.609  1.00  0.00    -0.305 N 
ATOM      4  N   UNL A   1      33.895  26.230  24.250  1.00  0.00    -0.155 N 
ATOM      5  C   UNL A   1      33.787  26.946  25.456  1.00  0.00     0.448 C 
ATOM      6  C   UNL A   1      33.337  26.695  23.067  1.00  0.00     0.328 C 
ATOM      7  O   UNL A   1      34.339  26.564  26.488  1.00  0.00    -0.212 OA
ATOM      8  N   UNL A   1      33.138  28.151  25.475  1.00  0.00    -0.209 N 
ATOM      9  C   UNL A   1      32.309  27.747  23.265  1.00  0.00     0.129 C 
ATOM     10  O   UNL A   1      33.541  26.249  21.936  1.00  0.00    -0.249 OA
ATOM     11  C   UNL A   1      32.404  28.576  24.495  1.00  0.00     0.236 C 
ATOM     12  H   UNL A   1      33.232  28.721  26.272  1.00  0.00     0.270 HD
ATOM     13  C   UNL A   1      31.288  27.715  22.384  1.00  0.00     0.034 C 
ATOM     14  H   UNL A   1      31.560  30.293  23.783  1.00  0.00     0.256 HD
BRANCH   4  15
ATOM     15  C   UNL A   1      34.621  24.983  24.241  1.00  0.00     0.111 A 
ATOM     16  C   UNL A   1      36.811  21.242  24.259  1.00  0.00     0.044 C 
ATOM     17  C   UNL A   1      36.051  22.534  24.246  1.00  0.00    -0.051 A 
ATOM     18  C   UNL A   1      36.092  23.381  25.355  1.00  0.00     0.007 A 
ATOM     19  C   UNL A   1      35.273  22.901  23.147  1.00  0.00     0.007 A 
ATOM     20  C   UNL A   1      35.394  24.594  25.347  1.00  0.00     0.044 A 
ATOM     21  C   UNL A   1      34.565  24.108  23.147  1.00  0.00     0.044 A 
ENDBRANCH   4  15
BRANCH  13  22
ATOM     22  C   UNL A   1      29.996  28.400  22.480  1.00  0.00     0.018 A 
ATOM     23  C   UNL A   1      29.945  29.724  22.019  1.00  0.00     0.012 A 
ATOM     24  C   UNL A   1      28.828  27.801  22.988  1.00  0.00     0.127 A 
ATOM     25  C   UNL A   1      28.772  30.465  22.122  1.00  0.00     0.001 A 
ATOM     26  C   UNL A   1      27.666  28.560  23.123  1.00  0.00     0.047 A 
ATOM     27  C   UNL A   1      27.638  29.884  22.679  1.00  0.00     0.004 A 
BRANCH  24  28
ATOM     28  O   UNL A   1      28.785  26.536  23.517  1.00  0.00    -0.488 OA
BRANCH  28  29
ATOM     29  C   UNL A   1      29.573  26.357  24.697  1.00  0.00     0.265 C 
BRANCH  29  30
ATOM     30  C   UNL A   1      30.395  25.089  24.596  1.00  0.00    -0.010 A 
ATOM     31  C   UNL A   1      30.435  24.361  23.395  1.00  0.00     0.007 A 
ATOM     32  C   UNL A   1      31.052  24.566  25.722  1.00  0.00     0.017 A 
ATOM     33  C   UNL A   1      31.113  23.141  23.318  1.00  0.00     0.001 A 
ATOM     34  C   UNL A   1      31.712  23.331  25.652  1.00  0.00    -0.002 A 
ATOM     35  C   UNL A   1      31.740  22.620  24.448  1.00  0.00     0.010 A 
BRANCH  34  36
ATOM     36  C   UNL A   1      32.342  22.710  26.841  1.00  0.00     0.071 C 
ATOM     37  O   UNL A   1      32.084  22.969  27.999  1.00  0.00    -0.545 OA
ATOM     38  O   UNL A   1      33.268  21.805  26.498  1.00  0.00    -0.545 OA
ENDBRANCH  34  36
ENDBRANCH  29  30
ENDBRANCH  28  29
ENDBRANCH  24  28
ENDBRANCH  13  22
ENDBRANCH   2   3
ENDBRANCH   1   2
BRANCH   1  39
ATOM     39  C   UNL A   1      33.124  30.741  27.783  1.00  0.00     0.024 C 
BRANCH  39  40
ATOM     40  C   UNL A   1      34.652  30.626  27.794  1.00  0.00     0.116 C 
BRANCH  40  41
ATOM     41  N   UNL A   1      35.242  31.326  28.945  1.00  0.00    -0.352 N 
ATOM     42  C   UNL A   1      36.365  31.048  29.696  1.00  0.00     0.251 C 
ATOM     43  H   UNL A   1      34.751  32.131  29.228  1.00  0.00     0.163 HD
ATOM     44  O   UNL A   1      36.753  31.822  30.568  1.00  0.00    -0.269 OA
BRANCH  42  45
ATOM     45  C   UNL A   1      37.176  29.857  29.375  1.00  0.00     0.039 A 
ATOM     46  C   UNL A   1      37.404  28.915  30.387  1.00  0.00     0.014 A 
ATOM     47  C   UNL A   1      37.863  29.779  28.172  1.00  0.00     0.014 A 
ATOM     48  C   UNL A   1      38.514  28.079  30.304  1.00  0.00     0.010 A 
ATOM     49  C   UNL A   1      39.004  29.008  28.126  1.00  0.00     0.010 A 
ATOM     50  C   UNL A   1      39.372  28.222  29.218  1.00  0.00    -0.014 A 
BRANCH  50  51
ATOM     51  C   UNL A   1      40.720  27.676  29.167  1.00  0.00     0.031 A 
ATOM     52  C   UNL A   1      40.945  26.307  28.679  1.00  0.00     0.074 A 
ATOM     53  C   UNL A   1      41.769  28.458  29.501  1.00  0.00     0.049 A 
ATOM     54  N   UNL A   1      41.911  25.546  29.063  1.00  0.00    -0.248 NA
ATOM     55  C   UNL A   1      40.060  25.678  27.707  1.00  0.00     0.031 C 
ATOM     56  C   UNL A   1      43.188  28.145  29.364  1.00  0.00     0.029 A 
ATOM     57  N   UNL A   1      41.738  29.607  30.289  1.00  0.00    -0.354 N 
ATOM     58  C   UNL A   1      41.951  24.469  28.209  1.00  0.00     0.074 A 
ATOM     59  C   UNL A   1      40.743  24.566  27.421  1.00  0.00     0.031 C 
ATOM     60  C   UNL A   1      43.871  28.862  30.271  1.00  0.00     0.029 A 
ATOM     61  C   UNL A   1      42.900  29.585  31.078  1.00  0.00     0.049 A 
ATOM     62  H   UNL A   1      41.037  30.299  30.294  1.00  0.00     0.167 HD
ATOM     63  C   UNL A   1      43.069  23.690  28.157  1.00  0.00     0.034 A 
ATOM     64  C   UNL A   1      42.822  29.563  32.439  1.00  0.00     0.034 A 
ATOM     65  C   UNL A   1      44.083  24.140  29.110  1.00  0.00     0.049 A 
ATOM     66  C   UNL A   1      43.418  28.302  33.014  1.00  0.00     0.074 A 
ATOM     67  C   UNL A   1      45.214  24.926  28.969  1.00  0.00     0.029 A 
ATOM     68  N   UNL A   1      43.823  24.071  30.479  1.00  0.00    -0.354 N 
ATOM     69  N   UNL A   1      43.636  27.222  32.310  1.00  0.00    -0.248 NA
ATOM     70  C   UNL A   1      43.841  28.163  34.403  1.00  0.00     0.031 C 
ATOM     71  C   UNL A   1      45.561  25.427  30.251  1.00  0.00     0.029 A 
ATOM     72  C   UNL A   1      44.674  24.905  31.180  1.00  0.00     0.049 A 
ATOM     73  H   UNL A   1      43.129  23.506  30.890  1.00  0.00     0.167 HD
ATOM     74  C   UNL A   1      44.223  26.274  33.100  1.00  0.00     0.074 A 
ATOM     75  C   UNL A   1      44.338  26.913  34.402  1.00  0.00     0.031 C 
ATOM     76  C   UNL A   1      44.581  25.041  32.627  1.00  0.00     0.034 A 
BRANCH  63  77
ATOM     77  C   UNL A   1      43.336  22.750  27.006  1.00  0.00     0.023 A 
ATOM     78  C   UNL A   1      42.837  21.432  27.041  1.00  0.00     0.031 A 
ATOM     79  C   UNL A   1      44.112  23.077  25.876  1.00  0.00     0.131 A 
ATOM     80  C   UNL A   1      43.197  20.488  26.061  1.00  0.00     0.055 A 
ATOM     81  C   UNL A   1      44.524  22.124  24.936  1.00  0.00     0.041 A 
ATOM     82  F   UNL A   1      44.473  24.345  25.624  1.00  0.00    -0.206 F 
ATOM     83  C   UNL A   1      44.077  20.815  25.032  1.00  0.00     0.022 A 
BRANCH  80  84
ATOM     84  S   UNL A   1      42.481  18.821  26.133  1.00  0.00     0.124 S 
ATOM     85  O   UNL A   1      41.097  19.062  25.738  1.00  0.00    -0.237 OA
ATOM     86  O   UNL A   1      43.308  18.089  25.179  1.00  0.00    -0.237 OA
ATOM     87  O   UNL A   1      42.665  18.433  27.531  1.00  0.00    -0.744 OA
ENDBRANCH  80  84
ENDBRANCH  63  77
BRANCH  64  88
ATOM     88  C   UNL A   1      41.640  30.316  32.954  1.00  0.00     0.023 A 
ATOM     89  C   UNL A   1      41.689  31.725  32.832  1.00  0.00     0.031 A 
ATOM     90  C   UNL A   1      40.382  29.715  33.088  1.00  0.00     0.131 A 
ATOM     91  C   UNL A   1      40.508  32.456  32.632  1.00  0.00     0.055 A 
ATOM     92  C   UNL A   1      39.205  30.468  32.973  1.00  0.00     0.041 A 
ATOM     93  F   UNL A   1      40.267  28.384  33.188  1.00  0.00    -0.206 F 
ATOM     94  C   UNL A   1      39.264  31.832  32.685  1.00  0.00     0.022 A 
BRANCH  91  95
ATOM     95  S   UNL A   1      40.655  34.163  32.030  1.00  0.00     0.124 S 
ATOM     96  O   UNL A   1      41.388  34.806  33.114  1.00  0.00    -0.237 OA
ATOM     97  O   UNL A   1      41.383  33.983  30.775  1.00  0.00    -0.237 OA
ATOM     98  O   UNL A   1      39.270  34.597  31.861  1.00  0.00    -0.744 OA
ENDBRANCH  91  95
ENDBRANCH  64  88
BRANCH  76  99
ATOM     99  C   UNL A   1      45.006  23.905  33.517  1.00  0.00     0.023 A 
ATOM    100  C   UNL A   1      46.315  23.789  34.001  1.00  0.00     0.031 A 
ATOM    101  C   UNL A   1      44.088  22.929  33.963  1.00  0.00     0.131 A 
ATOM    102  C   UNL A   1      46.711  22.676  34.755  1.00  0.00     0.055 A 
ATOM    103  C   UNL A   1      44.461  21.875  34.803  1.00  0.00     0.041 A 
ATOM    104  F   UNL A   1      42.797  22.958  33.602  1.00  0.00    -0.206 F 
ATOM    105  C   UNL A   1      45.787  21.727  35.182  1.00  0.00     0.022 A 
BRANCH 102 106
ATOM    106  S   UNL A   1      48.481  22.451  35.059  1.00  0.00     0.124 S 
ATOM    107  O   UNL A   1      49.066  23.360  34.076  1.00  0.00    -0.237 OA
ATOM    108  O   UNL A   1      48.616  22.854  36.453  1.00  0.00    -0.237 OA
ATOM    109  O   UNL A   1      48.697  21.030  34.796  1.00  0.00    -0.744 OA
ENDBRANCH 102 106
ENDBRANCH  76  99
ENDBRANCH  50  51
ENDBRANCH  42  45
ENDBRANCH  40  41
ENDBRANCH  39  40
ENDBRANCH   1  39
TORSDOF 19
ENDMDL
MODEL 2
REMARK VINA RESULT:     -13.3      2.196      3.714
REMARK SMILES Cc1ccc(N2C(=O)[NH+]=C(NCCCCNC(=O)c3ccc(-c4c5nc(c(-c6cc(S(=O)(=O)[O-])ccc6F)c6ccc([nH]6)c(-c6cc(S(=O)(=O)[O-])ccc6F)c6nc(c(-c7cc(S(=O)(=O)[O-])ccc7F)c7ccc4[nH]7)C=C6)C=C5)cc3)/C(=C\c3ccccc3OCc3cccc(C(=O)[O-])c3)C2=O)cc1
REMARK SMILES IDX 13 1 12 2 11 3 6 4 7 5 101 6 8 7 9 8 82 9 102 10 10 11 83 13
REMARK SMILES IDX 5 15 1 16 2 17 3 18 104 19 4 20 103 21 84 22 85 23 89 24
REMARK SMILES IDX 86 25 88 26 87 27 90 28 91 29 92 30 93 31 100 32 94 33 96 34
REMARK SMILES IDX 95 35 97 36 98 37 99 38 14 39 15 40 16 41 17 42 18 44 19 45
REMARK SMILES IDX 20 46 81 47 21 48 80 49 22 50 23 51 24 52 74 53 25 54 79 55
REMARK SMILES IDX 73 56 75 57 26 58 78 59 72 60 71 61 27 63 59 64 39 65 58 66
REMARK SMILES IDX 40 67 43 68 57 69 76 70 41 71 42 72 56 74 77 75 44 76 28 77
REMARK SMILES IDX 29 78 37 79 30 80 36 81 38 82 35 83 31 84 32 85 33 86 34 87
REMARK SMILES IDX 60 88 61 89 69 90 62 91 68 92 70 93 67 94 63 95 64 96 65 97
REMARK SMILES IDX 66 98 45 99 46 100 54 101 47 102 53 103 55 104 52 105 48 106
REMARK SMILES IDX 49 107 50 108 51 109
REMARK H PARENT 9 12 11 14 16 43 75 62 43 73
REMARK Flexibility Score: inf
ROOT
ATOM      1  C   UNL A   1      31.362  28.306  26.624  1.00  0.00     0.039 C 
ENDROOT
BRANCH   1   2
ATOM      2  C   UNL A   1      31.173  26.787  26.634  1.00  0.00     0.194 C 
BRANCH   2   3
ATOM      3  N   UNL A   1      32.436  26.108  26.328  1.00  0.00    -0.305 N 
ATOM      4  N   UNL A   1      32.735  22.051  25.415  1.00  0.00    -0.155 N 
ATOM      5  C   UNL A   1      31.588  22.632  25.985  1.00  0.00     0.448 C 
ATOM      6  C   UNL A   1      33.883  22.790  25.162  1.00  0.00     0.328 C 
ATOM      7  O   UNL A   1      30.595  21.960  26.269  1.00  0.00    -0.212 OA
ATOM      8  N   UNL A   1      31.595  23.956  26.329  1.00  0.00    -0.209 N 
ATOM      9  C   UNL A   1      33.659  24.256  25.152  1.00  0.00     0.129 C 
ATOM     10  O   UNL A   1      34.989  22.341  24.854  1.00  0.00    -0.249 OA
ATOM     11  C   UNL A   1      32.519  24.782  25.949  1.00  0.00     0.236 C 
ATOM     12  H   UNL A   1      30.863  24.298  26.891  1.00  0.00     0.270 HD
ATOM     13  C   UNL A   1      34.415  24.940  24.269  1.00  0.00     0.034 C 
ATOM     14  H   UNL A   1      33.271  26.626  26.397  1.00  0.00     0.256 HD
BRANCH   4  15
ATOM     15  C   UNL A   1      32.723  20.643  25.100  1.00  0.00     0.111 A 
ATOM     16  C   UNL A   1      32.685  16.403  24.198  1.00  0.00     0.044 C 
ATOM     17  C   UNL A   1      32.696  17.870  24.503  1.00  0.00    -0.051 A 
ATOM     18  C   UNL A   1      32.927  18.313  25.808  1.00  0.00     0.007 A 
ATOM     19  C   UNL A   1      32.454  18.815  23.505  1.00  0.00     0.007 A 
ATOM     20  C   UNL A   1      32.948  19.682  26.098  1.00  0.00     0.044 A 
ATOM     21  C   UNL A   1      32.462  20.183  23.802  1.00  0.00     0.044 A 
ENDBRANCH   4  15
BRANCH  13  22
ATOM     22  C   UNL A   1      34.233  26.319  23.807  1.00  0.00     0.018 A 
ATOM     23  C   UNL A   1      34.459  27.337  24.745  1.00  0.00     0.012 A 
ATOM     24  C   UNL A   1      33.864  26.661  22.493  1.00  0.00     0.127 A 
ATOM     25  C   UNL A   1      34.257  28.671  24.405  1.00  0.00     0.001 A 
ATOM     26  C   UNL A   1      33.627  27.997  22.169  1.00  0.00     0.047 A 
ATOM     27  C   UNL A   1      33.836  28.997  23.121  1.00  0.00     0.004 A 
BRANCH  24  28
ATOM     28  O   UNL A   1      33.564  25.744  21.518  1.00  0.00    -0.488 OA
BRANCH  28  29
ATOM     29  C   UNL A   1      32.267  25.899  20.934  1.00  0.00     0.265 C 
BRANCH  29  30
ATOM     30  C   UNL A   1      31.227  26.129  22.010  1.00  0.00    -0.010 A 
ATOM     31  C   UNL A   1      30.796  25.067  22.822  1.00  0.00     0.007 A 
ATOM     32  C   UNL A   1      30.604  27.380  22.153  1.00  0.00     0.017 A 
ATOM     33  C   UNL A   1      29.769  25.245  23.753  1.00  0.00     0.001 A 
ATOM     34  C   UNL A   1      29.557  27.554  23.070  1.00  0.00    -0.002 A 
ATOM     35  C   UNL A   1      29.141  26.484  23.869  1.00  0.00     0.010 A 
BRANCH  34  36
ATOM     36  C   UNL A   1      28.822  28.835  23.186  1.00  0.00     0.071 C 
ATOM     37  O   UNL A   1      29.308  29.910  23.476  1.00  0.00    -0.545 OA
ATOM     38  O   UNL A   1      27.515  28.683  22.939  1.00  0.00    -0.545 OA
ENDBRANCH  34  36
ENDBRANCH  29  30
ENDBRANCH  28  29
ENDBRANCH  24  28
ENDBRANCH  13  22
ENDBRANCH   2   3
ENDBRANCH   1   2
BRANCH   1  39
ATOM     39  C   UNL A   1      32.310  28.859  27.690  1.00  0.00     0.024 C 
BRANCH  39  40
ATOM     40  C   UNL A   1      33.451  29.716  27.132  1.00  0.00     0.116 C 
BRANCH  40  41
ATOM     41  N   UNL A   1      33.807  30.811  28.047  1.00  0.00    -0.352 N 
ATOM     42  C   UNL A   1      34.973  31.073  28.738  1.00  0.00     0.251 C 
ATOM     43  H   UNL A   1      33.090  31.471  28.192  1.00  0.00     0.163 HD
ATOM     44  O   UNL A   1      35.109  32.109  29.382  1.00  0.00    -0.269 OA
BRANCH  42  45
ATOM     45  C   UNL A   1      36.115  30.146  28.610  1.00  0.00     0.039 A 
ATOM     46  C   UNL A   1      36.367  29.254  29.661  1.00  0.00     0.014 A 
ATOM     47  C   UNL A   1      37.030  30.297  27.580  1.00  0.00     0.014 A 
ATOM     48  C   UNL A   1      37.649  28.737  29.825  1.00  0.00     0.010 A 
ATOM     49  C   UNL A   1      38.318  29.850  27.784  1.00  0.00     0.010 A 
ATOM     50  C   UNL A   1      38.644  29.141  28.941  1.00  0.00    -0.014 A 
BRANCH  50  51
ATOM     51  C   UNL A   1      40.068  28.963  29.182  1.00  0.00     0.031 A 
ATOM     52  C   UNL A   1      40.785  27.829  28.578  1.00  0.00     0.074 A 
ATOM     53  C   UNL A   1      40.742  29.886  29.902  1.00  0.00     0.049 A 
ATOM     54  N   UNL A   1      41.819  27.262  29.095  1.00  0.00    -0.248 NA
ATOM     55  C   UNL A   1      40.361  27.230  27.318  1.00  0.00     0.031 C 
ATOM     56  C   UNL A   1      42.184  29.965  30.115  1.00  0.00     0.029 A 
ATOM     57  N   UNL A   1      40.203  30.793  30.812  1.00  0.00    -0.354 N 
ATOM     58  C   UNL A   1      42.360  26.439  28.136  1.00  0.00     0.074 A 
ATOM     59  C   UNL A   1      41.384  26.408  27.070  1.00  0.00     0.031 C 
ATOM     60  C   UNL A   1      42.408  30.612  31.270  1.00  0.00     0.029 A 
ATOM     61  C   UNL A   1      41.115  30.884  31.877  1.00  0.00     0.049 A 
ATOM     62  H   UNL A   1      39.349  31.275  30.726  1.00  0.00     0.167 HD
ATOM     63  C   UNL A   1      43.638  25.986  28.279  1.00  0.00     0.034 A 
ATOM     64  C   UNL A   1      40.744  30.549  33.146  1.00  0.00     0.034 A 
ATOM     65  C   UNL A   1      44.237  26.451  29.529  1.00  0.00     0.049 A 
ATOM     66  C   UNL A   1      41.537  29.377  33.669  1.00  0.00     0.074 A 
ATOM     67  C   UNL A   1      45.093  27.500  29.821  1.00  0.00     0.029 A 
ATOM     68  N   UNL A   1      43.710  26.026  30.748  1.00  0.00    -0.354 N 
ATOM     69  N   UNL A   1      42.211  28.561  32.902  1.00  0.00    -0.248 NA
ATOM     70  C   UNL A   1      41.661  29.047  35.085  1.00  0.00     0.031 C 
ATOM     71  C   UNL A   1      44.984  27.779  31.208  1.00  0.00     0.029 A 
ATOM     72  C   UNL A   1      44.103  26.869  31.771  1.00  0.00     0.049 A 
ATOM     73  H   UNL A   1      43.137  25.234  30.865  1.00  0.00     0.167 HD
ATOM     74  C   UNL A   1      42.856  27.637  33.673  1.00  0.00     0.074 A 
ATOM     75  C   UNL A   1      42.486  27.987  35.036  1.00  0.00     0.031 C 
ATOM     76  C   UNL A   1      43.653  26.661  33.140  1.00  0.00     0.034 A 
BRANCH  63  77
ATOM     77  C   UNL A   1      44.417  25.412  27.119  1.00  0.00     0.023 A 
ATOM     78  C   UNL A   1      44.029  24.183  26.548  1.00  0.00     0.031 A 
ATOM     79  C   UNL A   1      45.573  26.001  26.569  1.00  0.00     0.131 A 
ATOM     80  C   UNL A   1      44.822  23.548  25.573  1.00  0.00     0.055 A 
ATOM     81  C   UNL A   1      46.397  25.342  25.647  1.00  0.00     0.041 A 
ATOM     82  F   UNL A   1      45.931  27.256  26.882  1.00  0.00    -0.206 F 
ATOM     83  C   UNL A   1      46.030  24.099  25.153  1.00  0.00     0.022 A 
BRANCH  80  84
ATOM     84  S   UNL A   1      44.242  21.992  24.838  1.00  0.00     0.124 S 
ATOM     85  O   UNL A   1      42.885  21.887  25.367  1.00  0.00    -0.237 OA
ATOM     86  O   UNL A   1      44.359  22.263  23.410  1.00  0.00    -0.237 OA
ATOM     87  O   UNL A   1      45.184  21.000  25.356  1.00  0.00    -0.744 OA
ENDBRANCH  80  84
ENDBRANCH  63  77
BRANCH  64  88
ATOM     88  C   UNL A   1      39.311  30.862  33.422  1.00  0.00     0.023 A 
ATOM     89  C   UNL A   1      38.969  32.232  33.501  1.00  0.00     0.031 A 
ATOM     90  C   UNL A   1      38.287  29.949  33.138  1.00  0.00     0.131 A 
ATOM     91  C   UNL A   1      37.699  32.667  33.092  1.00  0.00     0.055 A 
ATOM     92  C   UNL A   1      36.996  30.388  32.814  1.00  0.00     0.041 A 
ATOM     93  F   UNL A   1      38.550  28.639  33.029  1.00  0.00    -0.206 F 
ATOM     94  C   UNL A   1      36.713  31.751  32.731  1.00  0.00     0.022 A 
BRANCH  91  95
ATOM     95  S   UNL A   1      37.466  34.440  32.778  1.00  0.00     0.124 S 
ATOM     96  O   UNL A   1      38.578  34.741  31.884  1.00  0.00    -0.237 OA
ATOM     97  O   UNL A   1      36.131  34.472  32.183  1.00  0.00    -0.237 OA
ATOM     98  O   UNL A   1      37.542  35.045  34.106  1.00  0.00    -0.744 OA
ENDBRANCH  91  95
ENDBRANCH  64  88
BRANCH  76  99
ATOM     99  C   UNL A   1      44.180  25.498  33.935  1.00  0.00     0.023 A 
ATOM    100  C   UNL A   1      45.552  25.283  34.119  1.00  0.00     0.031 A 
ATOM    101  C   UNL A   1      43.315  24.596  34.592  1.00  0.00     0.131 A 
ATOM    102  C   UNL A   1      46.022  24.144  34.788  1.00  0.00     0.055 A 
ATOM    103  C   UNL A   1      43.785  23.518  35.349  1.00  0.00     0.041 A 
ATOM    104  F   UNL A   1      41.982  24.723  34.526  1.00  0.00    -0.206 F 
ATOM    105  C   UNL A   1      45.148  23.269  35.426  1.00  0.00     0.022 A 
BRANCH 102 106
ATOM    106  S   UNL A   1      47.793  23.784  34.695  1.00  0.00     0.124 S 
ATOM    107  O   UNL A   1      48.219  24.675  33.619  1.00  0.00    -0.237 OA
ATOM    108  O   UNL A   1      48.258  24.139  36.031  1.00  0.00    -0.237 OA
ATOM    109  O   UNL A   1      47.838  22.359  34.376  1.00  0.00    -0.744 OA
ENDBRANCH 102 106
ENDBRANCH  76  99
ENDBRANCH  50  51
ENDBRANCH  42  45
ENDBRANCH  40  41
ENDBRANCH  39  40
ENDBRANCH   1  39
TORSDOF 19
ENDMDL
MODEL 3
REMARK VINA RESULT:     -13.1      2.482      3.659
REMARK SMILES Cc1ccc(N2C(=O)[NH+]=C(NCCCCNC(=O)c3ccc(-c4c5nc(c(-c6cc(S(=O)(=O)[O-])ccc6F)c6ccc([nH]6)c(-c6cc(S(=O)(=O)[O-])ccc6F)c6nc(c(-c7cc(S(=O)(=O)[O-])ccc7F)c7ccc4[nH]7)C=C6)C=C5)cc3)/C(=C\c3ccccc3OCc3cccc(C(=O)[O-])c3)C2=O)cc1
REMARK SMILES IDX 13 1 12 2 11 3 6 4 7 5 101 6 8 7 9 8 82 9 102 10 10 11 83 13
REMARK SMILES IDX 5 15 1 16 2 17 3 18 104 19 4 20 103 21 84 22 85 23 89 24
REMARK SMILES IDX 86 25 88 26 87 27 90 28 91 29 92 30 93 31 100 32 94 33 96 34
REMARK SMILES IDX 95 35 97 36 98 37 99 38 14 39 15 40 16 41 17 42 18 44 19 45
REMARK SMILES IDX 20 46 81 47 21 48 80 49 22 50 23 51 24 52 74 53 25 54 79 55
REMARK SMILES IDX 73 56 75 57 26 58 78 59 72 60 71 61 27 63 59 64 39 65 58 66
REMARK SMILES IDX 40 67 43 68 57 69 76 70 41 71 42 72 56 74 77 75 44 76 28 77
REMARK SMILES IDX 29 78 37 79 30 80 36 81 38 82 35 83 31 84 32 85 33 86 34 87
REMARK SMILES IDX 60 88 61 89 69 90 62 91 68 92 70 93 67 94 63 95 64 96 65 97
REMARK SMILES IDX 66 98 45 99 46 100 54 101 47 102 53 103 55 104 52 105 48 106
REMARK SMILES IDX 49 107 50 108 51 109
REMARK H PARENT 9 12 11 14 16 43 75 62 43 73
REMARK Flexibility Score: inf
ROOT
ATOM      1  C   UNL A   1      32.609  31.290  26.380  1.00  0.00     0.039 C 
ENDROOT
BRANCH   1   2
ATOM      2  C   UNL A   1      31.473  30.401  25.868  1.00  0.00     0.194 C 
BRANCH   2   3
ATOM      3  N   UNL A   1      31.839  29.778  24.593  1.00  0.00    -0.305 N 
ATOM      4  N   UNL A   1      33.930  26.185  24.272  1.00  0.00    -0.155 N 
ATOM      5  C   UNL A   1      33.835  26.920  25.468  1.00  0.00     0.448 C 
ATOM      6  C   UNL A   1      33.369  26.639  23.086  1.00  0.00     0.328 C 
ATOM      7  O   UNL A   1      34.389  26.547  26.503  1.00  0.00    -0.212 OA
ATOM      8  N   UNL A   1      33.197  28.130  25.474  1.00  0.00    -0.209 N 
ATOM      9  C   UNL A   1      32.352  27.703  23.275  1.00  0.00     0.129 C 
ATOM     10  O   UNL A   1      33.562  26.175  21.961  1.00  0.00    -0.249 OA
ATOM     11  C   UNL A   1      32.462  28.549  24.493  1.00  0.00     0.236 C 
ATOM     12  H   UNL A   1      33.302  28.711  26.262  1.00  0.00     0.270 HD
ATOM     13  C   UNL A   1      31.326  27.668  22.401  1.00  0.00     0.034 C 
ATOM     14  H   UNL A   1      31.629  30.263  23.761  1.00  0.00     0.256 HD
BRANCH   4  15
ATOM     15  C   UNL A   1      34.644  24.931  24.277  1.00  0.00     0.111 A 
ATOM     16  C   UNL A   1      36.788  21.164  24.244  1.00  0.00     0.044 C 
ATOM     17  C   UNL A   1      36.049  22.468  24.262  1.00  0.00    -0.051 A 
ATOM     18  C   UNL A   1      35.436  22.942  23.100  1.00  0.00     0.007 A 
ATOM     19  C   UNL A   1      35.979  23.240  25.422  1.00  0.00     0.007 A 
ATOM     20  C   UNL A   1      34.735  24.153  23.112  1.00  0.00     0.044 A 
ATOM     21  C   UNL A   1      35.290  24.458  25.427  1.00  0.00     0.044 A 
ENDBRANCH   4  15
BRANCH  13  22
ATOM     22  C   UNL A   1      30.041  28.366  22.495  1.00  0.00     0.018 A 
ATOM     23  C   UNL A   1      30.006  29.694  22.042  1.00  0.00     0.012 A 
ATOM     24  C   UNL A   1      28.863  27.777  22.992  1.00  0.00     0.127 A 
ATOM     25  C   UNL A   1      28.841  30.447  22.144  1.00  0.00     0.001 A 
ATOM     26  C   UNL A   1      27.709  28.548  23.126  1.00  0.00     0.047 A 
ATOM     27  C   UNL A   1      27.698  29.875  22.691  1.00  0.00     0.004 A 
BRANCH  24  28
ATOM     28  O   UNL A   1      28.803  26.509  23.512  1.00  0.00    -0.488 OA
BRANCH  28  29
ATOM     29  C   UNL A   1      29.568  26.318  24.705  1.00  0.00     0.265 C 
BRANCH  29  30
ATOM     30  C   UNL A   1      30.406  25.061  24.601  1.00  0.00    -0.010 A 
ATOM     31  C   UNL A   1      30.500  24.368  23.382  1.00  0.00     0.007 A 
ATOM     32  C   UNL A   1      31.024  24.511  25.735  1.00  0.00     0.017 A 
ATOM     33  C   UNL A   1      31.192  23.157  23.297  1.00  0.00     0.001 A 
ATOM     34  C   UNL A   1      31.698  23.284  25.656  1.00  0.00    -0.002 A 
ATOM     35  C   UNL A   1      31.779  22.608  24.434  1.00  0.00     0.010 A 
BRANCH  34  36
ATOM     36  C   UNL A   1      32.287  22.634  26.851  1.00  0.00     0.071 C 
ATOM     37  O   UNL A   1      32.151  23.004  28.000  1.00  0.00    -0.545 OA
ATOM     38  O   UNL A   1      33.020  21.563  26.524  1.00  0.00    -0.545 OA
ENDBRANCH  34  36
ENDBRANCH  29  30
ENDBRANCH  28  29
ENDBRANCH  24  28
ENDBRANCH  13  22
ENDBRANCH   2   3
ENDBRANCH   1   2
BRANCH   1  39
ATOM     39  C   UNL A   1      33.417  30.720  27.548  1.00  0.00     0.024 C 
BRANCH  39  40
ATOM     40  C   UNL A   1      34.433  31.699  28.145  1.00  0.00     0.116 C 
BRANCH  40  41
ATOM     41  N   UNL A   1      33.773  32.790  28.878  1.00  0.00    -0.352 N 
ATOM     42  C   UNL A   1      34.266  33.694  29.797  1.00  0.00     0.251 C 
ATOM     43  H   UNL A   1      32.814  32.894  28.678  1.00  0.00     0.163 HD
ATOM     44  O   UNL A   1      33.566  34.607  30.227  1.00  0.00    -0.269 OA
BRANCH  42  45
ATOM     45  C   UNL A   1      35.689  33.628  30.187  1.00  0.00     0.039 A 
ATOM     46  C   UNL A   1      36.640  34.190  29.326  1.00  0.00     0.014 A 
ATOM     47  C   UNL A   1      36.086  32.852  31.265  1.00  0.00     0.014 A 
ATOM     48  C   UNL A   1      37.957  33.741  29.377  1.00  0.00     0.010 A 
ATOM     49  C   UNL A   1      37.369  32.350  31.266  1.00  0.00     0.010 A 
ATOM     50  C   UNL A   1      38.278  32.731  30.278  1.00  0.00    -0.014 A 
BRANCH  50  51
ATOM     51  C   UNL A   1      39.497  31.939  30.213  1.00  0.00     0.031 A 
ATOM     52  C   UNL A   1      39.474  30.595  29.617  1.00  0.00     0.074 A 
ATOM     53  C   UNL A   1      40.663  32.474  30.635  1.00  0.00     0.049 A 
ATOM     54  N   UNL A   1      40.261  29.633  29.957  1.00  0.00    -0.248 NA
ATOM     55  C   UNL A   1      38.522  30.227  28.575  1.00  0.00     0.031 C 
ATOM     56  C   UNL A   1      41.999  31.903  30.504  1.00  0.00     0.029 A 
ATOM     57  N   UNL A   1      40.823  33.542  31.516  1.00  0.00    -0.354 N 
ATOM     58  C   UNL A   1      40.126  28.639  29.017  1.00  0.00     0.074 A 
ATOM     59  C   UNL A   1      38.990  29.030  28.212  1.00  0.00     0.031 C 
ATOM     60  C   UNL A   1      42.772  32.401  31.483  1.00  0.00     0.029 A 
ATOM     61  C   UNL A   1      41.928  33.233  32.325  1.00  0.00     0.049 A 
ATOM     62  H   UNL A   1      40.267  34.354  31.563  1.00  0.00     0.167 HD
ATOM     63  C   UNL A   1      41.075  27.664  28.925  1.00  0.00     0.034 A 
ATOM     64  C   UNL A   1      41.795  33.121  33.678  1.00  0.00     0.034 A 
ATOM     65  C   UNL A   1      42.119  27.833  29.935  1.00  0.00     0.049 A 
ATOM     66  C   UNL A   1      42.115  31.727  34.158  1.00  0.00     0.074 A 
ATOM     67  C   UNL A   1      43.385  28.393  29.886  1.00  0.00     0.029 A 
ATOM     68  N   UNL A   1      41.798  27.709  31.287  1.00  0.00    -0.354 N 
ATOM     69  N   UNL A   1      42.148  30.683  33.372  1.00  0.00    -0.248 NA
ATOM     70  C   UNL A   1      42.450  31.400  35.540  1.00  0.00     0.031 C 
ATOM     71  C   UNL A   1      43.771  28.714  31.213  1.00  0.00     0.029 A 
ATOM     72  C   UNL A   1      42.766  28.304  32.075  1.00  0.00     0.049 A 
ATOM     73  H   UNL A   1      40.994  27.259  31.633  1.00  0.00     0.167 HD
ATOM     74  C   UNL A   1      42.512  29.581  34.092  1.00  0.00     0.074 A 
ATOM     75  C   UNL A   1      42.697  30.082  35.446  1.00  0.00     0.031 C 
ATOM     76  C   UNL A   1      42.645  28.343  33.526  1.00  0.00     0.034 A 
BRANCH  63  77
ATOM     77  C   UNL A   1      41.201  26.782  27.705  1.00  0.00     0.023 A 
ATOM     78  C   UNL A   1      41.055  25.386  27.826  1.00  0.00     0.031 A 
ATOM     79  C   UNL A   1      41.510  27.252  26.413  1.00  0.00     0.131 A 
ATOM     80  C   UNL A   1      41.318  24.527  26.742  1.00  0.00     0.055 A 
ATOM     81  C   UNL A   1      41.835  26.398  25.352  1.00  0.00     0.041 A 
ATOM     82  F   UNL A   1      41.476  28.563  26.123  1.00  0.00    -0.206 F 
ATOM     83  C   UNL A   1      41.754  25.024  25.516  1.00  0.00     0.022 A 
BRANCH  80  84
ATOM     84  S   UNL A   1      41.063  22.741  26.946  1.00  0.00     0.124 S 
ATOM     85  O   UNL A   1      39.739  22.549  26.363  1.00  0.00    -0.237 OA
ATOM     86  O   UNL A   1      42.185  22.182  26.201  1.00  0.00    -0.237 OA
ATOM     87  O   UNL A   1      41.131  22.552  28.395  1.00  0.00    -0.744 OA
ENDBRANCH  80  84
ENDBRANCH  63  77
BRANCH  64  88
ATOM     88  C   UNL A   1      40.760  34.047  34.227  1.00  0.00     0.023 A 
ATOM     89  C   UNL A   1      39.496  33.481  34.513  1.00  0.00     0.031 A 
ATOM     90  C   UNL A   1      41.106  35.237  34.879  1.00  0.00     0.131 A 
ATOM     91  C   UNL A   1      38.724  33.981  35.572  1.00  0.00     0.055 A 
ATOM     92  C   UNL A   1      40.285  35.779  35.879  1.00  0.00     0.041 A 
ATOM     93  F   UNL A   1      42.298  35.813  34.668  1.00  0.00    -0.206 F 
ATOM     94  C   UNL A   1      39.120  35.120  36.271  1.00  0.00     0.022 A 
BRANCH  91  95
ATOM     95  S   UNL A   1      37.355  32.957  36.186  1.00  0.00     0.124 S 
ATOM     96  O   UNL A   1      37.189  33.453  37.547  1.00  0.00    -0.237 OA
ATOM     97  O   UNL A   1      36.285  33.281  35.245  1.00  0.00    -0.237 OA
ATOM     98  O   UNL A   1      37.860  31.590  36.070  1.00  0.00    -0.744 OA
ENDBRANCH  91  95
ENDBRANCH  64  88
BRANCH  76  99
ATOM     99  C   UNL A   1      42.810  27.080  34.327  1.00  0.00     0.023 A 
ATOM    100  C   UNL A   1      44.067  26.618  34.737  1.00  0.00     0.031 A 
ATOM    101  C   UNL A   1      41.697  26.327  34.761  1.00  0.00     0.131 A 
ATOM    102  C   UNL A   1      44.204  25.393  35.405  1.00  0.00     0.055 A 
ATOM    103  C   UNL A   1      41.829  25.160  35.520  1.00  0.00     0.041 A 
ATOM    104  F   UNL A   1      40.441  26.692  34.468  1.00  0.00    -0.206 F 
ATOM    105  C   UNL A   1      43.091  24.669  35.822  1.00  0.00     0.022 A 
BRANCH 102 106
ATOM    106  S   UNL A   1      45.875  24.726  35.606  1.00  0.00     0.124 S 
ATOM    107  O   UNL A   1      45.610  23.480  36.321  1.00  0.00    -0.237 OA
ATOM    108  O   UNL A   1      46.325  24.581  34.227  1.00  0.00    -0.237 OA
ATOM    109  O   UNL A   1      46.564  25.754  36.383  1.00  0.00    -0.744 OA
ENDBRANCH 102 106
ENDBRANCH  76  99
ENDBRANCH  50  51
ENDBRANCH  42  45
ENDBRANCH  40  41
ENDBRANCH  39  40
ENDBRANCH   1  39
TORSDOF 19
ENDMDL
