MODEL 1
REMARK VINA RESULT:     -11.2      0.000      0.000
REMARK SMILES CC[C@H](NS(=O)(=O)Cc1ccccc1)C(=O)NCCCCNC(=O)c1ccc(-c2c3nc(c(-c4cc(S(=O)(=O)[O-])ccc4F)c4ccc([nH]4)c(-c4cc(S(=O)(=O)[O-])ccc4F)c4nc(c(-c5cc(S(=O)(=O)[O-])ccc5F)c5ccc2[nH]5)C=C4)C=C3)cc1
REMARK SMILES IDX 19 1 18 2 17 3 15 4 16 5 3 7 2 8 1 9 4 10 5 12 6 13 7 14
REMARK SMILES IDX 8 15 9 16 10 17 14 18 11 19 13 20 12 21 20 22 21 23 22 24
REMARK SMILES IDX 23 25 24 27 25 28 26 29 87 30 27 31 86 32 28 33 29 34 30 35
REMARK SMILES IDX 80 36 31 37 85 38 79 39 81 40 32 41 84 42 78 43 77 44 33 46
REMARK SMILES IDX 65 47 45 48 64 49 46 50 49 51 63 52 82 53 47 54 48 55 62 57
REMARK SMILES IDX 83 58 50 59 34 60 35 61 43 62 36 63 42 64 44 65 41 66 37 67
REMARK SMILES IDX 38 68 39 69 40 70 66 71 67 72 75 73 68 74 74 75 76 76 73 77
REMARK SMILES IDX 69 78 70 79 71 80 72 81 51 82 52 83 60 84 53 85 59 86 61 87
REMARK SMILES IDX 58 88 54 89 55 90 56 91 57 92
REMARK H PARENT 17 6 4 11 22 26 81 45 49 56
REMARK Flexibility Score: inf
ROOT
ATOM      1  C   UNL A   1      33.017  28.620  25.383  1.00  0.00     0.023 C 
ENDROOT
BRANCH   1   2
ATOM      2  C   UNL A   1      32.849  27.268  26.117  1.00  0.00     0.116 C 
BRANCH   2   3
ATOM      3  N   UNL A   1      31.574  26.730  26.553  1.00  0.00    -0.355 N 
ATOM      4  C   UNL A   1      30.609  25.960  25.955  1.00  0.00     0.238 C 
ATOM      5  O   UNL A   1      29.817  25.375  26.704  1.00  0.00    -0.273 OA
ATOM      6  H   UNL A   1      31.352  26.972  27.482  1.00  0.00     0.163 HD
BRANCH   4   7
ATOM      7  C   UNL A   1      30.502  25.748  24.456  1.00  0.00     0.158 C 
BRANCH   7   8
ATOM      8  C   UNL A   1      29.484  26.726  23.832  1.00  0.00     0.027 C 
ATOM      9  C   UNL A   1      30.006  27.742  22.829  1.00  0.00     0.006 C 
ENDBRANCH   7   8
BRANCH   7  10
ATOM     10  N   UNL A   1      30.318  24.333  24.065  1.00  0.00    -0.202 NA
ATOM     11  H   UNL A   1      29.888  24.326  23.140  1.00  0.00     0.141 HD
BRANCH  10  12
ATOM     12  S   UNL A   1      31.707  23.348  23.990  1.00  0.00     0.216 S 
ATOM     13  O   UNL A   1      31.843  22.906  25.361  1.00  0.00    -0.212 OA
ATOM     14  O   UNL A   1      31.525  22.367  22.938  1.00  0.00    -0.212 OA
BRANCH  12  15
ATOM     15  C   UNL A   1      33.113  24.420  23.664  1.00  0.00     0.189 C 
BRANCH  15  16
ATOM     16  C   UNL A   1      34.481  23.973  24.119  1.00  0.00    -0.032 A 
ATOM     17  C   UNL A   1      35.063  24.357  25.324  1.00  0.00     0.005 A 
ATOM     18  C   UNL A   1      35.308  23.265  23.240  1.00  0.00     0.005 A 
ATOM     19  C   UNL A   1      36.370  23.947  25.651  1.00  0.00     0.000 A 
ATOM     20  C   UNL A   1      36.574  22.786  23.573  1.00  0.00     0.000 A 
ATOM     21  C   UNL A   1      37.108  23.127  24.797  1.00  0.00     0.000 A 
ENDBRANCH  15  16
ENDBRANCH  12  15
ENDBRANCH  10  12
ENDBRANCH   7  10
ENDBRANCH   4   7
ENDBRANCH   2   3
ENDBRANCH   1   2
BRANCH   1  22
ATOM     22  C   UNL A   1      32.354  29.978  25.666  1.00  0.00     0.023 C 
BRANCH  22  23
ATOM     23  C   UNL A   1      32.245  30.557  27.064  1.00  0.00     0.116 C 
BRANCH  23  24
ATOM     24  N   UNL A   1      32.267  31.995  27.091  1.00  0.00    -0.352 N 
ATOM     25  C   UNL A   1      33.245  32.829  27.578  1.00  0.00     0.251 C 
ATOM     26  H   UNL A   1      31.476  32.441  26.710  1.00  0.00     0.163 HD
ATOM     27  O   UNL A   1      33.014  34.035  27.627  1.00  0.00    -0.269 OA
BRANCH  25  28
ATOM     28  C   UNL A   1      34.546  32.300  28.070  1.00  0.00     0.039 A 
ATOM     29  C   UNL A   1      34.566  31.010  28.609  1.00  0.00     0.014 A 
ATOM     30  C   UNL A   1      35.723  33.059  28.069  1.00  0.00     0.014 A 
ATOM     31  C   UNL A   1      35.747  30.489  29.146  1.00  0.00     0.010 A 
ATOM     32  C   UNL A   1      36.922  32.506  28.533  1.00  0.00     0.010 A 
ATOM     33  C   UNL A   1      36.939  31.231  29.116  1.00  0.00    -0.014 A 
BRANCH  33  34
ATOM     34  C   UNL A   1      38.167  30.701  29.776  1.00  0.00     0.031 A 
ATOM     35  C   UNL A   1      38.475  31.074  31.206  1.00  0.00     0.074 A 
ATOM     36  C   UNL A   1      38.987  29.865  29.109  1.00  0.00     0.049 A 
ATOM     37  N   UNL A   1      39.447  30.665  31.982  1.00  0.00    -0.248 NA
ATOM     38  C   UNL A   1      37.583  32.057  31.840  1.00  0.00     0.031 C 
ATOM     39  C   UNL A   1      38.816  29.454  27.714  1.00  0.00     0.029 A 
ATOM     40  N   UNL A   1      40.115  29.194  29.514  1.00  0.00    -0.354 N 
ATOM     41  C   UNL A   1      39.288  31.347  33.186  1.00  0.00     0.074 A 
ATOM     42  C   UNL A   1      38.171  32.247  33.010  1.00  0.00     0.031 C 
ATOM     43  C   UNL A   1      39.769  28.563  27.397  1.00  0.00     0.029 A 
ATOM     44  C   UNL A   1      40.644  28.366  28.549  1.00  0.00     0.049 A 
ATOM     45  H   UNL A   1      40.508  29.294  30.411  1.00  0.00     0.167 HD
ATOM     46  C   UNL A   1      39.990  31.214  34.341  1.00  0.00     0.034 A 
ATOM     47  C   UNL A   1      41.706  27.536  28.592  1.00  0.00     0.034 A 
ATOM     48  C   UNL A   1      41.094  30.300  34.502  1.00  0.00     0.049 A 
ATOM     49  C   UNL A   1      42.485  27.421  29.880  1.00  0.00     0.074 A 
ATOM     50  C   UNL A   1      41.843  30.042  35.637  1.00  0.00     0.029 A 
ATOM     51  N   UNL A   1      41.620  29.501  33.493  1.00  0.00    -0.354 N 
ATOM     52  N   UNL A   1      42.281  28.025  31.029  1.00  0.00    -0.248 NA
ATOM     53  C   UNL A   1      43.627  26.497  29.880  1.00  0.00     0.031 C 
ATOM     54  C   UNL A   1      42.868  29.153  35.295  1.00  0.00     0.029 A 
ATOM     55  C   UNL A   1      42.705  28.781  33.970  1.00  0.00     0.049 A 
ATOM     56  H   UNL A   1      41.273  29.454  32.573  1.00  0.00     0.167 HD
ATOM     57  C   UNL A   1      43.247  27.522  31.898  1.00  0.00     0.074 A 
ATOM     58  C   UNL A   1      44.018  26.555  31.144  1.00  0.00     0.031 C 
ATOM     59  C   UNL A   1      43.473  27.826  33.203  1.00  0.00     0.034 A 
BRANCH  46  60
ATOM     60  C   UNL A   1      39.601  32.107  35.500  1.00  0.00     0.023 A 
ATOM     61  C   UNL A   1      38.841  31.631  36.585  1.00  0.00     0.031 A 
ATOM     62  C   UNL A   1      39.962  33.466  35.504  1.00  0.00     0.131 A 
ATOM     63  C   UNL A   1      38.393  32.521  37.574  1.00  0.00     0.055 A 
ATOM     64  C   UNL A   1      39.592  34.326  36.540  1.00  0.00     0.041 A 
ATOM     65  F   UNL A   1      40.668  33.988  34.488  1.00  0.00    -0.206 F 
ATOM     66  C   UNL A   1      38.787  33.860  37.574  1.00  0.00     0.022 A 
BRANCH  63  67
ATOM     67  S   UNL A   1      37.151  31.941  38.764  1.00  0.00     0.124 S 
ATOM     68  O   UNL A   1      37.811  32.222  40.038  1.00  0.00    -0.237 OA
ATOM     69  O   UNL A   1      35.996  32.773  38.446  1.00  0.00    -0.237 OA
ATOM     70  O   UNL A   1      37.007  30.523  38.445  1.00  0.00    -0.744 OA
ENDBRANCH  63  67
ENDBRANCH  46  60
BRANCH  47  71
ATOM     71  C   UNL A   1      42.096  26.736  27.393  1.00  0.00     0.023 A 
ATOM     72  C   UNL A   1      41.802  25.364  27.309  1.00  0.00     0.031 A 
ATOM     73  C   UNL A   1      42.814  27.318  26.334  1.00  0.00     0.131 A 
ATOM     74  C   UNL A   1      42.266  24.612  26.218  1.00  0.00     0.055 A 
ATOM     75  C   UNL A   1      43.223  26.578  25.222  1.00  0.00     0.041 A 
ATOM     76  F   UNL A   1      43.123  28.625  26.360  1.00  0.00    -0.206 F 
ATOM     77  C   UNL A   1      42.962  25.213  25.168  1.00  0.00     0.022 A 
BRANCH  74  78
ATOM     78  S   UNL A   1      42.030  22.813  26.237  1.00  0.00     0.124 S 
ATOM     79  O   UNL A   1      40.577  22.706  26.313  1.00  0.00    -0.237 OA
ATOM     80  O   UNL A   1      42.638  22.415  24.973  1.00  0.00    -0.237 OA
ATOM     81  O   UNL A   1      42.751  22.388  27.435  1.00  0.00    -0.744 OA
ENDBRANCH  74  78
ENDBRANCH  47  71
BRANCH  59  82
ATOM     82  C   UNL A   1      44.570  27.061  33.906  1.00  0.00     0.023 A 
ATOM     83  C   UNL A   1      44.326  25.839  34.557  1.00  0.00     0.031 A 
ATOM     84  C   UNL A   1      45.877  27.580  33.948  1.00  0.00     0.131 A 
ATOM     85  C   UNL A   1      45.352  25.216  35.283  1.00  0.00     0.055 A 
ATOM     86  C   UNL A   1      46.913  26.917  34.607  1.00  0.00     0.041 A 
ATOM     87  F   UNL A   1      46.170  28.745  33.347  1.00  0.00    -0.206 F 
ATOM     88  C   UNL A   1      46.649  25.737  35.297  1.00  0.00     0.022 A 
BRANCH  85  89
ATOM     89  S   UNL A   1      44.940  23.784  36.317  1.00  0.00     0.124 S 
ATOM     90  O   UNL A   1      44.488  24.420  37.550  1.00  0.00    -0.237 OA
ATOM     91  O   UNL A   1      43.909  23.117  35.529  1.00  0.00    -0.237 OA
ATOM     92  O   UNL A   1      46.206  23.060  36.420  1.00  0.00    -0.744 OA
ENDBRANCH  85  89
ENDBRANCH  59  82
ENDBRANCH  33  34
ENDBRANCH  25  28
ENDBRANCH  23  24
ENDBRANCH  22  23
ENDBRANCH   1  22
TORSDOF 19
ENDMDL
MODEL 2
REMARK VINA RESULT:     -10.8      5.109      9.818
REMARK SMILES CC[C@H](NS(=O)(=O)Cc1ccccc1)C(=O)NCCCCNC(=O)c1ccc(-c2c3nc(c(-c4cc(S(=O)(=O)[O-])ccc4F)c4ccc([nH]4)c(-c4cc(S(=O)(=O)[O-])ccc4F)c4nc(c(-c5cc(S(=O)(=O)[O-])ccc5F)c5ccc2[nH]5)C=C4)C=C3)cc1
REMARK SMILES IDX 19 1 18 2 17 3 15 4 16 5 3 7 2 8 1 9 4 10 5 12 6 13 7 14
REMARK SMILES IDX 8 15 9 16 10 17 14 18 11 19 13 20 12 21 20 22 21 23 22 24
REMARK SMILES IDX 23 25 24 27 25 28 26 29 87 30 27 31 86 32 28 33 29 34 30 35
REMARK SMILES IDX 80 36 31 37 85 38 79 39 81 40 32 41 84 42 78 43 77 44 33 46
REMARK SMILES IDX 65 47 45 48 64 49 46 50 49 51 63 52 82 53 47 54 48 55 62 57
REMARK SMILES IDX 83 58 50 59 34 60 35 61 43 62 36 63 42 64 44 65 41 66 37 67
REMARK SMILES IDX 38 68 39 69 40 70 66 71 67 72 75 73 68 74 74 75 76 76 73 77
REMARK SMILES IDX 69 78 70 79 71 80 72 81 51 82 52 83 60 84 53 85 59 86 61 87
REMARK SMILES IDX 58 88 54 89 55 90 56 91 57 92
REMARK H PARENT 17 6 4 11 22 26 81 45 49 56
REMARK Flexibility Score: inf
ROOT
ATOM      1  C   UNL A   1      34.791  22.565  27.311  1.00  0.00     0.023 C 
ENDROOT
BRANCH   1   2
ATOM      2  C   UNL A   1      33.421  21.956  27.692  1.00  0.00     0.116 C 
BRANCH   2   3
ATOM      3  N   UNL A   1      32.180  22.706  27.738  1.00  0.00    -0.355 N 
ATOM      4  C   UNL A   1      31.476  23.442  26.819  1.00  0.00     0.238 C 
ATOM      5  O   UNL A   1      30.283  23.655  27.067  1.00  0.00    -0.273 OA
ATOM      6  H   UNL A   1      31.748  22.682  28.623  1.00  0.00     0.163 HD
BRANCH   4   7
ATOM      7  C   UNL A   1      32.060  23.951  25.514  1.00  0.00     0.158 C 
BRANCH   7   8
ATOM      8  C   UNL A   1      32.084  25.494  25.484  1.00  0.00     0.027 C 
ATOM      9  C   UNL A   1      33.373  26.188  25.894  1.00  0.00     0.006 C 
ENDBRANCH   7   8
BRANCH   7  10
ATOM     10  N   UNL A   1      31.474  23.320  24.311  1.00  0.00    -0.202 NA
ATOM     11  H   UNL A   1      31.352  24.052  23.611  1.00  0.00     0.141 HD
BRANCH  10  12
ATOM     12  S   UNL A   1      32.348  22.054  23.578  1.00  0.00     0.216 S 
ATOM     13  O   UNL A   1      31.542  21.760  22.413  1.00  0.00    -0.212 OA
ATOM     14  O   UNL A   1      33.724  22.477  23.406  1.00  0.00    -0.212 OA
BRANCH  12  15
ATOM     15  C   UNL A   1      32.223  20.619  24.653  1.00  0.00     0.189 C 
BRANCH  15  16
ATOM     16  C   UNL A   1      32.945  19.354  24.254  1.00  0.00    -0.032 A 
ATOM     17  C   UNL A   1      34.197  18.987  24.740  1.00  0.00     0.005 A 
ATOM     18  C   UNL A   1      32.435  18.560  23.220  1.00  0.00     0.005 A 
ATOM     19  C   UNL A   1      34.833  17.821  24.273  1.00  0.00     0.000 A 
ATOM     20  C   UNL A   1      33.010  17.364  22.797  1.00  0.00     0.000 A 
ATOM     21  C   UNL A   1      34.222  16.987  23.336  1.00  0.00     0.000 A 
ENDBRANCH  15  16
ENDBRANCH  12  15
ENDBRANCH  10  12
ENDBRANCH   7  10
ENDBRANCH   4   7
ENDBRANCH   2   3
ENDBRANCH   1   2
BRANCH   1  22
ATOM     22  C   UNL A   1      35.586  22.446  26.001  1.00  0.00     0.023 C 
BRANCH  22  23
ATOM     23  C   UNL A   1      36.888  23.188  25.765  1.00  0.00     0.116 C 
BRANCH  23  24
ATOM     24  N   UNL A   1      38.053  22.358  25.906  1.00  0.00    -0.352 N 
ATOM     25  C   UNL A   1      39.296  22.698  26.386  1.00  0.00     0.251 C 
ATOM     26  H   UNL A   1      37.948  21.423  25.620  1.00  0.00     0.163 HD
ATOM     27  O   UNL A   1      40.202  21.872  26.302  1.00  0.00    -0.269 OA
BRANCH  25  28
ATOM     28  C   UNL A   1      39.566  24.041  26.967  1.00  0.00     0.039 A 
ATOM     29  C   UNL A   1      40.125  25.015  26.133  1.00  0.00     0.014 A 
ATOM     30  C   UNL A   1      39.341  24.344  28.316  1.00  0.00     0.014 A 
ATOM     31  C   UNL A   1      40.460  26.272  26.644  1.00  0.00     0.010 A 
ATOM     32  C   UNL A   1      39.602  25.628  28.806  1.00  0.00     0.010 A 
ATOM     33  C   UNL A   1      40.204  26.595  27.987  1.00  0.00    -0.014 A 
BRANCH  33  34
ATOM     34  C   UNL A   1      40.652  27.905  28.541  1.00  0.00     0.031 A 
ATOM     35  C   UNL A   1      42.125  28.230  28.609  1.00  0.00     0.074 A 
ATOM     36  C   UNL A   1      39.744  28.812  28.951  1.00  0.00     0.049 A 
ATOM     37  N   UNL A   1      42.716  29.335  28.987  1.00  0.00    -0.248 NA
ATOM     38  C   UNL A   1      43.057  27.159  28.224  1.00  0.00     0.031 C 
ATOM     39  C   UNL A   1      38.295  28.605  28.965  1.00  0.00     0.029 A 
ATOM     40  N   UNL A   1      39.899  30.095  29.418  1.00  0.00    -0.354 N 
ATOM     41  C   UNL A   1      44.084  29.089  28.894  1.00  0.00     0.074 A 
ATOM     42  C   UNL A   1      44.231  27.707  28.495  1.00  0.00     0.031 C 
ATOM     43  C   UNL A   1      37.692  29.736  29.364  1.00  0.00     0.029 A 
ATOM     44  C   UNL A   1      38.708  30.738  29.674  1.00  0.00     0.049 A 
ATOM     45  H   UNL A   1      40.778  30.516  29.555  1.00  0.00     0.167 HD
ATOM     46  C   UNL A   1      45.120  29.942  29.095  1.00  0.00     0.034 A 
ATOM     47  C   UNL A   1      38.465  31.994  30.100  1.00  0.00     0.034 A 
ATOM     48  C   UNL A   1      44.953  31.322  29.481  1.00  0.00     0.049 A 
ATOM     49  C   UNL A   1      39.634  32.920  30.337  1.00  0.00     0.074 A 
ATOM     50  C   UNL A   1      45.924  32.293  29.660  1.00  0.00     0.029 A 
ATOM     51  N   UNL A   1      43.734  31.928  29.760  1.00  0.00    -0.354 N 
ATOM     52  N   UNL A   1      40.918  32.689  30.182  1.00  0.00    -0.248 NA
ATOM     53  C   UNL A   1      39.316  34.280  30.791  1.00  0.00     0.031 C 
ATOM     54  C   UNL A   1      45.303  33.456  30.126  1.00  0.00     0.029 A 
ATOM     55  C   UNL A   1      43.933  33.246  30.147  1.00  0.00     0.049 A 
ATOM     56  H   UNL A   1      42.857  31.487  29.694  1.00  0.00     0.167 HD
ATOM     57  C   UNL A   1      41.557  33.890  30.482  1.00  0.00     0.074 A 
ATOM     58  C   UNL A   1      40.515  34.842  30.808  1.00  0.00     0.031 C 
ATOM     59  C   UNL A   1      42.884  34.183  30.481  1.00  0.00     0.034 A 
BRANCH  46  60
ATOM     60  C   UNL A   1      46.521  29.390  28.936  1.00  0.00     0.023 A 
ATOM     61  C   UNL A   1      47.134  29.266  27.675  1.00  0.00     0.031 A 
ATOM     62  C   UNL A   1      47.241  28.942  30.058  1.00  0.00     0.131 A 
ATOM     63  C   UNL A   1      48.381  28.629  27.558  1.00  0.00     0.055 A 
ATOM     64  C   UNL A   1      48.521  28.395  29.945  1.00  0.00     0.041 A 
ATOM     65  F   UNL A   1      46.704  29.011  31.286  1.00  0.00    -0.206 F 
ATOM     66  C   UNL A   1      49.091  28.219  28.688  1.00  0.00     0.022 A 
BRANCH  63  67
ATOM     67  S   UNL A   1      48.981  28.194  25.902  1.00  0.00     0.124 S 
ATOM     68  O   UNL A   1      50.059  29.164  25.716  1.00  0.00    -0.237 OA
ATOM     69  O   UNL A   1      49.392  26.806  26.070  1.00  0.00    -0.237 OA
ATOM     70  O   UNL A   1      47.813  28.402  25.049  1.00  0.00    -0.744 OA
ENDBRANCH  63  67
ENDBRANCH  46  60
BRANCH  47  71
ATOM     71  C   UNL A   1      37.065  32.467  30.318  1.00  0.00     0.023 A 
ATOM     72  C   UNL A   1      36.320  33.037  29.272  1.00  0.00     0.031 A 
ATOM     73  C   UNL A   1      36.466  32.400  31.588  1.00  0.00     0.131 A 
ATOM     74  C   UNL A   1      35.043  33.564  29.525  1.00  0.00     0.055 A 
ATOM     75  C   UNL A   1      35.173  32.872  31.823  1.00  0.00     0.041 A 
ATOM     76  F   UNL A   1      37.131  31.865  32.625  1.00  0.00    -0.206 F 
ATOM     77  C   UNL A   1      34.459  33.472  30.790  1.00  0.00     0.022 A 
BRANCH  74  78
ATOM     78  S   UNL A   1      34.191  34.459  28.197  1.00  0.00     0.124 S 
ATOM     79  O   UNL A   1      33.910  35.740  28.836  1.00  0.00    -0.237 OA
ATOM     80  O   UNL A   1      35.203  34.475  27.146  1.00  0.00    -0.237 OA
ATOM     81  O   UNL A   1      33.022  33.628  27.922  1.00  0.00    -0.744 OA
ENDBRANCH  74  78
ENDBRANCH  47  71
BRANCH  59  82
ATOM     82  C   UNL A   1      43.273  35.609  30.795  1.00  0.00     0.023 A 
ATOM     83  C   UNL A   1      43.454  36.571  29.787  1.00  0.00     0.031 A 
ATOM     84  C   UNL A   1      43.492  36.003  32.128  1.00  0.00     0.131 A 
ATOM     85  C   UNL A   1      43.914  37.854  30.118  1.00  0.00     0.055 A 
ATOM     86  C   UNL A   1      43.875  37.303  32.458  1.00  0.00     0.041 A 
ATOM     87  F   UNL A   1      43.338  35.127  33.134  1.00  0.00    -0.206 F 
ATOM     88  C   UNL A   1      44.108  38.232  31.449  1.00  0.00     0.022 A 
BRANCH  85  89
ATOM     89  S   UNL A   1      44.380  38.984  28.777  1.00  0.00     0.124 S 
ATOM     90  O   UNL A   1      43.264  38.829  27.849  1.00  0.00    -0.237 OA
ATOM     91  O   UNL A   1      44.463  40.268  29.465  1.00  0.00    -0.237 OA
ATOM     92  O   UNL A   1      45.657  38.449  28.306  1.00  0.00    -0.744 OA
ENDBRANCH  85  89
ENDBRANCH  59  82
ENDBRANCH  33  34
ENDBRANCH  25  28
ENDBRANCH  23  24
ENDBRANCH  22  23
ENDBRANCH   1  22
TORSDOF 19
ENDMDL
MODEL 3
REMARK VINA RESULT:     -10.8      1.920      2.350
REMARK SMILES CC[C@H](NS(=O)(=O)Cc1ccccc1)C(=O)NCCCCNC(=O)c1ccc(-c2c3nc(c(-c4cc(S(=O)(=O)[O-])ccc4F)c4ccc([nH]4)c(-c4cc(S(=O)(=O)[O-])ccc4F)c4nc(c(-c5cc(S(=O)(=O)[O-])ccc5F)c5ccc2[nH]5)C=C4)C=C3)cc1
REMARK SMILES IDX 19 1 18 2 17 3 15 4 16 5 3 7 2 8 1 9 4 10 5 12 6 13 7 14
REMARK SMILES IDX 8 15 9 16 10 17 14 18 11 19 13 20 12 21 20 22 21 23 22 24
REMARK SMILES IDX 23 25 24 27 25 28 26 29 87 30 27 31 86 32 28 33 29 34 30 35
REMARK SMILES IDX 80 36 31 37 85 38 79 39 81 40 32 41 84 42 78 43 77 44 33 46
REMARK SMILES IDX 65 47 45 48 64 49 46 50 49 51 63 52 82 53 47 54 48 55 62 57
REMARK SMILES IDX 83 58 50 59 34 60 35 61 43 62 36 63 42 64 44 65 41 66 37 67
REMARK SMILES IDX 38 68 39 69 40 70 66 71 67 72 75 73 68 74 74 75 76 76 73 77
REMARK SMILES IDX 69 78 70 79 71 80 72 81 51 82 52 83 60 84 53 85 59 86 61 87
REMARK SMILES IDX 58 88 54 89 55 90 56 91 57 92
REMARK H PARENT 17 6 4 11 22 26 81 45 49 56
REMARK Flexibility Score: inf
ROOT
ATOM      1  C   UNL A   1      33.970  28.226  25.763  1.00  0.00     0.023 C 
ENDROOT
BRANCH   1   2
ATOM      2  C   UNL A   1      33.504  26.793  25.414  1.00  0.00     0.116 C 
BRANCH   2   3
ATOM      3  N   UNL A   1      32.328  26.158  25.980  1.00  0.00    -0.355 N 
ATOM      4  C   UNL A   1      32.028  24.875  26.363  1.00  0.00     0.238 C 
ATOM      5  O   UNL A   1      31.074  24.731  27.137  1.00  0.00    -0.273 OA
ATOM      6  H   UNL A   1      31.582  26.785  26.119  1.00  0.00     0.163 HD
BRANCH   4   7
ATOM      7  C   UNL A   1      32.826  23.655  25.940  1.00  0.00     0.158 C 
BRANCH   7   8
ATOM      8  C   UNL A   1      33.939  23.341  26.962  1.00  0.00     0.027 C 
ATOM      9  C   UNL A   1      34.055  21.910  27.460  1.00  0.00     0.006 C 
ENDBRANCH   7   8
BRANCH   7  10
ATOM     10  N   UNL A   1      33.276  23.696  24.531  1.00  0.00    -0.202 NA
ATOM     11  H   UNL A   1      34.176  24.177  24.512  1.00  0.00     0.141 HD
BRANCH  10  12
ATOM     12  S   UNL A   1      33.474  22.209  23.722  1.00  0.00     0.216 S 
ATOM     13  O   UNL A   1      33.081  22.542  22.370  1.00  0.00    -0.212 OA
ATOM     14  O   UNL A   1      34.815  21.717  23.975  1.00  0.00    -0.212 OA
BRANCH  12  15
ATOM     15  C   UNL A   1      32.222  21.083  24.348  1.00  0.00     0.189 C 
BRANCH  15  16
ATOM     16  C   UNL A   1      32.501  19.599  24.307  1.00  0.00    -0.032 A 
ATOM     17  C   UNL A   1      32.856  18.844  25.422  1.00  0.00     0.005 A 
ATOM     18  C   UNL A   1      32.576  18.941  23.075  1.00  0.00     0.005 A 
ATOM     19  C   UNL A   1      33.161  17.476  25.292  1.00  0.00     0.000 A 
ATOM     20  C   UNL A   1      32.801  17.573  22.932  1.00  0.00     0.000 A 
ATOM     21  C   UNL A   1      33.091  16.831  24.057  1.00  0.00     0.000 A 
ENDBRANCH  15  16
ENDBRANCH  12  15
ENDBRANCH  10  12
ENDBRANCH   7  10
ENDBRANCH   4   7
ENDBRANCH   2   3
ENDBRANCH   1   2
BRANCH   1  22
ATOM     22  C   UNL A   1      33.153  29.524  25.871  1.00  0.00     0.023 C 
BRANCH  22  23
ATOM     23  C   UNL A   1      32.697  30.094  27.200  1.00  0.00     0.116 C 
BRANCH  23  24
ATOM     24  N   UNL A   1      32.707  31.532  27.239  1.00  0.00    -0.352 N 
ATOM     25  C   UNL A   1      33.689  32.370  27.713  1.00  0.00     0.251 C 
ATOM     26  H   UNL A   1      31.905  31.974  26.879  1.00  0.00     0.163 HD
ATOM     27  O   UNL A   1      33.448  33.574  27.779  1.00  0.00    -0.269 OA
BRANCH  25  28
ATOM     28  C   UNL A   1      35.004  31.849  28.173  1.00  0.00     0.039 A 
ATOM     29  C   UNL A   1      35.051  30.547  28.681  1.00  0.00     0.014 A 
ATOM     30  C   UNL A   1      36.170  32.625  28.172  1.00  0.00     0.014 A 
ATOM     31  C   UNL A   1      36.247  30.031  29.187  1.00  0.00     0.010 A 
ATOM     32  C   UNL A   1      37.384  32.079  28.605  1.00  0.00     0.010 A 
ATOM     33  C   UNL A   1      37.429  30.790  29.156  1.00  0.00    -0.014 A 
BRANCH  33  34
ATOM     34  C   UNL A   1      38.674  30.263  29.785  1.00  0.00     0.031 A 
ATOM     35  C   UNL A   1      39.050  30.688  31.185  1.00  0.00     0.074 A 
ATOM     36  C   UNL A   1      39.448  29.384  29.119  1.00  0.00     0.049 A 
ATOM     37  N   UNL A   1      40.047  30.291  31.934  1.00  0.00    -0.248 NA
ATOM     38  C   UNL A   1      38.205  31.714  31.814  1.00  0.00     0.031 C 
ATOM     39  C   UNL A   1      39.209  28.920  27.751  1.00  0.00     0.029 A 
ATOM     40  N   UNL A   1      40.580  28.707  29.504  1.00  0.00    -0.354 N 
ATOM     41  C   UNL A   1      39.954  31.025  33.115  1.00  0.00     0.074 A 
ATOM     42  C   UNL A   1      38.847  31.940  32.949  1.00  0.00     0.031 C 
ATOM     43  C   UNL A   1      40.131  27.997  27.432  1.00  0.00     0.029 A 
ATOM     44  C   UNL A   1      41.051  27.830  28.553  1.00  0.00     0.049 A 
ATOM     45  H   UNL A   1      41.014  28.836  30.378  1.00  0.00     0.167 HD
ATOM     46  C   UNL A   1      40.702  30.925  34.243  1.00  0.00     0.034 A 
ATOM     47  C   UNL A   1      42.099  26.981  28.585  1.00  0.00     0.034 A 
ATOM     48  C   UNL A   1      41.796  29.996  34.394  1.00  0.00     0.049 A 
ATOM     49  C   UNL A   1      42.930  26.903  29.842  1.00  0.00     0.074 A 
ATOM     50  C   UNL A   1      42.588  29.769  35.507  1.00  0.00     0.029 A 
ATOM     51  N   UNL A   1      42.262  29.146  33.398  1.00  0.00    -0.354 N 
ATOM     52  N   UNL A   1      42.788  27.557  30.972  1.00  0.00    -0.248 NA
ATOM     53  C   UNL A   1      44.054  25.957  29.831  1.00  0.00     0.031 C 
ATOM     54  C   UNL A   1      43.581  28.847  35.159  1.00  0.00     0.029 A 
ATOM     55  C   UNL A   1      43.353  28.424  33.859  1.00  0.00     0.049 A 
ATOM     56  H   UNL A   1      41.874  29.069  32.497  1.00  0.00     0.167 HD
ATOM     57  C   UNL A   1      43.781  27.071  31.819  1.00  0.00     0.074 A 
ATOM     58  C   UNL A   1      44.500  26.058  31.074  1.00  0.00     0.031 C 
ATOM     59  C   UNL A   1      44.069  27.423  33.100  1.00  0.00     0.034 A 
BRANCH  46  60
ATOM     60  C   UNL A   1      40.381  31.872  35.379  1.00  0.00     0.023 A 
ATOM     61  C   UNL A   1      39.366  31.597  36.315  1.00  0.00     0.031 A 
ATOM     62  C   UNL A   1      41.074  33.089  35.509  1.00  0.00     0.131 A 
ATOM     63  C   UNL A   1      39.013  32.560  37.274  1.00  0.00     0.055 A 
ATOM     64  C   UNL A   1      40.782  34.002  36.525  1.00  0.00     0.041 A 
ATOM     65  F   UNL A   1      42.039  33.422  34.637  1.00  0.00    -0.206 F 
ATOM     66  C   UNL A   1      39.734  33.749  37.404  1.00  0.00     0.022 A 
BRANCH  63  67
ATOM     67  S   UNL A   1      37.496  32.309  38.237  1.00  0.00     0.124 S 
ATOM     68  O   UNL A   1      36.544  33.146  37.509  1.00  0.00    -0.237 OA
ATOM     69  O   UNL A   1      37.290  30.870  38.135  1.00  0.00    -0.237 OA
ATOM     70  O   UNL A   1      37.850  32.797  39.568  1.00  0.00    -0.744 OA
ENDBRANCH  63  67
ENDBRANCH  46  60
BRANCH  47  71
ATOM     71  C   UNL A   1      42.421  26.124  27.405  1.00  0.00     0.023 A 
ATOM     72  C   UNL A   1      41.990  24.789  27.338  1.00  0.00     0.031 A 
ATOM     73  C   UNL A   1      43.208  26.612  26.347  1.00  0.00     0.131 A 
ATOM     74  C   UNL A   1      42.390  23.974  26.267  1.00  0.00     0.055 A 
ATOM     75  C   UNL A   1      43.555  25.816  25.254  1.00  0.00     0.041 A 
ATOM     76  F   UNL A   1      43.648  27.881  26.357  1.00  0.00    -0.206 F 
ATOM     77  C   UNL A   1      43.157  24.483  25.217  1.00  0.00     0.022 A 
BRANCH  74  78
ATOM     78  S   UNL A   1      41.972  22.209  26.311  1.00  0.00     0.124 S 
ATOM     79  O   UNL A   1      40.515  22.248  26.253  1.00  0.00    -0.237 OA
ATOM     80  O   UNL A   1      42.649  21.708  25.120  1.00  0.00    -0.237 OA
ATOM     81  O   UNL A   1      42.535  21.758  27.582  1.00  0.00    -0.744 OA
ENDBRANCH  74  78
ENDBRANCH  47  71
BRANCH  59  82
ATOM     82  C   UNL A   1      45.181  26.665  33.787  1.00  0.00     0.023 A 
ATOM     83  C   UNL A   1      44.978  25.394  34.351  1.00  0.00     0.031 A 
ATOM     84  C   UNL A   1      46.460  27.240  33.903  1.00  0.00     0.131 A 
ATOM     85  C   UNL A   1      46.012  24.772  35.068  1.00  0.00     0.055 A 
ATOM     86  C   UNL A   1      47.507  26.583  34.550  1.00  0.00     0.041 A 
ATOM     87  F   UNL A   1      46.714  28.454  33.387  1.00  0.00    -0.206 F 
ATOM     88  C   UNL A   1      47.281  25.351  35.155  1.00  0.00     0.022 A 
BRANCH  85  89
ATOM     89  S   UNL A   1      45.639  23.258  35.994  1.00  0.00     0.124 S 
ATOM     90  O   UNL A   1      46.042  23.625  37.348  1.00  0.00    -0.237 OA
ATOM     91  O   UNL A   1      44.205  23.103  35.775  1.00  0.00    -0.237 OA
ATOM     92  O   UNL A   1      46.478  22.248  35.351  1.00  0.00    -0.744 OA
ENDBRANCH  85  89
ENDBRANCH  59  82
ENDBRANCH  33  34
ENDBRANCH  25  28
ENDBRANCH  23  24
ENDBRANCH  22  23
ENDBRANCH   1  22
TORSDOF 19
ENDMDL
