MODEL 1
REMARK VINA RESULT:     -13.3      0.000      0.000
REMARK SMILES CCn1ncc(NC(=O)[C@@H]2CCCC[C@@H]2C(=O)NCCCCNC(=O)c2ccc(-c3c4nc(c(-c5cc(S(=O)(=O)[O-])ccc5F)c5ccc([nH]5)c(-c5cc(S(=O)(=O)[O-])ccc5F)c5nc(c(-c6cc(S(=O)(=O)[O-])ccc6F)c6ccc3[nH]6)C=C5)C=C4)cc2)c1C(=O)Nc1cnn(C)c1C
REMARK SMILES IDX 20 1 19 2 18 3 16 4 17 5 15 7 10 8 11 9 12 10 14 11 13 12
REMARK SMILES IDX 8 13 7 14 9 16 6 17 3 18 4 19 89 20 5 21 2 22 1 23 90 24
REMARK SMILES IDX 91 25 92 26 93 28 94 29 98 30 95 31 96 32 99 33 97 34 21 35
REMARK SMILES IDX 22 36 23 37 24 38 25 40 26 41 27 42 88 43 28 44 87 45 29 46
REMARK SMILES IDX 30 47 31 48 81 49 32 50 86 51 80 52 82 53 33 54 85 55 79 56
REMARK SMILES IDX 78 57 34 59 66 60 46 61 65 62 47 63 50 64 64 65 83 66 48 67
REMARK SMILES IDX 49 68 63 70 84 71 51 72 35 73 36 74 44 75 37 76 43 77 45 78
REMARK SMILES IDX 42 79 38 80 39 81 40 82 41 83 67 84 68 85 76 86 69 87 75 88
REMARK SMILES IDX 77 89 74 90 70 91 71 92 72 93 73 94 52 95 53 96 61 97 54 98
REMARK SMILES IDX 60 99 62 100 59 101 55 102 56 103 57 104 58 105
REMARK H PARENT 18 6 7 15 92 27 23 39 82 58 50 69
REMARK Flexibility Score: inf
ROOT
ATOM      1  C   UNL A   1      34.031  27.870  26.111  1.00  0.00     0.023 C 
ENDROOT
BRANCH   1   2
ATOM      2  C   UNL A   1      33.735  28.437  24.730  1.00  0.00     0.116 C 
BRANCH   2   3
ATOM      3  N   UNL A   1      32.512  29.181  24.611  1.00  0.00    -0.356 N 
ATOM      4  C   UNL A   1      31.249  28.754  24.349  1.00  0.00     0.223 C 
ATOM      5  O   UNL A   1      30.354  29.603  24.452  1.00  0.00    -0.275 OA
ATOM      6  H   UNL A   1      32.603  30.152  24.739  1.00  0.00     0.163 HD
BRANCH   4   7
ATOM      7  C   UNL A   1      30.892  27.361  23.799  1.00  0.00     0.091 C 
ATOM      8  C   UNL A   1      31.328  26.046  24.444  1.00  0.00     0.091 C 
ATOM      9  C   UNL A   1      32.738  25.578  24.135  1.00  0.00     0.014 C 
ATOM     10  C   UNL A   1      33.071  25.613  22.641  1.00  0.00     0.001 C 
ATOM     11  C   UNL A   1      31.022  27.247  22.279  1.00  0.00     0.014 C 
ATOM     12  C   UNL A   1      32.294  26.587  21.745  1.00  0.00     0.001 C 
BRANCH   8  13
ATOM     13  C   UNL A   1      31.055  25.920  25.910  1.00  0.00     0.228 C 
ATOM     14  N   UNL A   1      31.247  24.733  26.555  1.00  0.00    -0.322 N 
ATOM     15  H   UNL A   1      30.990  24.789  27.504  1.00  0.00     0.170 HD
ATOM     16  O   UNL A   1      30.670  26.894  26.560  1.00  0.00    -0.274 OA
BRANCH  14  17
ATOM     17  C   UNL A   1      31.711  23.456  26.223  1.00  0.00     0.092 A 
ATOM     18  N   UNL A   1      32.594  21.449  25.933  1.00  0.00    -0.258 N 
ATOM     19  N   UNL A   1      31.367  21.335  25.399  1.00  0.00    -0.178 NA
ATOM     20  C   UNL A   1      32.905  22.733  26.339  1.00  0.00     0.150 A 
ATOM     21  C   UNL A   1      30.818  22.520  25.631  1.00  0.00     0.162 A 
BRANCH  18  22
ATOM     22  C   UNL A   1      33.385  20.231  26.038  1.00  0.00     0.142 C 
ATOM     23  C   UNL A   1      33.108  19.163  24.991  1.00  0.00     0.029 C 
ENDBRANCH  18  22
BRANCH  20  24
ATOM     24  C   UNL A   1      34.170  23.008  26.965  1.00  0.00     0.276 C 
ATOM     25  O   UNL A   1      34.411  22.684  28.126  1.00  0.00    -0.267 OA
ATOM     26  N   UNL A   1      35.136  23.679  26.217  1.00  0.00    -0.318 N 
ATOM     27  H   UNL A   1      35.102  24.655  26.086  1.00  0.00     0.170 HD
BRANCH  26  28
ATOM     28  C   UNL A   1      36.150  22.902  25.664  1.00  0.00     0.082 A 
ATOM     29  C   UNL A   1      36.047  21.789  24.813  1.00  0.00     0.161 A 
ATOM     30  C   UNL A   1      37.503  23.066  25.893  1.00  0.00     0.059 A 
ATOM     31  N   UNL A   1      37.227  21.185  24.645  1.00  0.00    -0.179 NA
ATOM     32  N   UNL A   1      38.075  21.921  25.391  1.00  0.00    -0.271 N 
ATOM     33  C   UNL A   1      38.265  24.089  26.655  1.00  0.00     0.068 C 
ATOM     34  C   UNL A   1      39.348  21.349  25.768  1.00  0.00     0.174 C 
ENDBRANCH  26  28
ENDBRANCH  20  24
ENDBRANCH  14  17
ENDBRANCH   8  13
ENDBRANCH   4   7
ENDBRANCH   2   3
ENDBRANCH   1   2
BRANCH   1  35
ATOM     35  C   UNL A   1      34.087  28.886  27.247  1.00  0.00     0.023 C 
BRANCH  35  36
ATOM     36  C   UNL A   1      35.441  29.568  27.430  1.00  0.00     0.116 C 
BRANCH  36  37
ATOM     37  N   UNL A   1      35.637  30.113  28.768  1.00  0.00    -0.352 N 
ATOM     38  C   UNL A   1      36.593  29.710  29.680  1.00  0.00     0.251 C 
ATOM     39  H   UNL A   1      35.033  30.838  29.048  1.00  0.00     0.163 HD
ATOM     40  O   UNL A   1      36.428  29.892  30.884  1.00  0.00    -0.269 OA
BRANCH  38  41
ATOM     41  C   UNL A   1      37.808  29.046  29.173  1.00  0.00     0.039 A 
ATOM     42  C   UNL A   1      38.499  29.571  28.084  1.00  0.00     0.014 A 
ATOM     43  C   UNL A   1      38.288  27.928  29.859  1.00  0.00     0.014 A 
ATOM     44  C   UNL A   1      39.738  29.026  27.753  1.00  0.00     0.010 A 
ATOM     45  C   UNL A   1      39.549  27.434  29.575  1.00  0.00     0.010 A 
ATOM     46  C   UNL A   1      40.286  27.982  28.526  1.00  0.00    -0.014 A 
BRANCH  46  47
ATOM     47  C   UNL A   1      41.702  27.636  28.355  1.00  0.00     0.031 A 
ATOM     48  C   UNL A   1      41.931  26.389  27.573  1.00  0.00     0.074 A 
ATOM     49  C   UNL A   1      42.759  28.409  28.680  1.00  0.00     0.049 A 
ATOM     50  N   UNL A   1      42.324  25.248  28.030  1.00  0.00    -0.248 NA
ATOM     51  C   UNL A   1      41.525  26.350  26.159  1.00  0.00     0.031 C 
ATOM     52  C   UNL A   1      42.752  29.774  29.204  1.00  0.00     0.029 A 
ATOM     53  N   UNL A   1      44.094  28.156  28.516  1.00  0.00    -0.354 N 
ATOM     54  C   UNL A   1      42.476  24.419  26.924  1.00  0.00     0.074 A 
ATOM     55  C   UNL A   1      41.771  25.074  25.853  1.00  0.00     0.031 C 
ATOM     56  C   UNL A   1      43.992  30.304  29.104  1.00  0.00     0.029 A 
ATOM     57  C   UNL A   1      44.913  29.275  28.652  1.00  0.00     0.049 A 
ATOM     58  H   UNL A   1      44.445  27.258  28.317  1.00  0.00     0.167 HD
ATOM     59  C   UNL A   1      43.383  23.401  26.936  1.00  0.00     0.034 A 
ATOM     60  C   UNL A   1      46.248  29.367  28.400  1.00  0.00     0.034 A 
ATOM     61  C   UNL A   1      43.813  23.110  28.292  1.00  0.00     0.049 A 
ATOM     62  C   UNL A   1      46.804  27.998  28.544  1.00  0.00     0.074 A 
ATOM     63  C   UNL A   1      43.152  22.822  29.473  1.00  0.00     0.029 A 
ATOM     64  N   UNL A   1      45.084  23.486  28.675  1.00  0.00    -0.354 N 
ATOM     65  N   UNL A   1      46.833  27.359  29.683  1.00  0.00    -0.248 NA
ATOM     66  C   UNL A   1      46.884  27.156  27.361  1.00  0.00     0.031 C 
ATOM     67  C   UNL A   1      43.855  23.560  30.471  1.00  0.00     0.029 A 
ATOM     68  C   UNL A   1      44.962  24.158  29.866  1.00  0.00     0.049 A 
ATOM     69  H   UNL A   1      45.920  23.307  28.188  1.00  0.00     0.167 HD
ATOM     70  C   UNL A   1      46.471  26.059  29.367  1.00  0.00     0.074 A 
ATOM     71  C   UNL A   1      46.621  25.969  27.915  1.00  0.00     0.031 C 
ATOM     72  C   UNL A   1      45.815  25.263  30.264  1.00  0.00     0.034 A 
BRANCH  59  73
ATOM     73  C   UNL A   1      44.187  22.942  25.733  1.00  0.00     0.023 A 
ATOM     74  C   UNL A   1      44.274  21.551  25.528  1.00  0.00     0.031 A 
ATOM     75  C   UNL A   1      45.108  23.724  25.002  1.00  0.00     0.131 A 
ATOM     76  C   UNL A   1      45.332  20.993  24.791  1.00  0.00     0.055 A 
ATOM     77  C   UNL A   1      46.111  23.165  24.202  1.00  0.00     0.041 A 
ATOM     78  F   UNL A   1      45.155  25.057  25.077  1.00  0.00    -0.206 F 
ATOM     79  C   UNL A   1      46.258  21.791  24.130  1.00  0.00     0.022 A 
BRANCH  76  80
ATOM     80  S   UNL A   1      45.597  19.207  24.915  1.00  0.00     0.124 S 
ATOM     81  O   UNL A   1      45.736  18.845  23.508  1.00  0.00    -0.237 OA
ATOM     82  O   UNL A   1      46.812  19.140  25.721  1.00  0.00    -0.237 OA
ATOM     83  O   UNL A   1      44.384  18.729  25.572  1.00  0.00    -0.744 OA
ENDBRANCH  76  80
ENDBRANCH  59  73
BRANCH  60  84
ATOM     84  C   UNL A   1      46.998  30.518  27.817  1.00  0.00     0.023 A 
ATOM     85  C   UNL A   1      46.378  31.558  27.087  1.00  0.00     0.031 A 
ATOM     86  C   UNL A   1      48.347  30.734  28.188  1.00  0.00     0.131 A 
ATOM     87  C   UNL A   1      47.097  32.737  26.763  1.00  0.00     0.055 A 
ATOM     88  C   UNL A   1      49.051  31.896  27.861  1.00  0.00     0.041 A 
ATOM     89  F   UNL A   1      49.005  29.857  28.960  1.00  0.00    -0.206 F 
ATOM     90  C   UNL A   1      48.427  32.907  27.156  1.00  0.00     0.022 A 
BRANCH  87  91
ATOM     91  S   UNL A   1      46.281  34.127  25.908  1.00  0.00     0.124 S 
ATOM     92  O   UNL A   1      47.362  34.669  25.093  1.00  0.00    -0.237 OA
ATOM     93  O   UNL A   1      45.195  33.468  25.193  1.00  0.00    -0.237 OA
ATOM     94  O   UNL A   1      45.848  34.996  27.005  1.00  0.00    -0.744 OA
ENDBRANCH  87  91
ENDBRANCH  60  84
BRANCH  72  95
ATOM     95  C   UNL A   1      45.777  25.658  31.726  1.00  0.00     0.023 A 
ATOM     96  C   UNL A   1      46.793  25.394  32.673  1.00  0.00     0.031 A 
ATOM     97  C   UNL A   1      44.697  26.461  32.141  1.00  0.00     0.131 A 
ATOM     98  C   UNL A   1      46.697  25.925  33.975  1.00  0.00     0.055 A 
ATOM     99  C   UNL A   1      44.618  27.004  33.421  1.00  0.00     0.041 A 
ATOM    100  F   UNL A   1      43.707  26.769  31.285  1.00  0.00    -0.206 F 
ATOM    101  C   UNL A   1      45.617  26.733  34.347  1.00  0.00     0.022 A 
BRANCH  98 102
ATOM    102  S   UNL A   1      47.971  25.563  35.228  1.00  0.00     0.124 S 
ATOM    103  O   UNL A   1      47.866  24.121  35.418  1.00  0.00    -0.237 OA
ATOM    104  O   UNL A   1      49.193  26.037  34.583  1.00  0.00    -0.237 OA
ATOM    105  O   UNL A   1      47.548  26.360  36.382  1.00  0.00    -0.744 OA
ENDBRANCH  98 102
ENDBRANCH  72  95
ENDBRANCH  46  47
ENDBRANCH  38  41
ENDBRANCH  36  37
ENDBRANCH  35  36
ENDBRANCH   1  35
TORSDOF 19
ENDMDL
MODEL 2
REMARK VINA RESULT:     -12.9      4.327     10.344
REMARK SMILES CCn1ncc(NC(=O)[C@@H]2CCCC[C@@H]2C(=O)NCCCCNC(=O)c2ccc(-c3c4nc(c(-c5cc(S(=O)(=O)[O-])ccc5F)c5ccc([nH]5)c(-c5cc(S(=O)(=O)[O-])ccc5F)c5nc(c(-c6cc(S(=O)(=O)[O-])ccc6F)c6ccc3[nH]6)C=C5)C=C4)cc2)c1C(=O)Nc1cnn(C)c1C
REMARK SMILES IDX 20 1 19 2 18 3 16 4 17 5 15 7 10 8 11 9 12 10 14 11 13 12
REMARK SMILES IDX 8 13 7 14 9 16 6 17 3 18 4 19 89 20 5 21 2 22 1 23 90 24
REMARK SMILES IDX 91 25 92 26 93 28 94 29 98 30 95 31 96 32 99 33 97 34 21 35
REMARK SMILES IDX 22 36 23 37 24 38 25 40 26 41 27 42 88 43 28 44 87 45 29 46
REMARK SMILES IDX 30 47 31 48 81 49 32 50 86 51 80 52 82 53 33 54 85 55 79 56
REMARK SMILES IDX 78 57 34 59 66 60 46 61 65 62 47 63 50 64 64 65 83 66 48 67
REMARK SMILES IDX 49 68 63 70 84 71 51 72 35 73 36 74 44 75 37 76 43 77 45 78
REMARK SMILES IDX 42 79 38 80 39 81 40 82 41 83 67 84 68 85 76 86 69 87 75 88
REMARK SMILES IDX 77 89 74 90 70 91 71 92 72 93 73 94 52 95 53 96 61 97 54 98
REMARK SMILES IDX 60 99 62 100 59 101 55 102 56 103 57 104 58 105
REMARK H PARENT 18 6 7 15 92 27 23 39 82 58 50 69
REMARK Flexibility Score: inf
ROOT
ATOM      1  C   UNL A   1      36.884  22.286  25.057  1.00  0.00     0.023 C 
ENDROOT
BRANCH   1   2
ATOM      2  C   UNL A   1      35.671  22.155  24.147  1.00  0.00     0.116 C 
BRANCH   2   3
ATOM      3  N   UNL A   1      35.302  23.341  23.425  1.00  0.00    -0.356 N 
ATOM      4  C   UNL A   1      34.096  23.956  23.309  1.00  0.00     0.223 C 
ATOM      5  O   UNL A   1      34.097  25.056  22.740  1.00  0.00    -0.275 OA
ATOM      6  H   UNL A   1      36.038  23.777  22.940  1.00  0.00     0.163 HD
BRANCH   4   7
ATOM      7  C   UNL A   1      32.748  23.319  23.689  1.00  0.00     0.091 C 
ATOM      8  C   UNL A   1      32.447  22.697  25.052  1.00  0.00     0.091 C 
ATOM      9  C   UNL A   1      32.943  21.280  25.273  1.00  0.00     0.014 C 
ATOM     10  C   UNL A   1      32.583  20.330  24.128  1.00  0.00     0.001 C 
ATOM     11  C   UNL A   1      32.149  22.439  22.590  1.00  0.00     0.014 C 
ATOM     12  C   UNL A   1      32.341  20.928  22.735  1.00  0.00     0.001 C 
BRANCH   8  13
ATOM     13  C   UNL A   1      32.776  23.547  26.240  1.00  0.00     0.228 C 
ATOM     14  N   UNL A   1      32.360  24.845  26.305  1.00  0.00    -0.322 N 
ATOM     15  H   UNL A   1      32.682  25.289  27.123  1.00  0.00     0.170 HD
ATOM     16  O   UNL A   1      33.413  23.079  27.186  1.00  0.00    -0.274 OA
BRANCH  14  17
ATOM     17  C   UNL A   1      31.597  25.712  25.515  1.00  0.00     0.092 A 
ATOM     18  N   UNL A   1      30.628  27.136  24.129  1.00  0.00    -0.258 N 
ATOM     19  N   UNL A   1      29.666  26.233  24.378  1.00  0.00    -0.178 NA
ATOM     20  C   UNL A   1      31.775  26.946  24.876  1.00  0.00     0.150 A 
ATOM     21  C   UNL A   1      30.270  25.346  25.159  1.00  0.00     0.162 A 
BRANCH  18  22
ATOM     22  C   UNL A   1      30.346  28.139  23.112  1.00  0.00     0.142 C 
ATOM     23  C   UNL A   1      29.930  29.511  23.624  1.00  0.00     0.029 C 
ENDBRANCH  18  22
BRANCH  20  24
ATOM     24  C   UNL A   1      32.909  27.811  24.695  1.00  0.00     0.276 C 
ATOM     25  O   UNL A   1      33.149  28.363  23.623  1.00  0.00    -0.267 OA
ATOM     26  N   UNL A   1      33.762  28.003  25.781  1.00  0.00    -0.318 N 
ATOM     27  H   UNL A   1      34.439  27.334  26.032  1.00  0.00     0.170 HD
BRANCH  26  28
ATOM     28  C   UNL A   1      33.608  29.190  26.494  1.00  0.00     0.082 A 
ATOM     29  C   UNL A   1      32.475  30.013  26.607  1.00  0.00     0.161 A 
ATOM     30  C   UNL A   1      34.597  29.824  27.221  1.00  0.00     0.059 A 
ATOM     31  N   UNL A   1      32.762  31.167  27.218  1.00  0.00    -0.179 NA
ATOM     32  N   UNL A   1      34.079  31.068  27.490  1.00  0.00    -0.271 N 
ATOM     33  C   UNL A   1      35.998  29.441  27.539  1.00  0.00     0.068 C 
ATOM     34  C   UNL A   1      34.821  32.272  27.790  1.00  0.00     0.174 C 
ENDBRANCH  26  28
ENDBRANCH  20  24
ENDBRANCH  14  17
ENDBRANCH   8  13
ENDBRANCH   4   7
ENDBRANCH   2   3
ENDBRANCH   1   2
BRANCH   1  35
ATOM     35  C   UNL A   1      36.749  23.282  26.204  1.00  0.00     0.023 C 
BRANCH  35  36
ATOM     36  C   UNL A   1      37.681  24.488  26.117  1.00  0.00     0.116 C 
BRANCH  36  37
ATOM     37  N   UNL A   1      39.093  24.134  26.200  1.00  0.00    -0.352 N 
ATOM     38  C   UNL A   1      40.116  24.961  26.621  1.00  0.00     0.251 C 
ATOM     39  H   UNL A   1      39.341  23.220  25.930  1.00  0.00     0.163 HD
ATOM     40  O   UNL A   1      41.275  24.758  26.263  1.00  0.00    -0.269 OA
BRANCH  38  41
ATOM     41  C   UNL A   1      39.782  26.096  27.500  1.00  0.00     0.039 A 
ATOM     42  C   UNL A   1      39.337  25.877  28.801  1.00  0.00     0.014 A 
ATOM     43  C   UNL A   1      39.998  27.391  27.021  1.00  0.00     0.014 A 
ATOM     44  C   UNL A   1      39.210  26.969  29.657  1.00  0.00     0.010 A 
ATOM     45  C   UNL A   1      39.941  28.465  27.891  1.00  0.00     0.010 A 
ATOM     46  C   UNL A   1      39.554  28.263  29.215  1.00  0.00    -0.014 A 
BRANCH  46  47
ATOM     47  C   UNL A   1      39.707  29.337  30.204  1.00  0.00     0.031 A 
ATOM     48  C   UNL A   1      38.456  30.099  30.470  1.00  0.00     0.074 A 
ATOM     49  C   UNL A   1      40.789  29.562  30.979  1.00  0.00     0.049 A 
ATOM     50  N   UNL A   1      38.185  31.303  30.090  1.00  0.00    -0.248 NA
ATOM     51  C   UNL A   1      37.314  29.402  31.081  1.00  0.00     0.031 C 
ATOM     52  C   UNL A   1      42.015  28.769  31.070  1.00  0.00     0.029 A 
ATOM     53  N   UNL A   1      40.978  30.521  31.936  1.00  0.00    -0.354 N 
ATOM     54  C   UNL A   1      36.947  31.614  30.642  1.00  0.00     0.074 A 
ATOM     55  C   UNL A   1      36.378  30.355  31.045  1.00  0.00     0.031 C 
ATOM     56  C   UNL A   1      42.712  29.138  32.168  1.00  0.00     0.029 A 
ATOM     57  C   UNL A   1      42.066  30.290  32.775  1.00  0.00     0.049 A 
ATOM     58  H   UNL A   1      40.394  31.308  32.024  1.00  0.00     0.167 HD
ATOM     59  C   UNL A   1      36.625  32.904  30.945  1.00  0.00     0.034 A 
ATOM     60  C   UNL A   1      42.414  30.978  33.899  1.00  0.00     0.034 A 
ATOM     61  C   UNL A   1      37.527  33.830  30.283  1.00  0.00     0.049 A 
ATOM     62  C   UNL A   1      41.839  32.338  33.760  1.00  0.00     0.074 A 
ATOM     63  C   UNL A   1      37.931  34.012  28.973  1.00  0.00     0.029 A 
ATOM     64  N   UNL A   1      38.471  34.487  31.044  1.00  0.00    -0.354 N 
ATOM     65  N   UNL A   1      42.230  33.186  32.847  1.00  0.00    -0.248 NA
ATOM     66  C   UNL A   1      40.515  32.588  34.308  1.00  0.00     0.031 C 
ATOM     67  C   UNL A   1      39.333  34.264  29.057  1.00  0.00     0.029 A 
ATOM     68  C   UNL A   1      39.678  34.333  30.408  1.00  0.00     0.049 A 
ATOM     69  H   UNL A   1      38.311  34.975  31.884  1.00  0.00     0.167 HD
ATOM     70  C   UNL A   1      41.062  33.772  32.385  1.00  0.00     0.074 A 
ATOM     71  C   UNL A   1      40.054  33.446  33.392  1.00  0.00     0.031 C 
ATOM     72  C   UNL A   1      40.949  34.220  31.099  1.00  0.00     0.034 A 
BRANCH  59  73
ATOM     73  C   UNL A   1      35.782  33.331  32.133  1.00  0.00     0.023 A 
ATOM     74  C   UNL A   1      34.771  34.278  31.879  1.00  0.00     0.031 A 
ATOM     75  C   UNL A   1      36.103  33.135  33.494  1.00  0.00     0.131 A 
ATOM     76  C   UNL A   1      34.267  35.092  32.907  1.00  0.00     0.055 A 
ATOM     77  C   UNL A   1      35.538  33.893  34.525  1.00  0.00     0.041 A 
ATOM     78  F   UNL A   1      37.035  32.269  33.906  1.00  0.00    -0.206 F 
ATOM     79  C   UNL A   1      34.649  34.912  34.231  1.00  0.00     0.022 A 
BRANCH  76  80
ATOM     80  S   UNL A   1      33.284  36.537  32.434  1.00  0.00     0.124 S 
ATOM     81  O   UNL A   1      31.932  36.053  32.689  1.00  0.00    -0.237 OA
ATOM     82  O   UNL A   1      33.789  37.555  33.350  1.00  0.00    -0.237 OA
ATOM     83  O   UNL A   1      33.628  36.736  31.029  1.00  0.00    -0.744 OA
ENDBRANCH  76  80
ENDBRANCH  59  73
BRANCH  60  84
ATOM     84  C   UNL A   1      43.001  30.441  35.162  1.00  0.00     0.023 A 
ATOM     85  C   UNL A   1      42.982  29.069  35.505  1.00  0.00     0.031 A 
ATOM     86  C   UNL A   1      43.823  31.272  35.959  1.00  0.00     0.131 A 
ATOM     87  C   UNL A   1      43.755  28.589  36.593  1.00  0.00     0.055 A 
ATOM     88  C   UNL A   1      44.580  30.794  37.032  1.00  0.00     0.041 A 
ATOM     89  F   UNL A   1      43.990  32.571  35.668  1.00  0.00    -0.206 F 
ATOM     90  C   UNL A   1      44.558  29.448  37.348  1.00  0.00     0.022 A 
BRANCH  87  91
ATOM     91  S   UNL A   1      43.817  26.808  36.985  1.00  0.00     0.124 S 
ATOM     92  O   UNL A   1      42.588  26.613  37.744  1.00  0.00    -0.237 OA
ATOM     93  O   UNL A   1      43.871  26.193  35.665  1.00  0.00    -0.237 OA
ATOM     94  O   UNL A   1      45.048  26.674  37.768  1.00  0.00    -0.744 OA
ENDBRANCH  87  91
ENDBRANCH  60  84
BRANCH  72  95
ATOM     95  C   UNL A   1      42.197  34.405  30.260  1.00  0.00     0.023 A 
ATOM     96  C   UNL A   1      42.973  35.584  30.193  1.00  0.00     0.031 A 
ATOM     97  C   UNL A   1      42.689  33.267  29.591  1.00  0.00     0.131 A 
ATOM     98  C   UNL A   1      44.186  35.590  29.473  1.00  0.00     0.055 A 
ATOM     99  C   UNL A   1      43.898  33.270  28.901  1.00  0.00     0.041 A 
ATOM    100  F   UNL A   1      42.011  32.106  29.631  1.00  0.00    -0.206 F 
ATOM    101  C   UNL A   1      44.650  34.435  28.835  1.00  0.00     0.022 A 
BRANCH  98 102
ATOM    102  S   UNL A   1      45.183  37.110  29.334  1.00  0.00     0.124 S 
ATOM    103  O   UNL A   1      46.548  36.646  29.550  1.00  0.00    -0.237 OA
ATOM    104  O   UNL A   1      44.869  37.573  27.985  1.00  0.00    -0.237 OA
ATOM    105  O   UNL A   1      44.654  37.960  30.404  1.00  0.00    -0.744 OA
ENDBRANCH  98 102
ENDBRANCH  72  95
ENDBRANCH  46  47
ENDBRANCH  38  41
ENDBRANCH  36  37
ENDBRANCH  35  36
ENDBRANCH   1  35
TORSDOF 19
ENDMDL
MODEL 3
REMARK VINA RESULT:     -12.8      2.346      6.642
REMARK SMILES CCn1ncc(NC(=O)[C@@H]2CCCC[C@@H]2C(=O)NCCCCNC(=O)c2ccc(-c3c4nc(c(-c5cc(S(=O)(=O)[O-])ccc5F)c5ccc([nH]5)c(-c5cc(S(=O)(=O)[O-])ccc5F)c5nc(c(-c6cc(S(=O)(=O)[O-])ccc6F)c6ccc3[nH]6)C=C5)C=C4)cc2)c1C(=O)Nc1cnn(C)c1C
REMARK SMILES IDX 20 1 19 2 18 3 16 4 17 5 15 7 10 8 11 9 12 10 14 11 13 12
REMARK SMILES IDX 8 13 7 14 9 16 6 17 3 18 4 19 89 20 5 21 2 22 1 23 90 24
REMARK SMILES IDX 91 25 92 26 93 28 94 29 98 30 95 31 96 32 99 33 97 34 21 35
REMARK SMILES IDX 22 36 23 37 24 38 25 40 26 41 27 42 88 43 28 44 87 45 29 46
REMARK SMILES IDX 30 47 31 48 81 49 32 50 86 51 80 52 82 53 33 54 85 55 79 56
REMARK SMILES IDX 78 57 34 59 66 60 46 61 65 62 47 63 50 64 64 65 83 66 48 67
REMARK SMILES IDX 49 68 63 70 84 71 51 72 35 73 36 74 44 75 37 76 43 77 45 78
REMARK SMILES IDX 42 79 38 80 39 81 40 82 41 83 67 84 68 85 76 86 69 87 75 88
REMARK SMILES IDX 77 89 74 90 70 91 71 92 72 93 73 94 52 95 53 96 61 97 54 98
REMARK SMILES IDX 60 99 62 100 59 101 55 102 56 103 57 104 58 105
REMARK H PARENT 18 6 7 15 92 27 23 39 82 58 50 69
REMARK Flexibility Score: inf
ROOT
ATOM      1  C   UNL A   1      31.711  30.315  25.958  1.00  0.00     0.023 C 
ENDROOT
BRANCH   1   2
ATOM      2  C   UNL A   1      31.808  29.492  24.682  1.00  0.00     0.116 C 
BRANCH   2   3
ATOM      3  N   UNL A   1      30.555  29.095  24.100  1.00  0.00    -0.356 N 
ATOM      4  C   UNL A   1      30.115  27.866  23.723  1.00  0.00     0.223 C 
ATOM      5  O   UNL A   1      28.927  27.793  23.385  1.00  0.00    -0.275 OA
ATOM      6  H   UNL A   1      29.916  29.828  23.952  1.00  0.00     0.163 HD
BRANCH   4   7
ATOM      7  C   UNL A   1      31.014  26.630  23.548  1.00  0.00     0.091 C 
ATOM      8  C   UNL A   1      31.883  26.036  24.656  1.00  0.00     0.091 C 
ATOM      9  C   UNL A   1      33.219  26.715  24.904  1.00  0.00     0.014 C 
ATOM     10  C   UNL A   1      34.021  26.951  23.622  1.00  0.00     0.001 C 
ATOM     11  C   UNL A   1      31.795  26.616  22.232  1.00  0.00     0.014 C 
ATOM     12  C   UNL A   1      33.258  27.058  22.295  1.00  0.00     0.001 C 
BRANCH   8  13
ATOM     13  C   UNL A   1      31.189  25.779  25.958  1.00  0.00     0.228 C 
ATOM     14  N   UNL A   1      31.157  24.524  26.493  1.00  0.00    -0.322 N 
ATOM     15  H   UNL A   1      30.635  24.499  27.328  1.00  0.00     0.170 HD
ATOM     16  O   UNL A   1      30.654  26.702  26.573  1.00  0.00    -0.274 OA
BRANCH  14  17
ATOM     17  C   UNL A   1      31.668  23.263  26.168  1.00  0.00     0.092 A 
ATOM     18  N   UNL A   1      32.630  21.292  25.887  1.00  0.00    -0.258 N 
ATOM     19  N   UNL A   1      31.399  21.118  25.380  1.00  0.00    -0.178 NA
ATOM     20  C   UNL A   1      32.895  22.594  26.269  1.00  0.00     0.150 A 
ATOM     21  C   UNL A   1      30.805  22.282  25.607  1.00  0.00     0.162 A 
BRANCH  18  22
ATOM     22  C   UNL A   1      33.475  20.111  25.992  1.00  0.00     0.142 C 
ATOM     23  C   UNL A   1      32.924  18.838  25.368  1.00  0.00     0.029 C 
ENDBRANCH  18  22
BRANCH  20  24
ATOM     24  C   UNL A   1      34.159  22.931  26.866  1.00  0.00     0.276 C 
ATOM     25  O   UNL A   1      34.414  22.689  28.044  1.00  0.00    -0.267 OA
ATOM     26  N   UNL A   1      35.107  23.567  26.067  1.00  0.00    -0.318 N 
ATOM     27  H   UNL A   1      35.056  24.531  25.871  1.00  0.00     0.170 HD
BRANCH  26  28
ATOM     28  C   UNL A   1      36.131  22.772  25.558  1.00  0.00     0.082 A 
ATOM     29  C   UNL A   1      36.043  21.624  24.754  1.00  0.00     0.161 A 
ATOM     30  C   UNL A   1      37.481  22.952  25.795  1.00  0.00     0.059 A 
ATOM     31  N   UNL A   1      37.227  21.018  24.625  1.00  0.00    -0.179 NA
ATOM     32  N   UNL A   1      38.063  21.790  25.349  1.00  0.00    -0.271 N 
ATOM     33  C   UNL A   1      38.230  24.010  26.521  1.00  0.00     0.068 C 
ATOM     34  C   UNL A   1      39.335  21.240  25.763  1.00  0.00     0.174 C 
ENDBRANCH  26  28
ENDBRANCH  20  24
ENDBRANCH  14  17
ENDBRANCH   8  13
ENDBRANCH   4   7
ENDBRANCH   2   3
ENDBRANCH   1   2
BRANCH   1  35
ATOM     35  C   UNL A   1      32.261  29.654  27.218  1.00  0.00     0.023 C 
BRANCH  35  36
ATOM     36  C   UNL A   1      33.765  29.816  27.421  1.00  0.00     0.116 C 
BRANCH  36  37
ATOM     37  N   UNL A   1      34.257  31.144  27.072  1.00  0.00    -0.352 N 
ATOM     38  C   UNL A   1      35.320  31.800  27.660  1.00  0.00     0.251 C 
ATOM     39  H   UNL A   1      33.787  31.618  26.348  1.00  0.00     0.163 HD
ATOM     40  O   UNL A   1      35.397  33.026  27.627  1.00  0.00    -0.269 OA
BRANCH  38  41
ATOM     41  C   UNL A   1      36.350  30.993  28.338  1.00  0.00     0.039 A 
ATOM     42  C   UNL A   1      36.371  29.607  28.198  1.00  0.00     0.014 A 
ATOM     43  C   UNL A   1      37.348  31.658  29.057  1.00  0.00     0.014 A 
ATOM     44  C   UNL A   1      37.463  28.901  28.698  1.00  0.00     0.010 A 
ATOM     45  C   UNL A   1      38.464  30.965  29.489  1.00  0.00     0.010 A 
ATOM     46  C   UNL A   1      38.534  29.585  29.308  1.00  0.00    -0.014 A 
BRANCH  46  47
ATOM     47  C   UNL A   1      39.793  28.869  29.547  1.00  0.00     0.031 A 
ATOM     48  C   UNL A   1      40.135  28.705  30.986  1.00  0.00     0.074 A 
ATOM     49  C   UNL A   1      40.537  28.228  28.620  1.00  0.00     0.049 A 
ATOM     50  N   UNL A   1      41.059  29.326  31.641  1.00  0.00    -0.248 NA
ATOM     51  C   UNL A   1      39.256  27.889  31.838  1.00  0.00     0.031 C 
ATOM     52  C   UNL A   1      40.240  28.036  27.200  1.00  0.00     0.029 A 
ATOM     53  N   UNL A   1      41.696  27.520  28.785  1.00  0.00    -0.354 N 
ATOM     54  C   UNL A   1      41.057  28.784  32.921  1.00  0.00     0.074 A 
ATOM     55  C   UNL A   1      39.807  28.080  33.039  1.00  0.00     0.031 C 
ATOM     56  C   UNL A   1      41.061  27.089  26.691  1.00  0.00     0.029 A 
ATOM     57  C   UNL A   1      42.039  26.716  27.700  1.00  0.00     0.049 A 
ATOM     58  H   UNL A   1      42.240  27.574  29.602  1.00  0.00     0.167 HD
ATOM     59  C   UNL A   1      42.199  28.756  33.667  1.00  0.00     0.034 A 
ATOM     60  C   UNL A   1      43.040  25.795  27.627  1.00  0.00     0.034 A 
ATOM     61  C   UNL A   1      43.195  29.658  33.117  1.00  0.00     0.049 A 
ATOM     62  C   UNL A   1      44.061  26.197  28.626  1.00  0.00     0.074 A 
ATOM     63  C   UNL A   1      43.197  30.998  32.772  1.00  0.00     0.029 A 
ATOM     64  N   UNL A   1      44.285  29.118  32.466  1.00  0.00    -0.354 N 
ATOM     65  N   UNL A   1      44.759  27.297  28.526  1.00  0.00    -0.248 NA
ATOM     66  C   UNL A   1      43.973  25.641  29.967  1.00  0.00     0.031 C 
ATOM     67  C   UNL A   1      43.914  31.054  31.540  1.00  0.00     0.029 A 
ATOM     68  C   UNL A   1      44.401  29.775  31.266  1.00  0.00     0.049 A 
ATOM     69  H   UNL A   1      44.869  28.400  32.799  1.00  0.00     0.167 HD
ATOM     70  C   UNL A   1      44.800  27.807  29.813  1.00  0.00     0.074 A 
ATOM     71  C   UNL A   1      44.395  26.695  30.672  1.00  0.00     0.031 C 
ATOM     72  C   UNL A   1      44.879  29.152  30.045  1.00  0.00     0.034 A 
BRANCH  59  73
ATOM     73  C   UNL A   1      42.579  27.645  34.628  1.00  0.00     0.023 A 
ATOM     74  C   UNL A   1      43.515  26.702  34.161  1.00  0.00     0.031 A 
ATOM     75  C   UNL A   1      41.870  27.273  35.792  1.00  0.00     0.131 A 
ATOM     76  C   UNL A   1      43.584  25.414  34.718  1.00  0.00     0.055 A 
ATOM     77  C   UNL A   1      42.003  26.017  36.393  1.00  0.00     0.041 A 
ATOM     78  F   UNL A   1      40.951  28.055  36.367  1.00  0.00    -0.206 F 
ATOM     79  C   UNL A   1      42.828  25.060  35.829  1.00  0.00     0.022 A 
BRANCH  76  80
ATOM     80  S   UNL A   1      44.510  24.150  33.811  1.00  0.00     0.124 S 
ATOM     81  O   UNL A   1      43.424  23.326  33.290  1.00  0.00    -0.237 OA
ATOM     82  O   UNL A   1      45.235  24.955  32.833  1.00  0.00    -0.237 OA
ATOM     83  O   UNL A   1      45.334  23.528  34.843  1.00  0.00    -0.744 OA
ENDBRANCH  76  80
ENDBRANCH  59  73
BRANCH  60  84
ATOM     84  C   UNL A   1      43.032  24.481  26.919  1.00  0.00     0.023 A 
ATOM     85  C   UNL A   1      43.985  24.123  25.938  1.00  0.00     0.031 A 
ATOM     86  C   UNL A   1      42.198  23.438  27.388  1.00  0.00     0.131 A 
ATOM     87  C   UNL A   1      44.071  22.786  25.473  1.00  0.00     0.055 A 
ATOM     88  C   UNL A   1      42.285  22.124  26.924  1.00  0.00     0.041 A 
ATOM     89  F   UNL A   1      41.323  23.643  28.384  1.00  0.00    -0.206 F 
ATOM     90  C   UNL A   1      43.229  21.788  25.971  1.00  0.00     0.022 A 
BRANCH  87  91
ATOM     91  S   UNL A   1      45.360  22.289  24.281  1.00  0.00     0.124 S 
ATOM     92  O   UNL A   1      45.928  23.571  23.883  1.00  0.00    -0.237 OA
ATOM     93  O   UNL A   1      46.215  21.419  25.081  1.00  0.00    -0.237 OA
ATOM     94  O   UNL A   1      44.607  21.600  23.230  1.00  0.00    -0.744 OA
ENDBRANCH  87  91
ENDBRANCH  60  84
BRANCH  72  95
ATOM     95  C   UNL A   1      45.272  30.083  28.916  1.00  0.00     0.023 A 
ATOM     96  C   UNL A   1      46.591  30.493  28.613  1.00  0.00     0.031 A 
ATOM     97  C   UNL A   1      44.252  30.469  28.025  1.00  0.00     0.131 A 
ATOM     98  C   UNL A   1      46.841  31.262  27.458  1.00  0.00     0.055 A 
ATOM     99  C   UNL A   1      44.508  31.207  26.872  1.00  0.00     0.041 A 
ATOM    100  F   UNL A   1      42.979  30.095  28.242  1.00  0.00    -0.206 F 
ATOM    101  C   UNL A   1      45.805  31.612  26.587  1.00  0.00     0.022 A 
BRANCH  98 102
ATOM    102  S   UNL A   1      48.526  31.841  27.069  1.00  0.00     0.124 S 
ATOM    103  O   UNL A   1      49.035  32.304  28.354  1.00  0.00    -0.237 OA
ATOM    104  O   UNL A   1      49.155  30.640  26.524  1.00  0.00    -0.237 OA
ATOM    105  O   UNL A   1      48.299  32.904  26.086  1.00  0.00    -0.744 OA
ENDBRANCH  98 102
ENDBRANCH  72  95
ENDBRANCH  46  47
ENDBRANCH  38  41
ENDBRANCH  36  37
ENDBRANCH  35  36
ENDBRANCH   1  35
TORSDOF 19
ENDMDL
