MODEL 1
REMARK VINA RESULT:     -12.4      0.000      0.000
REMARK SMILES C[C@H]1CN(C(=O)Nc2ccc(C(=O)NCCCCNC(=O)c3ccc(-c4c5nc(c(-c6cc(S(=O)(=O)[O-])ccc6F)c6ccc([nH]6)c(-c6cc(S(=O)(=O)[O-])ccc6F)c6nc(c(-c7cc(S(=O)(=O)[O-])ccc7F)c7ccc4[nH]7)C=C6)C=C5)cc3)cc2Br)C[C@@H]1C
REMARK SMILES IDX 17 1 16 2 15 3 14 4 12 5 13 6 11 8 8 9 9 10 86 11 10 12
REMARK SMILES IDX 85 13 87 14 7 15 1 16 2 17 3 18 89 19 4 20 88 21 90 22 5 23
REMARK SMILES IDX 6 24 18 26 19 27 20 28 21 30 22 31 23 32 84 33 24 34 83 35
REMARK SMILES IDX 25 36 26 37 27 38 77 39 28 40 82 41 76 42 78 43 29 44 81 45
REMARK SMILES IDX 75 46 74 47 30 49 62 50 42 51 61 52 43 53 46 54 60 55 79 56
REMARK SMILES IDX 44 57 45 58 59 60 80 61 47 62 31 63 32 64 40 65 33 66 39 67
REMARK SMILES IDX 41 68 38 69 34 70 35 71 36 72 37 73 63 74 64 75 72 76 65 77
REMARK SMILES IDX 71 78 73 79 70 80 66 81 67 82 68 83 69 84 48 85 49 86 57 87
REMARK SMILES IDX 50 88 56 89 58 90 55 91 51 92 52 93 53 94 54 95
REMARK H PARENT 14 7 7 25 19 29 78 48 46 59
REMARK Flexibility Score: inf
ROOT
ATOM      1  C   UNL A   1      31.403  31.478  26.890  1.00  0.00     0.023 C 
ENDROOT
BRANCH   1   2
ATOM      2  C   UNL A   1      31.788  30.020  26.631  1.00  0.00     0.023 C 
BRANCH   2   3
ATOM      3  C   UNL A   1      32.238  29.733  25.197  1.00  0.00     0.116 C 
BRANCH   3   4
ATOM      4  N   UNL A   1      31.119  29.823  24.272  1.00  0.00    -0.352 N 
ATOM      5  C   UNL A   1      30.471  28.861  23.539  1.00  0.00     0.251 C 
ATOM      6  O   UNL A   1      29.493  29.175  22.865  1.00  0.00    -0.269 OA
ATOM      7  H   UNL A   1      30.766  30.734  24.150  1.00  0.00     0.163 HD
BRANCH   5   8
ATOM      8  C   UNL A   1      30.859  27.431  23.617  1.00  0.00     0.041 A 
ATOM      9  C   UNL A   1      31.279  24.678  23.446  1.00  0.00     0.057 A 
ATOM     10  C   UNL A   1      31.781  25.516  22.449  1.00  0.00     0.028 A 
ATOM     11  C   UNL A   1      30.750  25.234  24.620  1.00  0.00     0.042 A 
ATOM     12  C   UNL A   1      31.543  26.890  22.522  1.00  0.00     0.016 A 
ATOM     13  C   UNL A   1      30.562  26.615  24.709  1.00  0.00     0.031 A 
ATOM     14  Br  UNL A   1      30.258  24.180  26.123  1.00  0.00    -0.049 Br
BRANCH   9  15
ATOM     15  N   UNL A   1      31.297  23.306  23.179  1.00  0.00    -0.307 N 
ATOM     16  C   UNL A   1      36.044  23.984  25.244  1.00  0.00     0.010 C 
ATOM     17  C   UNL A   1      34.824  23.352  25.920  1.00  0.00     0.010 C 
ATOM     18  C   UNL A   1      33.534  23.690  25.166  1.00  0.00     0.125 C 
ATOM     19  C   UNL A   1      34.861  21.820  25.855  1.00  0.00     0.010 C 
ATOM     20  N   UNL A   1      33.324  22.602  24.213  1.00  0.00    -0.324 N 
ATOM     21  C   UNL A   1      34.269  21.523  24.472  1.00  0.00     0.125 C 
ATOM     22  C   UNL A   1      34.016  21.199  26.970  1.00  0.00     0.010 C 
ATOM     23  C   UNL A   1      32.292  22.389  23.334  1.00  0.00     0.321 C 
ATOM     24  O   UNL A   1      32.152  21.308  22.752  1.00  0.00    -0.248 OA
ATOM     25  H   UNL A   1      30.454  22.944  22.820  1.00  0.00     0.171 HD
ENDBRANCH   9  15
ENDBRANCH   5   8
ENDBRANCH   3   4
ENDBRANCH   2   3
ENDBRANCH   1   2
BRANCH   1  26
ATOM     26  C   UNL A   1      32.486  32.500  26.565  1.00  0.00     0.116 C 
BRANCH  26  27
ATOM     27  N   UNL A   1      32.286  33.775  27.237  1.00  0.00    -0.352 N 
ATOM     28  C   UNL A   1      32.991  34.317  28.286  1.00  0.00     0.251 C 
ATOM     29  H   UNL A   1      31.544  34.325  26.893  1.00  0.00     0.163 HD
ATOM     30  O   UNL A   1      32.606  35.356  28.806  1.00  0.00    -0.269 OA
BRANCH  28  31
ATOM     31  C   UNL A   1      34.185  33.612  28.800  1.00  0.00     0.039 A 
ATOM     32  C   UNL A   1      35.437  34.217  28.661  1.00  0.00     0.014 A 
ATOM     33  C   UNL A   1      34.065  32.378  29.444  1.00  0.00     0.014 A 
ATOM     34  C   UNL A   1      36.560  33.617  29.234  1.00  0.00     0.010 A 
ATOM     35  C   UNL A   1      35.173  31.819  30.075  1.00  0.00     0.010 A 
ATOM     36  C   UNL A   1      36.431  32.434  29.977  1.00  0.00    -0.014 A 
BRANCH  36  37
ATOM     37  C   UNL A   1      37.597  31.823  30.665  1.00  0.00     0.031 A 
ATOM     38  C   UNL A   1      38.417  30.773  29.968  1.00  0.00     0.074 A 
ATOM     39  C   UNL A   1      37.861  32.149  31.945  1.00  0.00     0.049 A 
ATOM     40  N   UNL A   1      39.413  30.059  30.425  1.00  0.00    -0.248 NA
ATOM     41  C   UNL A   1      38.034  30.458  28.585  1.00  0.00     0.031 C 
ATOM     42  C   UNL A   1      37.093  33.105  32.748  1.00  0.00     0.029 A 
ATOM     43  N   UNL A   1      38.832  31.700  32.803  1.00  0.00    -0.354 N 
ATOM     44  C   UNL A   1      39.766  29.197  29.393  1.00  0.00     0.074 A 
ATOM     45  C   UNL A   1      38.827  29.434  28.315  1.00  0.00     0.031 C 
ATOM     46  C   UNL A   1      37.627  33.172  33.978  1.00  0.00     0.029 A 
ATOM     47  C   UNL A   1      38.749  32.242  34.064  1.00  0.00     0.049 A 
ATOM     48  H   UNL A   1      39.523  31.050  32.541  1.00  0.00     0.167 HD
ATOM     49  C   UNL A   1      40.791  28.309  29.339  1.00  0.00     0.034 A 
ATOM     50  C   UNL A   1      39.481  32.005  35.170  1.00  0.00     0.034 A 
ATOM     51  C   UNL A   1      41.719  28.096  30.424  1.00  0.00     0.049 A 
ATOM     52  C   UNL A   1      40.621  31.024  35.093  1.00  0.00     0.074 A 
ATOM     53  C   UNL A   1      42.839  27.283  30.456  1.00  0.00     0.029 A 
ATOM     54  N   UNL A   1      41.627  28.691  31.678  1.00  0.00    -0.354 N 
ATOM     55  N   UNL A   1      40.994  30.273  34.083  1.00  0.00    -0.248 NA
ATOM     56  C   UNL A   1      41.446  30.874  36.297  1.00  0.00     0.031 C 
ATOM     57  C   UNL A   1      43.382  27.334  31.745  1.00  0.00     0.029 A 
ATOM     58  C   UNL A   1      42.648  28.236  32.500  1.00  0.00     0.049 A 
ATOM     59  H   UNL A   1      40.937  29.341  31.944  1.00  0.00     0.167 HD
ATOM     60  C   UNL A   1      42.113  29.572  34.526  1.00  0.00     0.074 A 
ATOM     61  C   UNL A   1      42.361  30.005  35.886  1.00  0.00     0.031 C 
ATOM     62  C   UNL A   1      42.869  28.658  33.865  1.00  0.00     0.034 A 
BRANCH  49  63
ATOM     63  C   UNL A   1      40.930  27.493  28.074  1.00  0.00     0.023 A 
ATOM     64  C   UNL A   1      40.551  26.140  28.023  1.00  0.00     0.031 A 
ATOM     65  C   UNL A   1      41.509  28.053  26.921  1.00  0.00     0.131 A 
ATOM     66  C   UNL A   1      40.854  25.367  26.892  1.00  0.00     0.055 A 
ATOM     67  C   UNL A   1      41.719  27.302  25.762  1.00  0.00     0.041 A 
ATOM     68  F   UNL A   1      41.909  29.335  26.909  1.00  0.00    -0.206 F 
ATOM     69  C   UNL A   1      41.412  25.945  25.751  1.00  0.00     0.022 A 
BRANCH  66  70
ATOM     70  S   UNL A   1      40.684  23.564  27.009  1.00  0.00     0.124 S 
ATOM     71  O   UNL A   1      41.176  23.309  28.361  1.00  0.00    -0.237 OA
ATOM     72  O   UNL A   1      39.254  23.368  26.802  1.00  0.00    -0.237 OA
ATOM     73  O   UNL A   1      41.546  23.068  25.938  1.00  0.00    -0.744 OA
ENDBRANCH  66  70
ENDBRANCH  49  63
BRANCH  50  74
ATOM     74  C   UNL A   1      39.146  32.699  36.444  1.00  0.00     0.023 A 
ATOM     75  C   UNL A   1      38.255  32.134  37.370  1.00  0.00     0.031 A 
ATOM     76  C   UNL A   1      39.720  33.945  36.754  1.00  0.00     0.131 A 
ATOM     77  C   UNL A   1      37.940  32.829  38.549  1.00  0.00     0.055 A 
ATOM     78  C   UNL A   1      39.436  34.612  37.945  1.00  0.00     0.041 A 
ATOM     79  F   UNL A   1      40.589  34.520  35.906  1.00  0.00    -0.206 F 
ATOM     80  C   UNL A   1      38.534  34.057  38.848  1.00  0.00     0.022 A 
BRANCH  77  81
ATOM     81  S   UNL A   1      36.704  32.121  39.672  1.00  0.00     0.124 S 
ATOM     82  O   UNL A   1      37.024  30.700  39.610  1.00  0.00    -0.237 OA
ATOM     83  O   UNL A   1      37.013  32.797  40.927  1.00  0.00    -0.237 OA
ATOM     84  O   UNL A   1      35.432  32.502  39.060  1.00  0.00    -0.744 OA
ENDBRANCH  77  81
ENDBRANCH  50  74
BRANCH  62  85
ATOM     85  C   UNL A   1      44.057  28.092  34.604  1.00  0.00     0.023 A 
ATOM     86  C   UNL A   1      43.971  26.892  35.332  1.00  0.00     0.031 A 
ATOM     87  C   UNL A   1      45.290  28.768  34.586  1.00  0.00     0.131 A 
ATOM     88  C   UNL A   1      45.082  26.433  36.056  1.00  0.00     0.055 A 
ATOM     89  C   UNL A   1      46.408  28.276  35.260  1.00  0.00     0.041 A 
ATOM     90  F   UNL A   1      45.427  29.919  33.909  1.00  0.00    -0.206 F 
ATOM     91  C   UNL A   1      46.305  27.108  36.010  1.00  0.00     0.022 A 
BRANCH  88  92
ATOM     92  S   UNL A   1      44.887  24.984  37.130  1.00  0.00     0.124 S 
ATOM     93  O   UNL A   1      44.064  25.518  38.212  1.00  0.00    -0.237 OA
ATOM     94  O   UNL A   1      44.234  24.025  36.246  1.00  0.00    -0.237 OA
ATOM     95  O   UNL A   1      46.258  24.646  37.505  1.00  0.00    -0.744 OA
ENDBRANCH  88  92
ENDBRANCH  62  85
ENDBRANCH  36  37
ENDBRANCH  28  31
ENDBRANCH  26  27
ENDBRANCH   1  26
TORSDOF 15
ENDMDL
MODEL 2
REMARK VINA RESULT:     -12.3      5.346     10.888
REMARK SMILES C[C@H]1CN(C(=O)Nc2ccc(C(=O)NCCCCNC(=O)c3ccc(-c4c5nc(c(-c6cc(S(=O)(=O)[O-])ccc6F)c6ccc([nH]6)c(-c6cc(S(=O)(=O)[O-])ccc6F)c6nc(c(-c7cc(S(=O)(=O)[O-])ccc7F)c7ccc4[nH]7)C=C6)C=C5)cc3)cc2Br)C[C@@H]1C
REMARK SMILES IDX 17 1 16 2 15 3 14 4 12 5 13 6 11 8 8 9 9 10 86 11 10 12
REMARK SMILES IDX 85 13 87 14 7 15 1 16 2 17 3 18 89 19 4 20 88 21 90 22 5 23
REMARK SMILES IDX 6 24 18 26 19 27 20 28 21 30 22 31 23 32 84 33 24 34 83 35
REMARK SMILES IDX 25 36 26 37 27 38 77 39 28 40 82 41 76 42 78 43 29 44 81 45
REMARK SMILES IDX 75 46 74 47 30 49 62 50 42 51 61 52 43 53 46 54 60 55 79 56
REMARK SMILES IDX 44 57 45 58 59 60 80 61 47 62 31 63 32 64 40 65 33 66 39 67
REMARK SMILES IDX 41 68 38 69 34 70 35 71 36 72 37 73 63 74 64 75 72 76 65 77
REMARK SMILES IDX 71 78 73 79 70 80 66 81 67 82 68 83 69 84 48 85 49 86 57 87
REMARK SMILES IDX 50 88 56 89 58 90 55 91 51 92 52 93 53 94 54 95
REMARK H PARENT 14 7 7 25 19 29 78 48 46 59
REMARK Flexibility Score: inf
ROOT
ATOM      1  C   UNL A   1      36.090  20.898  25.379  1.00  0.00     0.023 C 
ENDROOT
BRANCH   1   2
ATOM      2  C   UNL A   1      35.468  21.906  26.347  1.00  0.00     0.023 C 
BRANCH   2   3
ATOM      3  C   UNL A   1      34.339  21.338  27.209  1.00  0.00     0.116 C 
BRANCH   3   4
ATOM      4  N   UNL A   1      33.548  20.373  26.462  1.00  0.00    -0.352 N 
ATOM      5  C   UNL A   1      32.582  20.545  25.501  1.00  0.00     0.251 C 
ATOM      6  O   UNL A   1      32.092  19.558  24.957  1.00  0.00    -0.269 OA
ATOM      7  H   UNL A   1      33.738  19.433  26.684  1.00  0.00     0.163 HD
BRANCH   5   8
ATOM      8  C   UNL A   1      32.184  21.895  25.032  1.00  0.00     0.041 A 
ATOM      9  C   UNL A   1      31.044  24.240  24.039  1.00  0.00     0.057 A 
ATOM     10  C   UNL A   1      30.659  23.762  25.292  1.00  0.00     0.028 A 
ATOM     11  C   UNL A   1      32.138  23.660  23.381  1.00  0.00     0.042 A 
ATOM     12  C   UNL A   1      31.208  22.572  25.773  1.00  0.00     0.016 A 
ATOM     13  C   UNL A   1      32.719  22.498  23.893  1.00  0.00     0.031 A 
ATOM     14  Br  UNL A   1      32.878  24.386  21.788  1.00  0.00    -0.049 Br
BRANCH   9  15
ATOM     15  N   UNL A   1      30.263  25.262  23.492  1.00  0.00    -0.307 N 
ATOM     16  C   UNL A   1      33.371  27.981  26.687  1.00  0.00     0.010 C 
ATOM     17  C   UNL A   1      33.468  27.889  25.161  1.00  0.00     0.010 C 
ATOM     18  C   UNL A   1      32.660  26.704  24.624  1.00  0.00     0.125 C 
ATOM     19  C   UNL A   1      32.808  29.088  24.470  1.00  0.00     0.010 C 
ATOM     20  N   UNL A   1      31.332  27.228  24.312  1.00  0.00    -0.324 N 
ATOM     21  C   UNL A   1      31.331  28.682  24.417  1.00  0.00     0.125 C 
ATOM     22  C   UNL A   1      33.381  29.300  23.066  1.00  0.00     0.010 C 
ATOM     23  C   UNL A   1      30.245  26.598  23.756  1.00  0.00     0.321 C 
ATOM     24  O   UNL A   1      29.266  27.235  23.353  1.00  0.00    -0.248 OA
ATOM     25  H   UNL A   1      29.623  24.969  22.803  1.00  0.00     0.171 HD
ENDBRANCH   9  15
ENDBRANCH   5   8
ENDBRANCH   3   4
ENDBRANCH   2   3
ENDBRANCH   1   2
BRANCH   1  26
ATOM     26  C   UNL A   1      37.543  21.169  25.007  1.00  0.00     0.116 C 
BRANCH  26  27
ATOM     27  N   UNL A   1      38.447  20.113  25.433  1.00  0.00    -0.352 N 
ATOM     28  C   UNL A   1      39.651  20.221  26.090  1.00  0.00     0.251 C 
ATOM     29  H   UNL A   1      38.158  19.195  25.222  1.00  0.00     0.163 HD
ATOM     30  O   UNL A   1      40.341  19.225  26.265  1.00  0.00    -0.269 OA
BRANCH  28  31
ATOM     31  C   UNL A   1      40.117  21.551  26.539  1.00  0.00     0.039 A 
ATOM     32  C   UNL A   1      41.128  21.621  27.501  1.00  0.00     0.014 A 
ATOM     33  C   UNL A   1      39.583  22.720  25.990  1.00  0.00     0.014 A 
ATOM     34  C   UNL A   1      41.654  22.864  27.858  1.00  0.00     0.010 A 
ATOM     35  C   UNL A   1      40.157  23.949  26.295  1.00  0.00     0.010 A 
ATOM     36  C   UNL A   1      41.200  24.034  27.231  1.00  0.00    -0.014 A 
BRANCH  36  37
ATOM     37  C   UNL A   1      41.802  25.357  27.535  1.00  0.00     0.031 A 
ATOM     38  C   UNL A   1      41.007  26.394  28.279  1.00  0.00     0.074 A 
ATOM     39  C   UNL A   1      43.029  25.654  27.064  1.00  0.00     0.049 A 
ATOM     40  N   UNL A   1      41.318  27.632  28.562  1.00  0.00    -0.248 NA
ATOM     41  C   UNL A   1      39.665  25.991  28.724  1.00  0.00     0.031 C 
ATOM     42  C   UNL A   1      43.870  24.753  26.271  1.00  0.00     0.029 A 
ATOM     43  N   UNL A   1      43.775  26.801  27.164  1.00  0.00    -0.354 N 
ATOM     44  C   UNL A   1      40.205  28.164  29.205  1.00  0.00     0.074 A 
ATOM     45  C   UNL A   1      39.189  27.130  29.201  1.00  0.00     0.031 C 
ATOM     46  C   UNL A   1      45.015  25.381  25.962  1.00  0.00     0.029 A 
ATOM     47  C   UNL A   1      44.978  26.737  26.502  1.00  0.00     0.049 A 
ATOM     48  H   UNL A   1      43.475  27.595  27.663  1.00  0.00     0.167 HD
ATOM     49  C   UNL A   1      40.052  29.390  29.766  1.00  0.00     0.034 A 
ATOM     50  C   UNL A   1      45.936  27.669  26.333  1.00  0.00     0.034 A 
ATOM     51  C   UNL A   1      41.081  30.402  29.764  1.00  0.00     0.049 A 
ATOM     52  C   UNL A   1      45.757  29.022  26.969  1.00  0.00     0.074 A 
ATOM     53  C   UNL A   1      41.069  31.648  30.366  1.00  0.00     0.029 A 
ATOM     54  N   UNL A   1      42.306  30.290  29.114  1.00  0.00    -0.354 N 
ATOM     55  N   UNL A   1      44.730  29.486  27.644  1.00  0.00    -0.248 NA
ATOM     56  C   UNL A   1      46.871  29.968  26.836  1.00  0.00     0.031 C 
ATOM     57  C   UNL A   1      42.253  32.313  30.025  1.00  0.00     0.029 A 
ATOM     58  C   UNL A   1      43.040  31.456  29.272  1.00  0.00     0.049 A 
ATOM     59  H   UNL A   1      42.607  29.498  28.614  1.00  0.00     0.167 HD
ATOM     60  C   UNL A   1      45.084  30.775  28.033  1.00  0.00     0.074 A 
ATOM     61  C   UNL A   1      46.424  31.005  27.531  1.00  0.00     0.031 C 
ATOM     62  C   UNL A   1      44.367  31.682  28.744  1.00  0.00     0.034 A 
BRANCH  49  63
ATOM     63  C   UNL A   1      38.712  29.697  30.397  1.00  0.00     0.023 A 
ATOM     64  C   UNL A   1      37.752  30.489  29.743  1.00  0.00     0.031 A 
ATOM     65  C   UNL A   1      38.414  29.248  31.696  1.00  0.00     0.131 A 
ATOM     66  C   UNL A   1      36.596  30.898  30.425  1.00  0.00     0.055 A 
ATOM     67  C   UNL A   1      37.216  29.579  32.333  1.00  0.00     0.041 A 
ATOM     68  F   UNL A   1      39.295  28.503  32.382  1.00  0.00    -0.206 F 
ATOM     69  C   UNL A   1      36.309  30.428  31.707  1.00  0.00     0.022 A 
BRANCH  66  70
ATOM     70  S   UNL A   1      35.575  32.203  29.684  1.00  0.00     0.124 S 
ATOM     71  O   UNL A   1      35.275  31.634  28.372  1.00  0.00    -0.237 OA
ATOM     72  O   UNL A   1      34.454  32.291  30.613  1.00  0.00    -0.237 OA
ATOM     73  O   UNL A   1      36.463  33.363  29.662  1.00  0.00    -0.744 OA
ENDBRANCH  66  70
ENDBRANCH  49  63
BRANCH  50  74
ATOM     74  C   UNL A   1      47.140  27.355  25.514  1.00  0.00     0.023 A 
ATOM     75  C   UNL A   1      47.209  27.701  24.156  1.00  0.00     0.031 A 
ATOM     76  C   UNL A   1      48.246  26.701  26.088  1.00  0.00     0.131 A 
ATOM     77  C   UNL A   1      48.348  27.366  23.407  1.00  0.00     0.055 A 
ATOM     78  C   UNL A   1      49.392  26.407  25.350  1.00  0.00     0.041 A 
ATOM     79  F   UNL A   1      48.233  26.362  27.387  1.00  0.00    -0.206 F 
ATOM     80  C   UNL A   1      49.444  26.732  23.998  1.00  0.00     0.022 A 
BRANCH  77  81
ATOM     81  S   UNL A   1      48.360  27.731  21.630  1.00  0.00     0.124 S 
ATOM     82  O   UNL A   1      49.475  28.665  21.526  1.00  0.00    -0.237 OA
ATOM     83  O   UNL A   1      48.572  26.409  21.051  1.00  0.00    -0.237 OA
ATOM     84  O   UNL A   1      47.038  28.306  21.393  1.00  0.00    -0.744 OA
ENDBRANCH  77  81
ENDBRANCH  50  74
BRANCH  62  85
ATOM     85  C   UNL A   1      45.041  32.999  29.046  1.00  0.00     0.023 A 
ATOM     86  C   UNL A   1      44.878  34.121  28.213  1.00  0.00     0.031 A 
ATOM     87  C   UNL A   1      45.864  33.129  30.179  1.00  0.00     0.131 A 
ATOM     88  C   UNL A   1      45.572  35.307  28.497  1.00  0.00     0.055 A 
ATOM     89  C   UNL A   1      46.505  34.329  30.488  1.00  0.00     0.041 A 
ATOM     90  F   UNL A   1      46.056  32.089  31.006  1.00  0.00    -0.206 F 
ATOM     91  C   UNL A   1      46.370  35.424  29.638  1.00  0.00     0.022 A 
BRANCH  88  92
ATOM     92  S   UNL A   1      45.487  36.674  27.307  1.00  0.00     0.124 S 
ATOM     93  O   UNL A   1      46.416  36.232  26.271  1.00  0.00    -0.237 OA
ATOM     94  O   UNL A   1      44.076  36.679  26.938  1.00  0.00    -0.237 OA
ATOM     95  O   UNL A   1      45.928  37.832  28.082  1.00  0.00    -0.744 OA
ENDBRANCH  88  92
ENDBRANCH  62  85
ENDBRANCH  36  37
ENDBRANCH  28  31
ENDBRANCH  26  27
ENDBRANCH   1  26
TORSDOF 15
ENDMDL
MODEL 3
REMARK VINA RESULT:     -12.3      1.456      1.832
REMARK SMILES C[C@H]1CN(C(=O)Nc2ccc(C(=O)NCCCCNC(=O)c3ccc(-c4c5nc(c(-c6cc(S(=O)(=O)[O-])ccc6F)c6ccc([nH]6)c(-c6cc(S(=O)(=O)[O-])ccc6F)c6nc(c(-c7cc(S(=O)(=O)[O-])ccc7F)c7ccc4[nH]7)C=C6)C=C5)cc3)cc2Br)C[C@@H]1C
REMARK SMILES IDX 17 1 16 2 15 3 14 4 12 5 13 6 11 8 8 9 9 10 86 11 10 12
REMARK SMILES IDX 85 13 87 14 7 15 1 16 2 17 3 18 89 19 4 20 88 21 90 22 5 23
REMARK SMILES IDX 6 24 18 26 19 27 20 28 21 30 22 31 23 32 84 33 24 34 83 35
REMARK SMILES IDX 25 36 26 37 27 38 77 39 28 40 82 41 76 42 78 43 29 44 81 45
REMARK SMILES IDX 75 46 74 47 30 49 62 50 42 51 61 52 43 53 46 54 60 55 79 56
REMARK SMILES IDX 44 57 45 58 59 60 80 61 47 62 31 63 32 64 40 65 33 66 39 67
REMARK SMILES IDX 41 68 38 69 34 70 35 71 36 72 37 73 63 74 64 75 72 76 65 77
REMARK SMILES IDX 71 78 73 79 70 80 66 81 67 82 68 83 69 84 48 85 49 86 57 87
REMARK SMILES IDX 50 88 56 89 58 90 55 91 51 92 52 93 53 94 54 95
REMARK H PARENT 14 7 7 25 19 29 78 48 46 59
REMARK Flexibility Score: inf
ROOT
ATOM      1  C   UNL A   1      32.071  31.126  27.090  1.00  0.00     0.023 C 
ENDROOT
BRANCH   1   2
ATOM      2  C   UNL A   1      31.336  31.046  25.752  1.00  0.00     0.023 C 
BRANCH   2   3
ATOM      3  C   UNL A   1      31.424  29.682  25.065  1.00  0.00     0.116 C 
BRANCH   3   4
ATOM      4  N   UNL A   1      30.771  29.711  23.765  1.00  0.00    -0.352 N 
ATOM      5  C   UNL A   1      30.506  28.710  22.862  1.00  0.00     0.251 C 
ATOM      6  O   UNL A   1      29.874  28.973  21.842  1.00  0.00    -0.269 OA
ATOM      7  H   UNL A   1      30.467  30.604  23.483  1.00  0.00     0.163 HD
BRANCH   5   8
ATOM      8  C   UNL A   1      30.878  27.301  23.134  1.00  0.00     0.041 A 
ATOM      9  C   UNL A   1      31.278  24.546  23.325  1.00  0.00     0.057 A 
ATOM     10  C   UNL A   1      31.827  25.250  22.253  1.00  0.00     0.028 A 
ATOM     11  C   UNL A   1      30.709  25.247  24.398  1.00  0.00     0.042 A 
ATOM     12  C   UNL A   1      31.599  26.623  22.143  1.00  0.00     0.016 A 
ATOM     13  C   UNL A   1      30.531  26.629  24.307  1.00  0.00     0.031 A 
ATOM     14  Br  UNL A   1      30.148  24.391  25.999  1.00  0.00    -0.049 Br
BRANCH   9  15
ATOM     15  N   UNL A   1      31.294  23.151  23.232  1.00  0.00    -0.307 N 
ATOM     16  C   UNL A   1      36.066  24.080  25.137  1.00  0.00     0.010 C 
ATOM     17  C   UNL A   1      34.855  23.538  25.902  1.00  0.00     0.010 C 
ATOM     18  C   UNL A   1      33.555  23.780  25.128  1.00  0.00     0.125 C 
ATOM     19  C   UNL A   1      34.892  22.010  26.029  1.00  0.00     0.010 C 
ATOM     20  N   UNL A   1      33.335  22.581  24.322  1.00  0.00    -0.324 N 
ATOM     21  C   UNL A   1      34.283  21.542  24.702  1.00  0.00     0.125 C 
ATOM     22  C   UNL A   1      34.061  21.535  27.225  1.00  0.00     0.010 C 
ATOM     23  C   UNL A   1      32.291  22.260  23.489  1.00  0.00     0.321 C 
ATOM     24  O   UNL A   1      32.145  21.114  23.050  1.00  0.00    -0.248 OA
ATOM     25  H   UNL A   1      30.447  22.748  22.932  1.00  0.00     0.171 HD
ENDBRANCH   9  15
ENDBRANCH   5   8
ENDBRANCH   3   4
ENDBRANCH   2   3
ENDBRANCH   1   2
BRANCH   1  26
ATOM     26  C   UNL A   1      33.218  32.128  27.140  1.00  0.00     0.116 C 
BRANCH  26  27
ATOM     27  N   UNL A   1      32.787  33.471  27.495  1.00  0.00    -0.352 N 
ATOM     28  C   UNL A   1      33.251  34.289  28.499  1.00  0.00     0.251 C 
ATOM     29  H   UNL A   1      32.063  33.846  26.942  1.00  0.00     0.163 HD
ATOM     30  O   UNL A   1      32.687  35.350  28.731  1.00  0.00    -0.269 OA
BRANCH  28  31
ATOM     31  C   UNL A   1      34.406  33.854  29.315  1.00  0.00     0.039 A 
ATOM     32  C   UNL A   1      34.185  32.981  30.383  1.00  0.00     0.014 A 
ATOM     33  C   UNL A   1      35.701  34.279  29.007  1.00  0.00     0.014 A 
ATOM     34  C   UNL A   1      35.273  32.476  31.097  1.00  0.00     0.010 A 
ATOM     35  C   UNL A   1      36.787  33.719  29.673  1.00  0.00     0.010 A 
ATOM     36  C   UNL A   1      36.584  32.810  30.724  1.00  0.00    -0.014 A 
BRANCH  36  37
ATOM     37  C   UNL A   1      37.758  32.221  31.415  1.00  0.00     0.031 A 
ATOM     38  C   UNL A   1      38.515  31.088  30.780  1.00  0.00     0.074 A 
ATOM     39  C   UNL A   1      38.085  32.645  32.652  1.00  0.00     0.049 A 
ATOM     40  N   UNL A   1      39.507  30.382  31.258  1.00  0.00    -0.248 NA
ATOM     41  C   UNL A   1      38.066  30.670  29.445  1.00  0.00     0.031 C 
ATOM     42  C   UNL A   1      37.381  33.691  33.399  1.00  0.00     0.029 A 
ATOM     43  N   UNL A   1      39.077  32.237  33.507  1.00  0.00    -0.354 N 
ATOM     44  C   UNL A   1      39.790  29.424  30.291  1.00  0.00     0.074 A 
ATOM     45  C   UNL A   1      38.815  29.600  29.234  1.00  0.00     0.031 C 
ATOM     46  C   UNL A   1      37.967  33.843  34.597  1.00  0.00     0.029 A 
ATOM     47  C   UNL A   1      39.062  32.886  34.719  1.00  0.00     0.049 A 
ATOM     48  H   UNL A   1      39.736  31.543  33.275  1.00  0.00     0.167 HD
ATOM     49  C   UNL A   1      40.785  28.500  30.274  1.00  0.00     0.034 A 
ATOM     50  C   UNL A   1      39.833  32.719  35.812  1.00  0.00     0.034 A 
ATOM     51  C   UNL A   1      41.750  28.347  31.336  1.00  0.00     0.049 A 
ATOM     52  C   UNL A   1      40.937  31.696  35.775  1.00  0.00     0.074 A 
ATOM     53  C   UNL A   1      42.844  27.502  31.395  1.00  0.00     0.029 A 
ATOM     54  N   UNL A   1      41.728  29.049  32.537  1.00  0.00    -0.354 N 
ATOM     55  N   UNL A   1      41.245  30.850  34.820  1.00  0.00    -0.248 NA
ATOM     56  C   UNL A   1      41.807  31.620  36.955  1.00  0.00     0.031 C 
ATOM     57  C   UNL A   1      43.442  27.643  32.653  1.00  0.00     0.029 A 
ATOM     58  C   UNL A   1      42.769  28.631  33.355  1.00  0.00     0.049 A 
ATOM     59  H   UNL A   1      41.070  29.742  32.773  1.00  0.00     0.167 HD
ATOM     60  C   UNL A   1      42.359  30.152  35.277  1.00  0.00     0.074 A 
ATOM     61  C   UNL A   1      42.676  30.690  36.585  1.00  0.00     0.031 C 
ATOM     62  C   UNL A   1      43.058  29.159  34.669  1.00  0.00     0.034 A 
BRANCH  49  63
ATOM     63  C   UNL A   1      40.845  27.575  29.079  1.00  0.00     0.023 A 
ATOM     64  C   UNL A   1      41.806  27.741  28.065  1.00  0.00     0.031 A 
ATOM     65  C   UNL A   1      39.891  26.555  28.915  1.00  0.00     0.131 A 
ATOM     66  C   UNL A   1      41.725  26.980  26.889  1.00  0.00     0.055 A 
ATOM     67  C   UNL A   1      39.877  25.735  27.784  1.00  0.00     0.041 A 
ATOM     68  F   UNL A   1      38.936  26.356  29.837  1.00  0.00    -0.206 F 
ATOM     69  C   UNL A   1      40.783  25.960  26.752  1.00  0.00     0.022 A 
BRANCH  66  70
ATOM     70  S   UNL A   1      42.745  27.473  25.472  1.00  0.00     0.124 S 
ATOM     71  O   UNL A   1      43.987  27.878  26.128  1.00  0.00    -0.237 OA
ATOM     72  O   UNL A   1      42.808  26.245  24.687  1.00  0.00    -0.237 OA
ATOM     73  O   UNL A   1      41.986  28.565  24.866  1.00  0.00    -0.744 OA
ENDBRANCH  66  70
ENDBRANCH  49  63
BRANCH  50  74
ATOM     74  C   UNL A   1      39.572  33.529  37.034  1.00  0.00     0.023 A 
ATOM     75  C   UNL A   1      38.961  32.968  38.165  1.00  0.00     0.031 A 
ATOM     76  C   UNL A   1      39.937  34.887  37.084  1.00  0.00     0.131 A 
ATOM     77  C   UNL A   1      38.705  33.768  39.290  1.00  0.00     0.055 A 
ATOM     78  C   UNL A   1      39.719  35.667  38.219  1.00  0.00     0.041 A 
ATOM     79  F   UNL A   1      40.538  35.466  36.032  1.00  0.00    -0.206 F 
ATOM     80  C   UNL A   1      39.091  35.110  39.329  1.00  0.00     0.022 A 
BRANCH  77  81
ATOM     81  S   UNL A   1      37.817  33.038  40.693  1.00  0.00     0.124 S 
ATOM     82  O   UNL A   1      38.135  33.973  41.765  1.00  0.00    -0.237 OA
ATOM     83  O   UNL A   1      36.438  33.049  40.218  1.00  0.00    -0.237 OA
ATOM     84  O   UNL A   1      38.417  31.712  40.823  1.00  0.00    -0.744 OA
ENDBRANCH  77  81
ENDBRANCH  50  74
BRANCH  62  85
ATOM     85  C   UNL A   1      44.258  28.617  35.407  1.00  0.00     0.023 A 
ATOM     86  C   UNL A   1      44.139  27.580  36.350  1.00  0.00     0.031 A 
ATOM     87  C   UNL A   1      45.537  29.153  35.170  1.00  0.00     0.131 A 
ATOM     88  C   UNL A   1      45.271  27.148  37.059  1.00  0.00     0.055 A 
ATOM     89  C   UNL A   1      46.668  28.679  35.836  1.00  0.00     0.041 A 
ATOM     90  F   UNL A   1      45.707  30.146  34.283  1.00  0.00    -0.206 F 
ATOM     91  C   UNL A   1      46.536  27.679  36.795  1.00  0.00     0.022 A 
BRANCH  88  92
ATOM     92  S   UNL A   1      45.055  25.940  38.395  1.00  0.00     0.124 S 
ATOM     93  O   UNL A   1      46.428  25.742  38.849  1.00  0.00    -0.237 OA
ATOM     94  O   UNL A   1      44.175  26.649  39.318  1.00  0.00    -0.237 OA
ATOM     95  O   UNL A   1      44.452  24.791  37.725  1.00  0.00    -0.744 OA
ENDBRANCH  88  92
ENDBRANCH  62  85
ENDBRANCH  36  37
ENDBRANCH  28  31
ENDBRANCH  26  27
ENDBRANCH   1  26
TORSDOF 15
ENDMDL
