MODEL 1
REMARK VINA RESULT:     -12.3      0.000      0.000
REMARK SMILES C[N@H+]1[C@H]2CC[C@@H]1[C@@H](C(=O)NCCCCNC(=O)c1ccc(-c3c4nc(c(-c5cc(S(=O)(=O)[O-])ccc5F)c5ccc([nH]5)c(-c5cc(S(=O)(=O)[O-])ccc5F)c5nc(c(-c6cc(S(=O)(=O)[O-])ccc6F)c6ccc3[nH]6)C=C5)C=C4)cc1)[C@@H](OC(=O)c1ccccc1)C2
REMARK SMILES IDX 12 1 11 2 10 3 8 4 9 5 7 7 1 8 2 9 3 10 6 11 4 13 91 14 5 15
REMARK SMILES IDX 81 16 82 17 83 18 84 19 85 20 86 21 90 22 87 23 89 24 88 25
REMARK SMILES IDX 13 26 14 27 15 28 16 29 17 31 18 32 19 33 80 34 20 35 79 36
REMARK SMILES IDX 21 37 22 38 23 39 73 40 24 41 78 42 72 43 74 44 25 45 77 46
REMARK SMILES IDX 71 47 70 48 26 50 58 51 38 52 57 53 39 54 42 55 56 56 75 57
REMARK SMILES IDX 40 58 41 59 55 61 76 62 43 63 27 64 28 65 36 66 29 67 35 68
REMARK SMILES IDX 37 69 34 70 30 71 31 72 32 73 33 74 59 75 60 76 68 77 61 78
REMARK SMILES IDX 67 79 69 80 66 81 62 82 63 83 64 84 65 85 44 86 45 87 53 88
REMARK SMILES IDX 46 89 52 90 54 91 51 92 47 93 48 94 49 95 50 96
REMARK H PARENT 10 6 2 12 15 30 74 49 42 60
REMARK Flexibility Score: inf
ROOT
ATOM      1  C   UNL A   1      31.482  30.719  25.850  1.00  0.00     0.023 C 
ENDROOT
BRANCH   1   2
ATOM      2  C   UNL A   1      32.894  30.161  25.818  1.00  0.00     0.116 C 
BRANCH   2   3
ATOM      3  N   UNL A   1      33.311  29.504  24.591  1.00  0.00    -0.356 N 
ATOM      4  C   UNL A   1      32.782  28.466  23.878  1.00  0.00     0.232 C 
ATOM      5  O   UNL A   1      33.111  28.422  22.682  1.00  0.00    -0.274 OA
ATOM      6  H   UNL A   1      34.131  29.880  24.198  1.00  0.00     0.163 HD
BRANCH   4   7
ATOM      7  C   UNL A   1      31.877  27.336  24.420  1.00  0.00     0.177 C 
ATOM      8  C   UNL A   1      34.298  24.785  23.567  1.00  0.00     0.333 C 
ATOM      9  N   UNL A   1      33.022  25.462  23.556  1.00  0.00    -0.332 N 
ATOM     10  C   UNL A   1      31.833  24.818  23.001  1.00  0.00     0.188 C 
ATOM     11  C   UNL A   1      32.609  26.043  24.814  1.00  0.00     0.200 C 
ATOM     12  H   UNL A   1      33.319  26.159  22.874  1.00  0.00     0.348 HD
ATOM     13  C   UNL A   1      31.311  24.054  24.202  1.00  0.00     0.071 C 
ATOM     14  C   UNL A   1      30.833  25.935  22.528  1.00  0.00     0.111 C 
ATOM     15  C   UNL A   1      31.690  24.943  25.393  1.00  0.00     0.072 C 
ATOM     16  C   UNL A   1      30.628  27.076  23.562  1.00  0.00     0.201 C 
BRANCH  16  17
ATOM     17  O   UNL A   1      30.073  28.382  23.203  1.00  0.00    -0.457 OA
BRANCH  17  18
ATOM     18  C   UNL A   1      28.759  28.641  23.088  1.00  0.00     0.338 C 
ATOM     19  O   UNL A   1      27.847  27.847  23.282  1.00  0.00    -0.246 OA
BRANCH  18  20
ATOM     20  C   UNL A   1      28.506  30.040  22.637  1.00  0.00     0.060 A 
ATOM     21  C   UNL A   1      28.634  31.070  23.583  1.00  0.00     0.015 A 
ATOM     22  C   UNL A   1      28.229  30.373  21.304  1.00  0.00     0.015 A 
ATOM     23  C   UNL A   1      28.537  32.411  23.199  1.00  0.00     0.001 A 
ATOM     24  C   UNL A   1      28.145  31.719  20.920  1.00  0.00     0.001 A 
ATOM     25  C   UNL A   1      28.314  32.736  21.863  1.00  0.00     0.000 A 
ENDBRANCH  18  20
ENDBRANCH  17  18
ENDBRANCH  16  17
ENDBRANCH   4   7
ENDBRANCH   2   3
ENDBRANCH   1   2
BRANCH   1  26
ATOM     26  C   UNL A   1      31.337  32.038  26.571  1.00  0.00     0.023 C 
BRANCH  26  27
ATOM     27  C   UNL A   1      32.611  32.484  27.262  1.00  0.00     0.116 C 
BRANCH  27  28
ATOM     28  N   UNL A   1      32.602  33.899  27.639  1.00  0.00    -0.352 N 
ATOM     29  C   UNL A   1      33.451  34.539  28.512  1.00  0.00     0.251 C 
ATOM     30  H   UNL A   1      31.908  34.456  27.218  1.00  0.00     0.163 HD
ATOM     31  O   UNL A   1      33.246  35.688  28.882  1.00  0.00    -0.269 OA
BRANCH  29  32
ATOM     32  C   UNL A   1      34.603  33.765  28.997  1.00  0.00     0.039 A 
ATOM     33  C   UNL A   1      35.896  34.214  28.738  1.00  0.00     0.014 A 
ATOM     34  C   UNL A   1      34.358  32.714  29.885  1.00  0.00     0.014 A 
ATOM     35  C   UNL A   1      36.956  33.640  29.436  1.00  0.00     0.010 A 
ATOM     36  C   UNL A   1      35.394  32.249  30.672  1.00  0.00     0.010 A 
ATOM     37  C   UNL A   1      36.705  32.687  30.439  1.00  0.00    -0.014 A 
BRANCH  37  38
ATOM     38  C   UNL A   1      37.804  32.079  31.224  1.00  0.00     0.031 A 
ATOM     39  C   UNL A   1      38.596  30.957  30.612  1.00  0.00     0.074 A 
ATOM     40  C   UNL A   1      38.042  32.489  32.486  1.00  0.00     0.049 A 
ATOM     41  N   UNL A   1      39.543  30.227  31.140  1.00  0.00    -0.248 NA
ATOM     42  C   UNL A   1      38.242  30.574  29.234  1.00  0.00     0.031 C 
ATOM     43  C   UNL A   1      37.298  33.535  33.194  1.00  0.00     0.029 A 
ATOM     44  N   UNL A   1      38.978  32.076  33.398  1.00  0.00    -0.354 N 
ATOM     45  C   UNL A   1      39.881  29.295  30.164  1.00  0.00     0.074 A 
ATOM     46  C   UNL A   1      38.971  29.487  29.059  1.00  0.00     0.031 C 
ATOM     47  C   UNL A   1      37.841  33.714  34.409  1.00  0.00     0.029 A 
ATOM     48  C   UNL A   1      38.934  32.763  34.588  1.00  0.00     0.049 A 
ATOM     49  H   UNL A   1      39.623  31.354  33.217  1.00  0.00     0.167 HD
ATOM     50  C   UNL A   1      40.890  28.392  30.172  1.00  0.00     0.034 A 
ATOM     51  C   UNL A   1      39.690  32.633  35.696  1.00  0.00     0.034 A 
ATOM     52  C   UNL A   1      41.796  28.235  31.279  1.00  0.00     0.049 A 
ATOM     53  C   UNL A   1      40.786  31.595  35.698  1.00  0.00     0.074 A 
ATOM     54  C   UNL A   1      42.881  27.387  31.391  1.00  0.00     0.029 A 
ATOM     55  N   UNL A   1      41.716  28.943  32.473  1.00  0.00    -0.354 N 
ATOM     56  N   UNL A   1      41.130  30.754  34.748  1.00  0.00    -0.248 NA
ATOM     57  C   UNL A   1      41.601  31.497  36.914  1.00  0.00     0.031 C 
ATOM     58  C   UNL A   1      43.412  27.526  32.677  1.00  0.00     0.029 A 
ATOM     59  C   UNL A   1      42.714  28.527  33.339  1.00  0.00     0.049 A 
ATOM     60  H   UNL A   1      41.049  29.638  32.673  1.00  0.00     0.167 HD
ATOM     61  C   UNL A   1      42.227  30.053  35.241  1.00  0.00     0.074 A 
ATOM     62  C   UNL A   1      42.492  30.582  36.565  1.00  0.00     0.031 C 
ATOM     63  C   UNL A   1      42.955  29.067  34.656  1.00  0.00     0.034 A 
BRANCH  50  64
ATOM     64  C   UNL A   1      41.037  27.510  28.954  1.00  0.00     0.023 A 
ATOM     65  C   UNL A   1      42.050  27.729  28.003  1.00  0.00     0.031 A 
ATOM     66  C   UNL A   1      40.122  26.473  28.710  1.00  0.00     0.131 A 
ATOM     67  C   UNL A   1      42.068  26.988  26.812  1.00  0.00     0.055 A 
ATOM     68  C   UNL A   1      40.203  25.674  27.569  1.00  0.00     0.041 A 
ATOM     69  F   UNL A   1      39.116  26.233  29.565  1.00  0.00    -0.206 F 
ATOM     70  C   UNL A   1      41.169  25.941  26.602  1.00  0.00     0.022 A 
BRANCH  67  71
ATOM     71  S   UNL A   1      43.171  27.524  25.476  1.00  0.00     0.124 S 
ATOM     72  O   UNL A   1      42.246  28.241  24.602  1.00  0.00    -0.237 OA
ATOM     73  O   UNL A   1      44.149  28.343  26.182  1.00  0.00    -0.237 OA
ATOM     74  O   UNL A   1      43.685  26.269  24.931  1.00  0.00    -0.744 OA
ENDBRANCH  67  71
ENDBRANCH  50  64
BRANCH  51  75
ATOM     75  C   UNL A   1      39.454  33.500  36.886  1.00  0.00     0.023 A 
ATOM     76  C   UNL A   1      40.264  34.620  37.135  1.00  0.00     0.031 A 
ATOM     77  C   UNL A   1      38.447  33.199  37.820  1.00  0.00     0.131 A 
ATOM     78  C   UNL A   1      40.090  35.365  38.312  1.00  0.00     0.055 A 
ATOM     79  C   UNL A   1      38.239  33.977  38.961  1.00  0.00     0.041 A 
ATOM     80  F   UNL A   1      37.640  32.142  37.632  1.00  0.00    -0.206 F 
ATOM     81  C   UNL A   1      39.074  35.059  39.220  1.00  0.00     0.022 A 
BRANCH  78  82
ATOM     82  S   UNL A   1      41.280  36.680  38.691  1.00  0.00     0.124 S 
ATOM     83  O   UNL A   1      41.860  36.941  37.378  1.00  0.00    -0.237 OA
ATOM     84  O   UNL A   1      40.417  37.725  39.231  1.00  0.00    -0.237 OA
ATOM     85  O   UNL A   1      42.181  36.055  39.658  1.00  0.00    -0.744 OA
ENDBRANCH  78  82
ENDBRANCH  51  75
BRANCH  63  86
ATOM     86  C   UNL A   1      44.140  28.538  35.428  1.00  0.00     0.023 A 
ATOM     87  C   UNL A   1      44.015  27.486  36.351  1.00  0.00     0.031 A 
ATOM     88  C   UNL A   1      45.414  29.102  35.232  1.00  0.00     0.131 A 
ATOM     89  C   UNL A   1      45.133  27.071  37.088  1.00  0.00     0.055 A 
ATOM     90  C   UNL A   1      46.536  28.636  35.918  1.00  0.00     0.041 A 
ATOM     91  F   UNL A   1      45.590  30.111  34.365  1.00  0.00    -0.206 F 
ATOM     92  C   UNL A   1      46.396  27.624  36.863  1.00  0.00     0.022 A 
BRANCH  89  93
ATOM     93  S   UNL A   1      44.893  25.867  38.423  1.00  0.00     0.124 S 
ATOM     94  O   UNL A   1      46.268  25.554  38.799  1.00  0.00    -0.237 OA
ATOM     95  O   UNL A   1      44.124  26.632  39.399  1.00  0.00    -0.237 OA
ATOM     96  O   UNL A   1      44.164  24.779  37.775  1.00  0.00    -0.744 OA
ENDBRANCH  89  93
ENDBRANCH  63  86
ENDBRANCH  37  38
ENDBRANCH  29  32
ENDBRANCH  27  28
ENDBRANCH  26  27
ENDBRANCH   1  26
TORSDOF 17
ENDMDL
MODEL 2
REMARK VINA RESULT:     -12.3      2.954      8.303
REMARK SMILES C[N@H+]1[C@H]2CC[C@@H]1[C@@H](C(=O)NCCCCNC(=O)c1ccc(-c3c4nc(c(-c5cc(S(=O)(=O)[O-])ccc5F)c5ccc([nH]5)c(-c5cc(S(=O)(=O)[O-])ccc5F)c5nc(c(-c6cc(S(=O)(=O)[O-])ccc6F)c6ccc3[nH]6)C=C5)C=C4)cc1)[C@@H](OC(=O)c1ccccc1)C2
REMARK SMILES IDX 12 1 11 2 10 3 8 4 9 5 7 7 1 8 2 9 3 10 6 11 4 13 91 14 5 15
REMARK SMILES IDX 81 16 82 17 83 18 84 19 85 20 86 21 90 22 87 23 89 24 88 25
REMARK SMILES IDX 13 26 14 27 15 28 16 29 17 31 18 32 19 33 80 34 20 35 79 36
REMARK SMILES IDX 21 37 22 38 23 39 73 40 24 41 78 42 72 43 74 44 25 45 77 46
REMARK SMILES IDX 71 47 70 48 26 50 58 51 38 52 57 53 39 54 42 55 56 56 75 57
REMARK SMILES IDX 40 58 41 59 55 61 76 62 43 63 27 64 28 65 36 66 29 67 35 68
REMARK SMILES IDX 37 69 34 70 30 71 31 72 32 73 33 74 59 75 60 76 68 77 61 78
REMARK SMILES IDX 67 79 69 80 66 81 62 82 63 83 64 84 65 85 44 86 45 87 53 88
REMARK SMILES IDX 46 89 52 90 54 91 51 92 47 93 48 94 49 95 50 96
REMARK H PARENT 10 6 2 12 15 30 74 49 42 60
REMARK Flexibility Score: inf
ROOT
ATOM      1  C   UNL A   1      32.441  27.683  26.738  1.00  0.00     0.023 C 
ENDROOT
BRANCH   1   2
ATOM      2  C   UNL A   1      33.592  27.476  25.770  1.00  0.00     0.116 C 
BRANCH   2   3
ATOM      3  N   UNL A   1      34.456  26.335  26.013  1.00  0.00    -0.356 N 
ATOM      4  C   UNL A   1      34.416  25.041  25.576  1.00  0.00     0.232 C 
ATOM      5  O   UNL A   1      35.500  24.437  25.606  1.00  0.00    -0.274 OA
ATOM      6  H   UNL A   1      35.216  26.530  26.607  1.00  0.00     0.163 HD
BRANCH   4   7
ATOM      7  C   UNL A   1      33.166  24.259  25.109  1.00  0.00     0.177 C 
ATOM      8  C   UNL A   1      34.040  21.374  27.110  1.00  0.00     0.333 C 
ATOM      9  N   UNL A   1      33.721  22.110  25.909  1.00  0.00    -0.332 N 
ATOM     10  C   UNL A   1      33.420  21.415  24.658  1.00  0.00     0.188 C 
ATOM     11  C   UNL A   1      32.709  23.133  26.050  1.00  0.00     0.200 C 
ATOM     12  H   UNL A   1      34.661  22.490  25.809  1.00  0.00     0.348 HD
ATOM     13  C   UNL A   1      31.929  21.175  24.793  1.00  0.00     0.071 C 
ATOM     14  C   UNL A   1      33.760  22.373  23.459  1.00  0.00     0.111 C 
ATOM     15  C   UNL A   1      31.434  22.393  25.584  1.00  0.00     0.072 C 
ATOM     16  C   UNL A   1      33.223  23.820  23.637  1.00  0.00     0.201 C 
BRANCH  16  17
ATOM     17  O   UNL A   1      33.735  24.956  22.869  1.00  0.00    -0.457 OA
BRANCH  17  18
ATOM     18  C   UNL A   1      33.063  25.563  21.875  1.00  0.00     0.338 C 
ATOM     19  O   UNL A   1      33.128  25.285  20.683  1.00  0.00    -0.246 OA
BRANCH  18  20
ATOM     20  C   UNL A   1      32.226  26.691  22.378  1.00  0.00     0.060 A 
ATOM     21  C   UNL A   1      30.964  26.386  22.912  1.00  0.00     0.015 A 
ATOM     22  C   UNL A   1      32.676  28.018  22.413  1.00  0.00     0.015 A 
ATOM     23  C   UNL A   1      30.184  27.377  23.517  1.00  0.00     0.001 A 
ATOM     24  C   UNL A   1      31.897  29.006  23.032  1.00  0.00     0.001 A 
ATOM     25  C   UNL A   1      30.660  28.683  23.596  1.00  0.00     0.000 A 
ENDBRANCH  18  20
ENDBRANCH  17  18
ENDBRANCH  16  17
ENDBRANCH   4   7
ENDBRANCH   2   3
ENDBRANCH   1   2
BRANCH   1  26
ATOM     26  C   UNL A   1      32.101  29.127  27.022  1.00  0.00     0.023 C 
BRANCH  26  27
ATOM     27  C   UNL A   1      33.134  30.100  26.489  1.00  0.00     0.116 C 
BRANCH  27  28
ATOM     28  N   UNL A   1      32.966  31.462  26.997  1.00  0.00    -0.352 N 
ATOM     29  C   UNL A   1      33.813  32.158  27.828  1.00  0.00     0.251 C 
ATOM     30  H   UNL A   1      32.150  31.935  26.711  1.00  0.00     0.163 HD
ATOM     31  O   UNL A   1      33.491  33.230  28.325  1.00  0.00    -0.269 OA
BRANCH  29  32
ATOM     32  C   UNL A   1      35.118  31.540  28.106  1.00  0.00     0.039 A 
ATOM     33  C   UNL A   1      36.277  32.312  28.045  1.00  0.00     0.014 A 
ATOM     34  C   UNL A   1      35.130  30.244  28.627  1.00  0.00     0.014 A 
ATOM     35  C   UNL A   1      37.453  31.795  28.582  1.00  0.00     0.010 A 
ATOM     36  C   UNL A   1      36.262  29.796  29.281  1.00  0.00     0.010 A 
ATOM     37  C   UNL A   1      37.441  30.554  29.243  1.00  0.00    -0.014 A 
BRANCH  37  38
ATOM     38  C   UNL A   1      38.665  29.988  29.855  1.00  0.00     0.031 A 
ATOM     39  C   UNL A   1      39.081  30.469  31.218  1.00  0.00     0.074 A 
ATOM     40  C   UNL A   1      39.419  29.105  29.170  1.00  0.00     0.049 A 
ATOM     41  N   UNL A   1      40.150  30.176  31.909  1.00  0.00    -0.248 NA
ATOM     42  C   UNL A   1      38.195  31.448  31.870  1.00  0.00     0.031 C 
ATOM     43  C   UNL A   1      39.133  28.612  27.820  1.00  0.00     0.029 A 
ATOM     44  N   UNL A   1      40.580  28.465  29.516  1.00  0.00    -0.354 N 
ATOM     45  C   UNL A   1      40.069  30.945  33.064  1.00  0.00     0.074 A 
ATOM     46  C   UNL A   1      38.904  31.789  32.932  1.00  0.00     0.031 C 
ATOM     47  C   UNL A   1      40.066  27.709  27.475  1.00  0.00     0.029 A 
ATOM     48  C   UNL A   1      41.043  27.598  28.554  1.00  0.00     0.049 A 
ATOM     49  H   UNL A   1      41.040  28.612  30.374  1.00  0.00     0.167 HD
ATOM     50  C   UNL A   1      40.868  30.916  34.157  1.00  0.00     0.034 A 
ATOM     51  C   UNL A   1      42.136  26.809  28.548  1.00  0.00     0.034 A 
ATOM     52  C   UNL A   1      42.012  30.051  34.272  1.00  0.00     0.049 A 
ATOM     53  C   UNL A   1      43.034  26.819  29.761  1.00  0.00     0.074 A 
ATOM     54  C   UNL A   1      42.874  29.899  35.341  1.00  0.00     0.029 A 
ATOM     55  N   UNL A   1      42.457  29.191  33.274  1.00  0.00    -0.354 N 
ATOM     56  N   UNL A   1      42.918  27.514  30.871  1.00  0.00    -0.248 NA
ATOM     57  C   UNL A   1      44.202  25.932  29.725  1.00  0.00     0.031 C 
ATOM     58  C   UNL A   1      43.881  29.005  34.965  1.00  0.00     0.029 A 
ATOM     59  C   UNL A   1      43.600  28.530  33.692  1.00  0.00     0.049 A 
ATOM     60  H   UNL A   1      42.023  29.070  32.399  1.00  0.00     0.167 HD
ATOM     61  C   UNL A   1      43.979  27.117  31.680  1.00  0.00     0.074 A 
ATOM     62  C   UNL A   1      44.712  26.114  30.934  1.00  0.00     0.031 C 
ATOM     63  C   UNL A   1      44.317  27.536  32.927  1.00  0.00     0.034 A 
BRANCH  50  64
ATOM     64  C   UNL A   1      40.528  31.861  35.286  1.00  0.00     0.023 A 
ATOM     65  C   UNL A   1      39.518  31.561  36.220  1.00  0.00     0.031 A 
ATOM     66  C   UNL A   1      41.180  33.099  35.401  1.00  0.00     0.131 A 
ATOM     67  C   UNL A   1      39.127  32.521  37.164  1.00  0.00     0.055 A 
ATOM     68  C   UNL A   1      40.852  34.012  36.405  1.00  0.00     0.041 A 
ATOM     69  F   UNL A   1      42.132  33.455  34.524  1.00  0.00    -0.206 F 
ATOM     70  C   UNL A   1      39.808  33.734  37.282  1.00  0.00     0.022 A 
BRANCH  67  71
ATOM     71  S   UNL A   1      37.611  32.231  38.116  1.00  0.00     0.124 S 
ATOM     72  O   UNL A   1      37.391  30.805  37.891  1.00  0.00    -0.237 OA
ATOM     73  O   UNL A   1      38.008  32.612  39.466  1.00  0.00    -0.237 OA
ATOM     74  O   UNL A   1      36.634  33.112  37.480  1.00  0.00    -0.744 OA
ENDBRANCH  67  71
ENDBRANCH  50  64
BRANCH  51  75
ATOM     75  C   UNL A   1      42.443  25.942  27.374  1.00  0.00     0.023 A 
ATOM     76  C   UNL A   1      42.013  24.605  27.332  1.00  0.00     0.031 A 
ATOM     77  C   UNL A   1      43.211  26.417  26.297  1.00  0.00     0.131 A 
ATOM     78  C   UNL A   1      42.397  23.777  26.266  1.00  0.00     0.055 A 
ATOM     79  C   UNL A   1      43.542  25.606  25.209  1.00  0.00     0.041 A 
ATOM     80  F   UNL A   1      43.647  27.687  26.282  1.00  0.00    -0.206 F 
ATOM     81  C   UNL A   1      43.147  24.272  25.197  1.00  0.00     0.022 A 
BRANCH  78  82
ATOM     82  S   UNL A   1      41.987  22.012  26.347  1.00  0.00     0.124 S 
ATOM     83  O   UNL A   1      42.412  21.671  27.700  1.00  0.00    -0.237 OA
ATOM     84  O   UNL A   1      40.548  22.024  26.110  1.00  0.00    -0.237 OA
ATOM     85  O   UNL A   1      42.790  21.427  25.275  1.00  0.00    -0.744 OA
ENDBRANCH  78  82
ENDBRANCH  51  75
BRANCH  63  86
ATOM     86  C   UNL A   1      45.502  26.867  33.579  1.00  0.00     0.023 A 
ATOM     87  C   UNL A   1      45.367  25.693  34.338  1.00  0.00     0.031 A 
ATOM     88  C   UNL A   1      46.788  27.419  33.433  1.00  0.00     0.131 A 
ATOM     89  C   UNL A   1      46.489  25.142  34.974  1.00  0.00     0.055 A 
ATOM     90  C   UNL A   1      47.911  26.826  34.010  1.00  0.00     0.041 A 
ATOM     91  F   UNL A   1      46.974  28.542  32.721  1.00  0.00    -0.206 F 
ATOM     92  C   UNL A   1      47.762  25.688  34.798  1.00  0.00     0.022 A 
BRANCH  89  93
ATOM     93  S   UNL A   1      46.244  23.759  36.122  1.00  0.00     0.124 S 
ATOM     94  O   UNL A   1      47.502  23.751  36.859  1.00  0.00    -0.237 OA
ATOM     95  O   UNL A   1      45.066  24.181  36.873  1.00  0.00    -0.237 OA
ATOM     96  O   UNL A   1      46.035  22.614  35.237  1.00  0.00    -0.744 OA
ENDBRANCH  89  93
ENDBRANCH  63  86
ENDBRANCH  37  38
ENDBRANCH  29  32
ENDBRANCH  27  28
ENDBRANCH  26  27
ENDBRANCH   1  26
TORSDOF 17
ENDMDL
MODEL 3
REMARK VINA RESULT:     -12.2      5.508      8.793
REMARK SMILES C[N@H+]1[C@H]2CC[C@@H]1[C@@H](C(=O)NCCCCNC(=O)c1ccc(-c3c4nc(c(-c5cc(S(=O)(=O)[O-])ccc5F)c5ccc([nH]5)c(-c5cc(S(=O)(=O)[O-])ccc5F)c5nc(c(-c6cc(S(=O)(=O)[O-])ccc6F)c6ccc3[nH]6)C=C5)C=C4)cc1)[C@@H](OC(=O)c1ccccc1)C2
REMARK SMILES IDX 12 1 11 2 10 3 8 4 9 5 7 7 1 8 2 9 3 10 6 11 4 13 91 14 5 15
REMARK SMILES IDX 81 16 82 17 83 18 84 19 85 20 86 21 90 22 87 23 89 24 88 25
REMARK SMILES IDX 13 26 14 27 15 28 16 29 17 31 18 32 19 33 80 34 20 35 79 36
REMARK SMILES IDX 21 37 22 38 23 39 73 40 24 41 78 42 72 43 74 44 25 45 77 46
REMARK SMILES IDX 71 47 70 48 26 50 58 51 38 52 57 53 39 54 42 55 56 56 75 57
REMARK SMILES IDX 40 58 41 59 55 61 76 62 43 63 27 64 28 65 36 66 29 67 35 68
REMARK SMILES IDX 37 69 34 70 30 71 31 72 32 73 33 74 59 75 60 76 68 77 61 78
REMARK SMILES IDX 67 79 69 80 66 81 62 82 63 83 64 84 65 85 44 86 45 87 53 88
REMARK SMILES IDX 46 89 52 90 54 91 51 92 47 93 48 94 49 95 50 96
REMARK H PARENT 10 6 2 12 15 30 74 49 42 60
REMARK Flexibility Score: inf
ROOT
ATOM      1  C   UNL A   1      36.291  22.629  23.449  1.00  0.00     0.023 C 
ENDROOT
BRANCH   1   2
ATOM      2  C   UNL A   1      35.330  23.805  23.473  1.00  0.00     0.116 C 
BRANCH   2   3
ATOM      3  N   UNL A   1      34.918  24.288  24.779  1.00  0.00    -0.356 N 
ATOM      4  C   UNL A   1      34.027  25.249  25.165  1.00  0.00     0.232 C 
ATOM      5  O   UNL A   1      33.588  25.132  26.320  1.00  0.00    -0.274 OA
ATOM      6  H   UNL A   1      35.366  23.835  25.530  1.00  0.00     0.163 HD
BRANCH   4   7
ATOM      7  C   UNL A   1      33.567  26.472  24.338  1.00  0.00     0.177 C 
ATOM      8  C   UNL A   1      32.948  28.438  27.313  1.00  0.00     0.333 C 
ATOM      9  N   UNL A   1      32.636  27.788  26.061  1.00  0.00    -0.332 N 
ATOM     10  C   UNL A   1      31.386  28.071  25.358  1.00  0.00     0.188 C 
ATOM     11  C   UNL A   1      33.676  27.826  25.057  1.00  0.00     0.200 C 
ATOM     12  H   UNL A   1      32.526  26.868  26.486  1.00  0.00     0.348 HD
ATOM     13  C   UNL A   1      31.771  29.279  24.525  1.00  0.00     0.071 C 
ATOM     14  C   UNL A   1      31.020  26.828  24.466  1.00  0.00     0.111 C 
ATOM     15  C   UNL A   1      33.250  29.038  24.197  1.00  0.00     0.072 C 
ATOM     16  C   UNL A   1      32.212  26.274  23.640  1.00  0.00     0.201 C 
BRANCH  16  17
ATOM     17  O   UNL A   1      32.219  24.929  23.061  1.00  0.00    -0.457 OA
BRANCH  17  18
ATOM     18  C   UNL A   1      31.226  24.035  23.210  1.00  0.00     0.338 C 
ATOM     19  O   UNL A   1      30.028  24.261  23.094  1.00  0.00    -0.246 OA
BRANCH  18  20
ATOM     20  C   UNL A   1      31.743  22.689  23.594  1.00  0.00     0.060 A 
ATOM     21  C   UNL A   1      31.801  22.372  24.961  1.00  0.00     0.015 A 
ATOM     22  C   UNL A   1      32.093  21.710  22.654  1.00  0.00     0.015 A 
ATOM     23  C   UNL A   1      32.153  21.087  25.383  1.00  0.00     0.001 A 
ATOM     24  C   UNL A   1      32.432  20.418  23.081  1.00  0.00     0.001 A 
ATOM     25  C   UNL A   1      32.448  20.103  24.442  1.00  0.00     0.000 A 
ENDBRANCH  18  20
ENDBRANCH  17  18
ENDBRANCH  16  17
ENDBRANCH   4   7
ENDBRANCH   2   3
ENDBRANCH   1   2
BRANCH   1  26
ATOM     26  C   UNL A   1      36.132  21.656  24.593  1.00  0.00     0.023 C 
BRANCH  26  27
ATOM     27  C   UNL A   1      37.122  21.889  25.717  1.00  0.00     0.116 C 
BRANCH  27  28
ATOM     28  N   UNL A   1      38.179  20.878  25.779  1.00  0.00    -0.352 N 
ATOM     29  C   UNL A   1      39.483  21.052  26.183  1.00  0.00     0.251 C 
ATOM     30  H   UNL A   1      37.927  19.968  25.499  1.00  0.00     0.163 HD
ATOM     31  O   UNL A   1      40.325  20.176  26.034  1.00  0.00    -0.269 OA
BRANCH  29  32
ATOM     32  C   UNL A   1      39.819  22.352  26.782  1.00  0.00     0.039 A 
ATOM     33  C   UNL A   1      40.781  22.422  27.788  1.00  0.00     0.014 A 
ATOM     34  C   UNL A   1      39.312  23.503  26.174  1.00  0.00     0.014 A 
ATOM     35  C   UNL A   1      41.290  23.670  28.141  1.00  0.00     0.010 A 
ATOM     36  C   UNL A   1      39.921  24.718  26.428  1.00  0.00     0.010 A 
ATOM     37  C   UNL A   1      40.895  24.819  27.431  1.00  0.00    -0.014 A 
BRANCH  37  38
ATOM     38  C   UNL A   1      41.440  26.157  27.755  1.00  0.00     0.031 A 
ATOM     39  C   UNL A   1      42.823  26.509  27.280  1.00  0.00     0.074 A 
ATOM     40  C   UNL A   1      40.728  27.013  28.514  1.00  0.00     0.049 A 
ATOM     41  N   UNL A   1      43.531  27.583  27.512  1.00  0.00    -0.248 NA
ATOM     42  C   UNL A   1      43.523  25.493  26.474  1.00  0.00     0.031 C 
ATOM     43  C   UNL A   1      39.397  26.750  29.069  1.00  0.00     0.029 A 
ATOM     44  N   UNL A   1      41.022  28.279  28.948  1.00  0.00    -0.354 N 
ATOM     45  C   UNL A   1      44.756  27.362  26.894  1.00  0.00     0.074 A 
ATOM     46  C   UNL A   1      44.731  26.016  26.369  1.00  0.00     0.031 C 
ATOM     47  C   UNL A   1      38.972  27.842  29.727  1.00  0.00     0.029 A 
ATOM     48  C   UNL A   1      40.017  28.860  29.686  1.00  0.00     0.049 A 
ATOM     49  H   UNL A   1      41.874  28.731  28.750  1.00  0.00     0.167 HD
ATOM     50  C   UNL A   1      45.792  28.220  26.738  1.00  0.00     0.034 A 
ATOM     51  C   UNL A   1      39.955  30.075  30.264  1.00  0.00     0.034 A 
ATOM     52  C   UNL A   1      45.783  29.563  27.254  1.00  0.00     0.049 A 
ATOM     53  C   UNL A   1      41.135  31.004  30.110  1.00  0.00     0.074 A 
ATOM     54  C   UNL A   1      46.751  30.542  27.127  1.00  0.00     0.029 A 
ATOM     55  N   UNL A   1      44.751  30.116  28.004  1.00  0.00    -0.354 N 
ATOM     56  N   UNL A   1      42.270  30.802  29.478  1.00  0.00    -0.248 NA
ATOM     57  C   UNL A   1      41.021  32.326  30.736  1.00  0.00     0.031 C 
ATOM     58  C   UNL A   1      46.340  31.658  27.861  1.00  0.00     0.029 A 
ATOM     59  C   UNL A   1      45.074  31.412  28.373  1.00  0.00     0.049 A 
ATOM     60  H   UNL A   1      43.914  29.655  28.238  1.00  0.00     0.167 HD
ATOM     61  C   UNL A   1      42.988  31.988  29.600  1.00  0.00     0.074 A 
ATOM     62  C   UNL A   1      42.151  32.901  30.353  1.00  0.00     0.031 C 
ATOM     63  C   UNL A   1      44.224  32.301  29.130  1.00  0.00     0.034 A 
BRANCH  50  64
ATOM     64  C   UNL A   1      47.006  27.711  25.998  1.00  0.00     0.023 A 
ATOM     65  C   UNL A   1      47.244  28.045  24.652  1.00  0.00     0.031 A 
ATOM     66  C   UNL A   1      47.908  26.836  26.625  1.00  0.00     0.131 A 
ATOM     67  C   UNL A   1      48.298  27.439  23.953  1.00  0.00     0.055 A 
ATOM     68  C   UNL A   1      49.012  26.311  25.951  1.00  0.00     0.041 A 
ATOM     69  F   UNL A   1      47.721  26.456  27.899  1.00  0.00    -0.206 F 
ATOM     70  C   UNL A   1      49.202  26.596  24.602  1.00  0.00     0.022 A 
BRANCH  67  71
ATOM     71  S   UNL A   1      48.364  27.632  22.151  1.00  0.00     0.124 S 
ATOM     72  O   UNL A   1      47.055  28.213  21.869  1.00  0.00    -0.237 OA
ATOM     73  O   UNL A   1      49.509  28.517  21.970  1.00  0.00    -0.237 OA
ATOM     74  O   UNL A   1      48.549  26.265  21.667  1.00  0.00    -0.744 OA
ENDBRANCH  67  71
ENDBRANCH  50  64
BRANCH  51  75
ATOM     75  C   UNL A   1      38.746  30.494  31.030  1.00  0.00     0.023 A 
ATOM     76  C   UNL A   1      37.705  31.202  30.405  1.00  0.00     0.031 A 
ATOM     77  C   UNL A   1      38.629  30.237  32.407  1.00  0.00     0.131 A 
ATOM     78  C   UNL A   1      36.623  31.673  31.164  1.00  0.00     0.055 A 
ATOM     79  C   UNL A   1      37.522  30.657  33.147  1.00  0.00     0.041 A 
ATOM     80  F   UNL A   1      39.591  29.561  33.056  1.00  0.00    -0.206 F 
ATOM     81  C   UNL A   1      36.517  31.394  32.528  1.00  0.00     0.022 A 
BRANCH  78  82
ATOM     82  S   UNL A   1      35.403  32.748  30.360  1.00  0.00     0.124 S 
ATOM     83  O   UNL A   1      34.253  32.605  31.245  1.00  0.00    -0.237 OA
ATOM     84  O   UNL A   1      36.077  34.043  30.385  1.00  0.00    -0.237 OA
ATOM     85  O   UNL A   1      35.248  32.153  29.034  1.00  0.00    -0.744 OA
ENDBRANCH  78  82
ENDBRANCH  51  75
BRANCH  63  86
ATOM     86  C   UNL A   1      44.716  33.707  29.374  1.00  0.00     0.023 A 
ATOM     87  C   UNL A   1      44.408  34.763  28.501  1.00  0.00     0.031 A 
ATOM     88  C   UNL A   1      45.506  33.988  30.503  1.00  0.00     0.131 A 
ATOM     89  C   UNL A   1      44.939  36.039  28.737  1.00  0.00     0.055 A 
ATOM     90  C   UNL A   1      45.972  35.276  30.771  1.00  0.00     0.041 A 
ATOM     91  F   UNL A   1      45.833  33.016  31.369  1.00  0.00    -0.206 F 
ATOM     92  C   UNL A   1      45.700  36.307  29.877  1.00  0.00     0.022 A 
BRANCH  89  93
ATOM     93  S   UNL A   1      44.706  37.323  27.477  1.00  0.00     0.124 S 
ATOM     94  O   UNL A   1      45.981  37.287  26.769  1.00  0.00    -0.237 OA
ATOM     95  O   UNL A   1      43.551  36.828  26.736  1.00  0.00    -0.237 OA
ATOM     96  O   UNL A   1      44.467  38.533  28.262  1.00  0.00    -0.744 OA
ENDBRANCH  89  93
ENDBRANCH  63  86
ENDBRANCH  37  38
ENDBRANCH  29  32
ENDBRANCH  27  28
ENDBRANCH  26  27
ENDBRANCH   1  26
TORSDOF 17
ENDMDL
