MODEL 1
REMARK VINA RESULT:     -12.8      0.000      0.000
REMARK SMILES Cc1ccccc1C[C@H](C[C@@H]1Cc2ccccc21)C(=O)NCCCCNC(=O)c1ccc(-c2c3nc(c(-c4cc(S(=O)(=O)[O-])ccc4F)c4ccc([nH]4)c(-c4cc(S(=O)(=O)[O-])ccc4F)c4nc(c(-c5cc(S(=O)(=O)[O-])ccc5F)c5ccc2[nH]5)C=C4)C=C3)cc1
REMARK SMILES IDX 24 1 23 2 22 3 21 4 19 5 20 6 9 8 8 9 7 10 1 11 2 12 3 13
REMARK SMILES IDX 4 14 6 15 5 16 10 17 11 18 12 19 18 20 13 21 17 22 14 23
REMARK SMILES IDX 16 24 15 25 25 26 26 27 27 28 28 30 29 31 30 32 91 33 31 34
REMARK SMILES IDX 90 35 32 36 33 37 34 38 84 39 35 40 89 41 83 42 85 43 36 44
REMARK SMILES IDX 88 45 82 46 81 47 37 49 69 50 49 51 68 52 50 53 53 54 67 55
REMARK SMILES IDX 86 56 51 57 52 58 66 60 87 61 54 62 38 63 39 64 47 65 40 66
REMARK SMILES IDX 46 67 48 68 45 69 41 70 42 71 43 72 44 73 70 74 71 75 79 76
REMARK SMILES IDX 72 77 78 78 80 79 77 80 73 81 74 82 75 83 76 84 55 85 56 86
REMARK SMILES IDX 64 87 57 88 63 89 65 90 62 91 58 92 59 93 60 94 61 95
REMARK H PARENT 21 7 26 29 85 48 53 59
REMARK Flexibility Score: inf
ROOT
ATOM      1  C   UNL A   1      37.796  22.272  24.784  1.00  0.00     0.023 C 
ENDROOT
BRANCH   1   2
ATOM      2  C   UNL A   1      37.057  20.936  24.887  1.00  0.00     0.023 C 
BRANCH   2   3
ATOM      3  C   UNL A   1      35.751  20.967  25.689  1.00  0.00     0.116 C 
BRANCH   3   4
ATOM      4  N   UNL A   1      34.692  20.148  25.109  1.00  0.00    -0.356 N 
ATOM      5  C   UNL A   1      33.577  20.486  24.406  1.00  0.00     0.223 C 
ATOM      6  O   UNL A   1      32.936  19.551  23.906  1.00  0.00    -0.275 OA
ATOM      7  H   UNL A   1      34.805  19.181  25.252  1.00  0.00     0.163 HD
BRANCH   5   8
ATOM      8  C   UNL A   1      33.067  21.928  24.247  1.00  0.00     0.083 C 
BRANCH   8   9
ATOM      9  C   UNL A   1      31.561  22.237  24.495  1.00  0.00     0.049 C 
BRANCH   9  10
ATOM     10  C   UNL A   1      30.948  23.622  24.607  1.00  0.00    -0.044 A 
ATOM     11  C   UNL A   1      31.624  23.783  27.084  1.00  0.00     0.044 C 
ATOM     12  C   UNL A   1      30.999  24.339  25.831  1.00  0.00    -0.048 A 
ATOM     13  C   UNL A   1      30.452  25.635  25.912  1.00  0.00     0.004 A 
ATOM     14  C   UNL A   1      29.921  26.259  24.789  1.00  0.00     0.000 A 
ATOM     15  C   UNL A   1      30.467  24.307  23.483  1.00  0.00     0.004 A 
ATOM     16  C   UNL A   1      29.945  25.600  23.571  1.00  0.00     0.000 A 
ENDBRANCH   9  10
ENDBRANCH   8   9
BRANCH   8  17
ATOM     17  C   UNL A   1      33.808  22.737  23.150  1.00  0.00     0.022 C 
BRANCH  17  18
ATOM     18  C   UNL A   1      34.731  23.873  23.613  1.00  0.00     0.025 C 
ATOM     19  C   UNL A   1      34.817  24.388  25.112  1.00  0.00     0.044 C 
ATOM     20  C   UNL A   1      34.132  25.235  23.313  1.00  0.00    -0.041 A 
ATOM     21  C   UNL A   1      34.160  25.638  24.624  1.00  0.00    -0.044 A 
ATOM     22  C   UNL A   1      33.598  26.033  22.326  1.00  0.00     0.004 A 
ATOM     23  C   UNL A   1      33.659  26.848  25.034  1.00  0.00     0.004 A 
ATOM     24  C   UNL A   1      33.080  27.274  22.711  1.00  0.00     0.000 A 
ATOM     25  C   UNL A   1      33.106  27.676  24.059  1.00  0.00     0.000 A 
ENDBRANCH  17  18
ENDBRANCH   8  17
ENDBRANCH   5   8
ENDBRANCH   3   4
ENDBRANCH   2   3
ENDBRANCH   1   2
BRANCH   1  26
ATOM     26  C   UNL A   1      38.299  22.821  26.114  1.00  0.00     0.116 C 
BRANCH  26  27
ATOM     27  N   UNL A   1      39.734  22.781  26.318  1.00  0.00    -0.352 N 
ATOM     28  C   UNL A   1      40.602  23.832  26.587  1.00  0.00     0.251 C 
ATOM     29  H   UNL A   1      40.148  21.890  26.258  1.00  0.00     0.163 HD
ATOM     30  O   UNL A   1      41.809  23.679  26.510  1.00  0.00    -0.269 OA
BRANCH  28  31
ATOM     31  C   UNL A   1      40.053  25.124  27.091  1.00  0.00     0.039 A 
ATOM     32  C   UNL A   1      40.426  26.291  26.407  1.00  0.00     0.014 A 
ATOM     33  C   UNL A   1      39.357  25.226  28.292  1.00  0.00     0.014 A 
ATOM     34  C   UNL A   1      40.294  27.533  27.029  1.00  0.00     0.010 A 
ATOM     35  C   UNL A   1      39.314  26.439  28.951  1.00  0.00     0.010 A 
ATOM     36  C   UNL A   1      39.828  27.584  28.342  1.00  0.00    -0.014 A 
BRANCH  36  37
ATOM     37  C   UNL A   1      39.935  28.762  29.193  1.00  0.00     0.031 A 
ATOM     38  C   UNL A   1      38.879  29.788  29.202  1.00  0.00     0.074 A 
ATOM     39  C   UNL A   1      40.991  28.889  30.022  1.00  0.00     0.049 A 
ATOM     40  N   UNL A   1      39.078  31.030  29.487  1.00  0.00    -0.248 NA
ATOM     41  C   UNL A   1      37.498  29.488  28.846  1.00  0.00     0.031 C 
ATOM     42  C   UNL A   1      41.165  29.845  31.112  1.00  0.00     0.029 A 
ATOM     43  N   UNL A   1      42.244  28.309  29.869  1.00  0.00    -0.354 N 
ATOM     44  C   UNL A   1      37.847  31.627  29.621  1.00  0.00     0.074 A 
ATOM     45  C   UNL A   1      36.898  30.643  29.150  1.00  0.00     0.031 C 
ATOM     46  C   UNL A   1      42.477  29.970  31.372  1.00  0.00     0.029 A 
ATOM     47  C   UNL A   1      43.191  29.224  30.350  1.00  0.00     0.049 A 
ATOM     48  H   UNL A   1      42.431  27.418  29.493  1.00  0.00     0.167 HD
ATOM     49  C   UNL A   1      37.739  32.833  30.247  1.00  0.00     0.034 A 
ATOM     50  C   UNL A   1      44.143  29.742  29.518  1.00  0.00     0.034 A 
ATOM     51  C   UNL A   1      39.037  33.331  30.695  1.00  0.00     0.049 A 
ATOM     52  C   UNL A   1      44.101  31.249  29.417  1.00  0.00     0.074 A 
ATOM     53  C   UNL A   1      39.673  33.300  31.926  1.00  0.00     0.029 A 
ATOM     54  N   UNL A   1      39.997  33.711  29.765  1.00  0.00    -0.354 N 
ATOM     55  N   UNL A   1      43.066  31.982  29.722  1.00  0.00    -0.248 NA
ATOM     56  C   UNL A   1      45.228  32.041  28.938  1.00  0.00     0.031 C 
ATOM     57  C   UNL A   1      41.040  33.620  31.722  1.00  0.00     0.029 A 
ATOM     58  C   UNL A   1      41.227  33.875  30.375  1.00  0.00     0.049 A 
ATOM     59  H   UNL A   1      39.825  33.845  28.805  1.00  0.00     0.167 HD
ATOM     60  C   UNL A   1      43.343  33.300  29.452  1.00  0.00     0.074 A 
ATOM     61  C   UNL A   1      44.724  33.284  29.001  1.00  0.00     0.031 C 
ATOM     62  C   UNL A   1      42.398  34.279  29.603  1.00  0.00     0.034 A 
BRANCH  49  63
ATOM     63  C   UNL A   1      36.424  33.393  30.734  1.00  0.00     0.023 A 
ATOM     64  C   UNL A   1      35.583  34.076  29.831  1.00  0.00     0.031 A 
ATOM     65  C   UNL A   1      35.960  33.325  32.062  1.00  0.00     0.131 A 
ATOM     66  C   UNL A   1      34.425  34.745  30.269  1.00  0.00     0.055 A 
ATOM     67  C   UNL A   1      34.844  34.043  32.512  1.00  0.00     0.041 A 
ATOM     68  F   UNL A   1      36.548  32.528  32.967  1.00  0.00    -0.206 F 
ATOM     69  C   UNL A   1      34.077  34.774  31.616  1.00  0.00     0.022 A 
BRANCH  66  70
ATOM     70  S   UNL A   1      33.371  35.571  29.045  1.00  0.00     0.124 S 
ATOM     71  O   UNL A   1      32.577  36.472  29.875  1.00  0.00    -0.237 OA
ATOM     72  O   UNL A   1      34.352  36.198  28.167  1.00  0.00    -0.237 OA
ATOM     73  O   UNL A   1      32.623  34.468  28.443  1.00  0.00    -0.744 OA
ENDBRANCH  66  70
ENDBRANCH  49  63
BRANCH  50  74
ATOM     74  C   UNL A   1      44.515  28.828  28.395  1.00  0.00     0.023 A 
ATOM     75  C   UNL A   1      45.316  27.710  28.710  1.00  0.00     0.031 A 
ATOM     76  C   UNL A   1      43.806  28.806  27.186  1.00  0.00     0.131 A 
ATOM     77  C   UNL A   1      45.232  26.544  27.938  1.00  0.00     0.055 A 
ATOM     78  C   UNL A   1      43.805  27.671  26.365  1.00  0.00     0.041 A 
ATOM     79  F   UNL A   1      43.011  29.827  26.838  1.00  0.00    -0.206 F 
ATOM     80  C   UNL A   1      44.480  26.515  26.764  1.00  0.00     0.022 A 
BRANCH  77  81
ATOM     81  S   UNL A   1      45.861  24.994  28.651  1.00  0.00     0.124 S 
ATOM     82  O   UNL A   1      47.296  25.248  28.702  1.00  0.00    -0.237 OA
ATOM     83  O   UNL A   1      45.178  24.930  29.944  1.00  0.00    -0.237 OA
ATOM     84  O   UNL A   1      45.432  23.972  27.702  1.00  0.00    -0.744 OA
ENDBRANCH  77  81
ENDBRANCH  50  74
BRANCH  62  85
ATOM     85  C   UNL A   1      42.508  35.717  29.123  1.00  0.00     0.023 A 
ATOM     86  C   UNL A   1      43.352  36.671  29.709  1.00  0.00     0.031 A 
ATOM     87  C   UNL A   1      41.793  36.166  27.983  1.00  0.00     0.131 A 
ATOM     88  C   UNL A   1      43.403  37.998  29.241  1.00  0.00     0.055 A 
ATOM     89  C   UNL A   1      41.904  37.464  27.470  1.00  0.00     0.041 A 
ATOM     90  F   UNL A   1      40.963  35.361  27.303  1.00  0.00    -0.206 F 
ATOM     91  C   UNL A   1      42.700  38.397  28.110  1.00  0.00     0.022 A 
BRANCH  88  92
ATOM     92  S   UNL A   1      44.366  39.201  30.194  1.00  0.00     0.124 S 
ATOM     93  O   UNL A   1      43.404  39.620  31.210  1.00  0.00    -0.237 OA
ATOM     94  O   UNL A   1      45.484  38.398  30.676  1.00  0.00    -0.237 OA
ATOM     95  O   UNL A   1      44.713  40.225  29.209  1.00  0.00    -0.744 OA
ENDBRANCH  88  92
ENDBRANCH  62  85
ENDBRANCH  36  37
ENDBRANCH  28  31
ENDBRANCH  26  27
ENDBRANCH   1  26
TORSDOF 18
ENDMDL
MODEL 2
REMARK VINA RESULT:     -12.5      4.089     10.316
REMARK SMILES Cc1ccccc1C[C@H](C[C@@H]1Cc2ccccc21)C(=O)NCCCCNC(=O)c1ccc(-c2c3nc(c(-c4cc(S(=O)(=O)[O-])ccc4F)c4ccc([nH]4)c(-c4cc(S(=O)(=O)[O-])ccc4F)c4nc(c(-c5cc(S(=O)(=O)[O-])ccc5F)c5ccc2[nH]5)C=C4)C=C3)cc1
REMARK SMILES IDX 24 1 23 2 22 3 21 4 19 5 20 6 9 8 8 9 7 10 1 11 2 12 3 13
REMARK SMILES IDX 4 14 6 15 5 16 10 17 11 18 12 19 18 20 13 21 17 22 14 23
REMARK SMILES IDX 16 24 15 25 25 26 26 27 27 28 28 30 29 31 30 32 91 33 31 34
REMARK SMILES IDX 90 35 32 36 33 37 34 38 84 39 35 40 89 41 83 42 85 43 36 44
REMARK SMILES IDX 88 45 82 46 81 47 37 49 69 50 49 51 68 52 50 53 53 54 67 55
REMARK SMILES IDX 86 56 51 57 52 58 66 60 87 61 54 62 38 63 39 64 47 65 40 66
REMARK SMILES IDX 46 67 48 68 45 69 41 70 42 71 43 72 44 73 70 74 71 75 79 76
REMARK SMILES IDX 72 77 78 78 80 79 77 80 73 81 74 82 75 83 76 84 55 85 56 86
REMARK SMILES IDX 64 87 57 88 63 89 65 90 62 91 58 92 59 93 60 94 61 95
REMARK H PARENT 21 7 26 29 85 48 53 59
REMARK Flexibility Score: inf
ROOT
ATOM      1  C   UNL A   1      32.770  30.346  26.928  1.00  0.00     0.023 C 
ENDROOT
BRANCH   1   2
ATOM      2  C   UNL A   1      31.789  29.184  26.765  1.00  0.00     0.023 C 
BRANCH   2   3
ATOM      3  C   UNL A   1      32.011  28.303  25.530  1.00  0.00     0.116 C 
BRANCH   3   4
ATOM      4  N   UNL A   1      30.778  27.758  24.974  1.00  0.00    -0.356 N 
ATOM      5  C   UNL A   1      30.426  26.484  24.644  1.00  0.00     0.223 C 
ATOM      6  O   UNL A   1      29.241  26.304  24.332  1.00  0.00    -0.275 OA
ATOM      7  H   UNL A   1      30.076  28.429  24.810  1.00  0.00     0.163 HD
BRANCH   5   8
ATOM      8  C   UNL A   1      31.413  25.307  24.598  1.00  0.00     0.083 C 
BRANCH   8   9
ATOM      9  C   UNL A   1      32.797  25.496  23.911  1.00  0.00     0.049 C 
BRANCH   9  10
ATOM     10  C   UNL A   1      34.028  24.639  24.149  1.00  0.00    -0.044 A 
ATOM     11  C   UNL A   1      33.585  23.304  21.995  1.00  0.00     0.044 C 
ATOM     12  C   UNL A   1      34.389  23.620  23.229  1.00  0.00    -0.048 A 
ATOM     13  C   UNL A   1      35.550  22.852  23.448  1.00  0.00     0.004 A 
ATOM     14  C   UNL A   1      36.394  23.120  24.519  1.00  0.00     0.000 A 
ATOM     15  C   UNL A   1      34.936  24.924  25.178  1.00  0.00     0.004 A 
ATOM     16  C   UNL A   1      36.095  24.168  25.374  1.00  0.00     0.000 A 
ENDBRANCH   9  10
ENDBRANCH   8   9
BRANCH   8  17
ATOM     17  C   UNL A   1      30.726  23.919  24.488  1.00  0.00     0.022 C 
BRANCH  17  18
ATOM     18  C   UNL A   1      30.887  22.957  25.673  1.00  0.00     0.025 C 
ATOM     19  C   UNL A   1      31.820  23.242  26.925  1.00  0.00     0.044 C 
ATOM     20  C   UNL A   1      31.866  21.841  25.358  1.00  0.00    -0.041 A 
ATOM     21  C   UNL A   1      32.690  22.143  26.412  1.00  0.00    -0.044 A 
ATOM     22  C   UNL A   1      32.175  20.839  24.466  1.00  0.00     0.004 A 
ATOM     23  C   UNL A   1      33.868  21.475  26.642  1.00  0.00     0.004 A 
ATOM     24  C   UNL A   1      33.368  20.137  24.672  1.00  0.00     0.000 A 
ATOM     25  C   UNL A   1      34.212  20.459  25.752  1.00  0.00     0.000 A 
ENDBRANCH  17  18
ENDBRANCH   8  17
ENDBRANCH   5   8
ENDBRANCH   3   4
ENDBRANCH   2   3
ENDBRANCH   1   2
BRANCH   1  26
ATOM     26  C   UNL A   1      34.057  29.990  27.663  1.00  0.00     0.116 C 
BRANCH  26  27
ATOM     27  N   UNL A   1      34.717  31.079  28.356  1.00  0.00    -0.352 N 
ATOM     28  C   UNL A   1      35.923  31.064  29.048  1.00  0.00     0.251 C 
ATOM     29  H   UNL A   1      34.249  31.945  28.333  1.00  0.00     0.163 HD
ATOM     30  O   UNL A   1      36.239  31.995  29.768  1.00  0.00    -0.269 OA
BRANCH  28  31
ATOM     31  C   UNL A   1      36.889  29.953  28.811  1.00  0.00     0.039 A 
ATOM     32  C   UNL A   1      37.116  29.062  29.870  1.00  0.00     0.014 A 
ATOM     33  C   UNL A   1      37.687  29.883  27.673  1.00  0.00     0.014 A 
ATOM     34  C   UNL A   1      38.262  28.266  29.875  1.00  0.00     0.010 A 
ATOM     35  C   UNL A   1      38.871  29.173  27.716  1.00  0.00     0.010 A 
ATOM     36  C   UNL A   1      39.183  28.404  28.838  1.00  0.00    -0.014 A 
BRANCH  36  37
ATOM     37  C   UNL A   1      40.538  27.870  28.883  1.00  0.00     0.031 A 
ATOM     38  C   UNL A   1      40.827  26.498  28.430  1.00  0.00     0.074 A 
ATOM     39  C   UNL A   1      41.550  28.659  29.299  1.00  0.00     0.049 A 
ATOM     40  N   UNL A   1      41.804  25.780  28.871  1.00  0.00    -0.248 NA
ATOM     41  C   UNL A   1      39.995  25.810  27.452  1.00  0.00     0.031 C 
ATOM     42  C   UNL A   1      42.985  28.408  29.191  1.00  0.00     0.029 A 
ATOM     43  N   UNL A   1      41.455  29.761  30.138  1.00  0.00    -0.354 N 
ATOM     44  C   UNL A   1      41.900  24.671  28.064  1.00  0.00     0.074 A 
ATOM     45  C   UNL A   1      40.714  24.704  27.237  1.00  0.00     0.031 C 
ATOM     46  C   UNL A   1      43.624  29.156  30.105  1.00  0.00     0.029 A 
ATOM     47  C   UNL A   1      42.609  29.783  30.934  1.00  0.00     0.049 A 
ATOM     48  H   UNL A   1      40.714  30.408  30.168  1.00  0.00     0.167 HD
ATOM     49  C   UNL A   1      43.035  23.918  28.074  1.00  0.00     0.034 A 
ATOM     50  C   UNL A   1      42.521  29.665  32.292  1.00  0.00     0.034 A 
ATOM     51  C   UNL A   1      44.027  24.441  29.010  1.00  0.00     0.049 A 
ATOM     52  C   UNL A   1      43.278  28.482  32.847  1.00  0.00     0.074 A 
ATOM     53  C   UNL A   1      45.145  25.241  28.832  1.00  0.00     0.029 A 
ATOM     54  N   UNL A   1      43.786  24.399  30.378  1.00  0.00    -0.354 N 
ATOM     55  N   UNL A   1      43.638  27.441  32.148  1.00  0.00    -0.248 NA
ATOM     56  C   UNL A   1      43.666  28.378  34.248  1.00  0.00     0.031 C 
ATOM     57  C   UNL A   1      45.549  25.719  30.105  1.00  0.00     0.029 A 
ATOM     58  C   UNL A   1      44.697  25.187  31.057  1.00  0.00     0.049 A 
ATOM     59  H   UNL A   1      43.067  23.880  30.804  1.00  0.00     0.167 HD
ATOM     60  C   UNL A   1      44.247  26.525  32.971  1.00  0.00     0.074 A 
ATOM     61  C   UNL A   1      44.274  27.181  34.268  1.00  0.00     0.031 C 
ATOM     62  C   UNL A   1      44.651  25.301  32.511  1.00  0.00     0.034 A 
BRANCH  49  63
ATOM     63  C   UNL A   1      43.360  22.905  27.002  1.00  0.00     0.023 A 
ATOM     64  C   UNL A   1      42.782  21.620  27.060  1.00  0.00     0.031 A 
ATOM     65  C   UNL A   1      44.249  23.122  25.931  1.00  0.00     0.131 A 
ATOM     66  C   UNL A   1      43.171  20.599  26.175  1.00  0.00     0.055 A 
ATOM     67  C   UNL A   1      44.687  22.090  25.090  1.00  0.00     0.041 A 
ATOM     68  F   UNL A   1      44.698  24.351  25.634  1.00  0.00    -0.206 F 
ATOM     69  C   UNL A   1      44.159  20.814  25.219  1.00  0.00     0.022 A 
BRANCH  66  70
ATOM     70  S   UNL A   1      42.356  18.982  26.285  1.00  0.00     0.124 S 
ATOM     71  O   UNL A   1      42.402  18.707  27.718  1.00  0.00    -0.237 OA
ATOM     72  O   UNL A   1      41.039  19.261  25.724  1.00  0.00    -0.237 OA
ATOM     73  O   UNL A   1      43.204  18.119  25.465  1.00  0.00    -0.744 OA
ENDBRANCH  66  70
ENDBRANCH  49  63
BRANCH  50  74
ATOM     74  C   UNL A   1      41.236  30.187  32.853  1.00  0.00     0.023 A 
ATOM     75  C   UNL A   1      41.078  31.588  32.909  1.00  0.00     0.031 A 
ATOM     76  C   UNL A   1      40.084  29.394  32.941  1.00  0.00     0.131 A 
ATOM     77  C   UNL A   1      39.798  32.155  32.843  1.00  0.00     0.055 A 
ATOM     78  C   UNL A   1      38.807  29.968  32.976  1.00  0.00     0.041 A 
ATOM     79  F   UNL A   1      40.164  28.058  32.872  1.00  0.00    -0.206 F 
ATOM     80  C   UNL A   1      38.658  31.354  32.877  1.00  0.00     0.022 A 
BRANCH  77  81
ATOM     81  S   UNL A   1      39.659  33.913  32.403  1.00  0.00     0.124 S 
ATOM     82  O   UNL A   1      39.484  34.537  33.710  1.00  0.00    -0.237 OA
ATOM     83  O   UNL A   1      40.932  34.183  31.733  1.00  0.00    -0.237 OA
ATOM     84  O   UNL A   1      38.500  33.964  31.519  1.00  0.00    -0.744 OA
ENDBRANCH  77  81
ENDBRANCH  50  74
BRANCH  62  85
ATOM     85  C   UNL A   1      45.118  24.130  33.359  1.00  0.00     0.023 A 
ATOM     86  C   UNL A   1      46.372  24.072  33.985  1.00  0.00     0.031 A 
ATOM     87  C   UNL A   1      44.262  23.032  33.628  1.00  0.00     0.131 A 
ATOM     88  C   UNL A   1      46.767  22.955  34.745  1.00  0.00     0.055 A 
ATOM     89  C   UNL A   1      44.625  21.957  34.449  1.00  0.00     0.041 A 
ATOM     90  F   UNL A   1      43.024  22.956  33.118  1.00  0.00    -0.206 F 
ATOM     91  C   UNL A   1      45.894  21.904  35.000  1.00  0.00     0.022 A 
BRANCH  88  92
ATOM     92  S   UNL A   1      48.479  22.889  35.337  1.00  0.00     0.124 S 
ATOM     93  O   UNL A   1      48.408  21.835  36.345  1.00  0.00    -0.237 OA
ATOM     94  O   UNL A   1      49.217  22.553  34.124  1.00  0.00    -0.237 OA
ATOM     95  O   UNL A   1      48.717  24.233  35.859  1.00  0.00    -0.744 OA
ENDBRANCH  88  92
ENDBRANCH  62  85
ENDBRANCH  36  37
ENDBRANCH  28  31
ENDBRANCH  26  27
ENDBRANCH   1  26
TORSDOF 18
ENDMDL
MODEL 3
REMARK VINA RESULT:     -12.2      4.245     10.376
REMARK SMILES Cc1ccccc1C[C@H](C[C@@H]1Cc2ccccc21)C(=O)NCCCCNC(=O)c1ccc(-c2c3nc(c(-c4cc(S(=O)(=O)[O-])ccc4F)c4ccc([nH]4)c(-c4cc(S(=O)(=O)[O-])ccc4F)c4nc(c(-c5cc(S(=O)(=O)[O-])ccc5F)c5ccc2[nH]5)C=C4)C=C3)cc1
REMARK SMILES IDX 24 1 23 2 22 3 21 4 19 5 20 6 9 8 8 9 7 10 1 11 2 12 3 13
REMARK SMILES IDX 4 14 6 15 5 16 10 17 11 18 12 19 18 20 13 21 17 22 14 23
REMARK SMILES IDX 16 24 15 25 25 26 26 27 27 28 28 30 29 31 30 32 91 33 31 34
REMARK SMILES IDX 90 35 32 36 33 37 34 38 84 39 35 40 89 41 83 42 85 43 36 44
REMARK SMILES IDX 88 45 82 46 81 47 37 49 69 50 49 51 68 52 50 53 53 54 67 55
REMARK SMILES IDX 86 56 51 57 52 58 66 60 87 61 54 62 38 63 39 64 47 65 40 66
REMARK SMILES IDX 46 67 48 68 45 69 41 70 42 71 43 72 44 73 70 74 71 75 79 76
REMARK SMILES IDX 72 77 78 78 80 79 77 80 73 81 74 82 75 83 76 84 55 85 56 86
REMARK SMILES IDX 64 87 57 88 63 89 65 90 62 91 58 92 59 93 60 94 61 95
REMARK H PARENT 21 7 26 29 85 48 53 59
REMARK Flexibility Score: inf
ROOT
ATOM      1  C   UNL A   1      32.825  30.657  27.018  1.00  0.00     0.023 C 
ENDROOT
BRANCH   1   2
ATOM      2  C   UNL A   1      31.782  29.542  26.913  1.00  0.00     0.023 C 
BRANCH   2   3
ATOM      3  C   UNL A   1      32.339  28.114  26.967  1.00  0.00     0.116 C 
BRANCH   3   4
ATOM      4  N   UNL A   1      31.311  27.096  27.155  1.00  0.00    -0.356 N 
ATOM      5  C   UNL A   1      30.843  26.127  26.321  1.00  0.00     0.223 C 
ATOM      6  O   UNL A   1      30.063  25.303  26.817  1.00  0.00    -0.275 OA
ATOM      7  H   UNL A   1      30.880  27.114  28.040  1.00  0.00     0.163 HD
BRANCH   5   8
ATOM      8  C   UNL A   1      31.192  26.039  24.826  1.00  0.00     0.083 C 
BRANCH   8   9
ATOM      9  C   UNL A   1      32.669  26.231  24.375  1.00  0.00     0.049 C 
BRANCH   9  10
ATOM     10  C   UNL A   1      33.726  25.141  24.314  1.00  0.00    -0.044 A 
ATOM     11  C   UNL A   1      32.912  24.403  21.988  1.00  0.00     0.044 C 
ATOM     12  C   UNL A   1      33.832  24.299  23.177  1.00  0.00    -0.048 A 
ATOM     13  C   UNL A   1      34.835  23.311  23.123  1.00  0.00     0.004 A 
ATOM     14  C   UNL A   1      35.775  23.189  24.139  1.00  0.00     0.000 A 
ATOM     15  C   UNL A   1      34.729  25.034  25.287  1.00  0.00     0.004 A 
ATOM     16  C   UNL A   1      35.732  24.064  25.213  1.00  0.00     0.000 A 
ENDBRANCH   9  10
ENDBRANCH   8   9
BRANCH   8  17
ATOM     17  C   UNL A   1      30.068  26.556  23.890  1.00  0.00     0.022 C 
BRANCH  17  18
ATOM     18  C   UNL A   1      30.380  27.785  23.025  1.00  0.00     0.025 C 
ATOM     19  C   UNL A   1      31.235  29.026  23.525  1.00  0.00     0.044 C 
ATOM     20  C   UNL A   1      29.216  28.759  23.000  1.00  0.00    -0.041 A 
ATOM     21  C   UNL A   1      29.960  29.802  23.490  1.00  0.00    -0.044 A 
ATOM     22  C   UNL A   1      27.868  28.891  22.750  1.00  0.00     0.004 A 
ATOM     23  C   UNL A   1      29.415  31.032  23.765  1.00  0.00     0.004 A 
ATOM     24  C   UNL A   1      27.281  30.132  23.019  1.00  0.00     0.000 A 
ATOM     25  C   UNL A   1      28.051  31.195  23.529  1.00  0.00     0.000 A 
ENDBRANCH  17  18
ENDBRANCH   8  17
ENDBRANCH   5   8
ENDBRANCH   3   4
ENDBRANCH   2   3
ENDBRANCH   1   2
BRANCH   1  26
ATOM     26  C   UNL A   1      34.142  30.234  27.658  1.00  0.00     0.116 C 
BRANCH  26  27
ATOM     27  N   UNL A   1      34.757  31.200  28.547  1.00  0.00    -0.352 N 
ATOM     28  C   UNL A   1      35.900  31.059  29.325  1.00  0.00     0.251 C 
ATOM     29  H   UNL A   1      34.305  32.072  28.607  1.00  0.00     0.163 HD
ATOM     30  O   UNL A   1      36.169  31.873  30.191  1.00  0.00    -0.269 OA
BRANCH  28  31
ATOM     31  C   UNL A   1      36.867  29.967  29.014  1.00  0.00     0.039 A 
ATOM     32  C   UNL A   1      37.067  28.986  29.997  1.00  0.00     0.014 A 
ATOM     33  C   UNL A   1      37.691  29.991  27.893  1.00  0.00     0.014 A 
ATOM     34  C   UNL A   1      38.209  28.185  29.958  1.00  0.00     0.010 A 
ATOM     35  C   UNL A   1      38.871  29.272  27.900  1.00  0.00     0.010 A 
ATOM     36  C   UNL A   1      39.154  28.407  28.958  1.00  0.00    -0.014 A 
BRANCH  36  37
ATOM     37  C   UNL A   1      40.505  27.863  28.987  1.00  0.00     0.031 A 
ATOM     38  C   UNL A   1      40.781  26.495  28.513  1.00  0.00     0.074 A 
ATOM     39  C   UNL A   1      41.526  28.639  29.406  1.00  0.00     0.049 A 
ATOM     40  N   UNL A   1      41.756  25.765  28.937  1.00  0.00    -0.248 NA
ATOM     41  C   UNL A   1      39.938  25.827  27.531  1.00  0.00     0.031 C 
ATOM     42  C   UNL A   1      42.958  28.379  29.285  1.00  0.00     0.029 A 
ATOM     43  N   UNL A   1      41.444  29.730  30.261  1.00  0.00    -0.354 N 
ATOM     44  C   UNL A   1      41.838  24.666  28.115  1.00  0.00     0.074 A 
ATOM     45  C   UNL A   1      40.647  24.719  27.296  1.00  0.00     0.031 C 
ATOM     46  C   UNL A   1      43.608  29.110  30.205  1.00  0.00     0.029 A 
ATOM     47  C   UNL A   1      42.603  29.733  31.050  1.00  0.00     0.049 A 
ATOM     48  H   UNL A   1      40.707  30.382  30.305  1.00  0.00     0.167 HD
ATOM     49  C   UNL A   1      42.968  23.905  28.107  1.00  0.00     0.034 A 
ATOM     50  C   UNL A   1      42.523  29.597  32.407  1.00  0.00     0.034 A 
ATOM     51  C   UNL A   1      43.970  24.408  29.043  1.00  0.00     0.049 A 
ATOM     52  C   UNL A   1      43.275  28.401  32.940  1.00  0.00     0.074 A 
ATOM     53  C   UNL A   1      45.092  25.203  28.869  1.00  0.00     0.029 A 
ATOM     54  N   UNL A   1      43.738  24.349  30.412  1.00  0.00    -0.354 N 
ATOM     55  N   UNL A   1      43.623  27.367  32.225  1.00  0.00    -0.248 NA
ATOM     56  C   UNL A   1      43.672  28.275  34.338  1.00  0.00     0.031 C 
ATOM     57  C   UNL A   1      45.508  25.660  30.145  1.00  0.00     0.029 A 
ATOM     58  C   UNL A   1      44.659  25.121  31.095  1.00  0.00     0.049 A 
ATOM     59  H   UNL A   1      43.018  23.829  30.836  1.00  0.00     0.167 HD
ATOM     60  C   UNL A   1      44.231  26.436  33.031  1.00  0.00     0.074 A 
ATOM     61  C   UNL A   1      44.271  27.073  34.337  1.00  0.00     0.031 C 
ATOM     62  C   UNL A   1      44.624  25.216  32.551  1.00  0.00     0.034 A 
BRANCH  49  63
ATOM     63  C   UNL A   1      43.280  22.905  27.019  1.00  0.00     0.023 A 
ATOM     64  C   UNL A   1      42.706  21.617  27.073  1.00  0.00     0.031 A 
ATOM     65  C   UNL A   1      44.150  23.136  25.936  1.00  0.00     0.131 A 
ATOM     66  C   UNL A   1      43.084  20.607  26.170  1.00  0.00     0.055 A 
ATOM     67  C   UNL A   1      44.577  22.115  25.076  1.00  0.00     0.041 A 
ATOM     68  F   UNL A   1      44.589  24.370  25.644  1.00  0.00    -0.206 F 
ATOM     69  C   UNL A   1      44.056  20.835  25.201  1.00  0.00     0.022 A 
BRANCH  66  70
ATOM     70  S   UNL A   1      42.277  18.986  26.277  1.00  0.00     0.124 S 
ATOM     71  O   UNL A   1      43.127  18.157  25.428  1.00  0.00    -0.237 OA
ATOM     72  O   UNL A   1      42.329  18.709  27.708  1.00  0.00    -0.237 OA
ATOM     73  O   UNL A   1      40.938  19.239  25.747  1.00  0.00    -0.744 OA
ENDBRANCH  66  70
ENDBRANCH  49  63
BRANCH  50  74
ATOM     74  C   UNL A   1      41.246  30.120  32.983  1.00  0.00     0.023 A 
ATOM     75  C   UNL A   1      41.108  31.521  33.082  1.00  0.00     0.031 A 
ATOM     76  C   UNL A   1      40.083  29.342  33.046  1.00  0.00     0.131 A 
ATOM     77  C   UNL A   1      39.837  32.109  33.034  1.00  0.00     0.055 A 
ATOM     78  C   UNL A   1      38.814  29.933  33.099  1.00  0.00     0.041 A 
ATOM     79  F   UNL A   1      40.143  28.007  32.937  1.00  0.00    -0.206 F 
ATOM     80  C   UNL A   1      38.684  31.324  33.043  1.00  0.00     0.022 A 
BRANCH  77  81
ATOM     81  S   UNL A   1      39.724  33.881  32.648  1.00  0.00     0.124 S 
ATOM     82  O   UNL A   1      41.015  34.135  32.021  1.00  0.00    -0.237 OA
ATOM     83  O   UNL A   1      38.561  33.948  31.762  1.00  0.00    -0.237 OA
ATOM     84  O   UNL A   1      39.517  34.511  33.948  1.00  0.00    -0.744 OA
ENDBRANCH  77  81
ENDBRANCH  50  74
BRANCH  62  85
ATOM     85  C   UNL A   1      45.088  24.030  33.381  1.00  0.00     0.023 A 
ATOM     86  C   UNL A   1      46.358  23.939  33.968  1.00  0.00     0.031 A 
ATOM     87  C   UNL A   1      44.214  22.950  33.670  1.00  0.00     0.131 A 
ATOM     88  C   UNL A   1      46.749  22.809  34.711  1.00  0.00     0.055 A 
ATOM     89  C   UNL A   1      44.576  21.864  34.475  1.00  0.00     0.041 A 
ATOM     90  F   UNL A   1      42.959  22.906  33.197  1.00  0.00    -0.206 F 
ATOM     91  C   UNL A   1      45.859  21.778  34.988  1.00  0.00     0.022 A 
BRANCH  88  92
ATOM     92  S   UNL A   1      48.476  22.699  35.251  1.00  0.00     0.124 S 
ATOM     93  O   UNL A   1      49.196  22.966  34.009  1.00  0.00    -0.237 OA
ATOM     94  O   UNL A   1      48.555  23.745  36.264  1.00  0.00    -0.237 OA
ATOM     95  O   UNL A   1      48.593  21.332  35.755  1.00  0.00    -0.744 OA
ENDBRANCH  88  92
ENDBRANCH  62  85
ENDBRANCH  36  37
ENDBRANCH  28  31
ENDBRANCH  26  27
ENDBRANCH   1  26
TORSDOF 18
ENDMDL
