MODEL 1
REMARK VINA RESULT:     -13.2      0.000      0.000
REMARK SMILES O=C(NCCCCNC(=O)[C@@H]1CCCC[C@@H]1NS(=O)(=O)c1ccc2ccccc2c1)c1ccc(-c2c3nc(c(-c4cc(S(=O)(=O)[O-])ccc4F)c4ccc([nH]4)c(-c4cc(S(=O)(=O)[O-])ccc4F)c4nc(c(-c5cc(S(=O)(=O)[O-])ccc5F)c5ccc2[nH]5)C=C4)C=C3)cc1
REMARK SMILES IDX 5 1 4 2 3 3 1 4 2 5 31 7 32 8 93 9 33 10 92 11 34 12 35 13
REMARK SMILES IDX 36 14 86 15 37 16 91 17 85 18 87 19 38 20 90 21 84 22 83 23
REMARK SMILES IDX 39 25 71 26 51 27 70 28 52 29 55 30 69 31 88 32 53 33 54 34
REMARK SMILES IDX 68 36 89 37 56 38 40 39 41 40 49 41 42 42 48 43 50 44 47 45
REMARK SMILES IDX 43 46 44 47 45 48 46 49 72 50 73 51 81 52 74 53 80 54 82 55
REMARK SMILES IDX 79 56 75 57 76 58 77 59 78 60 57 61 58 62 66 63 59 64 65 65
REMARK SMILES IDX 67 66 64 67 60 68 61 69 62 70 63 71 6 72 7 73 8 74 9 75
REMARK SMILES IDX 10 77 11 78 12 79 16 80 13 81 15 82 14 83 17 84 18 86 19 87
REMARK SMILES IDX 20 88 21 89 22 90 30 91 23 92 29 93 24 94 28 95 25 96 27 97
REMARK SMILES IDX 26 98
REMARK H PARENT 3 6 87 24 55 35 8 76 17 85
REMARK Flexibility Score: inf
ROOT
ATOM      1  C   UNL A   1      31.594  31.915  26.597  1.00  0.00     0.023 C 
ENDROOT
BRANCH   1   2
ATOM      2  C   UNL A   1      32.831  32.597  27.181  1.00  0.00     0.116 C 
BRANCH   2   3
ATOM      3  N   UNL A   1      32.545  33.904  27.739  1.00  0.00    -0.352 N 
ATOM      4  O   UNL A   1      32.737  35.669  29.107  1.00  0.00    -0.269 OA
ATOM      5  C   UNL A   1      33.204  34.600  28.720  1.00  0.00     0.251 C 
ATOM      6  H   UNL A   1      31.761  34.360  27.356  1.00  0.00     0.163 HD
BRANCH   5   7
ATOM      7  C   UNL A   1      34.440  34.067  29.337  1.00  0.00     0.039 A 
ATOM      8  C   UNL A   1      35.714  34.408  28.870  1.00  0.00     0.014 A 
ATOM      9  C   UNL A   1      34.307  33.243  30.459  1.00  0.00     0.014 A 
ATOM     10  C   UNL A   1      36.850  33.863  29.476  1.00  0.00     0.010 A 
ATOM     11  C   UNL A   1      35.442  32.731  31.089  1.00  0.00     0.010 A 
ATOM     12  C   UNL A   1      36.723  33.023  30.593  1.00  0.00    -0.014 A 
BRANCH  12  13
ATOM     13  C   UNL A   1      37.918  32.468  31.277  1.00  0.00     0.031 A 
ATOM     14  C   UNL A   1      38.671  31.315  30.674  1.00  0.00     0.074 A 
ATOM     15  C   UNL A   1      38.281  32.957  32.477  1.00  0.00     0.049 A 
ATOM     16  N   UNL A   1      39.657  30.614  31.174  1.00  0.00    -0.248 NA
ATOM     17  C   UNL A   1      38.241  30.884  29.337  1.00  0.00     0.031 C 
ATOM     18  C   UNL A   1      37.616  34.061  33.172  1.00  0.00     0.029 A 
ATOM     19  N   UNL A   1      39.277  32.570  33.339  1.00  0.00    -0.354 N 
ATOM     20  C   UNL A   1      39.957  29.647  30.221  1.00  0.00     0.074 A 
ATOM     21  C   UNL A   1      39.022  29.834  29.130  1.00  0.00     0.031 C 
ATOM     22  C   UNL A   1      38.211  34.251  34.360  1.00  0.00     0.029 A 
ATOM     23  C   UNL A   1      39.265  33.256  34.530  1.00  0.00     0.049 A 
ATOM     24  H   UNL A   1      39.936  31.871  33.124  1.00  0.00     0.167 HD
ATOM     25  C   UNL A   1      40.926  28.697  30.254  1.00  0.00     0.034 A 
ATOM     26  C   UNL A   1      39.990  33.078  35.652  1.00  0.00     0.034 A 
ATOM     27  C   UNL A   1      41.846  28.523  31.353  1.00  0.00     0.049 A 
ATOM     28  C   UNL A   1      41.031  31.996  35.688  1.00  0.00     0.074 A 
ATOM     29  C   UNL A   1      42.903  27.636  31.467  1.00  0.00     0.029 A 
ATOM     30  N   UNL A   1      41.806  29.241  32.543  1.00  0.00    -0.354 N 
ATOM     31  N   UNL A   1      41.332  31.111  34.767  1.00  0.00    -0.248 NA
ATOM     32  C   UNL A   1      41.835  31.890  36.913  1.00  0.00     0.031 C 
ATOM     33  C   UNL A   1      43.461  27.775  32.744  1.00  0.00     0.029 A 
ATOM     34  C   UNL A   1      42.795  28.793  33.406  1.00  0.00     0.049 A 
ATOM     35  H   UNL A   1      41.168  29.964  32.744  1.00  0.00     0.167 HD
ATOM     36  C   UNL A   1      42.372  30.353  35.292  1.00  0.00     0.074 A 
ATOM     37  C   UNL A   1      42.649  30.886  36.612  1.00  0.00     0.031 C 
ATOM     38  C   UNL A   1      43.046  29.319  34.728  1.00  0.00     0.034 A 
BRANCH  25  39
ATOM     39  C   UNL A   1      41.001  27.748  29.081  1.00  0.00     0.023 A 
ATOM     40  C   UNL A   1      41.996  27.867  28.096  1.00  0.00     0.031 A 
ATOM     41  C   UNL A   1      40.031  26.742  28.917  1.00  0.00     0.131 A 
ATOM     42  C   UNL A   1      41.951  27.055  26.951  1.00  0.00     0.055 A 
ATOM     43  C   UNL A   1      40.038  25.885  27.815  1.00  0.00     0.041 A 
ATOM     44  F   UNL A   1      39.044  26.591  29.815  1.00  0.00    -0.206 F 
ATOM     45  C   UNL A   1      40.990  26.051  26.814  1.00  0.00     0.022 A 
BRANCH  42  46
ATOM     46  S   UNL A   1      43.059  27.447  25.568  1.00  0.00     0.124 S 
ATOM     47  O   UNL A   1      44.119  28.198  26.238  1.00  0.00    -0.237 OA
ATOM     48  O   UNL A   1      43.426  26.124  25.076  1.00  0.00    -0.237 OA
ATOM     49  O   UNL A   1      42.220  28.239  24.671  1.00  0.00    -0.744 OA
ENDBRANCH  42  46
ENDBRANCH  25  39
BRANCH  26  50
ATOM     50  C   UNL A   1      39.707  33.920  36.843  1.00  0.00     0.023 A 
ATOM     51  C   UNL A   1      39.028  33.406  37.957  1.00  0.00     0.031 A 
ATOM     52  C   UNL A   1      40.147  35.257  36.888  1.00  0.00     0.131 A 
ATOM     53  C   UNL A   1      38.797  34.230  39.070  1.00  0.00     0.055 A 
ATOM     54  C   UNL A   1      39.944  36.060  38.010  1.00  0.00     0.041 A 
ATOM     55  F   UNL A   1      40.812  35.786  35.849  1.00  0.00    -0.206 F 
ATOM     56  C   UNL A   1      39.261  35.548  39.108  1.00  0.00     0.022 A 
BRANCH  53  57
ATOM     57  S   UNL A   1      37.863  33.558  40.471  1.00  0.00     0.124 S 
ATOM     58  O   UNL A   1      37.610  34.755  41.264  1.00  0.00    -0.237 OA
ATOM     59  O   UNL A   1      36.702  32.969  39.809  1.00  0.00    -0.237 OA
ATOM     60  O   UNL A   1      38.789  32.597  41.068  1.00  0.00    -0.744 OA
ENDBRANCH  53  57
ENDBRANCH  26  50
BRANCH  38  61
ATOM     61  C   UNL A   1      44.176  28.726  35.525  1.00  0.00     0.023 A 
ATOM     62  C   UNL A   1      43.971  27.665  36.423  1.00  0.00     0.031 A 
ATOM     63  C   UNL A   1      45.481  29.230  35.375  1.00  0.00     0.131 A 
ATOM     64  C   UNL A   1      45.051  27.162  37.165  1.00  0.00     0.055 A 
ATOM     65  C   UNL A   1      46.558  28.698  36.084  1.00  0.00     0.041 A 
ATOM     66  F   UNL A   1      45.727  30.243  34.530  1.00  0.00    -0.206 F 
ATOM     67  C   UNL A   1      46.344  27.662  36.990  1.00  0.00     0.022 A 
BRANCH  64  68
ATOM     68  S   UNL A   1      44.741  25.868  38.397  1.00  0.00     0.124 S 
ATOM     69  O   UNL A   1      44.086  24.838  37.597  1.00  0.00    -0.237 OA
ATOM     70  O   UNL A   1      46.086  25.550  38.868  1.00  0.00    -0.237 OA
ATOM     71  O   UNL A   1      43.884  26.529  39.381  1.00  0.00    -0.744 OA
ENDBRANCH  64  68
ENDBRANCH  38  61
ENDBRANCH  12  13
ENDBRANCH   5   7
ENDBRANCH   2   3
ENDBRANCH   1   2
BRANCH   1  72
ATOM     72  C   UNL A   1      31.750  30.448  26.160  1.00  0.00     0.023 C 
BRANCH  72  73
ATOM     73  C   UNL A   1      32.586  29.562  27.090  1.00  0.00     0.116 C 
BRANCH  73  74
ATOM     74  N   UNL A   1      31.853  28.363  27.422  1.00  0.00    -0.356 N 
ATOM     75  C   UNL A   1      31.630  27.231  26.714  1.00  0.00     0.224 C 
ATOM     76  H   UNL A   1      31.444  28.372  28.317  1.00  0.00     0.163 HD
ATOM     77  O   UNL A   1      30.590  26.645  26.988  1.00  0.00    -0.275 OA
BRANCH  75  78
ATOM     78  C   UNL A   1      32.671  26.690  25.755  1.00  0.00     0.096 C 
ATOM     79  C   UNL A   1      32.436  26.957  24.269  1.00  0.00     0.015 C 
ATOM     80  C   UNL A   1      33.034  25.208  26.040  1.00  0.00     0.082 C 
ATOM     81  C   UNL A   1      33.658  26.561  23.431  1.00  0.00     0.001 C 
ATOM     82  C   UNL A   1      34.372  24.962  25.292  1.00  0.00     0.021 C 
ATOM     83  C   UNL A   1      34.217  25.179  23.777  1.00  0.00     0.002 C 
BRANCH  80  84
ATOM     84  N   UNL A   1      32.124  24.148  25.522  1.00  0.00    -0.207 NA
ATOM     85  H   UNL A   1      32.541  23.844  24.641  1.00  0.00     0.141 HD
BRANCH  84  86
ATOM     86  S   UNL A   1      31.707  22.722  26.334  1.00  0.00     0.240 S 
ATOM     87  O   UNL A   1      32.217  22.929  27.677  1.00  0.00    -0.207 OA
ATOM     88  O   UNL A   1      30.312  22.434  26.119  1.00  0.00    -0.207 OA
BRANCH  86  89
ATOM     89  C   UNL A   1      32.788  21.531  25.588  1.00  0.00     0.083 A 
ATOM     90  C   UNL A   1      34.126  21.422  25.951  1.00  0.00     0.022 A 
ATOM     91  C   UNL A   1      32.216  20.618  24.693  1.00  0.00     0.030 A 
ATOM     92  C   UNL A   1      34.872  20.334  25.481  1.00  0.00     0.010 A 
ATOM     93  C   UNL A   1      32.930  19.492  24.278  1.00  0.00    -0.017 A 
ATOM     94  C   UNL A   1      34.274  19.338  24.683  1.00  0.00    -0.018 A 
ATOM     95  C   UNL A   1      32.302  18.486  23.528  1.00  0.00     0.009 A 
ATOM     96  C   UNL A   1      34.958  18.168  24.311  1.00  0.00     0.009 A 
ATOM     97  C   UNL A   1      32.986  17.319  23.197  1.00  0.00     0.001 A 
ATOM     98  C   UNL A   1      34.313  17.162  23.585  1.00  0.00     0.001 A 
ENDBRANCH  86  89
ENDBRANCH  84  86
ENDBRANCH  80  84
ENDBRANCH  75  78
ENDBRANCH  73  74
ENDBRANCH  72  73
ENDBRANCH   1  72
TORSDOF 17
ENDMDL
MODEL 2
REMARK VINA RESULT:     -13.1      1.431      1.670
REMARK SMILES O=C(NCCCCNC(=O)[C@@H]1CCCC[C@@H]1NS(=O)(=O)c1ccc2ccccc2c1)c1ccc(-c2c3nc(c(-c4cc(S(=O)(=O)[O-])ccc4F)c4ccc([nH]4)c(-c4cc(S(=O)(=O)[O-])ccc4F)c4nc(c(-c5cc(S(=O)(=O)[O-])ccc5F)c5ccc2[nH]5)C=C4)C=C3)cc1
REMARK SMILES IDX 5 1 4 2 3 3 1 4 2 5 31 7 32 8 93 9 33 10 92 11 34 12 35 13
REMARK SMILES IDX 36 14 86 15 37 16 91 17 85 18 87 19 38 20 90 21 84 22 83 23
REMARK SMILES IDX 39 25 71 26 51 27 70 28 52 29 55 30 69 31 88 32 53 33 54 34
REMARK SMILES IDX 68 36 89 37 56 38 40 39 41 40 49 41 42 42 48 43 50 44 47 45
REMARK SMILES IDX 43 46 44 47 45 48 46 49 72 50 73 51 81 52 74 53 80 54 82 55
REMARK SMILES IDX 79 56 75 57 76 58 77 59 78 60 57 61 58 62 66 63 59 64 65 65
REMARK SMILES IDX 67 66 64 67 60 68 61 69 62 70 63 71 6 72 7 73 8 74 9 75
REMARK SMILES IDX 10 77 11 78 12 79 16 80 13 81 15 82 14 83 17 84 18 86 19 87
REMARK SMILES IDX 20 88 21 89 22 90 30 91 23 92 29 93 24 94 28 95 25 96 27 97
REMARK SMILES IDX 26 98
REMARK H PARENT 3 6 87 24 55 35 8 76 17 85
REMARK Flexibility Score: inf
ROOT
ATOM      1  C   UNL A   1      31.403  31.690  26.460  1.00  0.00     0.023 C 
ENDROOT
BRANCH   1   2
ATOM      2  C   UNL A   1      32.686  32.298  27.027  1.00  0.00     0.116 C 
BRANCH   2   3
ATOM      3  N   UNL A   1      32.489  33.629  27.566  1.00  0.00    -0.352 N 
ATOM      4  O   UNL A   1      32.838  35.416  28.874  1.00  0.00    -0.269 OA
ATOM      5  C   UNL A   1      33.235  34.319  28.487  1.00  0.00     0.251 C 
ATOM      6  H   UNL A   1      31.704  34.110  27.218  1.00  0.00     0.163 HD
BRANCH   5   7
ATOM      7  C   UNL A   1      34.482  33.747  29.044  1.00  0.00     0.039 A 
ATOM      8  C   UNL A   1      35.743  34.276  28.749  1.00  0.00     0.014 A 
ATOM      9  C   UNL A   1      34.368  32.677  29.939  1.00  0.00     0.014 A 
ATOM     10  C   UNL A   1      36.892  33.688  29.286  1.00  0.00     0.010 A 
ATOM     11  C   UNL A   1      35.512  32.116  30.507  1.00  0.00     0.010 A 
ATOM     12  C   UNL A   1      36.785  32.605  30.172  1.00  0.00    -0.014 A 
BRANCH  12  13
ATOM     13  C   UNL A   1      37.991  31.993  30.787  1.00  0.00     0.031 A 
ATOM     14  C   UNL A   1      38.755  30.925  30.057  1.00  0.00     0.074 A 
ATOM     15  C   UNL A   1      38.353  32.351  32.033  1.00  0.00     0.049 A 
ATOM     16  N   UNL A   1      39.752  30.185  30.473  1.00  0.00    -0.248 NA
ATOM     17  C   UNL A   1      38.325  30.639  28.682  1.00  0.00     0.031 C 
ATOM     18  C   UNL A   1      37.678  33.362  32.848  1.00  0.00     0.029 A 
ATOM     19  N   UNL A   1      39.358  31.884  32.843  1.00  0.00    -0.354 N 
ATOM     20  C   UNL A   1      40.061  29.334  29.417  1.00  0.00     0.074 A 
ATOM     21  C   UNL A   1      39.118  29.629  28.357  1.00  0.00     0.031 C 
ATOM     22  C   UNL A   1      38.275  33.427  34.047  1.00  0.00     0.029 A 
ATOM     23  C   UNL A   1      39.342  32.433  34.103  1.00  0.00     0.049 A 
ATOM     24  H   UNL A   1      40.025  31.222  32.549  1.00  0.00     0.167 HD
ATOM     25  C   UNL A   1      41.042  28.399  29.341  1.00  0.00     0.034 A 
ATOM     26  C   UNL A   1      40.074  32.141  35.195  1.00  0.00     0.034 A 
ATOM     27  C   UNL A   1      41.969  28.117  30.412  1.00  0.00     0.049 A 
ATOM     28  C   UNL A   1      41.130  31.075  35.108  1.00  0.00     0.074 A 
ATOM     29  C   UNL A   1      43.037  27.236  30.422  1.00  0.00     0.029 A 
ATOM     30  N   UNL A   1      41.925  28.697  31.674  1.00  0.00    -0.354 N 
ATOM     31  N   UNL A   1      41.437  30.303  34.093  1.00  0.00    -0.248 NA
ATOM     32  C   UNL A   1      41.941  30.845  36.311  1.00  0.00     0.031 C 
ATOM     33  C   UNL A   1      43.600  27.240  31.706  1.00  0.00     0.029 A 
ATOM     34  C   UNL A   1      42.924  28.170  32.479  1.00  0.00     0.049 A 
ATOM     35  H   UNL A   1      41.279  29.385  31.956  1.00  0.00     0.167 HD
ATOM     36  C   UNL A   1      42.490  29.504  34.528  1.00  0.00     0.074 A 
ATOM     37  C   UNL A   1      42.766  29.891  35.897  1.00  0.00     0.031 C 
ATOM     38  C   UNL A   1      43.174  28.549  33.850  1.00  0.00     0.034 A 
BRANCH  25  39
ATOM     39  C   UNL A   1      41.123  27.588  28.070  1.00  0.00     0.023 A 
ATOM     40  C   UNL A   1      40.706  26.246  28.021  1.00  0.00     0.031 A 
ATOM     41  C   UNL A   1      41.671  28.148  26.902  1.00  0.00     0.131 A 
ATOM     42  C   UNL A   1      40.925  25.485  26.861  1.00  0.00     0.055 A 
ATOM     43  C   UNL A   1      41.813  27.409  25.726  1.00  0.00     0.041 A 
ATOM     44  F   UNL A   1      42.104  29.419  26.892  1.00  0.00    -0.206 F 
ATOM     45  C   UNL A   1      41.456  26.063  25.706  1.00  0.00     0.022 A 
BRANCH  42  46
ATOM     46  S   UNL A   1      40.663  23.691  26.942  1.00  0.00     0.124 S 
ATOM     47  O   UNL A   1      40.975  23.406  28.341  1.00  0.00    -0.237 OA
ATOM     48  O   UNL A   1      39.263  23.561  26.558  1.00  0.00    -0.237 OA
ATOM     49  O   UNL A   1      41.628  23.162  25.979  1.00  0.00    -0.744 OA
ENDBRANCH  42  46
ENDBRANCH  25  39
BRANCH  26  50
ATOM     50  C   UNL A   1      39.787  32.842  36.474  1.00  0.00     0.023 A 
ATOM     51  C   UNL A   1      38.792  32.385  37.349  1.00  0.00     0.031 A 
ATOM     52  C   UNL A   1      40.536  33.973  36.848  1.00  0.00     0.131 A 
ATOM     53  C   UNL A   1      38.563  33.066  38.556  1.00  0.00     0.055 A 
ATOM     54  C   UNL A   1      40.328  34.625  38.063  1.00  0.00     0.041 A 
ATOM     55  F   UNL A   1      41.508  34.437  36.046  1.00  0.00    -0.206 F 
ATOM     56  C   UNL A   1      39.332  34.173  38.923  1.00  0.00     0.022 A 
BRANCH  53  57
ATOM     57  S   UNL A   1      37.229  32.490  39.641  1.00  0.00     0.124 S 
ATOM     58  O   UNL A   1      36.077  32.539  38.749  1.00  0.00    -0.237 OA
ATOM     59  O   UNL A   1      37.694  31.158  40.015  1.00  0.00    -0.237 OA
ATOM     60  O   UNL A   1      37.223  33.471  40.724  1.00  0.00    -0.744 OA
ENDBRANCH  53  57
ENDBRANCH  26  50
BRANCH  38  61
ATOM     61  C   UNL A   1      44.315  27.886  34.573  1.00  0.00     0.023 A 
ATOM     62  C   UNL A   1      44.136  26.705  35.312  1.00  0.00     0.031 A 
ATOM     63  C   UNL A   1      45.604  28.445  34.512  1.00  0.00     0.131 A 
ATOM     64  C   UNL A   1      45.225  26.137  35.992  1.00  0.00     0.055 A 
ATOM     65  C   UNL A   1      46.691  27.853  35.155  1.00  0.00     0.041 A 
ATOM     66  F   UNL A   1      45.825  29.573  33.819  1.00  0.00    -0.206 F 
ATOM     67  C   UNL A   1      46.503  26.696  35.906  1.00  0.00     0.022 A 
BRANCH  64  68
ATOM     68  S   UNL A   1      44.946  24.675  37.028  1.00  0.00     0.124 S 
ATOM     69  O   UNL A   1      44.615  23.658  36.035  1.00  0.00    -0.237 OA
ATOM     70  O   UNL A   1      46.231  24.514  37.702  1.00  0.00    -0.237 OA
ATOM     71  O   UNL A   1      43.840  25.076  37.898  1.00  0.00    -0.744 OA
ENDBRANCH  64  68
ENDBRANCH  38  61
ENDBRANCH  12  13
ENDBRANCH   5   7
ENDBRANCH   2   3
ENDBRANCH   1   2
BRANCH   1  72
ATOM     72  C   UNL A   1      31.397  30.168  26.230  1.00  0.00     0.023 C 
BRANCH  72  73
ATOM     73  C   UNL A   1      32.129  29.334  27.285  1.00  0.00     0.116 C 
BRANCH  73  74
ATOM     74  N   UNL A   1      31.455  28.071  27.473  1.00  0.00    -0.356 N 
ATOM     75  C   UNL A   1      31.335  26.996  26.659  1.00  0.00     0.224 C 
ATOM     76  H   UNL A   1      31.003  27.976  28.341  1.00  0.00     0.163 HD
ATOM     77  O   UNL A   1      30.321  26.330  26.824  1.00  0.00    -0.275 OA
BRANCH  75  78
ATOM     78  C   UNL A   1      32.453  26.602  25.713  1.00  0.00     0.096 C 
ATOM     79  C   UNL A   1      32.223  26.882  24.229  1.00  0.00     0.015 C 
ATOM     80  C   UNL A   1      32.972  25.161  25.970  1.00  0.00     0.082 C 
ATOM     81  C   UNL A   1      33.501  26.649  23.414  1.00  0.00     0.001 C 
ATOM     82  C   UNL A   1      34.347  25.087  25.251  1.00  0.00     0.021 C 
ATOM     83  C   UNL A   1      34.203  25.329  23.739  1.00  0.00     0.002 C 
BRANCH  80  84
ATOM     84  N   UNL A   1      32.199  24.022  25.401  1.00  0.00    -0.207 NA
ATOM     85  H   UNL A   1      32.736  23.712  24.590  1.00  0.00     0.141 HD
BRANCH  84  86
ATOM     86  S   UNL A   1      31.779  22.604  26.226  1.00  0.00     0.240 S 
ATOM     87  O   UNL A   1      32.288  22.824  27.568  1.00  0.00    -0.207 OA
ATOM     88  O   UNL A   1      30.385  22.315  26.011  1.00  0.00    -0.207 OA
BRANCH  86  89
ATOM     89  C   UNL A   1      32.860  21.405  25.492  1.00  0.00     0.083 A 
ATOM     90  C   UNL A   1      34.241  21.463  25.653  1.00  0.00     0.022 A 
ATOM     91  C   UNL A   1      32.264  20.322  24.834  1.00  0.00     0.030 A 
ATOM     92  C   UNL A   1      35.020  20.380  25.227  1.00  0.00     0.010 A 
ATOM     93  C   UNL A   1      33.025  19.208  24.474  1.00  0.00    -0.017 A 
ATOM     94  C   UNL A   1      34.421  19.228  24.680  1.00  0.00    -0.018 A 
ATOM     95  C   UNL A   1      32.403  18.051  23.979  1.00  0.00     0.009 A 
ATOM     96  C   UNL A   1      35.163  18.075  24.372  1.00  0.00     0.009 A 
ATOM     97  C   UNL A   1      33.150  16.906  23.710  1.00  0.00     0.001 A 
ATOM     98  C   UNL A   1      34.529  16.920  23.904  1.00  0.00     0.001 A 
ENDBRANCH  86  89
ENDBRANCH  84  86
ENDBRANCH  80  84
ENDBRANCH  75  78
ENDBRANCH  73  74
ENDBRANCH  72  73
ENDBRANCH   1  72
TORSDOF 17
ENDMDL
MODEL 3
REMARK VINA RESULT:     -13.0      3.549      8.685
REMARK SMILES O=C(NCCCCNC(=O)[C@@H]1CCCC[C@@H]1NS(=O)(=O)c1ccc2ccccc2c1)c1ccc(-c2c3nc(c(-c4cc(S(=O)(=O)[O-])ccc4F)c4ccc([nH]4)c(-c4cc(S(=O)(=O)[O-])ccc4F)c4nc(c(-c5cc(S(=O)(=O)[O-])ccc5F)c5ccc2[nH]5)C=C4)C=C3)cc1
REMARK SMILES IDX 5 1 4 2 3 3 1 4 2 5 31 7 32 8 93 9 33 10 92 11 34 12 35 13
REMARK SMILES IDX 36 14 86 15 37 16 91 17 85 18 87 19 38 20 90 21 84 22 83 23
REMARK SMILES IDX 39 25 71 26 51 27 70 28 52 29 55 30 69 31 88 32 53 33 54 34
REMARK SMILES IDX 68 36 89 37 56 38 40 39 41 40 49 41 42 42 48 43 50 44 47 45
REMARK SMILES IDX 43 46 44 47 45 48 46 49 72 50 73 51 81 52 74 53 80 54 82 55
REMARK SMILES IDX 79 56 75 57 76 58 77 59 78 60 57 61 58 62 66 63 59 64 65 65
REMARK SMILES IDX 67 66 64 67 60 68 61 69 62 70 63 71 6 72 7 73 8 74 9 75
REMARK SMILES IDX 10 77 11 78 12 79 16 80 13 81 15 82 14 83 17 84 18 86 19 87
REMARK SMILES IDX 20 88 21 89 22 90 30 91 23 92 29 93 24 94 28 95 25 96 27 97
REMARK SMILES IDX 26 98
REMARK H PARENT 3 6 87 24 55 35 8 76 17 85
REMARK Flexibility Score: inf
ROOT
ATOM      1  C   UNL A   1      33.520  27.810  26.641  1.00  0.00     0.023 C 
ENDROOT
BRANCH   1   2
ATOM      2  C   UNL A   1      34.183  28.982  25.917  1.00  0.00     0.116 C 
BRANCH   2   3
ATOM      3  N   UNL A   1      33.883  30.263  26.524  1.00  0.00    -0.352 N 
ATOM      4  O   UNL A   1      34.050  31.971  27.966  1.00  0.00    -0.269 OA
ATOM      5  C   UNL A   1      34.528  30.922  27.540  1.00  0.00     0.251 C 
ATOM      6  H   UNL A   1      33.101  30.730  26.152  1.00  0.00     0.163 HD
BRANCH   5   7
ATOM      7  C   UNL A   1      35.761  30.371  28.147  1.00  0.00     0.039 A 
ATOM      8  C   UNL A   1      35.751  29.694  29.371  1.00  0.00     0.014 A 
ATOM      9  C   UNL A   1      36.954  30.494  27.429  1.00  0.00     0.014 A 
ATOM     10  C   UNL A   1      36.946  29.210  29.911  1.00  0.00     0.010 A 
ATOM     11  C   UNL A   1      38.140  29.974  27.949  1.00  0.00     0.010 A 
ATOM     12  C   UNL A   1      38.150  29.342  29.203  1.00  0.00    -0.014 A 
BRANCH  12  13
ATOM     13  C   UNL A   1      39.422  28.797  29.740  1.00  0.00     0.031 A 
ATOM     14  C   UNL A   1      40.147  29.511  30.846  1.00  0.00     0.074 A 
ATOM     15  C   UNL A   1      39.960  27.697  29.180  1.00  0.00     0.049 A 
ATOM     16  N   UNL A   1      41.325  29.265  31.362  1.00  0.00    -0.248 NA
ATOM     17  C   UNL A   1      39.460  30.667  31.436  1.00  0.00     0.031 C 
ATOM     18  C   UNL A   1      39.359  26.930  28.088  1.00  0.00     0.029 A 
ATOM     19  N   UNL A   1      41.145  27.052  29.431  1.00  0.00    -0.354 N 
ATOM     20  C   UNL A   1      41.529  30.245  32.327  1.00  0.00     0.074 A 
ATOM     21  C   UNL A   1      40.366  31.108  32.295  1.00  0.00     0.031 C 
ATOM     22  C   UNL A   1      40.186  25.929  27.750  1.00  0.00     0.029 A 
ATOM     23  C   UNL A   1      41.393  26.012  28.567  1.00  0.00     0.049 A 
ATOM     24  H   UNL A   1      41.756  27.309  30.158  1.00  0.00     0.167 HD
ATOM     25  C   UNL A   1      42.588  30.404  33.162  1.00  0.00     0.034 A 
ATOM     26  C   UNL A   1      42.485  25.237  28.419  1.00  0.00     0.034 A 
ATOM     27  C   UNL A   1      43.741  29.535  33.175  1.00  0.00     0.049 A 
ATOM     28  C   UNL A   1      43.665  25.451  29.324  1.00  0.00     0.074 A 
ATOM     29  C   UNL A   1      44.840  29.566  34.016  1.00  0.00     0.029 A 
ATOM     30  N   UNL A   1      43.955  28.486  32.287  1.00  0.00    -0.354 N 
ATOM     31  N   UNL A   1      43.832  26.357  30.257  1.00  0.00    -0.248 NA
ATOM     32  C   UNL A   1      44.801  24.535  29.159  1.00  0.00     0.031 C 
ATOM     33  C   UNL A   1      45.742  28.578  33.600  1.00  0.00     0.029 A 
ATOM     34  C   UNL A   1      45.180  27.888  32.539  1.00  0.00     0.049 A 
ATOM     35  H   UNL A   1      43.326  28.209  31.581  1.00  0.00     0.167 HD
ATOM     36  C   UNL A   1      45.086  26.112  30.806  1.00  0.00     0.074 A 
ATOM     37  C   UNL A   1      45.632  24.970  30.099  1.00  0.00     0.031 C 
ATOM     38  C   UNL A   1      45.721  26.763  31.812  1.00  0.00     0.034 A 
BRANCH  25  39
ATOM     39  C   UNL A   1      42.556  31.592  34.095  1.00  0.00     0.023 A 
ATOM     40  C   UNL A   1      41.968  31.516  35.369  1.00  0.00     0.031 A 
ATOM     41  C   UNL A   1      43.077  32.832  33.684  1.00  0.00     0.131 A 
ATOM     42  C   UNL A   1      41.835  32.675  36.150  1.00  0.00     0.055 A 
ATOM     43  C   UNL A   1      43.013  33.964  34.499  1.00  0.00     0.041 A 
ATOM     44  F   UNL A   1      43.635  32.971  32.471  1.00  0.00    -0.206 F 
ATOM     45  C   UNL A   1      42.373  33.894  35.733  1.00  0.00     0.022 A 
BRANCH  42  46
ATOM     46  S   UNL A   1      40.800  32.601  37.639  1.00  0.00     0.124 S 
ATOM     47  O   UNL A   1      40.576  34.017  37.920  1.00  0.00    -0.237 OA
ATOM     48  O   UNL A   1      39.640  31.849  37.177  1.00  0.00    -0.237 OA
ATOM     49  O   UNL A   1      41.647  31.910  38.610  1.00  0.00    -0.744 OA
ENDBRANCH  42  46
ENDBRANCH  25  39
BRANCH  26  50
ATOM     50  C   UNL A   1      42.517  24.225  27.331  1.00  0.00     0.023 A 
ATOM     51  C   UNL A   1      41.751  23.053  27.400  1.00  0.00     0.031 A 
ATOM     52  C   UNL A   1      43.305  24.440  26.184  1.00  0.00     0.131 A 
ATOM     53  C   UNL A   1      41.797  22.130  26.342  1.00  0.00     0.055 A 
ATOM     54  C   UNL A   1      43.320  23.537  25.122  1.00  0.00     0.041 A 
ATOM     55  F   UNL A   1      44.044  25.555  26.071  1.00  0.00    -0.206 F 
ATOM     56  C   UNL A   1      42.566  22.371  25.200  1.00  0.00     0.022 A 
BRANCH  53  57
ATOM     57  S   UNL A   1      40.843  20.595  26.485  1.00  0.00     0.124 S 
ATOM     58  O   UNL A   1      41.609  19.688  25.639  1.00  0.00    -0.237 OA
ATOM     59  O   UNL A   1      40.898  20.334  27.920  1.00  0.00    -0.237 OA
ATOM     60  O   UNL A   1      39.525  20.964  25.973  1.00  0.00    -0.744 OA
ENDBRANCH  53  57
ENDBRANCH  26  50
BRANCH  38  61
ATOM     61  C   UNL A   1      47.063  26.226  32.232  1.00  0.00     0.023 A 
ATOM     62  C   UNL A   1      47.185  25.220  33.205  1.00  0.00     0.031 A 
ATOM     63  C   UNL A   1      48.236  26.727  31.640  1.00  0.00     0.131 A 
ATOM     64  C   UNL A   1      48.459  24.769  33.584  1.00  0.00     0.055 A 
ATOM     65  C   UNL A   1      49.497  26.245  31.991  1.00  0.00     0.041 A 
ATOM     66  F   UNL A   1      48.172  27.689  30.706  1.00  0.00    -0.206 F 
ATOM     67  C   UNL A   1      49.614  25.265  32.973  1.00  0.00     0.022 A 
BRANCH  64  68
ATOM     68  S   UNL A   1      48.596  23.550  34.920  1.00  0.00     0.124 S 
ATOM     69  O   UNL A   1      49.241  22.429  34.242  1.00  0.00    -0.237 OA
ATOM     70  O   UNL A   1      49.410  24.252  35.907  1.00  0.00    -0.237 OA
ATOM     71  O   UNL A   1      47.208  23.318  35.317  1.00  0.00    -0.744 OA
ENDBRANCH  64  68
ENDBRANCH  38  61
ENDBRANCH  12  13
ENDBRANCH   5   7
ENDBRANCH   2   3
ENDBRANCH   1   2
BRANCH   1  72
ATOM     72  C   UNL A   1      32.379  28.150  27.616  1.00  0.00     0.023 C 
BRANCH  72  73
ATOM     73  C   UNL A   1      31.044  27.447  27.347  1.00  0.00     0.116 C 
BRANCH  73  74
ATOM     74  N   UNL A   1      31.230  26.381  26.391  1.00  0.00    -0.356 N 
ATOM     75  C   UNL A   1      30.663  26.162  25.182  1.00  0.00     0.224 C 
ATOM     76  H   UNL A   1      31.879  25.696  26.667  1.00  0.00     0.163 HD
ATOM     77  O   UNL A   1      30.585  24.985  24.852  1.00  0.00    -0.275 OA
BRANCH  75  78
ATOM     78  C   UNL A   1      30.281  27.315  24.276  1.00  0.00     0.096 C 
ATOM     79  C   UNL A   1      28.940  27.201  23.552  1.00  0.00     0.015 C 
ATOM     80  C   UNL A   1      31.433  27.733  23.323  1.00  0.00     0.082 C 
ATOM     81  C   UNL A   1      28.571  28.515  22.853  1.00  0.00     0.001 C 
ATOM     82  C   UNL A   1      31.047  29.146  22.806  1.00  0.00     0.021 C 
ATOM     83  C   UNL A   1      29.716  29.117  22.036  1.00  0.00     0.002 C 
BRANCH  80  84
ATOM     84  N   UNL A   1      31.646  26.936  22.082  1.00  0.00    -0.207 NA
ATOM     85  H   UNL A   1      31.310  27.527  21.322  1.00  0.00     0.141 HD
BRANCH  84  86
ATOM     86  S   UNL A   1      33.130  26.321  21.547  1.00  0.00     0.240 S 
ATOM     87  O   UNL A   1      32.820  25.756  20.246  1.00  0.00    -0.207 OA
ATOM     88  O   UNL A   1      34.148  27.331  21.681  1.00  0.00    -0.207 OA
BRANCH  86  89
ATOM     89  C   UNL A   1      33.376  24.935  22.626  1.00  0.00     0.083 A 
ATOM     90  C   UNL A   1      32.910  23.664  22.308  1.00  0.00     0.022 A 
ATOM     91  C   UNL A   1      34.163  25.142  23.766  1.00  0.00     0.030 A 
ATOM     92  C   UNL A   1      33.313  22.577  23.095  1.00  0.00     0.010 A 
ATOM     93  C   UNL A   1      34.628  24.056  24.511  1.00  0.00    -0.017 A 
ATOM     94  C   UNL A   1      34.208  22.752  24.168  1.00  0.00    -0.018 A 
ATOM     95  C   UNL A   1      35.560  24.247  25.543  1.00  0.00     0.009 A 
ATOM     96  C   UNL A   1      34.736  21.666  24.887  1.00  0.00     0.009 A 
ATOM     97  C   UNL A   1      36.097  23.156  26.222  1.00  0.00     0.001 A 
ATOM     98  C   UNL A   1      35.682  21.868  25.897  1.00  0.00     0.001 A 
ENDBRANCH  86  89
ENDBRANCH  84  86
ENDBRANCH  80  84
ENDBRANCH  75  78
ENDBRANCH  73  74
ENDBRANCH  72  73
ENDBRANCH   1  72
TORSDOF 17
ENDMDL
