MODEL 1
REMARK VINA RESULT:     -12.1      0.000      0.000
REMARK SMILES C[C@H]1CC[C@@H](C2(C(=O)NCCCCNC(=O)c3ccc(-c4c5nc(c(-c6cc(S(=O)(=O)[O-])ccc6F)c6ccc([nH]6)c(-c6cc(S(=O)(=O)[O-])ccc6F)c6nc(c(-c7cc(S(=O)(=O)[O-])ccc7F)c7ccc4[nH]7)C=C6)C=C5)cc3)CCCCC2)C[C@@H]1C
REMARK SMILES IDX 12 1 11 2 10 3 9 4 7 5 8 6 6 8 80 9 84 10 81 11 83 12 82 13
REMARK SMILES IDX 5 14 1 15 2 16 3 17 86 18 4 19 85 20 87 21 13 22 14 23 15 24
REMARK SMILES IDX 16 26 17 27 18 28 79 29 19 30 78 31 20 32 21 33 22 34 72 35
REMARK SMILES IDX 23 36 77 37 71 38 73 39 24 40 76 41 70 42 69 43 25 45 57 46
REMARK SMILES IDX 37 47 56 48 38 49 41 50 55 51 74 52 39 53 40 54 54 56 75 57
REMARK SMILES IDX 42 58 26 59 27 60 35 61 28 62 34 63 36 64 33 65 29 66 30 67
REMARK SMILES IDX 31 68 32 69 58 70 59 71 67 72 60 73 66 74 68 75 65 76 61 77
REMARK SMILES IDX 62 78 63 79 64 80 43 81 44 82 52 83 45 84 51 85 53 86 50 87
REMARK SMILES IDX 46 88 47 89 48 90 49 91
REMARK H PARENT 9 7 14 25 73 44 41 55
REMARK Flexibility Score: inf
ROOT
ATOM      1  C   UNL A   1      35.015  21.312  25.945  1.00  0.00     0.023 C 
ENDROOT
BRANCH   1   2
ATOM      2  C   UNL A   1      34.190  22.020  27.023  1.00  0.00     0.023 C 
BRANCH   2   3
ATOM      3  C   UNL A   1      33.833  23.471  26.695  1.00  0.00     0.116 C 
BRANCH   3   4
ATOM      4  N   UNL A   1      32.397  23.618  26.590  1.00  0.00    -0.356 N 
ATOM      5  C   UNL A   1      31.596  24.691  26.374  1.00  0.00     0.226 C 
ATOM      6  O   UNL A   1      30.482  24.562  26.875  1.00  0.00    -0.274 OA
ATOM      7  H   UNL A   1      31.903  22.773  26.697  1.00  0.00     0.163 HD
BRANCH   5   8
ATOM      8  C   UNL A   1      32.041  25.951  25.585  1.00  0.00     0.052 C 
ATOM      9  C   UNL A   1      33.479  26.325  26.088  1.00  0.00     0.017 C 
ATOM     10  C   UNL A   1      31.042  27.104  25.915  1.00  0.00     0.017 C 
ATOM     11  C   UNL A   1      33.933  27.734  25.721  1.00  0.00     0.001 C 
ATOM     12  C   UNL A   1      31.548  28.505  25.577  1.00  0.00     0.001 C 
ATOM     13  C   UNL A   1      32.920  28.771  26.181  1.00  0.00     0.000 C 
BRANCH   8  14
ATOM     14  C   UNL A   1      32.095  25.746  23.989  1.00  0.00     0.005 C 
ATOM     15  C   UNL A   1      32.437  21.444  23.344  1.00  0.00     0.008 C 
ATOM     16  C   UNL A   1      32.401  22.915  22.897  1.00  0.00    -0.011 C 
ATOM     17  C   UNL A   1      31.015  23.496  23.252  1.00  0.00     0.004 C 
ATOM     18  C   UNL A   1      33.609  23.702  23.469  1.00  0.00    -0.011 C 
ATOM     19  C   UNL A   1      30.930  25.015  23.287  1.00  0.00     0.005 C 
ATOM     20  C   UNL A   1      33.407  25.217  23.370  1.00  0.00     0.008 C 
ATOM     21  C   UNL A   1      34.926  23.327  22.771  1.00  0.00     0.008 C 
ENDBRANCH   8  14
ENDBRANCH   5   8
ENDBRANCH   3   4
ENDBRANCH   2   3
ENDBRANCH   1   2
BRANCH   1  22
ATOM     22  C   UNL A   1      36.420  21.868  25.742  1.00  0.00     0.116 C 
BRANCH  22  23
ATOM     23  N   UNL A   1      37.429  20.823  25.711  1.00  0.00    -0.352 N 
ATOM     24  C   UNL A   1      38.781  20.919  25.916  1.00  0.00     0.251 C 
ATOM     25  H   UNL A   1      37.095  19.918  25.514  1.00  0.00     0.163 HD
ATOM     26  O   UNL A   1      39.502  19.950  25.689  1.00  0.00    -0.269 OA
BRANCH  24  27
ATOM     27  C   UNL A   1      39.357  22.197  26.374  1.00  0.00     0.039 A 
ATOM     28  C   UNL A   1      40.441  22.168  27.251  1.00  0.00     0.014 A 
ATOM     29  C   UNL A   1      38.849  23.417  25.915  1.00  0.00     0.014 A 
ATOM     30  C   UNL A   1      41.057  23.364  27.623  1.00  0.00     0.010 A 
ATOM     31  C   UNL A   1      39.513  24.600  26.224  1.00  0.00     0.010 A 
ATOM     32  C   UNL A   1      40.623  24.586  27.082  1.00  0.00    -0.014 A 
BRANCH  32  33
ATOM     33  C   UNL A   1      41.325  25.855  27.405  1.00  0.00     0.031 A 
ATOM     34  C   UNL A   1      40.628  26.918  28.212  1.00  0.00     0.074 A 
ATOM     35  C   UNL A   1      42.570  26.066  26.929  1.00  0.00     0.049 A 
ATOM     36  N   UNL A   1      41.054  28.105  28.555  1.00  0.00    -0.248 NA
ATOM     37  C   UNL A   1      39.262  26.616  28.671  1.00  0.00     0.031 C 
ATOM     38  C   UNL A   1      43.330  25.121  26.105  1.00  0.00     0.029 A 
ATOM     39  N   UNL A   1      43.416  27.138  27.062  1.00  0.00    -0.354 N 
ATOM     40  C   UNL A   1      40.008  28.699  29.253  1.00  0.00     0.074 A 
ATOM     41  C   UNL A   1      38.908  27.758  29.244  1.00  0.00     0.031 C 
ATOM     42  C   UNL A   1      44.537  25.642  25.835  1.00  0.00     0.029 A 
ATOM     43  C   UNL A   1      44.621  26.978  26.416  1.00  0.00     0.049 A 
ATOM     44  H   UNL A   1      43.183  27.946  27.574  1.00  0.00     0.167 HD
ATOM     45  C   UNL A   1      39.975  29.911  29.858  1.00  0.00     0.034 A 
ATOM     46  C   UNL A   1      45.668  27.820  26.294  1.00  0.00     0.034 A 
ATOM     47  C   UNL A   1      41.090  30.824  29.878  1.00  0.00     0.049 A 
ATOM     48  C   UNL A   1      45.589  29.173  26.959  1.00  0.00     0.074 A 
ATOM     49  C   UNL A   1      41.190  32.041  30.532  1.00  0.00     0.029 A 
ATOM     50  N   UNL A   1      42.291  30.634  29.208  1.00  0.00    -0.354 N 
ATOM     51  N   UNL A   1      44.619  29.684  27.683  1.00  0.00    -0.248 NA
ATOM     52  C   UNL A   1      46.751  30.059  26.803  1.00  0.00     0.031 C 
ATOM     53  C   UNL A   1      42.413  32.623  30.189  1.00  0.00     0.029 A 
ATOM     54  C   UNL A   1      43.118  31.730  29.396  1.00  0.00     0.049 A 
ATOM     55  H   UNL A   1      42.521  29.838  28.677  1.00  0.00     0.167 HD
ATOM     56  C   UNL A   1      45.076  30.933  28.100  1.00  0.00     0.074 A 
ATOM     57  C   UNL A   1      46.412  31.086  27.565  1.00  0.00     0.031 C 
ATOM     58  C   UNL A   1      44.450  31.868  28.859  1.00  0.00     0.034 A 
BRANCH  45  59
ATOM     59  C   UNL A   1      38.688  30.339  30.521  1.00  0.00     0.023 A 
ATOM     60  C   UNL A   1      37.676  31.016  29.820  1.00  0.00     0.031 A 
ATOM     61  C   UNL A   1      38.462  30.034  31.876  1.00  0.00     0.131 A 
ATOM     62  C   UNL A   1      36.504  31.405  30.488  1.00  0.00     0.055 A 
ATOM     63  C   UNL A   1      37.265  30.359  32.514  1.00  0.00     0.041 A 
ATOM     64  F   UNL A   1      39.403  29.409  32.602  1.00  0.00    -0.206 F 
ATOM     65  C   UNL A   1      36.280  31.056  31.822  1.00  0.00     0.022 A 
BRANCH  62  66
ATOM     66  S   UNL A   1      35.319  32.466  29.617  1.00  0.00     0.124 S 
ATOM     67  O   UNL A   1      34.786  31.550  28.611  1.00  0.00    -0.237 OA
ATOM     68  O   UNL A   1      34.400  32.853  30.680  1.00  0.00    -0.237 OA
ATOM     69  O   UNL A   1      36.150  33.546  29.087  1.00  0.00    -0.744 OA
ENDBRANCH  62  66
ENDBRANCH  45  59
BRANCH  46  70
ATOM     70  C   UNL A   1      46.875  27.440  25.500  1.00  0.00     0.023 A 
ATOM     71  C   UNL A   1      47.059  27.919  24.192  1.00  0.00     0.031 A 
ATOM     72  C   UNL A   1      47.814  26.518  25.996  1.00  0.00     0.131 A 
ATOM     73  C   UNL A   1      48.102  27.415  23.400  1.00  0.00     0.055 A 
ATOM     74  C   UNL A   1      48.894  26.075  25.230  1.00  0.00     0.041 A 
ATOM     75  F   UNL A   1      47.691  26.023  27.239  1.00  0.00    -0.206 F 
ATOM     76  C   UNL A   1      49.030  26.507  23.914  1.00  0.00     0.022 A 
BRANCH  73  77
ATOM     77  S   UNL A   1      48.139  27.851  21.638  1.00  0.00     0.124 S 
ATOM     78  O   UNL A   1      49.171  28.881  21.611  1.00  0.00    -0.237 OA
ATOM     79  O   UNL A   1      48.486  26.577  21.019  1.00  0.00    -0.237 OA
ATOM     80  O   UNL A   1      46.780  28.320  21.378  1.00  0.00    -0.744 OA
ENDBRANCH  73  77
ENDBRANCH  46  70
BRANCH  58  81
ATOM     81  C   UNL A   1      45.233  33.114  29.201  1.00  0.00     0.023 A 
ATOM     82  C   UNL A   1      45.173  34.271  28.407  1.00  0.00     0.031 A 
ATOM     83  C   UNL A   1      46.063  33.133  30.336  1.00  0.00     0.131 A 
ATOM     84  C   UNL A   1      45.978  35.377  28.721  1.00  0.00     0.055 A 
ATOM     85  C   UNL A   1      46.806  34.261  30.684  1.00  0.00     0.041 A 
ATOM     86  F   UNL A   1      46.162  32.055  31.130  1.00  0.00    -0.206 F 
ATOM     87  C   UNL A   1      46.778  35.386  29.867  1.00  0.00     0.022 A 
BRANCH  84  88
ATOM     88  S   UNL A   1      46.044  36.765  27.557  1.00  0.00     0.124 S 
ATOM     89  O   UNL A   1      47.356  36.586  26.945  1.00  0.00    -0.237 OA
ATOM     90  O   UNL A   1      44.897  36.502  26.693  1.00  0.00    -0.237 OA
ATOM     91  O   UNL A   1      45.915  37.941  28.416  1.00  0.00    -0.744 OA
ENDBRANCH  84  88
ENDBRANCH  58  81
ENDBRANCH  32  33
ENDBRANCH  24  27
ENDBRANCH  22  23
ENDBRANCH   1  22
TORSDOF 15
ENDMDL
MODEL 2
REMARK VINA RESULT:     -11.9      1.175      7.893
REMARK SMILES C[C@H]1CC[C@@H](C2(C(=O)NCCCCNC(=O)c3ccc(-c4c5nc(c(-c6cc(S(=O)(=O)[O-])ccc6F)c6ccc([nH]6)c(-c6cc(S(=O)(=O)[O-])ccc6F)c6nc(c(-c7cc(S(=O)(=O)[O-])ccc7F)c7ccc4[nH]7)C=C6)C=C5)cc3)CCCCC2)C[C@@H]1C
REMARK SMILES IDX 12 1 11 2 10 3 9 4 7 5 8 6 6 8 80 9 84 10 81 11 83 12 82 13
REMARK SMILES IDX 5 14 1 15 2 16 3 17 86 18 4 19 85 20 87 21 13 22 14 23 15 24
REMARK SMILES IDX 16 26 17 27 18 28 79 29 19 30 78 31 20 32 21 33 22 34 72 35
REMARK SMILES IDX 23 36 77 37 71 38 73 39 24 40 76 41 70 42 69 43 25 45 57 46
REMARK SMILES IDX 37 47 56 48 38 49 41 50 55 51 74 52 39 53 40 54 54 56 75 57
REMARK SMILES IDX 42 58 26 59 27 60 35 61 28 62 34 63 36 64 33 65 29 66 30 67
REMARK SMILES IDX 31 68 32 69 58 70 59 71 67 72 60 73 66 74 68 75 65 76 61 77
REMARK SMILES IDX 62 78 63 79 64 80 43 81 44 82 52 83 45 84 51 85 53 86 50 87
REMARK SMILES IDX 46 88 47 89 48 90 49 91
REMARK H PARENT 9 7 14 25 73 44 41 55
REMARK Flexibility Score: inf
ROOT
ATOM      1  C   UNL A   1      35.618  22.024  24.717  1.00  0.00     0.023 C 
ENDROOT
BRANCH   1   2
ATOM      2  C   UNL A   1      34.849  23.346  24.651  1.00  0.00     0.023 C 
BRANCH   2   3
ATOM      3  C   UNL A   1      33.890  23.460  23.464  1.00  0.00     0.116 C 
BRANCH   3   4
ATOM      4  N   UNL A   1      34.140  24.687  22.738  1.00  0.00    -0.356 N 
ATOM      5  C   UNL A   1      33.402  25.809  22.547  1.00  0.00     0.226 C 
ATOM      6  O   UNL A   1      33.663  26.374  21.488  1.00  0.00    -0.274 OA
ATOM      7  H   UNL A   1      35.019  24.713  22.294  1.00  0.00     0.163 HD
BRANCH   5   8
ATOM      8  C   UNL A   1      32.337  26.319  23.553  1.00  0.00     0.052 C 
ATOM      9  C   UNL A   1      31.003  25.558  23.236  1.00  0.00     0.017 C 
ATOM     10  C   UNL A   1      32.148  27.851  23.319  1.00  0.00     0.017 C 
ATOM     11  C   UNL A   1      29.754  26.184  23.851  1.00  0.00     0.001 C 
ATOM     12  C   UNL A   1      30.866  28.435  23.908  1.00  0.00     0.001 C 
ATOM     13  C   UNL A   1      29.635  27.651  23.470  1.00  0.00     0.000 C 
BRANCH   8  14
ATOM     14  C   UNL A   1      32.715  26.068  25.098  1.00  0.00     0.005 C 
ATOM     15  C   UNL A   1      31.883  29.822  27.160  1.00  0.00     0.008 C 
ATOM     16  C   UNL A   1      32.405  28.379  27.064  1.00  0.00    -0.011 C 
ATOM     17  C   UNL A   1      31.218  27.456  26.712  1.00  0.00     0.004 C 
ATOM     18  C   UNL A   1      33.617  28.287  26.099  1.00  0.00    -0.011 C 
ATOM     19  C   UNL A   1      31.592  26.089  26.157  1.00  0.00     0.005 C 
ATOM     20  C   UNL A   1      33.914  26.842  25.686  1.00  0.00     0.008 C 
ATOM     21  C   UNL A   1      34.887  28.905  26.706  1.00  0.00     0.008 C 
ENDBRANCH   8  14
ENDBRANCH   5   8
ENDBRANCH   3   4
ENDBRANCH   2   3
ENDBRANCH   1   2
BRANCH   1  22
ATOM     22  C   UNL A   1      36.357  21.776  26.027  1.00  0.00     0.116 C 
BRANCH  22  23
ATOM     23  N   UNL A   1      37.435  20.813  25.879  1.00  0.00    -0.352 N 
ATOM     24  C   UNL A   1      38.789  21.011  25.968  1.00  0.00     0.251 C 
ATOM     25  H   UNL A   1      37.156  19.889  25.688  1.00  0.00     0.163 HD
ATOM     26  O   UNL A   1      39.559  20.106  25.652  1.00  0.00    -0.269 OA
BRANCH  24  27
ATOM     27  C   UNL A   1      39.305  22.321  26.408  1.00  0.00     0.039 A 
ATOM     28  C   UNL A   1      40.375  22.354  27.302  1.00  0.00     0.014 A 
ATOM     29  C   UNL A   1      38.755  23.509  25.916  1.00  0.00     0.014 A 
ATOM     30  C   UNL A   1      40.935  23.581  27.658  1.00  0.00     0.010 A 
ATOM     31  C   UNL A   1      39.364  24.724  26.211  1.00  0.00     0.010 A 
ATOM     32  C   UNL A   1      40.460  24.773  27.086  1.00  0.00    -0.014 A 
BRANCH  32  33
ATOM     33  C   UNL A   1      41.104  26.077  27.393  1.00  0.00     0.031 A 
ATOM     34  C   UNL A   1      42.472  26.388  26.847  1.00  0.00     0.074 A 
ATOM     35  C   UNL A   1      40.476  26.954  28.203  1.00  0.00     0.049 A 
ATOM     36  N   UNL A   1      43.216  27.446  27.040  1.00  0.00    -0.248 NA
ATOM     37  C   UNL A   1      43.097  25.365  25.992  1.00  0.00     0.031 C 
ATOM     38  C   UNL A   1      39.163  26.744  28.820  1.00  0.00     0.029 A 
ATOM     39  N   UNL A   1      40.853  28.196  28.651  1.00  0.00    -0.354 N 
ATOM     40  C   UNL A   1      44.400  27.211  26.350  1.00  0.00     0.074 A 
ATOM     41  C   UNL A   1      44.294  25.889  25.770  1.00  0.00     0.031 C 
ATOM     42  C   UNL A   1      38.833  27.829  29.538  1.00  0.00     0.029 A 
ATOM     43  C   UNL A   1      39.929  28.791  29.481  1.00  0.00     0.049 A 
ATOM     44  H   UNL A   1      41.704  28.621  28.401  1.00  0.00     0.167 HD
ATOM     45  C   UNL A   1      45.469  28.031  26.201  1.00  0.00     0.034 A 
ATOM     46  C   UNL A   1      39.968  29.970  30.133  1.00  0.00     0.034 A 
ATOM     47  C   UNL A   1      45.545  29.355  26.764  1.00  0.00     0.049 A 
ATOM     48  C   UNL A   1      41.186  30.848  29.965  1.00  0.00     0.074 A 
ATOM     49  C   UNL A   1      46.546  30.298  26.605  1.00  0.00     0.029 A 
ATOM     50  N   UNL A   1      44.596  29.922  27.604  1.00  0.00    -0.354 N 
ATOM     51  N   UNL A   1      42.262  30.641  29.242  1.00  0.00    -0.248 NA
ATOM     52  C   UNL A   1      41.188  32.125  30.692  1.00  0.00     0.031 C 
ATOM     53  C   UNL A   1      46.246  31.397  27.414  1.00  0.00     0.029 A 
ATOM     54  C   UNL A   1      45.011  31.182  28.006  1.00  0.00     0.049 A 
ATOM     55  H   UNL A   1      43.753  29.492  27.874  1.00  0.00     0.167 HD
ATOM     56  C   UNL A   1      43.047  31.782  29.396  1.00  0.00     0.074 A 
ATOM     57  C   UNL A   1      42.311  32.679  30.262  1.00  0.00     0.031 C 
ATOM     58  C   UNL A   1      44.265  32.066  28.868  1.00  0.00     0.034 A 
BRANCH  45  59
ATOM     59  C   UNL A   1      46.657  27.513  25.426  1.00  0.00     0.023 A 
ATOM     60  C   UNL A   1      46.931  27.932  24.113  1.00  0.00     0.031 A 
ATOM     61  C   UNL A   1      47.546  26.605  26.028  1.00  0.00     0.131 A 
ATOM     62  C   UNL A   1      48.040  27.408  23.430  1.00  0.00     0.055 A 
ATOM     63  C   UNL A   1      48.687  26.145  25.370  1.00  0.00     0.041 A 
ATOM     64  F   UNL A   1      47.321  26.152  27.272  1.00  0.00    -0.206 F 
ATOM     65  C   UNL A   1      48.936  26.540  24.060  1.00  0.00     0.022 A 
BRANCH  62  66
ATOM     66  S   UNL A   1      48.241  27.797  21.670  1.00  0.00     0.124 S 
ATOM     67  O   UNL A   1      46.912  28.295  21.324  1.00  0.00    -0.237 OA
ATOM     68  O   UNL A   1      49.311  28.788  21.685  1.00  0.00    -0.237 OA
ATOM     69  O   UNL A   1      48.593  26.510  21.072  1.00  0.00    -0.744 OA
ENDBRANCH  62  66
ENDBRANCH  45  59
BRANCH  46  70
ATOM     70  C   UNL A   1      38.848  30.398  31.023  1.00  0.00     0.023 A 
ATOM     71  C   UNL A   1      37.699  31.009  30.493  1.00  0.00     0.031 A 
ATOM     72  C   UNL A   1      38.946  30.293  32.422  1.00  0.00     0.131 A 
ATOM     73  C   UNL A   1      36.738  31.563  31.354  1.00  0.00     0.055 A 
ATOM     74  C   UNL A   1      37.952  30.780  33.273  1.00  0.00     0.041 A 
ATOM     75  F   UNL A   1      40.021  29.720  32.988  1.00  0.00    -0.206 F 
ATOM     76  C   UNL A   1      36.848  31.440  32.740  1.00  0.00     0.022 A 
BRANCH  73  77
ATOM     77  S   UNL A   1      35.416  32.579  30.635  1.00  0.00     0.124 S 
ATOM     78  O   UNL A   1      34.392  32.506  31.671  1.00  0.00    -0.237 OA
ATOM     79  O   UNL A   1      36.080  33.868  30.476  1.00  0.00    -0.237 OA
ATOM     80  O   UNL A   1      35.097  31.886  29.389  1.00  0.00    -0.744 OA
ENDBRANCH  73  77
ENDBRANCH  46  70
BRANCH  58  81
ATOM     81  C   UNL A   1      44.846  33.428  29.170  1.00  0.00     0.023 A 
ATOM     82  C   UNL A   1      44.610  34.536  28.339  1.00  0.00     0.031 A 
ATOM     83  C   UNL A   1      45.659  33.611  30.303  1.00  0.00     0.131 A 
ATOM     84  C   UNL A   1      45.234  35.762  28.618  1.00  0.00     0.055 A 
ATOM     85  C   UNL A   1      46.219  34.850  30.613  1.00  0.00     0.041 A 
ATOM     86  F   UNL A   1      45.921  32.586  31.130  1.00  0.00    -0.206 F 
ATOM     87  C   UNL A   1      46.020  35.931  29.761  1.00  0.00     0.022 A 
BRANCH  84  88
ATOM     88  S   UNL A   1      45.089  37.106  27.410  1.00  0.00     0.124 S 
ATOM     89  O   UNL A   1      46.048  36.701  26.387  1.00  0.00    -0.237 OA
ATOM     90  O   UNL A   1      43.682  37.033  27.028  1.00  0.00    -0.237 OA
ATOM     91  O   UNL A   1      45.461  38.297  28.173  1.00  0.00    -0.744 OA
ENDBRANCH  84  88
ENDBRANCH  58  81
ENDBRANCH  32  33
ENDBRANCH  24  27
ENDBRANCH  22  23
ENDBRANCH   1  22
TORSDOF 15
ENDMDL
MODEL 3
REMARK VINA RESULT:     -11.9      2.765      8.257
REMARK SMILES C[C@H]1CC[C@@H](C2(C(=O)NCCCCNC(=O)c3ccc(-c4c5nc(c(-c6cc(S(=O)(=O)[O-])ccc6F)c6ccc([nH]6)c(-c6cc(S(=O)(=O)[O-])ccc6F)c6nc(c(-c7cc(S(=O)(=O)[O-])ccc7F)c7ccc4[nH]7)C=C6)C=C5)cc3)CCCCC2)C[C@@H]1C
REMARK SMILES IDX 12 1 11 2 10 3 9 4 7 5 8 6 6 8 80 9 84 10 81 11 83 12 82 13
REMARK SMILES IDX 5 14 1 15 2 16 3 17 86 18 4 19 85 20 87 21 13 22 14 23 15 24
REMARK SMILES IDX 16 26 17 27 18 28 79 29 19 30 78 31 20 32 21 33 22 34 72 35
REMARK SMILES IDX 23 36 77 37 71 38 73 39 24 40 76 41 70 42 69 43 25 45 57 46
REMARK SMILES IDX 37 47 56 48 38 49 41 50 55 51 74 52 39 53 40 54 54 56 75 57
REMARK SMILES IDX 42 58 26 59 27 60 35 61 28 62 34 63 36 64 33 65 29 66 30 67
REMARK SMILES IDX 31 68 32 69 58 70 59 71 67 72 60 73 66 74 68 75 65 76 61 77
REMARK SMILES IDX 62 78 63 79 64 80 43 81 44 82 52 83 45 84 51 85 53 86 50 87
REMARK SMILES IDX 46 88 47 89 48 90 49 91
REMARK H PARENT 9 7 14 25 73 44 41 55
REMARK Flexibility Score: inf
ROOT
ATOM      1  C   UNL A   1      35.793  23.766  24.549  1.00  0.00     0.023 C 
ENDROOT
BRANCH   1   2
ATOM      2  C   UNL A   1      34.679  22.741  24.320  1.00  0.00     0.023 C 
BRANCH   2   3
ATOM      3  C   UNL A   1      33.564  23.216  23.386  1.00  0.00     0.116 C 
BRANCH   3   4
ATOM      4  N   UNL A   1      33.943  24.462  22.753  1.00  0.00    -0.356 N 
ATOM      5  C   UNL A   1      33.308  25.652  22.615  1.00  0.00     0.226 C 
ATOM      6  O   UNL A   1      33.655  26.261  21.605  1.00  0.00    -0.274 OA
ATOM      7  H   UNL A   1      34.837  24.440  22.341  1.00  0.00     0.163 HD
BRANCH   5   8
ATOM      8  C   UNL A   1      32.253  26.186  23.619  1.00  0.00     0.052 C 
ATOM      9  C   UNL A   1      30.919  25.411  23.339  1.00  0.00     0.017 C 
ATOM     10  C   UNL A   1      32.055  27.710  23.345  1.00  0.00     0.017 C 
ATOM     11  C   UNL A   1      29.675  26.048  23.951  1.00  0.00     0.001 C 
ATOM     12  C   UNL A   1      30.777  28.305  23.932  1.00  0.00     0.001 C 
ATOM     13  C   UNL A   1      29.545  27.504  23.530  1.00  0.00     0.000 C 
BRANCH   8  14
ATOM     14  C   UNL A   1      32.650  25.980  25.166  1.00  0.00     0.005 C 
ATOM     15  C   UNL A   1      31.855  29.796  27.126  1.00  0.00     0.008 C 
ATOM     16  C   UNL A   1      32.372  28.348  27.066  1.00  0.00    -0.011 C 
ATOM     17  C   UNL A   1      31.178  27.420  26.757  1.00  0.00     0.004 C 
ATOM     18  C   UNL A   1      33.571  28.225  26.089  1.00  0.00    -0.011 C 
ATOM     19  C   UNL A   1      31.541  26.036  26.238  1.00  0.00     0.005 C 
ATOM     20  C   UNL A   1      33.859  26.767  25.715  1.00  0.00     0.008 C 
ATOM     21  C   UNL A   1      34.850  28.857  26.661  1.00  0.00     0.008 C 
ENDBRANCH   8  14
ENDBRANCH   5   8
ENDBRANCH   3   4
ENDBRANCH   2   3
ENDBRANCH   1   2
BRANCH   1  22
ATOM     22  C   UNL A   1      36.483  23.674  25.905  1.00  0.00     0.116 C 
BRANCH  22  23
ATOM     23  N   UNL A   1      37.445  22.585  25.961  1.00  0.00    -0.352 N 
ATOM     24  C   UNL A   1      38.777  22.624  26.284  1.00  0.00     0.251 C 
ATOM     25  H   UNL A   1      37.091  21.695  25.736  1.00  0.00     0.163 HD
ATOM     26  O   UNL A   1      39.472  21.624  26.121  1.00  0.00    -0.269 OA
BRANCH  24  27
ATOM     27  C   UNL A   1      39.365  23.878  26.791  1.00  0.00     0.039 A 
ATOM     28  C   UNL A   1      40.006  24.729  25.892  1.00  0.00     0.014 A 
ATOM     29  C   UNL A   1      39.257  24.225  28.142  1.00  0.00     0.014 A 
ATOM     30  C   UNL A   1      40.488  25.961  26.335  1.00  0.00     0.010 A 
ATOM     31  C   UNL A   1      39.668  25.485  28.564  1.00  0.00     0.010 A 
ATOM     32  C   UNL A   1      40.289  26.366  27.666  1.00  0.00    -0.014 A 
BRANCH  32  33
ATOM     33  C   UNL A   1      40.723  27.710  28.128  1.00  0.00     0.031 A 
ATOM     34  C   UNL A   1      42.189  28.043  28.204  1.00  0.00     0.074 A 
ATOM     35  C   UNL A   1      39.797  28.608  28.523  1.00  0.00     0.049 A 
ATOM     36  N   UNL A   1      42.765  29.140  28.624  1.00  0.00    -0.248 NA
ATOM     37  C   UNL A   1      43.133  26.998  27.777  1.00  0.00     0.031 C 
ATOM     38  C   UNL A   1      38.348  28.381  28.527  1.00  0.00     0.029 A 
ATOM     39  N   UNL A   1      39.929  29.888  29.001  1.00  0.00    -0.354 N 
ATOM     40  C   UNL A   1      44.133  28.912  28.529  1.00  0.00     0.074 A 
ATOM     41  C   UNL A   1      44.303  27.555  28.056  1.00  0.00     0.031 C 
ATOM     42  C   UNL A   1      37.728  29.493  28.954  1.00  0.00     0.029 A 
ATOM     43  C   UNL A   1      38.731  30.493  29.307  1.00  0.00     0.049 A 
ATOM     44  H   UNL A   1      40.800  30.332  29.113  1.00  0.00     0.167 HD
ATOM     45  C   UNL A   1      45.152  29.764  28.798  1.00  0.00     0.034 A 
ATOM     46  C   UNL A   1      38.472  31.710  29.827  1.00  0.00     0.034 A 
ATOM     47  C   UNL A   1      44.963  31.122  29.244  1.00  0.00     0.049 A 
ATOM     48  C   UNL A   1      39.632  32.625  30.138  1.00  0.00     0.074 A 
ATOM     49  C   UNL A   1      45.925  32.093  29.465  1.00  0.00     0.029 A 
ATOM     50  N   UNL A   1      43.738  31.698  29.550  1.00  0.00    -0.354 N 
ATOM     51  N   UNL A   1      40.918  32.419  29.966  1.00  0.00    -0.248 NA
ATOM     52  C   UNL A   1      39.306  33.942  30.702  1.00  0.00     0.031 C 
ATOM     53  C   UNL A   1      45.292  33.225  29.985  1.00  0.00     0.029 A 
ATOM     54  C   UNL A   1      43.925  32.996  30.001  1.00  0.00     0.049 A 
ATOM     55  H   UNL A   1      42.866  31.252  29.460  1.00  0.00     0.167 HD
ATOM     56  C   UNL A   1      41.547  33.598  30.362  1.00  0.00     0.074 A 
ATOM     57  C   UNL A   1      40.498  34.514  30.761  1.00  0.00     0.031 C 
ATOM     58  C   UNL A   1      42.869  33.899  30.393  1.00  0.00     0.034 A 
BRANCH  45  59
ATOM     59  C   UNL A   1      46.564  29.250  28.649  1.00  0.00     0.023 A 
ATOM     60  C   UNL A   1      47.138  28.997  27.392  1.00  0.00     0.031 A 
ATOM     61  C   UNL A   1      47.358  29.038  29.791  1.00  0.00     0.131 A 
ATOM     62  C   UNL A   1      48.450  28.505  27.309  1.00  0.00     0.055 A 
ATOM     63  C   UNL A   1      48.685  28.619  29.699  1.00  0.00     0.041 A 
ATOM     64  F   UNL A   1      46.855  29.241  31.020  1.00  0.00    -0.206 F 
ATOM     65  C   UNL A   1      49.236  28.342  28.453  1.00  0.00     0.022 A 
BRANCH  62  66
ATOM     66  S   UNL A   1      49.082  27.981  25.692  1.00  0.00     0.124 S 
ATOM     67  O   UNL A   1      50.266  28.826  25.550  1.00  0.00    -0.237 OA
ATOM     68  O   UNL A   1      49.332  26.560  25.895  1.00  0.00    -0.237 OA
ATOM     69  O   UNL A   1      47.986  28.297  24.777  1.00  0.00    -0.744 OA
ENDBRANCH  62  66
ENDBRANCH  45  59
BRANCH  46  70
ATOM     70  C   UNL A   1      37.071  32.145  30.114  1.00  0.00     0.023 A 
ATOM     71  C   UNL A   1      36.305  32.801  29.137  1.00  0.00     0.031 A 
ATOM     72  C   UNL A   1      36.510  31.999  31.395  1.00  0.00     0.131 A 
ATOM     73  C   UNL A   1      35.062  33.358  29.476  1.00  0.00     0.055 A 
ATOM     74  C   UNL A   1      35.241  32.490  31.709  1.00  0.00     0.041 A 
ATOM     75  F   UNL A   1      37.195  31.381  32.372  1.00  0.00    -0.206 F 
ATOM     76  C   UNL A   1      34.518  33.194  30.751  1.00  0.00     0.022 A 
BRANCH  73  77
ATOM     77  S   UNL A   1      34.235  34.429  28.266  1.00  0.00     0.124 S 
ATOM     78  O   UNL A   1      35.190  34.420  27.164  1.00  0.00    -0.237 OA
ATOM     79  O   UNL A   1      32.983  33.715  28.039  1.00  0.00    -0.237 OA
ATOM     80  O   UNL A   1      34.107  35.702  28.973  1.00  0.00    -0.744 OA
ENDBRANCH  73  77
ENDBRANCH  46  70
BRANCH  58  81
ATOM     81  C   UNL A   1      43.248  35.298  30.817  1.00  0.00     0.023 A 
ATOM     82  C   UNL A   1      43.303  35.675  32.170  1.00  0.00     0.031 A 
ATOM     83  C   UNL A   1      43.545  36.272  29.847  1.00  0.00     0.131 A 
ATOM     84  C   UNL A   1      43.584  37.006  32.513  1.00  0.00     0.055 A 
ATOM     85  C   UNL A   1      43.893  37.577  30.197  1.00  0.00     0.041 A 
ATOM     86  F   UNL A   1      43.504  35.970  28.539  1.00  0.00    -0.206 F 
ATOM     87  C   UNL A   1      43.900  37.954  31.536  1.00  0.00     0.022 A 
BRANCH  84  88
ATOM     88  S   UNL A   1      43.430  37.509  34.248  1.00  0.00     0.124 S 
ATOM     89  O   UNL A   1      44.818  37.484  34.697  1.00  0.00    -0.237 OA
ATOM     90  O   UNL A   1      42.820  38.830  34.138  1.00  0.00    -0.237 OA
ATOM     91  O   UNL A   1      42.571  36.478  34.830  1.00  0.00    -0.744 OA
ENDBRANCH  84  88
ENDBRANCH  58  81
ENDBRANCH  32  33
ENDBRANCH  24  27
ENDBRANCH  22  23
ENDBRANCH   1  22
TORSDOF 15
ENDMDL
