MODEL 1
REMARK VINA RESULT:     -11.8      0.000      0.000
REMARK SMILES O=C(NCCCCNC(=O)[C@@H]1C[C@@H](O)CN1C(=O)c1ccccc1)c1ccc(-c2c3nc(c(-c4cc(S(=O)(=O)[O-])ccc4F)c4ccc([nH]4)c(-c4cc(S(=O)(=O)[O-])ccc4F)c4nc(c(-c5cc(S(=O)(=O)[O-])ccc5F)c5ccc2[nH]5)C=C4)C=C3)cc1
REMARK SMILES IDX 5 1 4 2 3 3 1 4 2 5 25 7 26 8 87 9 27 10 86 11 28 12 29 13
REMARK SMILES IDX 30 14 80 15 31 16 85 17 79 18 81 19 32 20 84 21 78 22 77 23
REMARK SMILES IDX 33 25 65 26 45 27 64 28 46 29 49 30 63 31 82 32 47 33 48 34
REMARK SMILES IDX 62 36 83 37 50 38 34 39 35 40 43 41 36 42 42 43 44 44 41 45
REMARK SMILES IDX 37 46 38 47 39 48 40 49 66 50 67 51 75 52 68 53 74 54 76 55
REMARK SMILES IDX 73 56 69 57 70 58 71 59 72 60 51 61 52 62 60 63 53 64 59 65
REMARK SMILES IDX 61 66 58 67 54 68 55 69 56 70 57 71 6 72 7 73 8 74 9 75
REMARK SMILES IDX 10 77 11 78 12 79 16 80 13 81 15 82 17 83 18 84 19 85 20 86
REMARK SMILES IDX 24 87 21 88 23 89 22 90 14 91
REMARK H PARENT 3 6 81 24 49 35 8 76 14 92
REMARK Flexibility Score: inf
ROOT
ATOM      1  C   UNL A   1      31.403  32.083  26.871  1.00  0.00     0.023 C 
ENDROOT
BRANCH   1   2
ATOM      2  C   UNL A   1      32.762  32.762  27.018  1.00  0.00     0.116 C 
BRANCH   2   3
ATOM      3  N   UNL A   1      32.678  34.077  27.645  1.00  0.00    -0.352 N 
ATOM      4  O   UNL A   1      33.057  35.684  29.179  1.00  0.00    -0.269 OA
ATOM      5  C   UNL A   1      33.378  34.602  28.709  1.00  0.00     0.251 C 
ATOM      6  H   UNL A   1      32.014  34.685  27.244  1.00  0.00     0.163 HD
BRANCH   5   7
ATOM      7  C   UNL A   1      34.505  33.842  29.298  1.00  0.00     0.039 A 
ATOM      8  C   UNL A   1      34.267  32.758  30.144  1.00  0.00     0.014 A 
ATOM      9  C   UNL A   1      35.818  34.222  28.999  1.00  0.00     0.014 A 
ATOM     10  C   UNL A   1      35.327  32.170  30.826  1.00  0.00     0.010 A 
ATOM     11  C   UNL A   1      36.888  33.567  29.618  1.00  0.00     0.010 A 
ATOM     12  C   UNL A   1      36.650  32.567  30.574  1.00  0.00    -0.014 A 
BRANCH  12  13
ATOM     13  C   UNL A   1      37.762  31.911  31.312  1.00  0.00     0.031 A 
ATOM     14  C   UNL A   1      38.605  30.850  30.656  1.00  0.00     0.074 A 
ATOM     15  C   UNL A   1      38.036  32.310  32.569  1.00  0.00     0.049 A 
ATOM     16  N   UNL A   1      39.629  30.191  31.139  1.00  0.00    -0.248 NA
ATOM     17  C   UNL A   1      38.242  30.470  29.284  1.00  0.00     0.031 C 
ATOM     18  C   UNL A   1      37.288  33.330  33.307  1.00  0.00     0.029 A 
ATOM     19  N   UNL A   1      39.025  31.929  33.437  1.00  0.00    -0.354 N 
ATOM     20  C   UNL A   1      40.022  29.305  30.141  1.00  0.00     0.074 A 
ATOM     21  C   UNL A   1      39.097  29.487  29.041  1.00  0.00     0.031 C 
ATOM     22  C   UNL A   1      37.877  33.532  34.495  1.00  0.00     0.029 A 
ATOM     23  C   UNL A   1      39.001  32.613  34.630  1.00  0.00     0.049 A 
ATOM     24  H   UNL A   1      39.688  31.233  33.228  1.00  0.00     0.167 HD
ATOM     25  C   UNL A   1      41.059  28.429  30.140  1.00  0.00     0.034 A 
ATOM     26  C   UNL A   1      39.786  32.506  35.719  1.00  0.00     0.034 A 
ATOM     27  C   UNL A   1      41.977  28.268  31.247  1.00  0.00     0.049 A 
ATOM     28  C   UNL A   1      40.908  31.506  35.708  1.00  0.00     0.074 A 
ATOM     29  C   UNL A   1      43.082  27.439  31.339  1.00  0.00     0.029 A 
ATOM     30  N   UNL A   1      41.889  28.942  32.459  1.00  0.00    -0.354 N 
ATOM     31  N   UNL A   1      41.273  30.683  34.753  1.00  0.00    -0.248 NA
ATOM     32  C   UNL A   1      41.726  31.424  36.924  1.00  0.00     0.031 C 
ATOM     33  C   UNL A   1      43.621  27.564  32.627  1.00  0.00     0.029 A 
ATOM     34  C   UNL A   1      42.899  28.525  33.315  1.00  0.00     0.049 A 
ATOM     35  H   UNL A   1      41.209  29.619  32.679  1.00  0.00     0.167 HD
ATOM     36  C   UNL A   1      42.378  29.998  35.246  1.00  0.00     0.074 A 
ATOM     37  C   UNL A   1      42.627  30.517  36.577  1.00  0.00     0.031 C 
ATOM     38  C   UNL A   1      43.123  29.032  34.650  1.00  0.00     0.034 A 
BRANCH  25  39
ATOM     39  C   UNL A   1      41.220  27.544  28.923  1.00  0.00     0.023 A 
ATOM     40  C   UNL A   1      42.236  27.758  27.975  1.00  0.00     0.031 A 
ATOM     41  C   UNL A   1      40.312  26.496  28.685  1.00  0.00     0.131 A 
ATOM     42  C   UNL A   1      42.268  26.995  26.796  1.00  0.00     0.055 A 
ATOM     43  C   UNL A   1      40.401  25.685  27.550  1.00  0.00     0.041 A 
ATOM     44  F   UNL A   1      39.308  26.252  29.543  1.00  0.00    -0.206 F 
ATOM     45  C   UNL A   1      41.372  25.945  26.589  1.00  0.00     0.022 A 
BRANCH  42  46
ATOM     46  S   UNL A   1      43.392  27.504  25.465  1.00  0.00     0.124 S 
ATOM     47  O   UNL A   1      44.100  28.622  26.084  1.00  0.00    -0.237 OA
ATOM     48  O   UNL A   1      44.177  26.297  25.237  1.00  0.00    -0.237 OA
ATOM     49  O   UNL A   1      42.490  27.877  24.378  1.00  0.00    -0.744 OA
ENDBRANCH  42  46
ENDBRANCH  25  39
BRANCH  26  50
ATOM     50  C   UNL A   1      39.523  33.358  36.911  1.00  0.00     0.023 A 
ATOM     51  C   UNL A   1      38.833  32.853  38.023  1.00  0.00     0.031 A 
ATOM     52  C   UNL A   1      39.962  34.694  36.952  1.00  0.00     0.131 A 
ATOM     53  C   UNL A   1      38.579  33.687  39.122  1.00  0.00     0.055 A 
ATOM     54  C   UNL A   1      39.747  35.505  38.066  1.00  0.00     0.041 A 
ATOM     55  F   UNL A   1      40.635  35.219  35.916  1.00  0.00    -0.206 F 
ATOM     56  C   UNL A   1      39.044  35.005  39.157  1.00  0.00     0.022 A 
BRANCH  53  57
ATOM     57  S   UNL A   1      37.586  33.040  40.494  1.00  0.00     0.124 S 
ATOM     58  O   UNL A   1      37.742  34.087  41.496  1.00  0.00    -0.237 OA
ATOM     59  O   UNL A   1      36.263  32.927  39.885  1.00  0.00    -0.237 OA
ATOM     60  O   UNL A   1      38.231  31.768  40.811  1.00  0.00    -0.744 OA
ENDBRANCH  53  57
ENDBRANCH  26  50
BRANCH  38  61
ATOM     61  C   UNL A   1      44.302  28.509  35.432  1.00  0.00     0.023 A 
ATOM     62  C   UNL A   1      44.167  27.468  36.369  1.00  0.00     0.031 A 
ATOM     63  C   UNL A   1      45.574  29.084  35.261  1.00  0.00     0.131 A 
ATOM     64  C   UNL A   1      45.269  27.077  37.142  1.00  0.00     0.055 A 
ATOM     65  C   UNL A   1      46.680  28.652  35.993  1.00  0.00     0.041 A 
ATOM     66  F   UNL A   1      45.758  30.084  34.384  1.00  0.00    -0.206 F 
ATOM     67  C   UNL A   1      46.528  27.653  36.950  1.00  0.00     0.022 A 
BRANCH  64  68
ATOM     68  S   UNL A   1      45.017  25.873  38.475  1.00  0.00     0.124 S 
ATOM     69  O   UNL A   1      44.228  26.642  39.433  1.00  0.00    -0.237 OA
ATOM     70  O   UNL A   1      44.314  24.793  37.792  1.00  0.00    -0.237 OA
ATOM     71  O   UNL A   1      46.375  25.551  38.909  1.00  0.00    -0.744 OA
ENDBRANCH  64  68
ENDBRANCH  38  61
ENDBRANCH  12  13
ENDBRANCH   5   7
ENDBRANCH   2   3
ENDBRANCH   1   2
BRANCH   1  72
ATOM     72  C   UNL A   1      31.356  30.904  25.902  1.00  0.00     0.023 C 
BRANCH  72  73
ATOM     73  C   UNL A   1      31.895  29.587  26.446  1.00  0.00     0.116 C 
BRANCH  73  74
ATOM     74  N   UNL A   1      32.895  28.956  25.600  1.00  0.00    -0.354 N 
ATOM     75  C   UNL A   1      32.760  27.778  24.900  1.00  0.00     0.242 C 
ATOM     76  H   UNL A   1      33.760  29.420  25.520  1.00  0.00     0.163 HD
ATOM     77  O   UNL A   1      33.634  27.445  24.098  1.00  0.00    -0.273 OA
BRANCH  75  78
ATOM     78  C   UNL A   1      31.489  26.936  25.136  1.00  0.00     0.177 C 
ATOM     79  C   UNL A   1      31.855  25.637  25.874  1.00  0.00     0.069 C 
ATOM     80  N   UNL A   1      30.759  26.453  23.957  1.00  0.00    -0.324 N 
ATOM     81  C   UNL A   1      30.660  24.738  25.595  1.00  0.00     0.136 C 
ATOM     82  C   UNL A   1      30.283  25.085  24.151  1.00  0.00     0.152 C 
BRANCH  80  83
ATOM     83  C   UNL A   1      30.492  27.285  22.887  1.00  0.00     0.254 C 
ATOM     84  O   UNL A   1      31.020  27.174  21.785  1.00  0.00    -0.269 OA
BRANCH  83  85
ATOM     85  C   UNL A   1      29.537  28.392  23.044  1.00  0.00     0.040 A 
ATOM     86  C   UNL A   1      28.174  28.102  23.160  1.00  0.00     0.014 A 
ATOM     87  C   UNL A   1      29.971  29.710  22.869  1.00  0.00     0.014 A 
ATOM     88  C   UNL A   1      27.244  29.141  23.130  1.00  0.00     0.001 A 
ATOM     89  C   UNL A   1      29.037  30.745  22.841  1.00  0.00     0.001 A 
ATOM     90  C   UNL A   1      27.676  30.460  22.970  1.00  0.00     0.000 A 
ENDBRANCH  83  85
ENDBRANCH  80  83
BRANCH  81  91
ATOM     91  O   UNL A   1      29.597  25.046  26.501  1.00  0.00    -0.391 OA
ATOM     92  H   UNL A   1      28.749  24.799  26.100  1.00  0.00     0.211 HD
ENDBRANCH  81  91
ENDBRANCH  75  78
ENDBRANCH  73  74
ENDBRANCH  72  73
ENDBRANCH   1  72
TORSDOF 17
ENDMDL
MODEL 2
REMARK VINA RESULT:     -11.7      2.596      8.024
REMARK SMILES O=C(NCCCCNC(=O)[C@@H]1C[C@@H](O)CN1C(=O)c1ccccc1)c1ccc(-c2c3nc(c(-c4cc(S(=O)(=O)[O-])ccc4F)c4ccc([nH]4)c(-c4cc(S(=O)(=O)[O-])ccc4F)c4nc(c(-c5cc(S(=O)(=O)[O-])ccc5F)c5ccc2[nH]5)C=C4)C=C3)cc1
REMARK SMILES IDX 5 1 4 2 3 3 1 4 2 5 25 7 26 8 87 9 27 10 86 11 28 12 29 13
REMARK SMILES IDX 30 14 80 15 31 16 85 17 79 18 81 19 32 20 84 21 78 22 77 23
REMARK SMILES IDX 33 25 65 26 45 27 64 28 46 29 49 30 63 31 82 32 47 33 48 34
REMARK SMILES IDX 62 36 83 37 50 38 34 39 35 40 43 41 36 42 42 43 44 44 41 45
REMARK SMILES IDX 37 46 38 47 39 48 40 49 66 50 67 51 75 52 68 53 74 54 76 55
REMARK SMILES IDX 73 56 69 57 70 58 71 59 72 60 51 61 52 62 60 63 53 64 59 65
REMARK SMILES IDX 61 66 58 67 54 68 55 69 56 70 57 71 6 72 7 73 8 74 9 75
REMARK SMILES IDX 10 77 11 78 12 79 16 80 13 81 15 82 17 83 18 84 19 85 20 86
REMARK SMILES IDX 24 87 21 88 23 89 22 90 14 91
REMARK H PARENT 3 6 81 24 49 35 8 76 14 92
REMARK Flexibility Score: inf
ROOT
ATOM      1  C   UNL A   1      31.901  28.678  26.237  1.00  0.00     0.023 C 
ENDROOT
BRANCH   1   2
ATOM      2  C   UNL A   1      32.896  29.741  25.781  1.00  0.00     0.116 C 
BRANCH   2   3
ATOM      3  N   UNL A   1      32.567  31.077  26.267  1.00  0.00    -0.352 N 
ATOM      4  O   UNL A   1      32.660  32.893  27.598  1.00  0.00    -0.269 OA
ATOM      5  C   UNL A   1      33.179  31.849  27.230  1.00  0.00     0.251 C 
ATOM      6  H   UNL A   1      31.783  31.492  25.839  1.00  0.00     0.163 HD
BRANCH   5   7
ATOM      7  C   UNL A   1      34.454  31.400  27.837  1.00  0.00     0.039 A 
ATOM      8  C   UNL A   1      34.620  30.075  28.243  1.00  0.00     0.014 A 
ATOM      9  C   UNL A   1      35.496  32.319  28.000  1.00  0.00     0.014 A 
ATOM     10  C   UNL A   1      35.751  29.714  28.968  1.00  0.00     0.010 A 
ATOM     11  C   UNL A   1      36.670  31.927  28.651  1.00  0.00     0.010 A 
ATOM     12  C   UNL A   1      36.789  30.634  29.184  1.00  0.00    -0.014 A 
BRANCH  12  13
ATOM     13  C   UNL A   1      37.989  30.213  29.954  1.00  0.00     0.031 A 
ATOM     14  C   UNL A   1      38.201  30.675  31.371  1.00  0.00     0.074 A 
ATOM     15  C   UNL A   1      38.870  29.370  29.380  1.00  0.00     0.049 A 
ATOM     16  N   UNL A   1      39.174  30.387  32.198  1.00  0.00    -0.248 NA
ATOM     17  C   UNL A   1      37.196  31.592  31.925  1.00  0.00     0.031 C 
ATOM     18  C   UNL A   1      38.769  28.855  28.013  1.00  0.00     0.029 A 
ATOM     19  N   UNL A   1      40.005  28.782  29.874  1.00  0.00    -0.354 N 
ATOM     20  C   UNL A   1      38.912  31.100  33.364  1.00  0.00     0.074 A 
ATOM     21  C   UNL A   1      37.707  31.865  33.117  1.00  0.00     0.031 C 
ATOM     22  C   UNL A   1      39.768  27.987  27.797  1.00  0.00     0.029 A 
ATOM     23  C   UNL A   1      40.616  27.933  28.982  1.00  0.00     0.049 A 
ATOM     24  H   UNL A   1      40.350  28.952  30.781  1.00  0.00     0.167 HD
ATOM     25  C   UNL A   1      39.606  31.109  34.531  1.00  0.00     0.034 A 
ATOM     26  C   UNL A   1      41.741  27.202  29.097  1.00  0.00     0.034 A 
ATOM     27  C   UNL A   1      40.804  30.332  34.761  1.00  0.00     0.049 A 
ATOM     28  C   UNL A   1      42.512  27.254  30.386  1.00  0.00     0.074 A 
ATOM     29  C   UNL A   1      41.565  30.237  35.913  1.00  0.00     0.029 A 
ATOM     30  N   UNL A   1      41.422  29.522  33.815  1.00  0.00    -0.354 N 
ATOM     31  N   UNL A   1      42.244  27.925  31.481  1.00  0.00    -0.248 NA
ATOM     32  C   UNL A   1      43.735  26.446  30.452  1.00  0.00     0.031 C 
ATOM     33  C   UNL A   1      42.675  29.426  35.644  1.00  0.00     0.029 A 
ATOM     34  C   UNL A   1      42.570  28.953  34.347  1.00  0.00     0.049 A 
ATOM     35  H   UNL A   1      41.093  29.374  32.899  1.00  0.00     0.167 HD
ATOM     36  C   UNL A   1      43.259  27.604  32.377  1.00  0.00     0.074 A 
ATOM     37  C   UNL A   1      44.131  26.666  31.697  1.00  0.00     0.031 C 
ATOM     38  C   UNL A   1      43.447  28.038  33.650  1.00  0.00     0.034 A 
BRANCH  25  39
ATOM     39  C   UNL A   1      39.112  32.030  35.625  1.00  0.00     0.023 A 
ATOM     40  C   UNL A   1      39.549  33.363  35.732  1.00  0.00     0.031 A 
ATOM     41  C   UNL A   1      38.222  31.553  36.605  1.00  0.00     0.131 A 
ATOM     42  C   UNL A   1      39.166  34.141  36.836  1.00  0.00     0.055 A 
ATOM     43  C   UNL A   1      37.778  32.360  37.656  1.00  0.00     0.041 A 
ATOM     44  F   UNL A   1      37.782  30.285  36.570  1.00  0.00    -0.206 F 
ATOM     45  C   UNL A   1      38.265  33.656  37.786  1.00  0.00     0.022 A 
BRANCH  42  46
ATOM     46  S   UNL A   1      39.993  35.735  37.102  1.00  0.00     0.124 S 
ATOM     47  O   UNL A   1      39.654  36.454  35.877  1.00  0.00    -0.237 OA
ATOM     48  O   UNL A   1      39.359  36.219  38.323  1.00  0.00    -0.237 OA
ATOM     49  O   UNL A   1      41.402  35.373  37.231  1.00  0.00    -0.744 OA
ENDBRANCH  42  46
ENDBRANCH  25  39
BRANCH  26  50
ATOM     50  C   UNL A   1      42.209  26.376  27.950  1.00  0.00     0.023 A 
ATOM     51  C   UNL A   1      41.822  25.034  27.819  1.00  0.00     0.031 A 
ATOM     52  C   UNL A   1      43.052  26.922  26.966  1.00  0.00     0.131 A 
ATOM     53  C   UNL A   1      42.299  24.274  26.741  1.00  0.00     0.055 A 
ATOM     54  C   UNL A   1      43.487  26.176  25.871  1.00  0.00     0.041 A 
ATOM     55  F   UNL A   1      43.443  28.205  27.043  1.00  0.00    -0.206 F 
ATOM     56  C   UNL A   1      43.116  24.840  25.759  1.00  0.00     0.022 A 
BRANCH  53  57
ATOM     57  S   UNL A   1      41.875  22.513  26.663  1.00  0.00     0.124 S 
ATOM     58  O   UNL A   1      40.430  22.545  26.859  1.00  0.00    -0.237 OA
ATOM     59  O   UNL A   1      42.332  22.148  25.326  1.00  0.00    -0.237 OA
ATOM     60  O   UNL A   1      42.642  21.928  27.760  1.00  0.00    -0.744 OA
ENDBRANCH  53  57
ENDBRANCH  26  50
BRANCH  38  61
ATOM     61  C   UNL A   1      44.629  27.465  34.393  1.00  0.00     0.023 A 
ATOM     62  C   UNL A   1      44.517  26.305  35.180  1.00  0.00     0.031 A 
ATOM     63  C   UNL A   1      45.876  28.111  34.338  1.00  0.00     0.131 A 
ATOM     64  C   UNL A   1      45.616  25.861  35.930  1.00  0.00     0.055 A 
ATOM     65  C   UNL A   1      46.982  27.632  35.041  1.00  0.00     0.041 A 
ATOM     66  F   UNL A   1      46.037  29.224  33.606  1.00  0.00    -0.206 F 
ATOM     67  C   UNL A   1      46.852  26.510  35.854  1.00  0.00     0.022 A 
BRANCH  64  68
ATOM     68  S   UNL A   1      45.385  24.483  37.085  1.00  0.00     0.124 S 
ATOM     69  O   UNL A   1      46.747  24.244  37.551  1.00  0.00    -0.237 OA
ATOM     70  O   UNL A   1      44.466  25.048  38.067  1.00  0.00    -0.237 OA
ATOM     71  O   UNL A   1      44.822  23.424  36.249  1.00  0.00    -0.744 OA
ENDBRANCH  64  68
ENDBRANCH  38  61
ENDBRANCH  12  13
ENDBRANCH   5   7
ENDBRANCH   2   3
ENDBRANCH   1   2
BRANCH   1  72
ATOM     72  C   UNL A   1      32.508  27.456  26.922  1.00  0.00     0.023 C 
BRANCH  72  73
ATOM     73  C   UNL A   1      32.558  26.189  26.078  1.00  0.00     0.116 C 
BRANCH  73  74
ATOM     74  N   UNL A   1      33.903  25.728  25.771  1.00  0.00    -0.354 N 
ATOM     75  C   UNL A   1      34.254  24.525  25.203  1.00  0.00     0.242 C 
ATOM     76  H   UNL A   1      34.640  26.343  25.993  1.00  0.00     0.163 HD
ATOM     77  O   UNL A   1      35.420  24.334  24.855  1.00  0.00    -0.273 OA
BRANCH  75  78
ATOM     78  C   UNL A   1      33.148  23.468  25.001  1.00  0.00     0.177 C 
ATOM     79  C   UNL A   1      33.587  22.130  25.619  1.00  0.00     0.069 C 
ATOM     80  N   UNL A   1      32.798  23.098  23.624  1.00  0.00    -0.324 N 
ATOM     81  C   UNL A   1      32.677  21.122  24.934  1.00  0.00     0.136 C 
ATOM     82  C   UNL A   1      32.563  21.660  23.504  1.00  0.00     0.152 C 
BRANCH  80  83
ATOM     83  C   UNL A   1      32.616  24.057  22.646  1.00  0.00     0.254 C 
ATOM     84  O   UNL A   1      33.273  24.115  21.612  1.00  0.00    -0.269 OA
BRANCH  83  85
ATOM     85  C   UNL A   1      31.593  25.099  22.829  1.00  0.00     0.040 A 
ATOM     86  C   UNL A   1      31.896  26.417  22.474  1.00  0.00     0.014 A 
ATOM     87  C   UNL A   1      30.425  24.805  23.539  1.00  0.00     0.014 A 
ATOM     88  C   UNL A   1      31.008  27.441  22.805  1.00  0.00     0.001 A 
ATOM     89  C   UNL A   1      29.541  25.831  23.867  1.00  0.00     0.001 A 
ATOM     90  C   UNL A   1      29.833  27.147  23.501  1.00  0.00     0.000 A 
ENDBRANCH  83  85
ENDBRANCH  80  83
BRANCH  81  91
ATOM     91  O   UNL A   1      31.403  21.095  25.585  1.00  0.00    -0.391 OA
ATOM     92  H   UNL A   1      31.325  20.281  26.108  1.00  0.00     0.211 HD
ENDBRANCH  81  91
ENDBRANCH  75  78
ENDBRANCH  73  74
ENDBRANCH  72  73
ENDBRANCH   1  72
TORSDOF 17
ENDMDL
MODEL 3
REMARK VINA RESULT:     -11.6      5.745     10.981
REMARK SMILES O=C(NCCCCNC(=O)[C@@H]1C[C@@H](O)CN1C(=O)c1ccccc1)c1ccc(-c2c3nc(c(-c4cc(S(=O)(=O)[O-])ccc4F)c4ccc([nH]4)c(-c4cc(S(=O)(=O)[O-])ccc4F)c4nc(c(-c5cc(S(=O)(=O)[O-])ccc5F)c5ccc2[nH]5)C=C4)C=C3)cc1
REMARK SMILES IDX 5 1 4 2 3 3 1 4 2 5 25 7 26 8 87 9 27 10 86 11 28 12 29 13
REMARK SMILES IDX 30 14 80 15 31 16 85 17 79 18 81 19 32 20 84 21 78 22 77 23
REMARK SMILES IDX 33 25 65 26 45 27 64 28 46 29 49 30 63 31 82 32 47 33 48 34
REMARK SMILES IDX 62 36 83 37 50 38 34 39 35 40 43 41 36 42 42 43 44 44 41 45
REMARK SMILES IDX 37 46 38 47 39 48 40 49 66 50 67 51 75 52 68 53 74 54 76 55
REMARK SMILES IDX 73 56 69 57 70 58 71 59 72 60 51 61 52 62 60 63 53 64 59 65
REMARK SMILES IDX 61 66 58 67 54 68 55 69 56 70 57 71 6 72 7 73 8 74 9 75
REMARK SMILES IDX 10 77 11 78 12 79 16 80 13 81 15 82 17 83 18 84 19 85 20 86
REMARK SMILES IDX 24 87 21 88 23 89 22 90 14 91
REMARK H PARENT 3 6 81 24 49 35 8 76 14 92
REMARK Flexibility Score: inf
ROOT
ATOM      1  C   UNL A   1      35.814  21.917  24.413  1.00  0.00     0.023 C 
ENDROOT
BRANCH   1   2
ATOM      2  C   UNL A   1      36.484  21.754  25.775  1.00  0.00     0.116 C 
BRANCH   2   3
ATOM      3  N   UNL A   1      37.551  20.759  25.771  1.00  0.00    -0.352 N 
ATOM      4  O   UNL A   1      39.658  19.961  25.783  1.00  0.00    -0.269 OA
ATOM      5  C   UNL A   1      38.906  20.906  25.971  1.00  0.00     0.251 C 
ATOM      6  H   UNL A   1      37.255  19.836  25.597  1.00  0.00     0.163 HD
BRANCH   5   7
ATOM      7  C   UNL A   1      39.452  22.218  26.390  1.00  0.00     0.039 A 
ATOM      8  C   UNL A   1      38.928  23.404  25.875  1.00  0.00     0.014 A 
ATOM      9  C   UNL A   1      40.504  22.259  27.312  1.00  0.00     0.014 A 
ATOM     10  C   UNL A   1      39.565  24.612  26.141  1.00  0.00     0.010 A 
ATOM     11  C   UNL A   1      41.085  23.486  27.647  1.00  0.00     0.010 A 
ATOM     12  C   UNL A   1      40.652  24.669  27.028  1.00  0.00    -0.014 A 
BRANCH  12  13
ATOM     13  C   UNL A   1      41.304  25.978  27.299  1.00  0.00     0.031 A 
ATOM     14  C   UNL A   1      40.626  27.018  28.150  1.00  0.00     0.074 A 
ATOM     15  C   UNL A   1      42.537  26.207  26.807  1.00  0.00     0.049 A 
ATOM     16  N   UNL A   1      41.057  28.201  28.511  1.00  0.00    -0.248 NA
ATOM     17  C   UNL A   1      39.283  26.693  28.650  1.00  0.00     0.031 C 
ATOM     18  C   UNL A   1      43.292  25.273  25.969  1.00  0.00     0.029 A 
ATOM     19  N   UNL A   1      43.379  27.277  26.955  1.00  0.00    -0.354 N 
ATOM     20  C   UNL A   1      40.034  28.770  29.263  1.00  0.00     0.074 A 
ATOM     21  C   UNL A   1      38.946  27.814  29.270  1.00  0.00     0.031 C 
ATOM     22  C   UNL A   1      44.506  25.788  25.723  1.00  0.00     0.029 A 
ATOM     23  C   UNL A   1      44.592  27.113  26.327  1.00  0.00     0.049 A 
ATOM     24  H   UNL A   1      43.139  28.087  27.461  1.00  0.00     0.167 HD
ATOM     25  C   UNL A   1      40.009  29.973  29.893  1.00  0.00     0.034 A 
ATOM     26  C   UNL A   1      45.651  27.938  26.235  1.00  0.00     0.034 A 
ATOM     27  C   UNL A   1      41.109  30.911  29.880  1.00  0.00     0.049 A 
ATOM     28  C   UNL A   1      45.588  29.279  26.912  1.00  0.00     0.074 A 
ATOM     29  C   UNL A   1      41.206  32.139  30.513  1.00  0.00     0.029 A 
ATOM     30  N   UNL A   1      42.303  30.731  29.190  1.00  0.00    -0.354 N 
ATOM     31  N   UNL A   1      44.617  29.797  27.627  1.00  0.00    -0.248 NA
ATOM     32  C   UNL A   1      46.766  30.142  26.770  1.00  0.00     0.031 C 
ATOM     33  C   UNL A   1      42.425  32.728  30.152  1.00  0.00     0.029 A 
ATOM     34  C   UNL A   1      43.125  31.836  29.355  1.00  0.00     0.049 A 
ATOM     35  H   UNL A   1      42.532  29.933  28.661  1.00  0.00     0.167 HD
ATOM     36  C   UNL A   1      45.077  31.044  28.038  1.00  0.00     0.074 A 
ATOM     37  C   UNL A   1      46.417  31.189  27.504  1.00  0.00     0.031 C 
ATOM     38  C   UNL A   1      44.450  31.981  28.796  1.00  0.00     0.034 A 
BRANCH  25  39
ATOM     39  C   UNL A   1      38.728  30.358  30.602  1.00  0.00     0.023 A 
ATOM     40  C   UNL A   1      37.667  30.991  29.931  1.00  0.00     0.031 A 
ATOM     41  C   UNL A   1      38.586  30.128  31.982  1.00  0.00     0.131 A 
ATOM     42  C   UNL A   1      36.552  31.447  30.654  1.00  0.00     0.055 A 
ATOM     43  C   UNL A   1      37.438  30.509  32.681  1.00  0.00     0.041 A 
ATOM     44  F   UNL A   1      39.572  29.545  32.684  1.00  0.00    -0.206 F 
ATOM     45  C   UNL A   1      36.420  31.190  32.020  1.00  0.00     0.022 A 
BRANCH  42  46
ATOM     46  S   UNL A   1      35.358  32.527  29.815  1.00  0.00     0.124 S 
ATOM     47  O   UNL A   1      34.959  31.702  28.678  1.00  0.00    -0.237 OA
ATOM     48  O   UNL A   1      34.345  32.733  30.843  1.00  0.00    -0.237 OA
ATOM     49  O   UNL A   1      36.147  33.707  29.470  1.00  0.00    -0.744 OA
ENDBRANCH  42  46
ENDBRANCH  25  39
BRANCH  26  50
ATOM     50  C   UNL A   1      46.850  27.523  25.456  1.00  0.00     0.023 A 
ATOM     51  C   UNL A   1      46.993  27.875  24.105  1.00  0.00     0.031 A 
ATOM     52  C   UNL A   1      47.873  26.768  26.057  1.00  0.00     0.131 A 
ATOM     53  C   UNL A   1      48.123  27.448  23.391  1.00  0.00     0.055 A 
ATOM     54  C   UNL A   1      49.016  26.386  25.356  1.00  0.00     0.041 A 
ATOM     55  F   UNL A   1      47.786  26.415  27.350  1.00  0.00    -0.206 F 
ATOM     56  C   UNL A   1      49.142  26.719  24.011  1.00  0.00     0.022 A 
BRANCH  53  57
ATOM     57  S   UNL A   1      48.223  27.820  21.619  1.00  0.00     0.124 S 
ATOM     58  O   UNL A   1      46.893  28.354  21.351  1.00  0.00    -0.237 OA
ATOM     59  O   UNL A   1      49.322  28.779  21.570  1.00  0.00    -0.237 OA
ATOM     60  O   UNL A   1      48.508  26.520  21.015  1.00  0.00    -0.744 OA
ENDBRANCH  53  57
ENDBRANCH  26  50
BRANCH  38  61
ATOM     61  C   UNL A   1      45.236  33.228  29.116  1.00  0.00     0.023 A 
ATOM     62  C   UNL A   1      45.161  34.378  28.311  1.00  0.00     0.031 A 
ATOM     63  C   UNL A   1      46.101  33.252  30.225  1.00  0.00     0.131 A 
ATOM     64  C   UNL A   1      45.980  35.482  28.590  1.00  0.00     0.055 A 
ATOM     65  C   UNL A   1      46.871  34.373  30.532  1.00  0.00     0.041 A 
ATOM     66  F   UNL A   1      46.215  32.179  31.025  1.00  0.00    -0.206 F 
ATOM     67  C   UNL A   1      46.824  35.492  29.704  1.00  0.00     0.022 A 
BRANCH  64  68
ATOM     68  S   UNL A   1      46.004  36.869  27.422  1.00  0.00     0.124 S 
ATOM     69  O   UNL A   1      46.648  37.917  28.207  1.00  0.00    -0.237 OA
ATOM     70  O   UNL A   1      46.786  36.331  26.314  1.00  0.00    -0.237 OA
ATOM     71  O   UNL A   1      44.590  37.095  27.128  1.00  0.00    -0.744 OA
ENDBRANCH  64  68
ENDBRANCH  38  61
ENDBRANCH  12  13
ENDBRANCH   5   7
ENDBRANCH   2   3
ENDBRANCH   1   2
BRANCH   1  72
ATOM     72  C   UNL A   1      36.025  23.266  23.730  1.00  0.00     0.023 C 
BRANCH  72  73
ATOM     73  C   UNL A   1      34.806  24.178  23.688  1.00  0.00     0.116 C 
BRANCH  73  74
ATOM     74  N   UNL A   1      34.735  25.131  24.784  1.00  0.00    -0.354 N 
ATOM     75  C   UNL A   1      33.700  25.996  25.060  1.00  0.00     0.242 C 
ATOM     76  H   UNL A   1      35.509  25.160  25.392  1.00  0.00     0.163 HD
ATOM     77  O   UNL A   1      33.707  26.635  26.113  1.00  0.00    -0.273 OA
BRANCH  75  78
ATOM     78  C   UNL A   1      32.551  26.102  24.036  1.00  0.00     0.177 C 
ATOM     79  C   UNL A   1      32.387  27.564  23.588  1.00  0.00     0.069 C 
ATOM     80  N   UNL A   1      31.200  25.739  24.482  1.00  0.00    -0.324 N 
ATOM     81  C   UNL A   1      30.980  27.590  23.011  1.00  0.00     0.136 C 
ATOM     82  C   UNL A   1      30.198  26.656  23.941  1.00  0.00     0.152 C 
BRANCH  80  83
ATOM     83  C   UNL A   1      30.971  24.594  25.220  1.00  0.00     0.254 C 
ATOM     84  O   UNL A   1      30.488  24.590  26.348  1.00  0.00    -0.269 OA
BRANCH  83  85
ATOM     85  C   UNL A   1      31.330  23.282  24.660  1.00  0.00     0.040 A 
ATOM     86  C   UNL A   1      31.713  22.255  25.527  1.00  0.00     0.014 A 
ATOM     87  C   UNL A   1      31.485  23.139  23.277  1.00  0.00     0.014 A 
ATOM     88  C   UNL A   1      32.226  21.067  25.005  1.00  0.00     0.001 A 
ATOM     89  C   UNL A   1      31.997  21.950  22.760  1.00  0.00     0.001 A 
ATOM     90  C   UNL A   1      32.368  20.917  23.623  1.00  0.00     0.000 A 
ENDBRANCH  83  85
ENDBRANCH  80  83
BRANCH  81  91
ATOM     91  O   UNL A   1      30.995  27.097  21.668  1.00  0.00    -0.391 OA
ATOM     92  H   UNL A   1      31.746  27.483  21.191  1.00  0.00     0.211 HD
ENDBRANCH  81  91
ENDBRANCH  75  78
ENDBRANCH  73  74
ENDBRANCH  72  73
ENDBRANCH   1  72
TORSDOF 17
ENDMDL
