MODEL 1
REMARK VINA RESULT:     -12.9      0.000      0.000
REMARK SMILES O=C(NCCCCNC(=O)[C@@H]1CCCN1S(=O)(=O)c1ccc2c3c(cccc13)C(=O)N2)c1ccc(-c2c3nc(c(-c4cc(S(=O)(=O)[O-])ccc4F)c4ccc([nH]4)c(-c4cc(S(=O)(=O)[O-])ccc4F)c4nc(c(-c5cc(S(=O)(=O)[O-])ccc5F)c5ccc2[nH]5)C=C4)C=C3)cc1
REMARK SMILES IDX 5 1 4 2 3 3 1 4 2 5 32 7 33 8 94 9 34 10 93 11 35 12 36 13
REMARK SMILES IDX 37 14 87 15 38 16 92 17 86 18 88 19 39 20 91 21 85 22 84 23
REMARK SMILES IDX 40 25 72 26 52 27 71 28 53 29 56 30 70 31 89 32 54 33 55 34
REMARK SMILES IDX 69 36 90 37 57 38 41 39 42 40 50 41 43 42 49 43 51 44 48 45
REMARK SMILES IDX 44 46 45 47 46 48 47 49 73 50 74 51 82 52 75 53 81 54 83 55
REMARK SMILES IDX 80 56 76 57 77 58 78 59 79 60 58 61 59 62 67 63 60 64 66 65
REMARK SMILES IDX 68 66 65 67 61 68 62 69 63 70 64 71 6 72 7 73 8 74 9 75
REMARK SMILES IDX 10 77 11 78 12 79 15 80 13 81 14 82 16 83 17 84 18 85 19 86
REMARK SMILES IDX 20 87 28 88 21 89 23 90 27 91 22 92 24 93 26 94 31 95 25 96
REMARK SMILES IDX 29 97 30 99
REMARK H PARENT 3 6 88 24 56 35 8 76 31 98
REMARK Flexibility Score: inf
ROOT
ATOM      1  C   UNL A   1      31.182  31.542  26.526  1.00  0.00     0.023 C 
ENDROOT
BRANCH   1   2
ATOM      2  C   UNL A   1      32.560  32.088  26.888  1.00  0.00     0.116 C 
BRANCH   2   3
ATOM      3  N   UNL A   1      32.493  33.495  27.240  1.00  0.00    -0.352 N 
ATOM      4  O   UNL A   1      32.837  35.284  28.563  1.00  0.00    -0.269 OA
ATOM      5  C   UNL A   1      33.197  34.166  28.208  1.00  0.00     0.251 C 
ATOM      6  H   UNL A   1      31.860  34.038  26.717  1.00  0.00     0.163 HD
BRANCH   5   7
ATOM      7  C   UNL A   1      34.376  33.520  28.818  1.00  0.00     0.039 A 
ATOM      8  C   UNL A   1      35.662  33.843  28.372  1.00  0.00     0.014 A 
ATOM      9  C   UNL A   1      34.192  32.591  29.843  1.00  0.00     0.014 A 
ATOM     10  C   UNL A   1      36.761  33.160  28.882  1.00  0.00     0.010 A 
ATOM     11  C   UNL A   1      35.303  31.946  30.392  1.00  0.00     0.010 A 
ATOM     12  C   UNL A   1      36.591  32.210  29.902  1.00  0.00    -0.014 A 
BRANCH  12  13
ATOM     13  C   UNL A   1      37.778  31.555  30.502  1.00  0.00     0.031 A 
ATOM     14  C   UNL A   1      38.525  30.483  29.765  1.00  0.00     0.074 A 
ATOM     15  C   UNL A   1      38.166  31.932  31.735  1.00  0.00     0.049 A 
ATOM     16  N   UNL A   1      39.566  29.798  30.159  1.00  0.00    -0.248 NA
ATOM     17  C   UNL A   1      38.051  30.132  28.416  1.00  0.00     0.031 C 
ATOM     18  C   UNL A   1      37.499  32.952  32.546  1.00  0.00     0.029 A 
ATOM     19  N   UNL A   1      39.199  31.497  32.528  1.00  0.00    -0.354 N 
ATOM     20  C   UNL A   1      39.869  28.931  29.117  1.00  0.00     0.074 A 
ATOM     21  C   UNL A   1      38.888  29.159  28.078  1.00  0.00     0.031 C 
ATOM     22  C   UNL A   1      38.136  33.062  33.721  1.00  0.00     0.029 A 
ATOM     23  C   UNL A   1      39.221  32.086  33.770  1.00  0.00     0.049 A 
ATOM     24  H   UNL A   1      39.859  30.827  32.235  1.00  0.00     0.167 HD
ATOM     25  C   UNL A   1      40.880  28.037  29.041  1.00  0.00     0.034 A 
ATOM     26  C   UNL A   1      40.001  31.848  34.845  1.00  0.00     0.034 A 
ATOM     27  C   UNL A   1      41.859  27.834  30.079  1.00  0.00     0.049 A 
ATOM     28  C   UNL A   1      41.103  30.830  34.738  1.00  0.00     0.074 A 
ATOM     29  C   UNL A   1      42.957  26.992  30.055  1.00  0.00     0.029 A 
ATOM     30  N   UNL A   1      41.860  28.457  31.316  1.00  0.00    -0.354 N 
ATOM     31  N   UNL A   1      41.435  30.089  33.708  1.00  0.00    -0.248 NA
ATOM     32  C   UNL A   1      41.940  30.615  35.926  1.00  0.00     0.031 C 
ATOM     33  C   UNL A   1      43.582  27.054  31.298  1.00  0.00     0.029 A 
ATOM     34  C   UNL A   1      42.918  27.990  32.076  1.00  0.00     0.049 A 
ATOM     35  H   UNL A   1      41.206  29.132  31.610  1.00  0.00     0.167 HD
ATOM     36  C   UNL A   1      42.529  29.334  34.118  1.00  0.00     0.074 A 
ATOM     37  C   UNL A   1      42.819  29.725  35.481  1.00  0.00     0.031 C 
ATOM     38  C   UNL A   1      43.221  28.398  33.425  1.00  0.00     0.034 A 
BRANCH  25  39
ATOM     39  C   UNL A   1      41.037  27.202  27.798  1.00  0.00     0.023 A 
ATOM     40  C   UNL A   1      40.752  25.824  27.847  1.00  0.00     0.031 A 
ATOM     41  C   UNL A   1      41.672  27.716  26.656  1.00  0.00     0.131 A 
ATOM     42  C   UNL A   1      41.164  24.994  26.798  1.00  0.00     0.055 A 
ATOM     43  C   UNL A   1      42.049  26.889  25.597  1.00  0.00     0.041 A 
ATOM     44  F   UNL A   1      41.961  29.025  26.567  1.00  0.00    -0.206 F 
ATOM     45  C   UNL A   1      41.812  25.518  25.675  1.00  0.00     0.022 A 
BRANCH  42  46
ATOM     46  S   UNL A   1      40.940  23.197  26.889  1.00  0.00     0.124 S 
ATOM     47  O   UNL A   1      41.780  22.731  25.788  1.00  0.00    -0.237 OA
ATOM     48  O   UNL A   1      41.442  22.896  28.227  1.00  0.00    -0.237 OA
ATOM     49  O   UNL A   1      39.506  23.013  26.692  1.00  0.00    -0.744 OA
ENDBRANCH  42  46
ENDBRANCH  25  39
BRANCH  26  50
ATOM     50  C   UNL A   1      39.744  32.605  36.101  1.00  0.00     0.023 A 
ATOM     51  C   UNL A   1      38.834  32.112  37.055  1.00  0.00     0.031 A 
ATOM     52  C   UNL A   1      40.320  33.866  36.323  1.00  0.00     0.131 A 
ATOM     53  C   UNL A   1      38.477  32.903  38.152  1.00  0.00     0.055 A 
ATOM     54  C   UNL A   1      40.011  34.624  37.454  1.00  0.00     0.041 A 
ATOM     55  F   UNL A   1      41.185  34.380  35.435  1.00  0.00    -0.206 F 
ATOM     56  C   UNL A   1      39.073  34.150  38.367  1.00  0.00     0.022 A 
BRANCH  53  57
ATOM     57  S   UNL A   1      37.148  32.387  39.273  1.00  0.00     0.124 S 
ATOM     58  O   UNL A   1      37.393  30.954  39.398  1.00  0.00    -0.237 OA
ATOM     59  O   UNL A   1      37.442  33.184  40.463  1.00  0.00    -0.237 OA
ATOM     60  O   UNL A   1      35.932  32.760  38.561  1.00  0.00    -0.744 OA
ENDBRANCH  53  57
ENDBRANCH  26  50
BRANCH  38  61
ATOM     61  C   UNL A   1      44.380  27.703  34.094  1.00  0.00     0.023 A 
ATOM     62  C   UNL A   1      44.154  26.542  34.857  1.00  0.00     0.031 A 
ATOM     63  C   UNL A   1      45.655  28.292  34.134  1.00  0.00     0.131 A 
ATOM     64  C   UNL A   1      45.172  26.040  35.677  1.00  0.00     0.055 A 
ATOM     65  C   UNL A   1      46.680  27.760  34.916  1.00  0.00     0.041 A 
ATOM     66  F   UNL A   1      45.914  29.404  33.428  1.00  0.00    -0.206 F 
ATOM     67  C   UNL A   1      46.435  26.640  35.706  1.00  0.00     0.022 A 
BRANCH  64  68
ATOM     68  S   UNL A   1      44.869  24.640  36.790  1.00  0.00     0.124 S 
ATOM     69  O   UNL A   1      46.211  24.353  37.291  1.00  0.00    -0.237 OA
ATOM     70  O   UNL A   1      43.949  25.219  37.766  1.00  0.00    -0.237 OA
ATOM     71  O   UNL A   1      44.302  23.615  35.920  1.00  0.00    -0.744 OA
ENDBRANCH  64  68
ENDBRANCH  38  61
ENDBRANCH  12  13
ENDBRANCH   5   7
ENDBRANCH   2   3
ENDBRANCH   1   2
BRANCH   1  72
ATOM     72  C   UNL A   1      31.206  30.451  25.447  1.00  0.00     0.023 C 
BRANCH  72  73
ATOM     73  C   UNL A   1      32.561  29.751  25.309  1.00  0.00     0.116 C 
BRANCH  73  74
ATOM     74  N   UNL A   1      32.602  28.617  26.214  1.00  0.00    -0.355 N 
ATOM     75  C   UNL A   1      31.768  27.536  26.254  1.00  0.00     0.238 C 
ATOM     76  H   UNL A   1      33.324  28.628  26.883  1.00  0.00     0.163 HD
ATOM     77  O   UNL A   1      31.571  26.999  27.343  1.00  0.00    -0.273 OA
BRANCH  75  78
ATOM     78  C   UNL A   1      31.164  27.036  24.971  1.00  0.00     0.162 C 
ATOM     79  C   UNL A   1      30.452  25.700  25.145  1.00  0.00     0.032 C 
ATOM     80  N   UNL A   1      31.998  26.848  23.730  1.00  0.00    -0.185 NA
ATOM     81  C   UNL A   1      30.012  25.400  23.729  1.00  0.00     0.019 C 
ATOM     82  C   UNL A   1      31.083  26.029  22.834  1.00  0.00     0.103 C 
BRANCH  80  83
ATOM     83  S   UNL A   1      33.578  26.131  23.815  1.00  0.00     0.244 S 
ATOM     84  O   UNL A   1      34.052  25.952  22.460  1.00  0.00    -0.207 OA
ATOM     85  O   UNL A   1      34.333  26.984  24.713  1.00  0.00    -0.207 OA
BRANCH  83  86
ATOM     86  C   UNL A   1      33.485  24.508  24.577  1.00  0.00     0.090 A 
ATOM     87  C   UNL A   1      33.546  24.463  25.994  1.00  0.00     0.024 A 
ATOM     88  C   UNL A   1      33.103  23.319  23.859  1.00  0.00     0.005 A 
ATOM     89  C   UNL A   1      33.475  23.272  26.735  1.00  0.00     0.028 A 
ATOM     90  C   UNL A   1      32.994  22.196  24.638  1.00  0.00     0.019 A 
ATOM     91  C   UNL A   1      32.739  23.079  22.500  1.00  0.00     0.010 A 
ATOM     92  C   UNL A   1      33.204  22.144  25.999  1.00  0.00     0.050 A 
ATOM     93  C   UNL A   1      32.568  20.936  24.236  1.00  0.00     0.050 A 
ATOM     94  C   UNL A   1      32.269  21.819  22.058  1.00  0.00     0.002 A 
ATOM     95  N   UNL A   1      32.974  20.846  26.417  1.00  0.00    -0.321 N 
ATOM     96  C   UNL A   1      32.173  20.722  22.922  1.00  0.00     0.014 A 
ATOM     97  C   UNL A   1      32.556  20.027  25.365  1.00  0.00     0.256 C 
ATOM     98  H   UNL A   1      33.092  20.537  27.343  1.00  0.00     0.170 HD
ATOM     99  O   UNL A   1      32.253  18.846  25.472  1.00  0.00    -0.269 OA
ENDBRANCH  83  86
ENDBRANCH  80  83
ENDBRANCH  75  78
ENDBRANCH  73  74
ENDBRANCH  72  73
ENDBRANCH   1  72
TORSDOF 16
ENDMDL
MODEL 2
REMARK VINA RESULT:     -12.9      2.276      2.702
REMARK SMILES O=C(NCCCCNC(=O)[C@@H]1CCCN1S(=O)(=O)c1ccc2c3c(cccc13)C(=O)N2)c1ccc(-c2c3nc(c(-c4cc(S(=O)(=O)[O-])ccc4F)c4ccc([nH]4)c(-c4cc(S(=O)(=O)[O-])ccc4F)c4nc(c(-c5cc(S(=O)(=O)[O-])ccc5F)c5ccc2[nH]5)C=C4)C=C3)cc1
REMARK SMILES IDX 5 1 4 2 3 3 1 4 2 5 32 7 33 8 94 9 34 10 93 11 35 12 36 13
REMARK SMILES IDX 37 14 87 15 38 16 92 17 86 18 88 19 39 20 91 21 85 22 84 23
REMARK SMILES IDX 40 25 72 26 52 27 71 28 53 29 56 30 70 31 89 32 54 33 55 34
REMARK SMILES IDX 69 36 90 37 57 38 41 39 42 40 50 41 43 42 49 43 51 44 48 45
REMARK SMILES IDX 44 46 45 47 46 48 47 49 73 50 74 51 82 52 75 53 81 54 83 55
REMARK SMILES IDX 80 56 76 57 77 58 78 59 79 60 58 61 59 62 67 63 60 64 66 65
REMARK SMILES IDX 68 66 65 67 61 68 62 69 63 70 64 71 6 72 7 73 8 74 9 75
REMARK SMILES IDX 10 77 11 78 12 79 15 80 13 81 14 82 16 83 17 84 18 85 19 86
REMARK SMILES IDX 20 87 28 88 21 89 23 90 27 91 22 92 24 93 26 94 31 95 25 96
REMARK SMILES IDX 29 97 30 99
REMARK H PARENT 3 6 88 24 56 35 8 76 31 98
REMARK Flexibility Score: inf
ROOT
ATOM      1  C   UNL A   1      31.609  32.047  26.921  1.00  0.00     0.023 C 
ENDROOT
BRANCH   1   2
ATOM      2  C   UNL A   1      32.917  32.799  27.143  1.00  0.00     0.116 C 
BRANCH   2   3
ATOM      3  N   UNL A   1      32.680  34.118  27.703  1.00  0.00    -0.352 N 
ATOM      4  O   UNL A   1      32.712  35.682  29.322  1.00  0.00    -0.269 OA
ATOM      5  C   UNL A   1      33.212  34.671  28.840  1.00  0.00     0.251 C 
ATOM      6  H   UNL A   1      32.054  34.689  27.202  1.00  0.00     0.163 HD
BRANCH   5   7
ATOM      7  C   UNL A   1      34.380  34.027  29.474  1.00  0.00     0.039 A 
ATOM      8  C   UNL A   1      34.196  33.090  30.496  1.00  0.00     0.014 A 
ATOM      9  C   UNL A   1      35.664  34.361  29.039  1.00  0.00     0.014 A 
ATOM     10  C   UNL A   1      35.301  32.560  31.154  1.00  0.00     0.010 A 
ATOM     11  C   UNL A   1      36.772  33.786  29.664  1.00  0.00     0.010 A 
ATOM     12  C   UNL A   1      36.599  32.899  30.739  1.00  0.00    -0.014 A 
BRANCH  12  13
ATOM     13  C   UNL A   1      37.769  32.259  31.387  1.00  0.00     0.031 A 
ATOM     14  C   UNL A   1      38.468  31.097  30.745  1.00  0.00     0.074 A 
ATOM     15  C   UNL A   1      38.187  32.733  32.575  1.00  0.00     0.049 A 
ATOM     16  N   UNL A   1      39.488  30.413  31.191  1.00  0.00    -0.248 NA
ATOM     17  C   UNL A   1      37.963  30.640  29.439  1.00  0.00     0.031 C 
ATOM     18  C   UNL A   1      37.567  33.848  33.294  1.00  0.00     0.029 A 
ATOM     19  N   UNL A   1      39.213  32.335  33.395  1.00  0.00    -0.354 N 
ATOM     20  C   UNL A   1      39.746  29.442  30.231  1.00  0.00     0.074 A 
ATOM     21  C   UNL A   1      38.761  29.610  29.185  1.00  0.00     0.031 C 
ATOM     22  C   UNL A   1      38.222  34.043  34.448  1.00  0.00     0.029 A 
ATOM     23  C   UNL A   1      39.273  33.036  34.577  1.00  0.00     0.049 A 
ATOM     24  H   UNL A   1      39.845  31.618  33.159  1.00  0.00     0.167 HD
ATOM     25  C   UNL A   1      40.724  28.509  30.228  1.00  0.00     0.034 A 
ATOM     26  C   UNL A   1      40.057  32.870  35.662  1.00  0.00     0.034 A 
ATOM     27  C   UNL A   1      41.708  28.367  31.271  1.00  0.00     0.049 A 
ATOM     28  C   UNL A   1      41.120  31.806  35.639  1.00  0.00     0.074 A 
ATOM     29  C   UNL A   1      42.775  27.487  31.315  1.00  0.00     0.029 A 
ATOM     30  N   UNL A   1      41.748  29.101  32.445  1.00  0.00    -0.354 N 
ATOM     31  N   UNL A   1      41.413  30.962  34.680  1.00  0.00    -0.248 NA
ATOM     32  C   UNL A   1      41.965  31.671  36.834  1.00  0.00     0.031 C 
ATOM     33  C   UNL A   1      43.418  27.640  32.541  1.00  0.00     0.029 A 
ATOM     34  C   UNL A   1      42.798  28.667  33.235  1.00  0.00     0.049 A 
ATOM     35  H   UNL A   1      41.123  29.824  32.682  1.00  0.00     0.167 HD
ATOM     36  C   UNL A   1      42.484  30.208  35.147  1.00  0.00     0.074 A 
ATOM     37  C   UNL A   1      42.806  30.712  36.465  1.00  0.00     0.031 C 
ATOM     38  C   UNL A   1      43.133  29.187  34.538  1.00  0.00     0.034 A 
BRANCH  25  39
ATOM     39  C   UNL A   1      40.835  27.557  29.068  1.00  0.00     0.023 A 
ATOM     40  C   UNL A   1      41.774  27.811  28.050  1.00  0.00     0.031 A 
ATOM     41  C   UNL A   1      39.879  26.549  28.863  1.00  0.00     0.131 A 
ATOM     42  C   UNL A   1      41.690  27.109  26.841  1.00  0.00     0.055 A 
ATOM     43  C   UNL A   1      39.824  25.828  27.670  1.00  0.00     0.041 A 
ATOM     44  F   UNL A   1      38.966  26.273  29.809  1.00  0.00    -0.206 F 
ATOM     45  C   UNL A   1      40.721  26.121  26.645  1.00  0.00     0.022 A 
BRANCH  42  46
ATOM     46  S   UNL A   1      42.791  27.506  25.456  1.00  0.00     0.124 S 
ATOM     47  O   UNL A   1      42.078  28.605  24.808  1.00  0.00    -0.237 OA
ATOM     48  O   UNL A   1      44.023  27.883  26.145  1.00  0.00    -0.237 OA
ATOM     49  O   UNL A   1      42.846  26.268  24.687  1.00  0.00    -0.744 OA
ENDBRANCH  42  46
ENDBRANCH  25  39
BRANCH  26  50
ATOM     50  C   UNL A   1      39.844  33.749  36.845  1.00  0.00     0.023 A 
ATOM     51  C   UNL A   1      40.706  34.835  37.089  1.00  0.00     0.031 A 
ATOM     52  C   UNL A   1      38.850  33.465  37.793  1.00  0.00     0.131 A 
ATOM     53  C   UNL A   1      40.600  35.554  38.284  1.00  0.00     0.055 A 
ATOM     54  C   UNL A   1      38.704  34.227  38.954  1.00  0.00     0.041 A 
ATOM     55  F   UNL A   1      38.012  32.433  37.607  1.00  0.00    -0.206 F 
ATOM     56  C   UNL A   1      39.592  35.269  39.211  1.00  0.00     0.022 A 
BRANCH  53  57
ATOM     57  S   UNL A   1      41.831  36.811  38.721  1.00  0.00     0.124 S 
ATOM     58  O   UNL A   1      42.464  37.081  37.434  1.00  0.00    -0.237 OA
ATOM     59  O   UNL A   1      40.986  37.881  39.246  1.00  0.00    -0.237 OA
ATOM     60  O   UNL A   1      42.671  36.142  39.709  1.00  0.00    -0.744 OA
ENDBRANCH  53  57
ENDBRANCH  26  50
BRANCH  38  61
ATOM     61  C   UNL A   1      44.275  28.515  35.257  1.00  0.00     0.023 A 
ATOM     62  C   UNL A   1      44.013  27.476  36.171  1.00  0.00     0.031 A 
ATOM     63  C   UNL A   1      45.582  29.026  35.184  1.00  0.00     0.131 A 
ATOM     64  C   UNL A   1      45.030  27.023  37.019  1.00  0.00     0.055 A 
ATOM     65  C   UNL A   1      46.603  28.538  35.998  1.00  0.00     0.041 A 
ATOM     66  F   UNL A   1      45.876  30.021  34.331  1.00  0.00    -0.206 F 
ATOM     67  C   UNL A   1      46.325  27.544  36.933  1.00  0.00     0.022 A 
BRANCH  64  68
ATOM     68  S   UNL A   1      44.690  25.797  38.312  1.00  0.00     0.124 S 
ATOM     69  O   UNL A   1      46.031  25.321  38.642  1.00  0.00    -0.237 OA
ATOM     70  O   UNL A   1      44.046  26.609  39.341  1.00  0.00    -0.237 OA
ATOM     71  O   UNL A   1      43.832  24.818  37.653  1.00  0.00    -0.744 OA
ENDBRANCH  64  68
ENDBRANCH  38  61
ENDBRANCH  12  13
ENDBRANCH   5   7
ENDBRANCH   2   3
ENDBRANCH   1   2
BRANCH   1  72
ATOM     72  C   UNL A   1      31.761  30.521  26.899  1.00  0.00     0.023 C 
BRANCH  72  73
ATOM     73  C   UNL A   1      32.228  29.968  25.550  1.00  0.00     0.116 C 
BRANCH  73  74
ATOM     74  N   UNL A   1      31.110  29.315  24.894  1.00  0.00    -0.355 N 
ATOM     75  C   UNL A   1      31.133  28.488  23.807  1.00  0.00     0.238 C 
ATOM     76  H   UNL A   1      30.222  29.489  25.284  1.00  0.00     0.163 HD
ATOM     77  O   UNL A   1      30.151  28.483  23.065  1.00  0.00    -0.273 OA
BRANCH  75  78
ATOM     78  C   UNL A   1      32.329  27.604  23.591  1.00  0.00     0.162 C 
ATOM     79  C   UNL A   1      32.308  26.919  22.230  1.00  0.00     0.032 C 
ATOM     80  N   UNL A   1      32.675  26.498  24.553  1.00  0.00    -0.185 NA
ATOM     81  C   UNL A   1      33.552  26.060  22.300  1.00  0.00     0.019 C 
ATOM     82  C   UNL A   1      33.700  25.688  23.778  1.00  0.00     0.103 C 
BRANCH  80  83
ATOM     83  S   UNL A   1      31.441  25.464  25.206  1.00  0.00     0.244 S 
ATOM     84  O   UNL A   1      31.004  26.038  26.461  1.00  0.00    -0.207 OA
ATOM     85  O   UNL A   1      30.475  25.305  24.136  1.00  0.00    -0.207 OA
BRANCH  83  86
ATOM     86  C   UNL A   1      32.114  23.837  25.558  1.00  0.00     0.090 A 
ATOM     87  C   UNL A   1      32.344  23.523  26.922  1.00  0.00     0.024 A 
ATOM     88  C   UNL A   1      32.179  22.781  24.580  1.00  0.00     0.005 A 
ATOM     89  C   UNL A   1      32.856  22.289  27.358  1.00  0.00     0.028 A 
ATOM     90  C   UNL A   1      32.633  21.583  25.069  1.00  0.00     0.019 A 
ATOM     91  C   UNL A   1      31.799  22.703  23.207  1.00  0.00     0.010 A 
ATOM     92  C   UNL A   1      32.995  21.338  26.376  1.00  0.00     0.050 A 
ATOM     93  C   UNL A   1      32.724  20.378  24.382  1.00  0.00     0.050 A 
ATOM     94  C   UNL A   1      31.845  21.488  22.481  1.00  0.00     0.002 A 
ATOM     95  N   UNL A   1      33.372  20.011  26.473  1.00  0.00    -0.321 N 
ATOM     96  C   UNL A   1      32.309  20.300  23.059  1.00  0.00     0.014 A 
ATOM     97  C   UNL A   1      33.215  19.335  25.260  1.00  0.00     0.256 C 
ATOM     98  H   UNL A   1      33.710  19.593  27.297  1.00  0.00     0.170 HD
ATOM     99  O   UNL A   1      33.442  18.145  25.085  1.00  0.00    -0.269 OA
ENDBRANCH  83  86
ENDBRANCH  80  83
ENDBRANCH  75  78
ENDBRANCH  73  74
ENDBRANCH  72  73
ENDBRANCH   1  72
TORSDOF 16
ENDMDL
MODEL 3
REMARK VINA RESULT:     -12.9      5.263     10.652
REMARK SMILES O=C(NCCCCNC(=O)[C@@H]1CCCN1S(=O)(=O)c1ccc2c3c(cccc13)C(=O)N2)c1ccc(-c2c3nc(c(-c4cc(S(=O)(=O)[O-])ccc4F)c4ccc([nH]4)c(-c4cc(S(=O)(=O)[O-])ccc4F)c4nc(c(-c5cc(S(=O)(=O)[O-])ccc5F)c5ccc2[nH]5)C=C4)C=C3)cc1
REMARK SMILES IDX 5 1 4 2 3 3 1 4 2 5 32 7 33 8 94 9 34 10 93 11 35 12 36 13
REMARK SMILES IDX 37 14 87 15 38 16 92 17 86 18 88 19 39 20 91 21 85 22 84 23
REMARK SMILES IDX 40 25 72 26 52 27 71 28 53 29 56 30 70 31 89 32 54 33 55 34
REMARK SMILES IDX 69 36 90 37 57 38 41 39 42 40 50 41 43 42 49 43 51 44 48 45
REMARK SMILES IDX 44 46 45 47 46 48 47 49 73 50 74 51 82 52 75 53 81 54 83 55
REMARK SMILES IDX 80 56 76 57 77 58 78 59 79 60 58 61 59 62 67 63 60 64 66 65
REMARK SMILES IDX 68 66 65 67 61 68 62 69 63 70 64 71 6 72 7 73 8 74 9 75
REMARK SMILES IDX 10 77 11 78 12 79 15 80 13 81 14 82 16 83 17 84 18 85 19 86
REMARK SMILES IDX 20 87 28 88 21 89 23 90 27 91 22 92 24 93 26 94 31 95 25 96
REMARK SMILES IDX 29 97 30 99
REMARK H PARENT 3 6 88 24 56 35 8 76 31 98
REMARK Flexibility Score: inf
ROOT
ATOM      1  C   UNL A   1      37.485  19.919  24.640  1.00  0.00     0.023 C 
ENDROOT
BRANCH   1   2
ATOM      2  C   UNL A   1      38.421  20.393  25.748  1.00  0.00     0.116 C 
BRANCH   2   3
ATOM      3  N   UNL A   1      39.483  19.432  25.989  1.00  0.00    -0.352 N 
ATOM      4  O   UNL A   1      41.624  18.755  26.139  1.00  0.00    -0.269 OA
ATOM      5  C   UNL A   1      40.813  19.671  26.222  1.00  0.00     0.251 C 
ATOM      6  H   UNL A   1      39.212  18.485  25.983  1.00  0.00     0.163 HD
BRANCH   5   7
ATOM      7  C   UNL A   1      41.249  21.041  26.561  1.00  0.00     0.039 A 
ATOM      8  C   UNL A   1      41.350  21.435  27.899  1.00  0.00     0.014 A 
ATOM      9  C   UNL A   1      41.560  21.932  25.533  1.00  0.00     0.014 A 
ATOM     10  C   UNL A   1      41.666  22.753  28.209  1.00  0.00     0.010 A 
ATOM     11  C   UNL A   1      41.931  23.241  25.848  1.00  0.00     0.010 A 
ATOM     12  C   UNL A   1      41.965  23.667  27.186  1.00  0.00    -0.014 A 
BRANCH  12  13
ATOM     13  C   UNL A   1      42.390  25.045  27.530  1.00  0.00     0.031 A 
ATOM     14  C   UNL A   1      41.434  26.014  28.161  1.00  0.00     0.074 A 
ATOM     15  C   UNL A   1      43.654  25.418  27.252  1.00  0.00     0.049 A 
ATOM     16  N   UNL A   1      41.642  27.258  28.502  1.00  0.00    -0.248 NA
ATOM     17  C   UNL A   1      40.073  25.532  28.448  1.00  0.00     0.031 C 
ATOM     18  C   UNL A   1      44.659  24.559  26.623  1.00  0.00     0.029 A 
ATOM     19  N   UNL A   1      44.305  26.610  27.443  1.00  0.00    -0.354 N 
ATOM     20  C   UNL A   1      40.443  27.713  29.035  1.00  0.00     0.074 A 
ATOM     21  C   UNL A   1      39.501  26.618  28.954  1.00  0.00     0.031 C 
ATOM     22  C   UNL A   1      45.797  25.252  26.478  1.00  0.00     0.029 A 
ATOM     23  C   UNL A   1      45.589  26.618  26.952  1.00  0.00     0.049 A 
ATOM     24  H   UNL A   1      43.892  27.385  27.889  1.00  0.00     0.167 HD
ATOM     25  C   UNL A   1      40.167  28.932  29.551  1.00  0.00     0.034 A 
ATOM     26  C   UNL A   1      46.491  27.616  26.858  1.00  0.00     0.034 A 
ATOM     27  C   UNL A   1      41.123  30.007  29.640  1.00  0.00     0.049 A 
ATOM     28  C   UNL A   1      46.147  28.969  27.418  1.00  0.00     0.074 A 
ATOM     29  C   UNL A   1      40.943  31.255  30.209  1.00  0.00     0.029 A 
ATOM     30  N   UNL A   1      42.417  29.975  29.146  1.00  0.00    -0.354 N 
ATOM     31  N   UNL A   1      45.040  29.352  28.008  1.00  0.00    -0.248 NA
ATOM     32  C   UNL A   1      47.165  30.023  27.311  1.00  0.00     0.031 C 
ATOM     33  C   UNL A   1      42.101  32.001  30.000  1.00  0.00     0.029 A 
ATOM     34  C   UNL A   1      43.032  31.195  29.365  1.00  0.00     0.049 A 
ATOM     35  H   UNL A   1      42.836  29.200  28.706  1.00  0.00     0.167 HD
ATOM     36  C   UNL A   1      45.235  30.684  28.358  1.00  0.00     0.074 A 
ATOM     37  C   UNL A   1      46.574  31.035  27.936  1.00  0.00     0.031 C 
ATOM     38  C   UNL A   1      44.375  31.536  28.966  1.00  0.00     0.034 A 
BRANCH  25  39
ATOM     39  C   UNL A   1      38.792  29.210  30.098  1.00  0.00     0.023 A 
ATOM     40  C   UNL A   1      37.884  29.971  29.338  1.00  0.00     0.031 A 
ATOM     41  C   UNL A   1      38.472  28.920  31.434  1.00  0.00     0.131 A 
ATOM     42  C   UNL A   1      36.728  30.476  29.945  1.00  0.00     0.055 A 
ATOM     43  C   UNL A   1      37.301  29.396  32.023  1.00  0.00     0.041 A 
ATOM     44  F   UNL A   1      39.310  28.195  32.194  1.00  0.00    -0.206 F 
ATOM     45  C   UNL A   1      36.431  30.194  31.282  1.00  0.00     0.022 A 
BRANCH  42  46
ATOM     46  S   UNL A   1      35.606  31.577  29.040  1.00  0.00     0.124 S 
ATOM     47  O   UNL A   1      34.940  30.647  28.130  1.00  0.00    -0.237 OA
ATOM     48  O   UNL A   1      34.770  32.108  30.113  1.00  0.00    -0.237 OA
ATOM     49  O   UNL A   1      36.500  32.535  28.397  1.00  0.00    -0.744 OA
ENDBRANCH  42  46
ENDBRANCH  25  39
BRANCH  26  50
ATOM     50  C   UNL A   1      47.800  27.343  26.202  1.00  0.00     0.023 A 
ATOM     51  C   UNL A   1      47.962  27.561  24.821  1.00  0.00     0.031 A 
ATOM     52  C   UNL A   1      48.867  26.774  26.914  1.00  0.00     0.131 A 
ATOM     53  C   UNL A   1      49.139  27.150  24.184  1.00  0.00     0.055 A 
ATOM     54  C   UNL A   1      50.065  26.427  26.286  1.00  0.00     0.041 A 
ATOM     55  F   UNL A   1      48.753  26.540  28.230  1.00  0.00    -0.206 F 
ATOM     56  C   UNL A   1      50.199  26.601  24.911  1.00  0.00     0.022 A 
BRANCH  53  57
ATOM     57  S   UNL A   1      49.286  27.217  22.377  1.00  0.00     0.124 S 
ATOM     58  O   UNL A   1      48.636  28.486  22.064  1.00  0.00    -0.237 OA
ATOM     59  O   UNL A   1      50.736  27.191  22.200  1.00  0.00    -0.237 OA
ATOM     60  O   UNL A   1      48.583  26.021  21.930  1.00  0.00    -0.744 OA
ENDBRANCH  53  57
ENDBRANCH  26  50
BRANCH  38  61
ATOM     61  C   UNL A   1      44.820  32.951  29.239  1.00  0.00     0.023 A 
ATOM     62  C   UNL A   1      44.522  33.968  28.312  1.00  0.00     0.031 A 
ATOM     63  C   UNL A   1      45.690  33.247  30.301  1.00  0.00     0.131 A 
ATOM     64  C   UNL A   1      45.139  35.219  28.431  1.00  0.00     0.055 A 
ATOM     65  C   UNL A   1      46.264  34.510  30.442  1.00  0.00     0.041 A 
ATOM     66  F   UNL A   1      46.006  32.306  31.204  1.00  0.00    -0.206 F 
ATOM     67  C   UNL A   1      46.004  35.497  29.495  1.00  0.00     0.022 A 
BRANCH  64  68
ATOM     68  S   UNL A   1      44.901  36.502  27.171  1.00  0.00     0.124 S 
ATOM     69  O   UNL A   1      43.752  35.990  26.428  1.00  0.00    -0.237 OA
ATOM     70  O   UNL A   1      44.640  37.685  27.985  1.00  0.00    -0.237 OA
ATOM     71  O   UNL A   1      46.160  36.509  26.433  1.00  0.00    -0.744 OA
ENDBRANCH  64  68
ENDBRANCH  38  61
ENDBRANCH  12  13
ENDBRANCH   5   7
ENDBRANCH   2   3
ENDBRANCH   1   2
BRANCH   1  72
ATOM     72  C   UNL A   1      36.009  20.265  24.878  1.00  0.00     0.023 C 
BRANCH  72  73
ATOM     73  C   UNL A   1      35.800  21.490  25.773  1.00  0.00     0.116 C 
BRANCH  73  74
ATOM     74  N   UNL A   1      35.946  22.691  24.972  1.00  0.00    -0.355 N 
ATOM     75  C   UNL A   1      35.178  23.106  23.922  1.00  0.00     0.238 C 
ATOM     76  H   UNL A   1      36.694  23.283  25.218  1.00  0.00     0.163 HD
ATOM     77  O   UNL A   1      35.717  23.774  23.040  1.00  0.00    -0.273 OA
BRANCH  75  78
ATOM     78  C   UNL A   1      33.715  22.763  23.912  1.00  0.00     0.162 C 
ATOM     79  C   UNL A   1      32.964  23.449  22.777  1.00  0.00     0.032 C 
ATOM     80  N   UNL A   1      32.844  22.993  25.120  1.00  0.00    -0.185 NA
ATOM     81  C   UNL A   1      31.542  23.001  23.036  1.00  0.00     0.019 C 
ATOM     82  C   UNL A   1      31.441  22.841  24.555  1.00  0.00     0.103 C 
BRANCH  80  83
ATOM     83  S   UNL A   1      32.976  24.455  26.050  1.00  0.00     0.244 S 
ATOM     84  O   UNL A   1      31.943  24.425  27.063  1.00  0.00    -0.207 OA
ATOM     85  O   UNL A   1      34.363  24.514  26.468  1.00  0.00    -0.207 OA
BRANCH  83  86
ATOM     86  C   UNL A   1      32.673  25.886  25.009  1.00  0.00     0.090 A 
ATOM     87  C   UNL A   1      33.797  26.442  24.347  1.00  0.00     0.024 A 
ATOM     88  C   UNL A   1      31.354  26.316  24.623  1.00  0.00     0.005 A 
ATOM     89  C   UNL A   1      33.721  27.554  23.491  1.00  0.00     0.028 A 
ATOM     90  C   UNL A   1      31.336  27.369  23.743  1.00  0.00     0.019 A 
ATOM     91  C   UNL A   1      30.047  25.823  24.912  1.00  0.00     0.010 A 
ATOM     92  C   UNL A   1      32.447  27.995  23.223  1.00  0.00     0.050 A 
ATOM     93  C   UNL A   1      30.220  27.937  23.140  1.00  0.00     0.050 A 
ATOM     94  C   UNL A   1      28.888  26.353  24.294  1.00  0.00     0.002 A 
ATOM     95  N   UNL A   1      32.015  28.986  22.361  1.00  0.00    -0.321 N 
ATOM     96  C   UNL A   1      28.955  27.422  23.393  1.00  0.00     0.014 A 
ATOM     97  C   UNL A   1      30.622  29.004  22.245  1.00  0.00     0.256 C 
ATOM     98  H   UNL A   1      32.615  29.605  21.888  1.00  0.00     0.170 HD
ATOM     99  O   UNL A   1      29.987  29.758  21.520  1.00  0.00    -0.269 OA
ENDBRANCH  83  86
ENDBRANCH  80  83
ENDBRANCH  75  78
ENDBRANCH  73  74
ENDBRANCH  72  73
ENDBRANCH   1  72
TORSDOF 16
ENDMDL
