MODEL 1
REMARK VINA RESULT:     -10.8      0.000      0.000
REMARK SMILES C[C@H]1C[NH2+]C[C@@H](CC(=O)NCCCCNC(=O)c2ccc(-c3c4nc(c(-c5cc(S(=O)(=O)[O-])ccc5F)c5ccc([nH]5)c(-c5cc(S(=O)(=O)[O-])ccc5F)c5nc(c(-c6cc(S(=O)(=O)[O-])ccc6F)c6ccc3[nH]6)C=C5)C=C4)cc2)C1
REMARK SMILES IDX 13 1 12 2 11 3 10 4 8 5 9 6 7 8 6 9 1 10 2 11 3 12 81 13
REMARK SMILES IDX 4 14 5 15 14 18 15 19 16 20 17 22 18 23 19 24 80 25 20 26
REMARK SMILES IDX 79 27 21 28 22 29 23 30 73 31 24 32 78 33 72 34 74 35 25 36
REMARK SMILES IDX 77 37 71 38 70 39 26 41 58 42 38 43 57 44 39 45 42 46 56 47
REMARK SMILES IDX 75 48 40 49 41 50 55 52 76 53 43 54 27 55 28 56 36 57 29 58
REMARK SMILES IDX 35 59 37 60 34 61 30 62 31 63 32 64 33 65 59 66 60 67 68 68
REMARK SMILES IDX 61 69 67 70 69 71 66 72 62 73 63 74 64 75 65 76 44 77 45 78
REMARK SMILES IDX 53 79 46 80 52 81 54 82 51 83 47 84 48 85 49 86 50 87
REMARK H PARENT 10 7 4 16 4 17 15 21 74 40 42 51
REMARK Flexibility Score: inf
ROOT
ATOM      1  C   UNL A   1      34.956  34.702  28.908  1.00  0.00     0.023 C 
ENDROOT
BRANCH   1   2
ATOM      2  C   UNL A   1      33.876  35.754  28.723  1.00  0.00     0.023 C 
BRANCH   2   3
ATOM      3  C   UNL A   1      32.903  35.909  29.896  1.00  0.00     0.116 C 
BRANCH   3   4
ATOM      4  N   UNL A   1      33.174  37.128  30.643  1.00  0.00    -0.356 N 
ATOM      5  C   UNL A   1      33.333  37.329  31.982  1.00  0.00     0.220 C 
ATOM      6  O   UNL A   1      33.449  38.485  32.393  1.00  0.00    -0.275 OA
ATOM      7  H   UNL A   1      33.253  37.939  30.092  1.00  0.00     0.163 HD
BRANCH   5   8
ATOM      8  C   UNL A   1      33.382  36.161  32.952  1.00  0.00     0.109 C 
BRANCH   8   9
ATOM      9  C   UNL A   1      34.354  35.037  32.535  1.00  0.00     0.054 C 
ATOM     10  C   UNL A   1      37.959  34.484  33.901  1.00  0.00     0.013 C 
ATOM     11  C   UNL A   1      36.725  34.132  33.063  1.00  0.00     0.041 C 
ATOM     12  C   UNL A   1      36.039  32.874  33.591  1.00  0.00     0.263 C 
ATOM     13  C   UNL A   1      35.761  35.316  33.064  1.00  0.00     0.019 C 
ATOM     14  N   UNL A   1      34.807  32.602  32.846  1.00  0.00    -0.346 N 
ATOM     15  C   UNL A   1      33.839  33.684  33.045  1.00  0.00     0.264 C 
ATOM     16  H   UNL A   1      34.404  31.725  33.175  1.00  0.00     0.346 HD
ATOM     17  H   UNL A   1      35.030  32.535  31.853  1.00  0.00     0.346 HD
ENDBRANCH   8   9
ENDBRANCH   5   8
ENDBRANCH   3   4
ENDBRANCH   2   3
ENDBRANCH   1   2
BRANCH   1  18
ATOM     18  C   UNL A   1      34.429  33.342  29.319  1.00  0.00     0.116 C 
BRANCH  18  19
ATOM     19  N   UNL A   1      33.697  32.655  28.261  1.00  0.00    -0.352 N 
ATOM     20  C   UNL A   1      34.072  31.536  27.549  1.00  0.00     0.251 C 
ATOM     21  H   UNL A   1      32.822  33.041  28.025  1.00  0.00     0.163 HD
ATOM     22  O   UNL A   1      33.388  31.131  26.619  1.00  0.00    -0.269 OA
BRANCH  20  23
ATOM     23  C   UNL A   1      35.345  30.874  27.906  1.00  0.00     0.039 A 
ATOM     24  C   UNL A   1      36.525  31.619  27.913  1.00  0.00     0.014 A 
ATOM     25  C   UNL A   1      35.335  29.552  28.352  1.00  0.00     0.014 A 
ATOM     26  C   UNL A   1      37.684  31.061  28.461  1.00  0.00     0.010 A 
ATOM     27  C   UNL A   1      36.451  29.046  28.999  1.00  0.00     0.010 A 
ATOM     28  C   UNL A   1      37.641  29.790  29.056  1.00  0.00    -0.014 A 
BRANCH  28  29
ATOM     29  C   UNL A   1      38.827  29.173  29.704  1.00  0.00     0.031 A 
ATOM     30  C   UNL A   1      39.264  29.688  31.051  1.00  0.00     0.074 A 
ATOM     31  C   UNL A   1      39.566  28.254  29.053  1.00  0.00     0.049 A 
ATOM     32  N   UNL A   1      40.374  29.472  31.705  1.00  0.00    -0.248 NA
ATOM     33  C   UNL A   1      38.345  30.625  31.717  1.00  0.00     0.031 C 
ATOM     34  C   UNL A   1      39.274  27.711  27.725  1.00  0.00     0.029 A 
ATOM     35  N   UNL A   1      40.732  27.627  29.416  1.00  0.00    -0.354 N 
ATOM     36  C   UNL A   1      40.309  30.288  32.831  1.00  0.00     0.074 A 
ATOM     37  C   UNL A   1      39.084  31.050  32.729  1.00  0.00     0.031 C 
ATOM     38  C   UNL A   1      40.220  26.815  27.396  1.00  0.00     0.029 A 
ATOM     39  C   UNL A   1      41.213  26.758  28.464  1.00  0.00     0.049 A 
ATOM     40  H   UNL A   1      41.182  27.785  30.276  1.00  0.00     0.167 HD
ATOM     41  C   UNL A   1      41.177  30.372  33.869  1.00  0.00     0.034 A 
ATOM     42  C   UNL A   1      42.335  26.011  28.451  1.00  0.00     0.034 A 
ATOM     43  C   UNL A   1      42.362  29.559  33.978  1.00  0.00     0.049 A 
ATOM     44  C   UNL A   1      43.267  26.084  29.636  1.00  0.00     0.074 A 
ATOM     45  C   UNL A   1      43.286  29.509  35.006  1.00  0.00     0.029 A 
ATOM     46  N   UNL A   1      42.779  28.640  33.024  1.00  0.00    -0.354 N 
ATOM     47  N   UNL A   1      43.183  26.842  30.706  1.00  0.00    -0.248 NA
ATOM     48  C   UNL A   1      44.436  25.195  29.618  1.00  0.00     0.031 C 
ATOM     49  C   UNL A   1      44.281  28.590  34.656  1.00  0.00     0.029 A 
ATOM     50  C   UNL A   1      43.948  28.022  33.437  1.00  0.00     0.049 A 
ATOM     51  H   UNL A   1      42.312  28.453  32.177  1.00  0.00     0.167 HD
ATOM     52  C   UNL A   1      44.270  26.494  31.503  1.00  0.00     0.074 A 
ATOM     53  C   UNL A   1      44.990  25.455  30.794  1.00  0.00     0.031 C 
ATOM     54  C   UNL A   1      44.638  26.981  32.715  1.00  0.00     0.034 A 
BRANCH  41  55
ATOM     55  C   UNL A   1      40.869  31.385  34.945  1.00  0.00     0.023 A 
ATOM     56  C   UNL A   1      39.832  31.183  35.873  1.00  0.00     0.031 A 
ATOM     57  C   UNL A   1      41.575  32.599  35.005  1.00  0.00     0.131 A 
ATOM     58  C   UNL A   1      39.460  32.215  36.746  1.00  0.00     0.055 A 
ATOM     59  C   UNL A   1      41.264  33.587  35.944  1.00  0.00     0.041 A 
ATOM     60  F   UNL A   1      42.563  32.861  34.135  1.00  0.00    -0.206 F 
ATOM     61  C   UNL A   1      40.187  33.407  36.807  1.00  0.00     0.022 A 
BRANCH  58  62
ATOM     62  S   UNL A   1      37.910  32.045  37.671  1.00  0.00     0.124 S 
ATOM     63  O   UNL A   1      37.066  33.038  37.011  1.00  0.00    -0.237 OA
ATOM     64  O   UNL A   1      37.556  30.650  37.440  1.00  0.00    -0.237 OA
ATOM     65  O   UNL A   1      38.292  32.374  39.043  1.00  0.00    -0.744 OA
ENDBRANCH  58  62
ENDBRANCH  41  55
BRANCH  42  66
ATOM     66  C   UNL A   1      42.648  25.127  27.292  1.00  0.00     0.023 A 
ATOM     67  C   UNL A   1      42.191  23.800  27.256  1.00  0.00     0.031 A 
ATOM     68  C   UNL A   1      43.437  25.584  26.222  1.00  0.00     0.131 A 
ATOM     69  C   UNL A   1      42.566  22.959  26.196  1.00  0.00     0.055 A 
ATOM     70  C   UNL A   1      43.768  24.757  25.146  1.00  0.00     0.041 A 
ATOM     71  F   UNL A   1      43.890  26.847  26.202  1.00  0.00    -0.206 F 
ATOM     72  C   UNL A   1      43.342  23.432  25.136  1.00  0.00     0.022 A 
BRANCH  69  73
ATOM     73  S   UNL A   1      42.083  21.212  26.264  1.00  0.00     0.124 S 
ATOM     74  O   UNL A   1      42.449  20.855  27.630  1.00  0.00    -0.237 OA
ATOM     75  O   UNL A   1      40.654  21.281  25.979  1.00  0.00    -0.237 OA
ATOM     76  O   UNL A   1      42.896  20.595  25.218  1.00  0.00    -0.744 OA
ENDBRANCH  69  73
ENDBRANCH  42  66
BRANCH  54  77
ATOM     77  C   UNL A   1      45.834  26.345  33.374  1.00  0.00     0.023 A 
ATOM     78  C   UNL A   1      45.710  25.227  34.215  1.00  0.00     0.031 A 
ATOM     79  C   UNL A   1      47.119  26.870  33.147  1.00  0.00     0.131 A 
ATOM     80  C   UNL A   1      46.850  24.692  34.832  1.00  0.00     0.055 A 
ATOM     81  C   UNL A   1      48.254  26.305  33.724  1.00  0.00     0.041 A 
ATOM     82  F   UNL A   1      47.288  27.938  32.350  1.00  0.00    -0.206 F 
ATOM     83  C   UNL A   1      48.123  25.214  34.581  1.00  0.00     0.022 A 
BRANCH  80  84
ATOM     84  S   UNL A   1      46.642  23.341  36.023  1.00  0.00     0.124 S 
ATOM     85  O   UNL A   1      46.684  24.051  37.297  1.00  0.00    -0.237 OA
ATOM     86  O   UNL A   1      45.348  22.785  35.644  1.00  0.00    -0.237 OA
ATOM     87  O   UNL A   1      47.790  22.473  35.760  1.00  0.00    -0.744 OA
ENDBRANCH  80  84
ENDBRANCH  54  77
ENDBRANCH  28  29
ENDBRANCH  20  23
ENDBRANCH  18  19
ENDBRANCH   1  18
TORSDOF 15
ENDMDL
MODEL 2
REMARK VINA RESULT:     -10.6      3.226      9.555
REMARK SMILES C[C@H]1C[NH2+]C[C@@H](CC(=O)NCCCCNC(=O)c2ccc(-c3c4nc(c(-c5cc(S(=O)(=O)[O-])ccc5F)c5ccc([nH]5)c(-c5cc(S(=O)(=O)[O-])ccc5F)c5nc(c(-c6cc(S(=O)(=O)[O-])ccc6F)c6ccc3[nH]6)C=C5)C=C4)cc2)C1
REMARK SMILES IDX 13 1 12 2 11 3 10 4 8 5 9 6 7 8 6 9 1 10 2 11 3 12 81 13
REMARK SMILES IDX 4 14 5 15 14 18 15 19 16 20 17 22 18 23 19 24 80 25 20 26
REMARK SMILES IDX 79 27 21 28 22 29 23 30 73 31 24 32 78 33 72 34 74 35 25 36
REMARK SMILES IDX 77 37 71 38 70 39 26 41 58 42 38 43 57 44 39 45 42 46 56 47
REMARK SMILES IDX 75 48 40 49 41 50 55 52 76 53 43 54 27 55 28 56 36 57 29 58
REMARK SMILES IDX 35 59 37 60 34 61 30 62 31 63 32 64 33 65 59 66 60 67 68 68
REMARK SMILES IDX 61 69 67 70 69 71 66 72 62 73 63 74 64 75 65 76 44 77 45 78
REMARK SMILES IDX 53 79 46 80 52 81 54 82 51 83 47 84 48 85 49 86 50 87
REMARK H PARENT 10 7 4 16 4 17 15 21 74 40 42 51
REMARK Flexibility Score: inf
ROOT
ATOM      1  C   UNL A   1      31.726  29.025  27.076  1.00  0.00     0.023 C 
ENDROOT
BRANCH   1   2
ATOM      2  C   UNL A   1      32.083  27.580  26.771  1.00  0.00     0.023 C 
BRANCH   2   3
ATOM      3  C   UNL A   1      32.242  27.243  25.285  1.00  0.00     0.116 C 
BRANCH   3   4
ATOM      4  N   UNL A   1      30.971  26.848  24.697  1.00  0.00    -0.356 N 
ATOM      5  C   UNL A   1      30.067  27.567  23.972  1.00  0.00     0.220 C 
ATOM      6  O   UNL A   1      28.998  27.034  23.671  1.00  0.00    -0.275 OA
ATOM      7  H   UNL A   1      30.722  25.909  24.850  1.00  0.00     0.163 HD
BRANCH   5   8
ATOM      8  C   UNL A   1      30.369  28.989  23.529  1.00  0.00     0.109 C 
BRANCH   8   9
ATOM      9  C   UNL A   1      29.117  29.807  23.146  1.00  0.00     0.054 C 
ATOM     10  C   UNL A   1      28.814  33.690  23.144  1.00  0.00     0.013 C 
ATOM     11  C   UNL A   1      28.318  32.260  22.899  1.00  0.00     0.041 C 
ATOM     12  C   UNL A   1      28.167  31.976  21.407  1.00  0.00     0.263 C 
ATOM     13  C   UNL A   1      29.288  31.273  23.544  1.00  0.00     0.019 C 
ATOM     14  N   UNL A   1      27.788  30.578  21.179  1.00  0.00    -0.346 N 
ATOM     15  C   UNL A   1      28.848  29.678  21.641  1.00  0.00     0.264 C 
ATOM     16  H   UNL A   1      27.632  30.431  20.182  1.00  0.00     0.346 HD
ATOM     17  H   UNL A   1      26.934  30.380  21.702  1.00  0.00     0.346 HD
ENDBRANCH   8   9
ENDBRANCH   5   8
ENDBRANCH   3   4
ENDBRANCH   2   3
ENDBRANCH   1   2
BRANCH   1  18
ATOM     18  C   UNL A   1      32.539  30.039  26.296  1.00  0.00     0.116 C 
BRANCH  18  19
ATOM     19  N   UNL A   1      32.203  31.423  26.610  1.00  0.00    -0.352 N 
ATOM     20  C   UNL A   1      32.943  32.343  27.321  1.00  0.00     0.251 C 
ATOM     21  H   UNL A   1      31.335  31.740  26.270  1.00  0.00     0.163 HD
ATOM     22  O   UNL A   1      32.480  33.444  27.585  1.00  0.00    -0.269 OA
BRANCH  20  23
ATOM     23  C   UNL A   1      34.284  31.943  27.798  1.00  0.00     0.039 A 
ATOM     24  C   UNL A   1      35.272  32.917  27.958  1.00  0.00     0.014 A 
ATOM     25  C   UNL A   1      34.511  30.627  28.199  1.00  0.00     0.014 A 
ATOM     26  C   UNL A   1      36.460  32.585  28.614  1.00  0.00     0.010 A 
ATOM     27  C   UNL A   1      35.637  30.331  28.951  1.00  0.00     0.010 A 
ATOM     28  C   UNL A   1      36.629  31.303  29.162  1.00  0.00    -0.014 A 
BRANCH  28  29
ATOM     29  C   UNL A   1      37.846  30.914  29.919  1.00  0.00     0.031 A 
ATOM     30  C   UNL A   1      38.826  29.968  29.275  1.00  0.00     0.074 A 
ATOM     31  C   UNL A   1      38.015  31.304  31.198  1.00  0.00     0.049 A 
ATOM     32  N   UNL A   1      39.827  29.318  29.806  1.00  0.00    -0.248 NA
ATOM     33  C   UNL A   1      38.602  29.671  27.851  1.00  0.00     0.031 C 
ATOM     34  C   UNL A   1      37.111  32.179  31.948  1.00  0.00     0.029 A 
ATOM     35  N   UNL A   1      39.000  30.996  32.103  1.00  0.00    -0.354 N 
ATOM     36  C   UNL A   1      40.316  28.495  28.795  1.00  0.00     0.074 A 
ATOM     37  C   UNL A   1      39.455  28.681  27.648  1.00  0.00     0.031 C 
ATOM     38  C   UNL A   1      37.597  32.356  33.188  1.00  0.00     0.029 A 
ATOM     39  C   UNL A   1      38.816  31.568  33.340  1.00  0.00     0.049 A 
ATOM     40  H   UNL A   1      39.767  30.418  31.886  1.00  0.00     0.167 HD
ATOM     41  C   UNL A   1      41.401  27.682  28.813  1.00  0.00     0.034 A 
ATOM     42  C   UNL A   1      39.543  31.458  34.469  1.00  0.00     0.034 A 
ATOM     43  C   UNL A   1      42.278  27.558  29.949  1.00  0.00     0.049 A 
ATOM     44  C   UNL A   1      40.772  30.583  34.457  1.00  0.00     0.074 A 
ATOM     45  C   UNL A   1      43.439  26.814  30.069  1.00  0.00     0.029 A 
ATOM     46  N   UNL A   1      42.096  28.209  31.163  1.00  0.00    -0.354 N 
ATOM     47  N   UNL A   1      41.238  29.828  33.488  1.00  0.00    -0.248 NA
ATOM     48  C   UNL A   1      41.579  30.554  35.683  1.00  0.00     0.031 C 
ATOM     49  C   UNL A   1      43.935  26.984  31.366  1.00  0.00     0.029 A 
ATOM     50  C   UNL A   1      43.118  27.881  32.037  1.00  0.00     0.049 A 
ATOM     51  H   UNL A   1      41.348  28.816  31.371  1.00  0.00     0.167 HD
ATOM     52  C   UNL A   1      42.411  29.263  33.978  1.00  0.00     0.074 A 
ATOM     53  C   UNL A   1      42.584  29.768  35.326  1.00  0.00     0.031 C 
ATOM     54  C   UNL A   1      43.273  28.409  33.371  1.00  0.00     0.034 A 
BRANCH  41  55
ATOM     55  C   UNL A   1      41.671  26.866  27.571  1.00  0.00     0.023 A 
ATOM     56  C   UNL A   1      41.347  25.499  27.502  1.00  0.00     0.031 A 
ATOM     57  C   UNL A   1      42.321  27.442  26.466  1.00  0.00     0.131 A 
ATOM     58  C   UNL A   1      41.767  24.733  26.406  1.00  0.00     0.055 A 
ATOM     59  C   UNL A   1      42.651  26.694  25.333  1.00  0.00     0.041 A 
ATOM     60  F   UNL A   1      42.675  28.737  26.478  1.00  0.00    -0.206 F 
ATOM     61  C   UNL A   1      42.393  25.326  25.307  1.00  0.00     0.022 A 
BRANCH  58  62
ATOM     62  S   UNL A   1      41.641  22.928  26.517  1.00  0.00     0.124 S 
ATOM     63  O   UNL A   1      42.388  22.658  27.744  1.00  0.00    -0.237 OA
ATOM     64  O   UNL A   1      40.200  22.716  26.588  1.00  0.00    -0.237 OA
ATOM     65  O   UNL A   1      42.282  22.462  25.290  1.00  0.00    -0.744 OA
ENDBRANCH  58  62
ENDBRANCH  41  55
BRANCH  42  66
ATOM     66  C   UNL A   1      39.143  32.189  35.706  1.00  0.00     0.023 A 
ATOM     67  C   UNL A   1      38.434  31.540  36.728  1.00  0.00     0.031 A 
ATOM     68  C   UNL A   1      39.432  33.556  35.867  1.00  0.00     0.131 A 
ATOM     69  C   UNL A   1      37.994  32.266  37.846  1.00  0.00     0.055 A 
ATOM     70  C   UNL A   1      39.033  34.263  37.003  1.00  0.00     0.041 A 
ATOM     71  F   UNL A   1      40.116  34.222  34.924  1.00  0.00    -0.206 F 
ATOM     72  C   UNL A   1      38.298  33.621  37.995  1.00  0.00     0.022 A 
BRANCH  69  73
ATOM     73  S   UNL A   1      36.951  31.426  39.070  1.00  0.00     0.124 S 
ATOM     74  O   UNL A   1      35.787  32.304  39.120  1.00  0.00    -0.237 OA
ATOM     75  O   UNL A   1      36.745  30.122  38.448  1.00  0.00    -0.237 OA
ATOM     76  O   UNL A   1      37.780  31.418  40.273  1.00  0.00    -0.744 OA
ENDBRANCH  69  73
ENDBRANCH  42  66
BRANCH  54  77
ATOM     77  C   UNL A   1      44.512  28.026  34.137  1.00  0.00     0.023 A 
ATOM     78  C   UNL A   1      44.540  26.917  34.997  1.00  0.00     0.031 A 
ATOM     79  C   UNL A   1      45.686  28.788  33.992  1.00  0.00     0.131 A 
ATOM     80  C   UNL A   1      45.709  26.622  35.714  1.00  0.00     0.055 A 
ATOM     81  C   UNL A   1      46.860  28.462  34.670  1.00  0.00     0.041 A 
ATOM     82  F   UNL A   1      45.710  29.858  33.181  1.00  0.00    -0.206 F 
ATOM     83  C   UNL A   1      46.873  27.378  35.545  1.00  0.00     0.022 A 
BRANCH  80  84
ATOM     84  S   UNL A   1      45.672  25.272  36.924  1.00  0.00     0.124 S 
ATOM     85  O   UNL A   1      46.642  25.726  37.914  1.00  0.00    -0.237 OA
ATOM     86  O   UNL A   1      44.276  25.272  37.350  1.00  0.00    -0.237 OA
ATOM     87  O   UNL A   1      46.081  24.103  36.146  1.00  0.00    -0.744 OA
ENDBRANCH  80  84
ENDBRANCH  54  77
ENDBRANCH  28  29
ENDBRANCH  20  23
ENDBRANCH  18  19
ENDBRANCH   1  18
TORSDOF 15
ENDMDL
MODEL 3
REMARK VINA RESULT:     -10.3      3.755     10.063
REMARK SMILES C[C@H]1C[NH2+]C[C@@H](CC(=O)NCCCCNC(=O)c2ccc(-c3c4nc(c(-c5cc(S(=O)(=O)[O-])ccc5F)c5ccc([nH]5)c(-c5cc(S(=O)(=O)[O-])ccc5F)c5nc(c(-c6cc(S(=O)(=O)[O-])ccc6F)c6ccc3[nH]6)C=C5)C=C4)cc2)C1
REMARK SMILES IDX 13 1 12 2 11 3 10 4 8 5 9 6 7 8 6 9 1 10 2 11 3 12 81 13
REMARK SMILES IDX 4 14 5 15 14 18 15 19 16 20 17 22 18 23 19 24 80 25 20 26
REMARK SMILES IDX 79 27 21 28 22 29 23 30 73 31 24 32 78 33 72 34 74 35 25 36
REMARK SMILES IDX 77 37 71 38 70 39 26 41 58 42 38 43 57 44 39 45 42 46 56 47
REMARK SMILES IDX 75 48 40 49 41 50 55 52 76 53 43 54 27 55 28 56 36 57 29 58
REMARK SMILES IDX 35 59 37 60 34 61 30 62 31 63 32 64 33 65 59 66 60 67 68 68
REMARK SMILES IDX 61 69 67 70 69 71 66 72 62 73 63 74 64 75 65 76 44 77 45 78
REMARK SMILES IDX 53 79 46 80 52 81 54 82 51 83 47 84 48 85 49 86 50 87
REMARK H PARENT 10 7 4 16 4 17 15 21 74 40 42 51
REMARK Flexibility Score: inf
ROOT
ATOM      1  C   UNL A   1      31.858  28.244  25.865  1.00  0.00     0.023 C 
ENDROOT
BRANCH   1   2
ATOM      2  C   UNL A   1      32.203  26.979  26.632  1.00  0.00     0.023 C 
BRANCH   2   3
ATOM      3  C   UNL A   1      31.811  25.668  25.945  1.00  0.00     0.116 C 
BRANCH   3   4
ATOM      4  N   UNL A   1      31.116  24.781  26.866  1.00  0.00    -0.356 N 
ATOM      5  C   UNL A   1      30.784  23.464  26.748  1.00  0.00     0.220 C 
ATOM      6  O   UNL A   1      30.091  22.951  27.629  1.00  0.00    -0.275 OA
ATOM      7  H   UNL A   1      30.839  25.202  27.711  1.00  0.00     0.163 HD
BRANCH   5   8
ATOM      8  C   UNL A   1      31.263  22.635  25.568  1.00  0.00     0.109 C 
BRANCH   8   9
ATOM      9  C   UNL A   1      32.278  21.534  25.944  1.00  0.00     0.054 C 
ATOM     10  C   UNL A   1      33.202  18.421  23.794  1.00  0.00     0.013 C 
ATOM     11  C   UNL A   1      33.326  19.360  25.000  1.00  0.00     0.041 C 
ATOM     12  C   UNL A   1      34.659  20.104  24.985  1.00  0.00     0.263 C 
ATOM     13  C   UNL A   1      32.157  20.341  24.996  1.00  0.00     0.019 C 
ATOM     14  N   UNL A   1      34.727  21.070  26.085  1.00  0.00    -0.346 N 
ATOM     15  C   UNL A   1      33.702  22.105  25.921  1.00  0.00     0.264 C 
ATOM     16  H   UNL A   1      35.648  21.507  26.091  1.00  0.00     0.346 HD
ATOM     17  H   UNL A   1      34.565  20.580  26.965  1.00  0.00     0.346 HD
ENDBRANCH   8   9
ENDBRANCH   5   8
ENDBRANCH   3   4
ENDBRANCH   2   3
ENDBRANCH   1   2
BRANCH   1  18
ATOM     18  C   UNL A   1      32.935  29.309  25.915  1.00  0.00     0.116 C 
BRANCH  18  19
ATOM     19  N   UNL A   1      32.442  30.620  26.323  1.00  0.00    -0.352 N 
ATOM     20  C   UNL A   1      33.054  31.548  27.139  1.00  0.00     0.251 C 
ATOM     21  H   UNL A   1      31.559  30.874  25.970  1.00  0.00     0.163 HD
ATOM     22  O   UNL A   1      32.468  32.569  27.469  1.00  0.00    -0.269 OA
BRANCH  20  23
ATOM     23  C   UNL A   1      34.411  31.249  27.643  1.00  0.00     0.039 A 
ATOM     24  C   UNL A   1      35.300  32.299  27.878  1.00  0.00     0.014 A 
ATOM     25  C   UNL A   1      34.744  29.941  27.996  1.00  0.00     0.014 A 
ATOM     26  C   UNL A   1      36.494  32.045  28.558  1.00  0.00     0.010 A 
ATOM     27  C   UNL A   1      35.870  29.714  28.772  1.00  0.00     0.010 A 
ATOM     28  C   UNL A   1      36.763  30.760  29.057  1.00  0.00    -0.014 A 
BRANCH  28  29
ATOM     29  C   UNL A   1      37.987  30.448  29.837  1.00  0.00     0.031 A 
ATOM     30  C   UNL A   1      38.996  29.496  29.249  1.00  0.00     0.074 A 
ATOM     31  C   UNL A   1      38.140  30.913  31.093  1.00  0.00     0.049 A 
ATOM     32  N   UNL A   1      40.013  28.904  29.817  1.00  0.00    -0.248 NA
ATOM     33  C   UNL A   1      38.785  29.114  27.843  1.00  0.00     0.031 C 
ATOM     34  C   UNL A   1      37.210  31.802  31.791  1.00  0.00     0.029 A 
ATOM     35  N   UNL A   1      39.131  30.683  32.015  1.00  0.00    -0.354 N 
ATOM     36  C   UNL A   1      40.528  28.041  28.855  1.00  0.00     0.074 A 
ATOM     37  C   UNL A   1      39.667  28.139  27.697  1.00  0.00     0.031 C 
ATOM     38  C   UNL A   1      37.686  32.062  33.020  1.00  0.00     0.029 A 
ATOM     39  C   UNL A   1      38.926  31.318  33.218  1.00  0.00     0.049 A 
ATOM     40  H   UNL A   1      39.914  30.116  31.833  1.00  0.00     0.167 HD
ATOM     41  C   UNL A   1      41.635  27.261  28.920  1.00  0.00     0.034 A 
ATOM     42  C   UNL A   1      39.651  31.291  34.354  1.00  0.00     0.034 A 
ATOM     43  C   UNL A   1      42.511  27.224  30.064  1.00  0.00     0.049 A 
ATOM     44  C   UNL A   1      40.904  30.451  34.393  1.00  0.00     0.074 A 
ATOM     45  C   UNL A   1      43.692  26.521  30.228  1.00  0.00     0.029 A 
ATOM     46  N   UNL A   1      42.306  27.936  31.239  1.00  0.00    -0.354 N 
ATOM     47  N   UNL A   1      41.394  29.657  33.469  1.00  0.00    -0.248 NA
ATOM     48  C   UNL A   1      41.707  30.513  35.621  1.00  0.00     0.031 C 
ATOM     49  C   UNL A   1      44.178  26.777  31.514  1.00  0.00     0.029 A 
ATOM     50  C   UNL A   1      43.334  27.686  32.133  1.00  0.00     0.049 A 
ATOM     51  H   UNL A   1      41.541  28.532  31.411  1.00  0.00     0.167 HD
ATOM     52  C   UNL A   1      42.581  29.153  33.992  1.00  0.00     0.074 A 
ATOM     53  C   UNL A   1      42.735  29.737  35.310  1.00  0.00     0.031 C 
ATOM     54  C   UNL A   1      43.469  28.291  33.435  1.00  0.00     0.034 A 
BRANCH  41  55
ATOM     55  C   UNL A   1      41.934  26.385  27.727  1.00  0.00     0.023 A 
ATOM     56  C   UNL A   1      41.509  25.046  27.670  1.00  0.00     0.031 A 
ATOM     57  C   UNL A   1      42.708  26.873  26.659  1.00  0.00     0.131 A 
ATOM     58  C   UNL A   1      41.949  24.213  26.632  1.00  0.00     0.055 A 
ATOM     59  C   UNL A   1      43.061  26.064  25.576  1.00  0.00     0.041 A 
ATOM     60  F   UNL A   1      43.160  28.136  26.662  1.00  0.00    -0.206 F 
ATOM     61  C   UNL A   1      42.699  24.719  25.568  1.00  0.00     0.022 A 
BRANCH  58  62
ATOM     62  S   UNL A   1      41.673  22.427  26.783  1.00  0.00     0.124 S 
ATOM     63  O   UNL A   1      42.688  22.058  27.767  1.00  0.00    -0.237 OA
ATOM     64  O   UNL A   1      40.289  22.359  27.237  1.00  0.00    -0.237 OA
ATOM     65  O   UNL A   1      41.913  21.927  25.432  1.00  0.00    -0.744 OA
ENDBRANCH  58  62
ENDBRANCH  41  55
BRANCH  42  66
ATOM     66  C   UNL A   1      39.226  32.078  35.547  1.00  0.00     0.023 A 
ATOM     67  C   UNL A   1      38.532  31.466  36.602  1.00  0.00     0.031 A 
ATOM     68  C   UNL A   1      39.475  33.459  35.633  1.00  0.00     0.131 A 
ATOM     69  C   UNL A   1      38.068  32.240  37.678  1.00  0.00     0.055 A 
ATOM     70  C   UNL A   1      39.052  34.217  36.727  1.00  0.00     0.041 A 
ATOM     71  F   UNL A   1      40.144  34.091  34.655  1.00  0.00    -0.206 F 
ATOM     72  C   UNL A   1      38.332  33.609  37.752  1.00  0.00     0.022 A 
BRANCH  69  73
ATOM     73  S   UNL A   1      37.044  31.440  38.944  1.00  0.00     0.124 S 
ATOM     74  O   UNL A   1      37.890  31.556  40.126  1.00  0.00    -0.237 OA
ATOM     75  O   UNL A   1      35.843  32.268  38.930  1.00  0.00    -0.237 OA
ATOM     76  O   UNL A   1      36.870  30.083  38.431  1.00  0.00    -0.744 OA
ENDBRANCH  69  73
ENDBRANCH  42  66
BRANCH  54  77
ATOM     77  C   UNL A   1      44.715  27.986  34.224  1.00  0.00     0.023 A 
ATOM     78  C   UNL A   1      44.740  26.996  35.219  1.00  0.00     0.031 A 
ATOM     79  C   UNL A   1      45.899  28.701  33.964  1.00  0.00     0.131 A 
ATOM     80  C   UNL A   1      45.917  26.774  35.949  1.00  0.00     0.055 A 
ATOM     81  C   UNL A   1      47.079  28.442  34.659  1.00  0.00     0.041 A 
ATOM     82  F   UNL A   1      45.925  29.657  33.021  1.00  0.00    -0.206 F 
ATOM     83  C   UNL A   1      47.090  27.480  35.666  1.00  0.00     0.022 A 
BRANCH  80  84
ATOM     84  S   UNL A   1      45.879  25.591  37.323  1.00  0.00     0.124 S 
ATOM     85  O   UNL A   1      44.496  25.128  37.287  1.00  0.00    -0.237 OA
ATOM     86  O   UNL A   1      46.889  24.616  36.925  1.00  0.00    -0.237 OA
ATOM     87  O   UNL A   1      46.230  26.405  38.486  1.00  0.00    -0.744 OA
ENDBRANCH  80  84
ENDBRANCH  54  77
ENDBRANCH  28  29
ENDBRANCH  20  23
ENDBRANCH  18  19
ENDBRANCH   1  18
TORSDOF 15
ENDMDL
