MODEL 1
REMARK VINA RESULT:     -12.0      0.000      0.000
REMARK SMILES CC1(C)CSC[C@H](Nc2cc(C(=O)NCCCCNC(=O)c3ccc(-c4c5nc(c(-c6cc(S(=O)(=O)[O-])ccc6F)c6ccc([nH]6)c(-c6cc(S(=O)(=O)[O-])ccc6F)c6nc(c(-c7cc(S(=O)(=O)[O-])ccc7F)c7ccc4[nH]7)C=C6)C=C5)cc3)ccc2F)C1
REMARK SMILES IDX 17 1 16 2 15 3 14 4 12 5 13 6 11 8 9 9 10 10 87 11 86 12
REMARK SMILES IDX 88 13 85 14 8 15 7 17 1 18 2 19 3 20 4 21 89 22 5 23 6 24
REMARK SMILES IDX 18 25 19 26 20 27 21 29 22 30 23 31 84 32 24 33 83 34 25 35
REMARK SMILES IDX 26 36 27 37 77 38 28 39 82 40 76 41 78 42 29 43 81 44 75 45
REMARK SMILES IDX 74 46 30 48 62 49 42 50 61 51 43 52 46 53 60 54 79 55 44 56
REMARK SMILES IDX 45 57 59 59 80 60 47 61 31 62 32 63 40 64 33 65 39 66 41 67
REMARK SMILES IDX 38 68 34 69 35 70 36 71 37 72 63 73 64 74 72 75 65 76 71 77
REMARK SMILES IDX 73 78 70 79 66 80 67 81 68 82 69 83 48 84 49 85 57 86 50 87
REMARK SMILES IDX 56 88 58 89 55 90 51 91 52 92 53 93 54 94
REMARK H PARENT 14 7 8 16 19 28 78 47 46 58
REMARK Flexibility Score: inf
ROOT
ATOM      1  C   UNL A   1      31.751  31.786  26.500  1.00  0.00     0.023 C 
ENDROOT
BRANCH   1   2
ATOM      2  C   UNL A   1      31.718  30.265  26.696  1.00  0.00     0.023 C 
BRANCH   2   3
ATOM      3  C   UNL A   1      33.096  29.601  26.660  1.00  0.00     0.116 C 
BRANCH   3   4
ATOM      4  N   UNL A   1      33.568  29.501  25.295  1.00  0.00    -0.352 N 
ATOM      5  C   UNL A   1      33.029  28.959  24.159  1.00  0.00     0.251 C 
ATOM      6  O   UNL A   1      33.717  29.013  23.138  1.00  0.00    -0.269 OA
ATOM      7  H   UNL A   1      34.454  29.904  25.156  1.00  0.00     0.163 HD
BRANCH   5   8
ATOM      8  C   UNL A   1      31.658  28.372  24.067  1.00  0.00     0.042 A 
ATOM      9  C   UNL A   1      30.299  26.387  24.588  1.00  0.00     0.071 A 
ATOM     10  C   UNL A   1      31.501  27.105  24.661  1.00  0.00     0.042 A 
ATOM     11  C   UNL A   1      29.233  26.976  23.899  1.00  0.00     0.146 A 
ATOM     12  C   UNL A   1      29.342  28.250  23.353  1.00  0.00     0.042 A 
ATOM     13  F   UNL A   1      28.065  26.327  23.768  1.00  0.00    -0.205 F 
ATOM     14  C   UNL A   1      30.547  28.953  23.452  1.00  0.00     0.017 A 
BRANCH   9  15
ATOM     15  N   UNL A   1      30.280  25.079  25.074  1.00  0.00    -0.379 N 
ATOM     16  H   UNL A   1      29.469  24.703  25.485  1.00  0.00     0.160 HD
BRANCH  15  17
ATOM     17  C   UNL A   1      31.506  24.278  24.955  1.00  0.00     0.089 C 
ATOM     18  C   UNL A   1      33.695  23.248  22.973  1.00  0.00     0.012 C 
ATOM     19  C   UNL A   1      32.530  22.385  23.506  1.00  0.00    -0.024 C 
ATOM     20  C   UNL A   1      32.134  21.386  22.399  1.00  0.00     0.012 C 
ATOM     21  C   UNL A   1      32.953  21.570  24.746  1.00  0.00     0.076 C 
ATOM     22  C   UNL A   1      31.299  23.271  23.811  1.00  0.00     0.033 C 
ATOM     23  S   UNL A   1      33.315  22.559  26.228  1.00  0.00    -0.159 SA
ATOM     24  C   UNL A   1      31.794  23.550  26.281  1.00  0.00     0.094 C 
ENDBRANCH  15  17
ENDBRANCH   9  15
ENDBRANCH   5   8
ENDBRANCH   3   4
ENDBRANCH   2   3
ENDBRANCH   1   2
BRANCH   1  25
ATOM     25  C   UNL A   1      32.900  32.506  27.202  1.00  0.00     0.116 C 
BRANCH  25  26
ATOM     26  N   UNL A   1      32.537  33.828  27.682  1.00  0.00    -0.352 N 
ATOM     27  C   UNL A   1      33.108  34.571  28.688  1.00  0.00     0.251 C 
ATOM     28  H   UNL A   1      31.776  34.252  27.223  1.00  0.00     0.163 HD
ATOM     29  O   UNL A   1      32.589  35.626  29.029  1.00  0.00    -0.269 OA
BRANCH  27  30
ATOM     30  C   UNL A   1      34.314  34.067  29.379  1.00  0.00     0.039 A 
ATOM     31  C   UNL A   1      34.148  33.178  30.443  1.00  0.00     0.014 A 
ATOM     32  C   UNL A   1      35.597  34.453  28.978  1.00  0.00     0.014 A 
ATOM     33  C   UNL A   1      35.269  32.628  31.063  1.00  0.00     0.010 A 
ATOM     34  C   UNL A   1      36.714  33.852  29.554  1.00  0.00     0.010 A 
ATOM     35  C   UNL A   1      36.561  32.929  30.600  1.00  0.00    -0.014 A 
BRANCH  35  36
ATOM     36  C   UNL A   1      37.750  32.269  31.196  1.00  0.00     0.031 A 
ATOM     37  C   UNL A   1      38.305  32.737  32.511  1.00  0.00     0.074 A 
ATOM     38  C   UNL A   1      38.340  31.253  30.532  1.00  0.00     0.049 A 
ATOM     39  N   UNL A   1      39.326  32.274  33.184  1.00  0.00    -0.248 NA
ATOM     40  C   UNL A   1      37.642  33.888  33.146  1.00  0.00     0.031 C 
ATOM     41  C   UNL A   1      37.916  30.741  29.226  1.00  0.00     0.029 A 
ATOM     42  N   UNL A   1      39.408  30.459  30.866  1.00  0.00    -0.354 N 
ATOM     43  C   UNL A   1      39.429  33.072  34.317  1.00  0.00     0.074 A 
ATOM     44  C   UNL A   1      38.403  34.086  34.212  1.00  0.00     0.031 C 
ATOM     45  C   UNL A   1      38.681  29.690  28.896  1.00  0.00     0.029 A 
ATOM     46  C   UNL A   1      39.676  29.474  29.943  1.00  0.00     0.049 A 
ATOM     47  H   UNL A   1      39.934  30.582  31.689  1.00  0.00     0.167 HD
ATOM     48  C   UNL A   1      40.283  32.952  35.361  1.00  0.00     0.034 A 
ATOM     49  C   UNL A   1      40.611  28.504  29.939  1.00  0.00     0.034 A 
ATOM     50  C   UNL A   1      41.283  31.921  35.466  1.00  0.00     0.049 A 
ATOM     51  C   UNL A   1      41.560  28.401  31.102  1.00  0.00     0.074 A 
ATOM     52  C   UNL A   1      42.157  31.677  36.510  1.00  0.00     0.029 A 
ATOM     53  N   UNL A   1      41.543  30.964  34.495  1.00  0.00    -0.354 N 
ATOM     54  N   UNL A   1      41.623  29.149  32.178  1.00  0.00    -0.248 NA
ATOM     55  C   UNL A   1      42.562  27.327  31.055  1.00  0.00     0.031 C 
ATOM     56  C   UNL A   1      42.985  30.612  36.146  1.00  0.00     0.029 A 
ATOM     57  C   UNL A   1      42.583  30.147  34.904  1.00  0.00     0.049 A 
ATOM     58  H   UNL A   1      41.059  30.878  33.642  1.00  0.00     0.167 HD
ATOM     59  C   UNL A   1      42.656  28.623  32.946  1.00  0.00     0.074 A 
ATOM     60  C   UNL A   1      43.192  27.496  32.212  1.00  0.00     0.031 C 
ATOM     61  C   UNL A   1      43.111  29.034  34.155  1.00  0.00     0.034 A 
BRANCH  48  62
ATOM     62  C   UNL A   1      40.178  33.958  36.476  1.00  0.00     0.023 A 
ATOM     63  C   UNL A   1      39.624  33.616  37.721  1.00  0.00     0.031 A 
ATOM     64  C   UNL A   1      40.670  35.264  36.304  1.00  0.00     0.131 A 
ATOM     65  C   UNL A   1      39.539  34.582  38.735  1.00  0.00     0.055 A 
ATOM     66  C   UNL A   1      40.639  36.201  37.337  1.00  0.00     0.041 A 
ATOM     67  F   UNL A   1      41.194  35.647  35.128  1.00  0.00    -0.206 F 
ATOM     68  C   UNL A   1      40.064  35.864  38.560  1.00  0.00     0.022 A 
BRANCH  65  69
ATOM     69  S   UNL A   1      38.663  34.159  40.264  1.00  0.00     0.124 S 
ATOM     70  O   UNL A   1      37.494  33.452  39.746  1.00  0.00    -0.237 OA
ATOM     71  O   UNL A   1      39.640  33.343  40.976  1.00  0.00    -0.237 OA
ATOM     72  O   UNL A   1      38.380  35.460  40.868  1.00  0.00    -0.744 OA
ENDBRANCH  65  69
ENDBRANCH  48  62
BRANCH  49  73
ATOM     73  C   UNL A   1      40.683  27.550  28.798  1.00  0.00     0.023 A 
ATOM     74  C   UNL A   1      41.628  27.719  27.774  1.00  0.00     0.031 A 
ATOM     75  C   UNL A   1      39.822  26.441  28.730  1.00  0.00     0.131 A 
ATOM     76  C   UNL A   1      41.679  26.800  26.714  1.00  0.00     0.055 A 
ATOM     77  C   UNL A   1      39.901  25.510  27.694  1.00  0.00     0.041 A 
ATOM     78  F   UNL A   1      38.910  26.231  29.693  1.00  0.00    -0.206 F 
ATOM     79  C   UNL A   1      40.832  25.690  26.674  1.00  0.00     0.022 A 
BRANCH  76  80
ATOM     80  S   UNL A   1      42.862  27.083  25.368  1.00  0.00     0.124 S 
ATOM     81  O   UNL A   1      44.080  27.394  26.107  1.00  0.00    -0.237 OA
ATOM     82  O   UNL A   1      42.843  25.802  24.670  1.00  0.00    -0.237 OA
ATOM     83  O   UNL A   1      42.277  28.200  24.629  1.00  0.00    -0.744 OA
ENDBRANCH  76  80
ENDBRANCH  49  73
BRANCH  61  84
ATOM     84  C   UNL A   1      44.227  28.250  34.788  1.00  0.00     0.023 A 
ATOM     85  C   UNL A   1      43.970  27.114  35.571  1.00  0.00     0.031 A 
ATOM     86  C   UNL A   1      45.564  28.592  34.519  1.00  0.00     0.131 A 
ATOM     87  C   UNL A   1      45.042  26.358  36.067  1.00  0.00     0.055 A 
ATOM     88  C   UNL A   1      46.625  27.815  34.983  1.00  0.00     0.041 A 
ATOM     89  F   UNL A   1      45.855  29.665  33.767  1.00  0.00    -0.206 F 
ATOM     90  C   UNL A   1      46.366  26.690  35.762  1.00  0.00     0.022 A 
BRANCH  87  91
ATOM     91  S   UNL A   1      44.689  24.920  37.113  1.00  0.00     0.124 S 
ATOM     92  O   UNL A   1      44.192  23.953  36.140  1.00  0.00    -0.237 OA
ATOM     93  O   UNL A   1      45.994  24.622  37.697  1.00  0.00    -0.237 OA
ATOM     94  O   UNL A   1      43.692  25.418  38.058  1.00  0.00    -0.744 OA
ENDBRANCH  87  91
ENDBRANCH  61  84
ENDBRANCH  35  36
ENDBRANCH  27  30
ENDBRANCH  25  26
ENDBRANCH   1  25
TORSDOF 16
ENDMDL
MODEL 2
REMARK VINA RESULT:     -12.0      0.549      7.753
REMARK SMILES CC1(C)CSC[C@H](Nc2cc(C(=O)NCCCCNC(=O)c3ccc(-c4c5nc(c(-c6cc(S(=O)(=O)[O-])ccc6F)c6ccc([nH]6)c(-c6cc(S(=O)(=O)[O-])ccc6F)c6nc(c(-c7cc(S(=O)(=O)[O-])ccc7F)c7ccc4[nH]7)C=C6)C=C5)cc3)ccc2F)C1
REMARK SMILES IDX 17 1 16 2 15 3 14 4 12 5 13 6 11 8 9 9 10 10 87 11 86 12
REMARK SMILES IDX 88 13 85 14 8 15 7 17 1 18 2 19 3 20 4 21 89 22 5 23 6 24
REMARK SMILES IDX 18 25 19 26 20 27 21 29 22 30 23 31 84 32 24 33 83 34 25 35
REMARK SMILES IDX 26 36 27 37 77 38 28 39 82 40 76 41 78 42 29 43 81 44 75 45
REMARK SMILES IDX 74 46 30 48 62 49 42 50 61 51 43 52 46 53 60 54 79 55 44 56
REMARK SMILES IDX 45 57 59 59 80 60 47 61 31 62 32 63 40 64 33 65 39 66 41 67
REMARK SMILES IDX 38 68 34 69 35 70 36 71 37 72 63 73 64 74 72 75 65 76 71 77
REMARK SMILES IDX 73 78 70 79 66 80 67 81 68 82 69 83 48 84 49 85 57 86 50 87
REMARK SMILES IDX 56 88 58 89 55 90 51 91 52 92 53 93 54 94
REMARK H PARENT 14 7 8 16 19 28 78 47 46 58
REMARK Flexibility Score: inf
ROOT
ATOM      1  C   UNL A   1      31.756  31.803  26.512  1.00  0.00     0.023 C 
ENDROOT
BRANCH   1   2
ATOM      2  C   UNL A   1      31.624  30.291  26.733  1.00  0.00     0.023 C 
BRANCH   2   3
ATOM      3  C   UNL A   1      32.944  29.527  26.625  1.00  0.00     0.116 C 
BRANCH   3   4
ATOM      4  N   UNL A   1      33.394  29.497  25.248  1.00  0.00    -0.352 N 
ATOM      5  C   UNL A   1      32.846  28.994  24.099  1.00  0.00     0.251 C 
ATOM      6  O   UNL A   1      33.515  29.109  23.069  1.00  0.00    -0.269 OA
ATOM      7  H   UNL A   1      34.269  29.925  25.112  1.00  0.00     0.163 HD
BRANCH   5   8
ATOM      8  C   UNL A   1      31.487  28.382  24.004  1.00  0.00     0.042 A 
ATOM      9  C   UNL A   1      30.131  26.427  24.636  1.00  0.00     0.071 A 
ATOM     10  C   UNL A   1      31.321  27.166  24.696  1.00  0.00     0.042 A 
ATOM     11  C   UNL A   1      29.086  26.941  23.861  1.00  0.00     0.146 A 
ATOM     12  C   UNL A   1      29.202  28.167  23.214  1.00  0.00     0.042 A 
ATOM     13  F   UNL A   1      27.932  26.267  23.740  1.00  0.00    -0.205 F 
ATOM     14  C   UNL A   1      30.394  28.894  23.300  1.00  0.00     0.017 A 
BRANCH   9  15
ATOM     15  N   UNL A   1      30.108  25.164  25.229  1.00  0.00    -0.379 N 
ATOM     16  H   UNL A   1      29.299  24.830  25.679  1.00  0.00     0.160 HD
BRANCH  15  17
ATOM     17  C   UNL A   1      31.326  24.346  25.162  1.00  0.00     0.089 C 
ATOM     18  C   UNL A   1      33.646  23.376  23.303  1.00  0.00     0.012 C 
ATOM     19  C   UNL A   1      32.429  22.510  23.698  1.00  0.00    -0.024 C 
ATOM     20  C   UNL A   1      32.105  21.578  22.511  1.00  0.00     0.012 C 
ATOM     21  C   UNL A   1      32.740  21.622  24.921  1.00  0.00     0.076 C 
ATOM     22  C   UNL A   1      31.193  23.404  23.953  1.00  0.00     0.033 C 
ATOM     23  S   UNL A   1      33.001  22.525  26.478  1.00  0.00    -0.159 SA
ATOM     24  C   UNL A   1      31.497  23.544  26.466  1.00  0.00     0.094 C 
ENDBRANCH  15  17
ENDBRANCH   9  15
ENDBRANCH   5   8
ENDBRANCH   3   4
ENDBRANCH   2   3
ENDBRANCH   1   2
BRANCH   1  25
ATOM     25  C   UNL A   1      32.902  32.472  27.267  1.00  0.00     0.116 C 
BRANCH  25  26
ATOM     26  N   UNL A   1      32.615  33.846  27.640  1.00  0.00    -0.352 N 
ATOM     27  C   UNL A   1      33.200  34.620  28.613  1.00  0.00     0.251 C 
ATOM     28  H   UNL A   1      31.901  34.285  27.123  1.00  0.00     0.163 HD
ATOM     29  O   UNL A   1      32.744  35.729  28.860  1.00  0.00    -0.269 OA
BRANCH  27  30
ATOM     30  C   UNL A   1      34.345  34.088  29.385  1.00  0.00     0.039 A 
ATOM     31  C   UNL A   1      34.080  33.270  30.485  1.00  0.00     0.014 A 
ATOM     32  C   UNL A   1      35.663  34.379  29.025  1.00  0.00     0.014 A 
ATOM     33  C   UNL A   1      35.140  32.692  31.185  1.00  0.00     0.010 A 
ATOM     34  C   UNL A   1      36.717  33.749  29.682  1.00  0.00     0.010 A 
ATOM     35  C   UNL A   1      36.467  32.895  30.766  1.00  0.00    -0.014 A 
BRANCH  35  36
ATOM     36  C   UNL A   1      37.588  32.203  31.450  1.00  0.00     0.031 A 
ATOM     37  C   UNL A   1      38.316  31.076  30.774  1.00  0.00     0.074 A 
ATOM     38  C   UNL A   1      37.935  32.585  32.697  1.00  0.00     0.049 A 
ATOM     39  N   UNL A   1      39.322  30.365  31.215  1.00  0.00    -0.248 NA
ATOM     40  C   UNL A   1      37.842  30.678  29.439  1.00  0.00     0.031 C 
ATOM     41  C   UNL A   1      37.271  33.638  33.470  1.00  0.00     0.029 A 
ATOM     42  N   UNL A   1      38.936  32.148  33.527  1.00  0.00    -0.354 N 
ATOM     43  C   UNL A   1      39.601  29.441  30.216  1.00  0.00     0.074 A 
ATOM     44  C   UNL A   1      38.621  29.640  29.171  1.00  0.00     0.031 C 
ATOM     45  C   UNL A   1      37.914  33.799  34.637  1.00  0.00     0.029 A 
ATOM     46  C   UNL A   1      39.010  32.838  34.716  1.00  0.00     0.049 A 
ATOM     47  H   UNL A   1      39.544  31.410  33.295  1.00  0.00     0.167 HD
ATOM     48  C   UNL A   1      40.600  28.528  30.165  1.00  0.00     0.034 A 
ATOM     49  C   UNL A   1      39.864  32.716  35.751  1.00  0.00     0.034 A 
ATOM     50  C   UNL A   1      41.586  28.357  31.200  1.00  0.00     0.049 A 
ATOM     51  C   UNL A   1      40.956  31.683  35.678  1.00  0.00     0.074 A 
ATOM     52  C   UNL A   1      42.673  27.502  31.217  1.00  0.00     0.029 A 
ATOM     53  N   UNL A   1      41.606  29.053  32.401  1.00  0.00    -0.354 N 
ATOM     54  N   UNL A   1      41.220  30.836  34.712  1.00  0.00    -0.248 NA
ATOM     55  C   UNL A   1      41.864  31.587  36.829  1.00  0.00     0.031 C 
ATOM     56  C   UNL A   1      43.315  27.636  32.450  1.00  0.00     0.029 A 
ATOM     57  C   UNL A   1      42.669  28.625  33.177  1.00  0.00     0.049 A 
ATOM     58  H   UNL A   1      40.959  29.748  32.663  1.00  0.00     0.167 HD
ATOM     59  C   UNL A   1      42.338  30.121  35.129  1.00  0.00     0.074 A 
ATOM     60  C   UNL A   1      42.699  30.632  36.434  1.00  0.00     0.031 C 
ATOM     61  C   UNL A   1      43.008  29.138  34.480  1.00  0.00     0.034 A 
BRANCH  48  62
ATOM     62  C   UNL A   1      40.681  27.641  28.950  1.00  0.00     0.023 A 
ATOM     63  C   UNL A   1      41.608  27.888  27.924  1.00  0.00     0.031 A 
ATOM     64  C   UNL A   1      39.848  26.515  28.836  1.00  0.00     0.131 A 
ATOM     65  C   UNL A   1      41.651  27.043  26.805  1.00  0.00     0.055 A 
ATOM     66  C   UNL A   1      39.940  25.642  27.751  1.00  0.00     0.041 A 
ATOM     67  F   UNL A   1      38.935  26.242  29.781  1.00  0.00    -0.206 F 
ATOM     68  C   UNL A   1      40.841  25.908  26.724  1.00  0.00     0.022 A 
BRANCH  65  69
ATOM     69  S   UNL A   1      42.734  27.489  25.422  1.00  0.00     0.124 S 
ATOM     70  O   UNL A   1      42.709  26.266  24.624  1.00  0.00    -0.237 OA
ATOM     71  O   UNL A   1      42.054  28.643  24.844  1.00  0.00    -0.237 OA
ATOM     72  O   UNL A   1      44.012  27.780  26.068  1.00  0.00    -0.744 OA
ENDBRANCH  65  69
ENDBRANCH  48  62
BRANCH  49  73
ATOM     73  C   UNL A   1      39.721  33.605  36.937  1.00  0.00     0.023 A 
ATOM     74  C   UNL A   1      39.270  33.103  38.166  1.00  0.00     0.031 A 
ATOM     75  C   UNL A   1      40.060  34.968  36.860  1.00  0.00     0.131 A 
ATOM     76  C   UNL A   1      39.152  33.962  39.270  1.00  0.00     0.055 A 
ATOM     77  C   UNL A   1      39.977  35.810  37.970  1.00  0.00     0.041 A 
ATOM     78  F   UNL A   1      40.509  35.491  35.708  1.00  0.00    -0.206 F 
ATOM     79  C   UNL A   1      39.516  35.309  39.183  1.00  0.00     0.022 A 
BRANCH  76  80
ATOM     80  S   UNL A   1      38.498  33.301  40.827  1.00  0.00     0.124 S 
ATOM     81  O   UNL A   1      37.196  33.954  40.902  1.00  0.00    -0.237 OA
ATOM     82  O   UNL A   1      38.482  31.865  40.566  1.00  0.00    -0.237 OA
ATOM     83  O   UNL A   1      39.475  33.739  41.821  1.00  0.00    -0.744 OA
ENDBRANCH  76  80
ENDBRANCH  49  73
BRANCH  61  84
ATOM     84  C   UNL A   1      44.224  28.558  35.150  1.00  0.00     0.023 A 
ATOM     85  C   UNL A   1      44.142  27.401  35.939  1.00  0.00     0.031 A 
ATOM     86  C   UNL A   1      45.490  29.120  34.911  1.00  0.00     0.131 A 
ATOM     87  C   UNL A   1      45.313  26.840  36.470  1.00  0.00     0.055 A 
ATOM     88  C   UNL A   1      46.655  28.538  35.411  1.00  0.00     0.041 A 
ATOM     89  F   UNL A   1      45.615  30.222  34.155  1.00  0.00    -0.206 F 
ATOM     90  C   UNL A   1      46.569  27.390  36.195  1.00  0.00     0.022 A 
BRANCH  87  91
ATOM     91  S   UNL A   1      45.181  25.371  37.523  1.00  0.00     0.124 S 
ATOM     92  O   UNL A   1      46.099  24.446  36.866  1.00  0.00    -0.237 OA
ATOM     93  O   UNL A   1      45.608  25.872  38.826  1.00  0.00    -0.237 OA
ATOM     94  O   UNL A   1      43.767  25.010  37.435  1.00  0.00    -0.744 OA
ENDBRANCH  87  91
ENDBRANCH  61  84
ENDBRANCH  35  36
ENDBRANCH  27  30
ENDBRANCH  25  26
ENDBRANCH   1  25
TORSDOF 16
ENDMDL
MODEL 3
REMARK VINA RESULT:     -11.9      5.916     10.056
REMARK SMILES CC1(C)CSC[C@H](Nc2cc(C(=O)NCCCCNC(=O)c3ccc(-c4c5nc(c(-c6cc(S(=O)(=O)[O-])ccc6F)c6ccc([nH]6)c(-c6cc(S(=O)(=O)[O-])ccc6F)c6nc(c(-c7cc(S(=O)(=O)[O-])ccc7F)c7ccc4[nH]7)C=C6)C=C5)cc3)ccc2F)C1
REMARK SMILES IDX 17 1 16 2 15 3 14 4 12 5 13 6 11 8 9 9 10 10 87 11 86 12
REMARK SMILES IDX 88 13 85 14 8 15 7 17 1 18 2 19 3 20 4 21 89 22 5 23 6 24
REMARK SMILES IDX 18 25 19 26 20 27 21 29 22 30 23 31 84 32 24 33 83 34 25 35
REMARK SMILES IDX 26 36 27 37 77 38 28 39 82 40 76 41 78 42 29 43 81 44 75 45
REMARK SMILES IDX 74 46 30 48 62 49 42 50 61 51 43 52 46 53 60 54 79 55 44 56
REMARK SMILES IDX 45 57 59 59 80 60 47 61 31 62 32 63 40 64 33 65 39 66 41 67
REMARK SMILES IDX 38 68 34 69 35 70 36 71 37 72 63 73 64 74 72 75 65 76 71 77
REMARK SMILES IDX 73 78 70 79 66 80 67 81 68 82 69 83 48 84 49 85 57 86 50 87
REMARK SMILES IDX 56 88 58 89 55 90 51 91 52 92 53 93 54 94
REMARK H PARENT 14 7 8 16 19 28 78 47 46 58
REMARK Flexibility Score: inf
ROOT
ATOM      1  C   UNL A   1      37.979  19.889  25.005  1.00  0.00     0.023 C 
ENDROOT
BRANCH   1   2
ATOM      2  C   UNL A   1      37.131  21.053  24.474  1.00  0.00     0.023 C 
BRANCH   2   3
ATOM      3  C   UNL A   1      36.841  22.137  25.513  1.00  0.00     0.116 C 
BRANCH   3   4
ATOM      4  N   UNL A   1      35.903  21.646  26.501  1.00  0.00    -0.352 N 
ATOM      5  C   UNL A   1      34.536  21.631  26.563  1.00  0.00     0.251 C 
ATOM      6  O   UNL A   1      34.032  21.153  27.582  1.00  0.00    -0.269 OA
ATOM      7  H   UNL A   1      36.337  21.242  27.286  1.00  0.00     0.163 HD
BRANCH   5   8
ATOM      8  C   UNL A   1      33.631  22.090  25.466  1.00  0.00     0.042 A 
ATOM      9  C   UNL A   1      31.976  23.797  24.828  1.00  0.00     0.071 A 
ATOM     10  C   UNL A   1      32.924  23.280  25.723  1.00  0.00     0.042 A 
ATOM     11  C   UNL A   1      31.749  23.088  23.644  1.00  0.00     0.146 A 
ATOM     12  C   UNL A   1      32.475  21.942  23.337  1.00  0.00     0.042 A 
ATOM     13  F   UNL A   1      30.833  23.514  22.760  1.00  0.00    -0.205 F 
ATOM     14  C   UNL A   1      33.426  21.454  24.239  1.00  0.00     0.017 A 
BRANCH   9  15
ATOM     15  N   UNL A   1      31.217  24.896  25.232  1.00  0.00    -0.379 N 
ATOM     16  H   UNL A   1      30.387  24.777  25.747  1.00  0.00     0.160 HD
BRANCH  15  17
ATOM     17  C   UNL A   1      31.693  26.237  24.868  1.00  0.00     0.089 C 
ATOM     18  C   UNL A   1      33.672  28.535  25.632  1.00  0.00     0.012 C 
ATOM     19  C   UNL A   1      32.158  28.557  25.932  1.00  0.00    -0.024 C 
ATOM     20  C   UNL A   1      31.947  29.325  27.255  1.00  0.00     0.012 C 
ATOM     21  C   UNL A   1      31.374  29.298  24.829  1.00  0.00     0.076 C 
ATOM     22  C   UNL A   1      31.626  27.117  26.127  1.00  0.00     0.033 C 
ATOM     23  S   UNL A   1      31.361  28.471  23.210  1.00  0.00    -0.159 SA
ATOM     24  C   UNL A   1      30.819  26.821  23.743  1.00  0.00     0.094 C 
ENDBRANCH  15  17
ENDBRANCH   9  15
ENDBRANCH   5   8
ENDBRANCH   3   4
ENDBRANCH   2   3
ENDBRANCH   1   2
BRANCH   1  25
ATOM     25  C   UNL A   1      39.240  20.299  25.762  1.00  0.00     0.116 C 
BRANCH  25  26
ATOM     26  N   UNL A   1      40.203  19.219  25.894  1.00  0.00    -0.352 N 
ATOM     27  C   UNL A   1      41.552  19.287  26.143  1.00  0.00     0.251 C 
ATOM     28  H   UNL A   1      39.837  18.310  25.791  1.00  0.00     0.163 HD
ATOM     29  O   UNL A   1      42.226  18.266  26.107  1.00  0.00    -0.269 OA
BRANCH  27  30
ATOM     30  C   UNL A   1      42.185  20.598  26.406  1.00  0.00     0.039 A 
ATOM     31  C   UNL A   1      42.664  21.333  25.320  1.00  0.00     0.014 A 
ATOM     32  C   UNL A   1      42.297  21.105  27.703  1.00  0.00     0.014 A 
ATOM     33  C   UNL A   1      43.195  22.606  25.530  1.00  0.00     0.010 A 
ATOM     34  C   UNL A   1      42.766  22.401  27.904  1.00  0.00     0.010 A 
ATOM     35  C   UNL A   1      43.216  23.167  26.818  1.00  0.00    -0.014 A 
BRANCH  35  36
ATOM     36  C   UNL A   1      43.692  24.558  27.028  1.00  0.00     0.031 A 
ATOM     37  C   UNL A   1      42.755  25.618  27.534  1.00  0.00     0.074 A 
ATOM     38  C   UNL A   1      44.973  24.865  26.740  1.00  0.00     0.049 A 
ATOM     39  N   UNL A   1      42.997  26.878  27.785  1.00  0.00    -0.248 NA
ATOM     40  C   UNL A   1      41.357  25.219  27.769  1.00  0.00     0.031 C 
ATOM     41  C   UNL A   1      45.964  23.929  26.202  1.00  0.00     0.029 A 
ATOM     42  N   UNL A   1      45.670  26.040  26.873  1.00  0.00    -0.354 N 
ATOM     43  C   UNL A   1      41.790  27.422  28.207  1.00  0.00     0.074 A 
ATOM     44  C   UNL A   1      40.801  26.369  28.121  1.00  0.00     0.031 C 
ATOM     45  C   UNL A   1      47.148  24.551  26.100  1.00  0.00     0.029 A 
ATOM     46  C   UNL A   1      46.997  25.939  26.526  1.00  0.00     0.049 A 
ATOM     47  H   UNL A   1      45.258  26.877  27.187  1.00  0.00     0.167 HD
ATOM     48  C   UNL A   1      41.536  28.676  28.650  1.00  0.00     0.034 A 
ATOM     49  C   UNL A   1      47.984  26.857  26.550  1.00  0.00     0.034 A 
ATOM     50  C   UNL A   1      42.535  29.708  28.755  1.00  0.00     0.049 A 
ATOM     51  C   UNL A   1      47.675  28.249  27.031  1.00  0.00     0.074 A 
ATOM     52  C   UNL A   1      42.394  30.992  29.248  1.00  0.00     0.029 A 
ATOM     53  N   UNL A   1      43.860  29.574  28.362  1.00  0.00    -0.354 N 
ATOM     54  N   UNL A   1      46.531  28.735  27.451  1.00  0.00    -0.248 NA
ATOM     55  C   UNL A   1      48.782  29.215  27.042  1.00  0.00     0.031 C 
ATOM     56  C   UNL A   1      43.614  31.655  29.098  1.00  0.00     0.029 A 
ATOM     57  C   UNL A   1      44.537  30.762  28.575  1.00  0.00     0.049 A 
ATOM     58  H   UNL A   1      44.259  28.756  27.988  1.00  0.00     0.167 HD
ATOM     59  C   UNL A   1      46.787  30.058  27.798  1.00  0.00     0.074 A 
ATOM     60  C   UNL A   1      48.190  30.296  27.536  1.00  0.00     0.031 C 
ATOM     61  C   UNL A   1      45.934  30.986  28.298  1.00  0.00     0.034 A 
BRANCH  48  62
ATOM     62  C   UNL A   1      40.125  29.007  29.055  1.00  0.00     0.023 A 
ATOM     63  C   UNL A   1      39.737  29.029  30.406  1.00  0.00     0.031 A 
ATOM     64  C   UNL A   1      39.166  29.341  28.083  1.00  0.00     0.131 A 
ATOM     65  C   UNL A   1      38.412  29.337  30.745  1.00  0.00     0.055 A 
ATOM     66  C   UNL A   1      37.865  29.709  28.432  1.00  0.00     0.041 A 
ATOM     67  F   UNL A   1      39.480  29.320  26.778  1.00  0.00    -0.206 F 
ATOM     68  C   UNL A   1      37.480  29.702  29.770  1.00  0.00     0.022 A 
BRANCH  65  69
ATOM     69  S   UNL A   1      37.902  29.186  32.478  1.00  0.00     0.124 S 
ATOM     70  O   UNL A   1      38.965  29.921  33.160  1.00  0.00    -0.237 OA
ATOM     71  O   UNL A   1      36.587  29.815  32.480  1.00  0.00    -0.237 OA
ATOM     72  O   UNL A   1      37.903  27.743  32.710  1.00  0.00    -0.744 OA
ENDBRANCH  65  69
ENDBRANCH  48  62
BRANCH  49  73
ATOM     73  C   UNL A   1      49.357  26.478  26.115  1.00  0.00     0.023 A 
ATOM     74  C   UNL A   1      49.873  26.920  24.887  1.00  0.00     0.031 A 
ATOM     75  C   UNL A   1      50.182  25.689  26.937  1.00  0.00     0.131 A 
ATOM     76  C   UNL A   1      51.174  26.554  24.506  1.00  0.00     0.055 A 
ATOM     77  C   UNL A   1      51.487  25.359  26.569  1.00  0.00     0.041 A 
ATOM     78  F   UNL A   1      49.736  25.254  28.126  1.00  0.00    -0.206 F 
ATOM     79  C   UNL A   1      51.988  25.789  25.344  1.00  0.00     0.022 A 
BRANCH  76  80
ATOM     80  S   UNL A   1      51.788  27.079  22.882  1.00  0.00     0.124 S 
ATOM     81  O   UNL A   1      50.556  27.130  22.102  1.00  0.00    -0.237 OA
ATOM     82  O   UNL A   1      52.406  28.365  23.190  1.00  0.00    -0.237 OA
ATOM     83  O   UNL A   1      52.720  26.017  22.510  1.00  0.00    -0.744 OA
ENDBRANCH  76  80
ENDBRANCH  49  73
BRANCH  61  84
ATOM     84  C   UNL A   1      46.490  32.344  28.627  1.00  0.00     0.023 A 
ATOM     85  C   UNL A   1      46.446  33.396  27.700  1.00  0.00     0.031 A 
ATOM     86  C   UNL A   1      46.977  32.607  29.920  1.00  0.00     0.131 A 
ATOM     87  C   UNL A   1      46.891  34.671  28.079  1.00  0.00     0.055 A 
ATOM     88  C   UNL A   1      47.383  33.885  30.302  1.00  0.00     0.041 A 
ATOM     89  F   UNL A   1      47.028  31.631  30.840  1.00  0.00    -0.206 F 
ATOM     90  C   UNL A   1      47.341  34.926  29.379  1.00  0.00     0.022 A 
BRANCH  87  91
ATOM     91  S   UNL A   1      46.868  36.007  26.853  1.00  0.00     0.124 S 
ATOM     92  O   UNL A   1      48.289  36.181  26.570  1.00  0.00    -0.237 OA
ATOM     93  O   UNL A   1      46.068  35.435  25.773  1.00  0.00    -0.237 OA
ATOM     94  O   UNL A   1      46.237  37.116  27.565  1.00  0.00    -0.744 OA
ENDBRANCH  87  91
ENDBRANCH  61  84
ENDBRANCH  35  36
ENDBRANCH  27  30
ENDBRANCH  25  26
ENDBRANCH   1  25
TORSDOF 16
ENDMDL
