MODEL 1
REMARK VINA RESULT:     -10.5      0.000      0.000
REMARK SMILES CCCc1nnc(SCC(=O)NCCCCNC(=O)c2ccc(-c3c4nc(c(-c5cc(S(=O)(=O)[O-])ccc5F)c5ccc([nH]5)c(-c5cc(S(=O)(=O)[O-])ccc5F)c5nc(c(-c6cc(S(=O)(=O)[O-])ccc6F)c6ccc3[nH]6)C=C5)C=C4)cc2)n1C[C@H]1CCCO1
REMARK SMILES IDX 14 1 13 2 12 3 10 4 11 5 9 7 8 8 7 9 4 10 5 11 83 12 6 13
REMARK SMILES IDX 3 14 2 15 1 16 84 17 85 18 86 19 89 20 87 21 88 22 15 23
REMARK SMILES IDX 16 24 17 25 18 26 19 28 20 29 21 30 82 31 22 32 81 33 23 34
REMARK SMILES IDX 24 35 25 36 75 37 26 38 80 39 74 40 76 41 27 42 79 43 73 44
REMARK SMILES IDX 72 45 28 47 60 48 40 49 59 50 41 51 44 52 58 53 77 54 42 55
REMARK SMILES IDX 43 56 57 58 78 59 45 60 29 61 30 62 38 63 31 64 37 65 39 66
REMARK SMILES IDX 36 67 32 68 33 69 34 70 35 71 61 72 62 73 70 74 63 75 69 76
REMARK SMILES IDX 71 77 68 78 64 79 65 80 66 81 67 82 46 83 47 84 55 85 48 86
REMARK SMILES IDX 54 87 56 88 53 89 49 90 50 91 51 92 52 93
REMARK H PARENT 12 6 17 27 76 46 44 57
REMARK Flexibility Score: inf
ROOT
ATOM      1  C   UNL A   1      36.190  20.159  25.006  1.00  0.00     0.023 C 
ENDROOT
BRANCH   1   2
ATOM      2  C   UNL A   1      35.427  21.363  25.545  1.00  0.00     0.116 C 
BRANCH   2   3
ATOM      3  N   UNL A   1      35.083  22.273  24.477  1.00  0.00    -0.355 N 
ATOM      4  C   UNL A   1      33.840  22.427  23.948  1.00  0.00     0.230 C 
ATOM      5  O   UNL A   1      33.711  22.909  22.825  1.00  0.00    -0.274 OA
ATOM      6  H   UNL A   1      35.807  22.825  24.102  1.00  0.00     0.163 HD
BRANCH   4   7
ATOM      7  C   UNL A   1      32.662  22.126  24.827  1.00  0.00     0.178 C 
BRANCH   7   8
ATOM      8  S   UNL A   1      32.524  23.021  26.354  1.00  0.00    -0.076 SA
BRANCH   8   9
ATOM      9  C   UNL A   1      32.777  24.692  26.033  1.00  0.00     0.191 A 
ATOM     10  C   UNL A   1      32.702  26.854  26.192  1.00  0.00     0.133 A 
ATOM     11  N   UNL A   1      33.957  26.499  25.980  1.00  0.00    -0.134 NA
ATOM     12  N   UNL A   1      31.895  25.743  25.926  1.00  0.00    -0.303 N 
ATOM     13  N   UNL A   1      34.002  25.145  25.890  1.00  0.00    -0.123 NA
BRANCH  10  14
ATOM     14  C   UNL A   1      32.376  28.230  26.695  1.00  0.00     0.077 C 
BRANCH  14  15
ATOM     15  C   UNL A   1      32.593  29.453  25.815  1.00  0.00     0.005 C 
ATOM     16  C   UNL A   1      31.340  29.987  25.138  1.00  0.00     0.004 C 
ENDBRANCH  14  15
ENDBRANCH  10  14
BRANCH  12  17
ATOM     17  C   UNL A   1      30.463  25.753  25.725  1.00  0.00     0.158 C 
BRANCH  17  18
ATOM     18  C   UNL A   1      29.800  25.895  24.326  1.00  0.00     0.138 C 
ATOM     19  C   UNL A   1      29.773  27.182  23.514  1.00  0.00     0.036 C 
ATOM     20  O   UNL A   1      30.483  24.959  23.452  1.00  0.00    -0.376 OA
ATOM     21  C   UNL A   1      30.945  27.119  22.555  1.00  0.00     0.031 C 
ATOM     22  C   UNL A   1      31.362  25.667  22.564  1.00  0.00     0.160 C 
ENDBRANCH  17  18
ENDBRANCH  12  17
ENDBRANCH   8   9
ENDBRANCH   7   8
ENDBRANCH   4   7
ENDBRANCH   2   3
ENDBRANCH   1   2
BRANCH   1  23
ATOM     23  C   UNL A   1      37.644  20.439  24.603  1.00  0.00     0.023 C 
BRANCH  23  24
ATOM     24  C   UNL A   1      38.599  20.600  25.777  1.00  0.00     0.116 C 
BRANCH  24  25
ATOM     25  N   UNL A   1      39.626  19.565  25.784  1.00  0.00    -0.352 N 
ATOM     26  C   UNL A   1      40.983  19.705  25.960  1.00  0.00     0.251 C 
ATOM     27  H   UNL A   1      39.306  18.644  25.644  1.00  0.00     0.163 HD
ATOM     28  O   UNL A   1      41.750  18.809  25.609  1.00  0.00    -0.269 OA
BRANCH  26  29
ATOM     29  C   UNL A   1      41.499  20.935  26.578  1.00  0.00     0.039 A 
ATOM     30  C   UNL A   1      41.916  22.014  25.804  1.00  0.00     0.014 A 
ATOM     31  C   UNL A   1      41.530  21.007  27.970  1.00  0.00     0.014 A 
ATOM     32  C   UNL A   1      42.280  23.194  26.446  1.00  0.00     0.010 A 
ATOM     33  C   UNL A   1      41.775  22.201  28.602  1.00  0.00     0.010 A 
ATOM     34  C   UNL A   1      42.186  23.289  27.846  1.00  0.00    -0.014 A 
BRANCH  34  35
ATOM     35  C   UNL A   1      42.347  24.575  28.516  1.00  0.00     0.031 A 
ATOM     36  C   UNL A   1      41.206  25.504  28.303  1.00  0.00     0.074 A 
ATOM     37  C   UNL A   1      43.306  24.839  29.429  1.00  0.00     0.049 A 
ATOM     38  N   UNL A   1      41.195  26.581  27.592  1.00  0.00    -0.248 NA
ATOM     39  C   UNL A   1      39.872  25.102  28.785  1.00  0.00     0.031 C 
ATOM     40  C   UNL A   1      44.310  23.929  29.986  1.00  0.00     0.029 A 
ATOM     41  N   UNL A   1      43.514  25.979  30.143  1.00  0.00    -0.354 N 
ATOM     42  C   UNL A   1      39.931  27.135  27.759  1.00  0.00     0.074 A 
ATOM     43  C   UNL A   1      39.111  26.081  28.292  1.00  0.00     0.031 C 
ATOM     44  C   UNL A   1      44.850  24.475  31.098  1.00  0.00     0.029 A 
ATOM     45  C   UNL A   1      44.355  25.833  31.245  1.00  0.00     0.049 A 
ATOM     46  H   UNL A   1      43.102  26.840  29.901  1.00  0.00     0.167 HD
ATOM     47  C   UNL A   1      39.745  28.484  27.692  1.00  0.00     0.034 A 
ATOM     48  C   UNL A   1      44.600  26.751  32.220  1.00  0.00     0.034 A 
ATOM     49  C   UNL A   1      40.880  29.126  27.058  1.00  0.00     0.049 A 
ATOM     50  C   UNL A   1      44.269  28.077  31.643  1.00  0.00     0.074 A 
ATOM     51  C   UNL A   1      41.531  28.951  25.848  1.00  0.00     0.029 A 
ATOM     52  N   UNL A   1      41.780  29.805  27.852  1.00  0.00    -0.354 N 
ATOM     53  N   UNL A   1      44.926  28.606  30.646  1.00  0.00    -0.248 NA
ATOM     54  C   UNL A   1      42.914  28.579  31.822  1.00  0.00     0.031 C 
ATOM     55  C   UNL A   1      42.919  29.024  26.169  1.00  0.00     0.029 A 
ATOM     56  C   UNL A   1      43.036  29.352  27.522  1.00  0.00     0.049 A 
ATOM     57  H   UNL A   1      41.564  30.487  28.528  1.00  0.00     0.167 HD
ATOM     58  C   UNL A   1      43.952  29.144  29.819  1.00  0.00     0.074 A 
ATOM     59  C   UNL A   1      42.742  29.180  30.641  1.00  0.00     0.031 C 
ATOM     60  C   UNL A   1      44.134  29.239  28.467  1.00  0.00     0.034 A 
BRANCH  47  61
ATOM     61  C   UNL A   1      38.743  29.257  28.525  1.00  0.00     0.023 A 
ATOM     62  C   UNL A   1      38.972  29.316  29.913  1.00  0.00     0.031 A 
ATOM     63  C   UNL A   1      37.461  29.682  28.103  1.00  0.00     0.131 A 
ATOM     64  C   UNL A   1      37.941  29.657  30.806  1.00  0.00     0.055 A 
ATOM     65  C   UNL A   1      36.461  30.090  28.991  1.00  0.00     0.041 A 
ATOM     66  F   UNL A   1      37.064  29.645  26.826  1.00  0.00    -0.206 F 
ATOM     67  C   UNL A   1      36.684  30.044  30.354  1.00  0.00     0.022 A 
BRANCH  64  68
ATOM     68  S   UNL A   1      38.222  29.397  32.575  1.00  0.00     0.124 S 
ATOM     69  O   UNL A   1      37.461  28.174  32.811  1.00  0.00    -0.237 OA
ATOM     70  O   UNL A   1      39.674  29.275  32.632  1.00  0.00    -0.237 OA
ATOM     71  O   UNL A   1      37.672  30.605  33.185  1.00  0.00    -0.744 OA
ENDBRANCH  64  68
ENDBRANCH  47  61
BRANCH  48  72
ATOM     72  C   UNL A   1      44.786  26.512  33.682  1.00  0.00     0.023 A 
ATOM     73  C   UNL A   1      43.736  26.651  34.619  1.00  0.00     0.031 A 
ATOM     74  C   UNL A   1      45.964  25.884  34.147  1.00  0.00     0.131 A 
ATOM     75  C   UNL A   1      43.887  26.164  35.942  1.00  0.00     0.055 A 
ATOM     76  C   UNL A   1      46.106  25.405  35.453  1.00  0.00     0.041 A 
ATOM     77  F   UNL A   1      46.991  25.631  33.322  1.00  0.00    -0.206 F 
ATOM     78  C   UNL A   1      45.062  25.533  36.354  1.00  0.00     0.022 A 
BRANCH  75  79
ATOM     79  S   UNL A   1      42.508  26.253  37.135  1.00  0.00     0.124 S 
ATOM     80  O   UNL A   1      43.209  26.287  38.414  1.00  0.00    -0.237 OA
ATOM     81  O   UNL A   1      41.823  27.477  36.736  1.00  0.00    -0.237 OA
ATOM     82  O   UNL A   1      41.758  25.023  36.879  1.00  0.00    -0.744 OA
ENDBRANCH  75  79
ENDBRANCH  48  72
BRANCH  60  83
ATOM     83  C   UNL A   1      45.525  29.014  27.894  1.00  0.00     0.023 A 
ATOM     84  C   UNL A   1      46.554  29.983  27.832  1.00  0.00     0.031 A 
ATOM     85  C   UNL A   1      45.847  27.706  27.485  1.00  0.00     0.131 A 
ATOM     86  C   UNL A   1      47.836  29.629  27.359  1.00  0.00     0.055 A 
ATOM     87  C   UNL A   1      47.121  27.353  27.043  1.00  0.00     0.041 A 
ATOM     88  F   UNL A   1      44.926  26.729  27.537  1.00  0.00    -0.206 F 
ATOM     89  C   UNL A   1      48.120  28.316  26.970  1.00  0.00     0.022 A 
BRANCH  86  90
ATOM     90  S   UNL A   1      49.159  30.875  27.203  1.00  0.00     0.124 S 
ATOM     91  O   UNL A   1      49.559  31.128  28.582  1.00  0.00    -0.237 OA
ATOM     92  O   UNL A   1      50.142  30.187  26.369  1.00  0.00    -0.237 OA
ATOM     93  O   UNL A   1      48.489  32.000  26.547  1.00  0.00    -0.744 OA
ENDBRANCH  86  90
ENDBRANCH  60  83
ENDBRANCH  34  35
ENDBRANCH  26  29
ENDBRANCH  24  25
ENDBRANCH  23  24
ENDBRANCH   1  23
TORSDOF 20
ENDMDL
MODEL 2
REMARK VINA RESULT:     -10.5      3.518      7.428
REMARK SMILES CCCc1nnc(SCC(=O)NCCCCNC(=O)c2ccc(-c3c4nc(c(-c5cc(S(=O)(=O)[O-])ccc5F)c5ccc([nH]5)c(-c5cc(S(=O)(=O)[O-])ccc5F)c5nc(c(-c6cc(S(=O)(=O)[O-])ccc6F)c6ccc3[nH]6)C=C5)C=C4)cc2)n1C[C@H]1CCCO1
REMARK SMILES IDX 14 1 13 2 12 3 10 4 11 5 9 7 8 8 7 9 4 10 5 11 83 12 6 13
REMARK SMILES IDX 3 14 2 15 1 16 84 17 85 18 86 19 89 20 87 21 88 22 15 23
REMARK SMILES IDX 16 24 17 25 18 26 19 28 20 29 21 30 82 31 22 32 81 33 23 34
REMARK SMILES IDX 24 35 25 36 75 37 26 38 80 39 74 40 76 41 27 42 79 43 73 44
REMARK SMILES IDX 72 45 28 47 60 48 40 49 59 50 41 51 44 52 58 53 77 54 42 55
REMARK SMILES IDX 43 56 57 58 78 59 45 60 29 61 30 62 38 63 31 64 37 65 39 66
REMARK SMILES IDX 36 67 32 68 33 69 34 70 35 71 61 72 62 73 70 74 63 75 69 76
REMARK SMILES IDX 71 77 68 78 64 79 65 80 66 81 67 82 46 83 47 84 55 85 48 86
REMARK SMILES IDX 54 87 56 88 53 89 49 90 50 91 51 92 52 93
REMARK H PARENT 12 6 17 27 76 46 44 57
REMARK Flexibility Score: inf
ROOT
ATOM      1  C   UNL A   1      37.678  23.247  25.205  1.00  0.00     0.023 C 
ENDROOT
BRANCH   1   2
ATOM      2  C   UNL A   1      36.353  23.578  25.883  1.00  0.00     0.116 C 
BRANCH   2   3
ATOM      3  N   UNL A   1      35.837  22.428  26.588  1.00  0.00    -0.355 N 
ATOM      4  C   UNL A   1      34.529  22.061  26.635  1.00  0.00     0.230 C 
ATOM      5  O   UNL A   1      34.133  21.331  27.541  1.00  0.00    -0.274 OA
ATOM      6  H   UNL A   1      36.484  21.866  27.072  1.00  0.00     0.163 HD
BRANCH   4   7
ATOM      7  C   UNL A   1      33.648  22.454  25.486  1.00  0.00     0.178 C 
BRANCH   7   8
ATOM      8  S   UNL A   1      32.003  23.006  25.860  1.00  0.00    -0.076 SA
BRANCH   8   9
ATOM      9  C   UNL A   1      32.030  24.716  26.045  1.00  0.00     0.191 A 
ATOM     10  C   UNL A   1      31.914  26.837  25.606  1.00  0.00     0.133 A 
ATOM     11  N   UNL A   1      31.228  26.608  26.711  1.00  0.00    -0.134 NA
ATOM     12  N   UNL A   1      32.682  25.700  25.337  1.00  0.00    -0.303 N 
ATOM     13  N   UNL A   1      31.295  25.278  26.979  1.00  0.00    -0.123 NA
BRANCH  10  14
ATOM     14  C   UNL A   1      31.733  28.124  24.853  1.00  0.00     0.077 C 
BRANCH  14  15
ATOM     15  C   UNL A   1      30.371  28.516  24.297  1.00  0.00     0.005 C 
ATOM     16  C   UNL A   1      29.705  27.462  23.427  1.00  0.00     0.004 C 
ENDBRANCH  14  15
ENDBRANCH  10  14
BRANCH  12  17
ATOM     17  C   UNL A   1      33.799  25.618  24.423  1.00  0.00     0.158 C 
BRANCH  17  18
ATOM     18  C   UNL A   1      33.690  25.007  22.997  1.00  0.00     0.138 C 
ATOM     19  C   UNL A   1      32.387  24.547  22.356  1.00  0.00     0.036 C 
ATOM     20  O   UNL A   1      34.178  26.019  22.079  1.00  0.00    -0.376 OA
ATOM     21  C   UNL A   1      31.885  25.701  21.511  1.00  0.00     0.031 C 
ATOM     22  C   UNL A   1      33.079  26.616  21.374  1.00  0.00     0.160 C 
ENDBRANCH  17  18
ENDBRANCH  12  17
ENDBRANCH   8   9
ENDBRANCH   7   8
ENDBRANCH   4   7
ENDBRANCH   2   3
ENDBRANCH   1   2
BRANCH   1  23
ATOM     23  C   UNL A   1      38.353  21.958  25.692  1.00  0.00     0.023 C 
BRANCH  23  24
ATOM     24  C   UNL A   1      39.397  22.170  26.779  1.00  0.00     0.116 C 
BRANCH  24  25
ATOM     25  N   UNL A   1      40.750  22.168  26.237  1.00  0.00    -0.352 N 
ATOM     26  C   UNL A   1      41.633  23.216  26.130  1.00  0.00     0.251 C 
ATOM     27  H   UNL A   1      41.075  21.300  25.902  1.00  0.00     0.163 HD
ATOM     28  O   UNL A   1      42.590  23.147  25.359  1.00  0.00    -0.269 OA
BRANCH  26  29
ATOM     29  C   UNL A   1      41.421  24.414  26.956  1.00  0.00     0.039 A 
ATOM     30  C   UNL A   1      42.249  24.703  28.038  1.00  0.00     0.014 A 
ATOM     31  C   UNL A   1      40.384  25.277  26.607  1.00  0.00     0.014 A 
ATOM     32  C   UNL A   1      42.073  25.911  28.707  1.00  0.00     0.010 A 
ATOM     33  C   UNL A   1      40.282  26.517  27.186  1.00  0.00     0.010 A 
ATOM     34  C   UNL A   1      41.102  26.825  28.262  1.00  0.00    -0.014 A 
BRANCH  34  35
ATOM     35  C   UNL A   1      41.053  28.179  28.803  1.00  0.00     0.031 A 
ATOM     36  C   UNL A   1      42.100  29.079  28.252  1.00  0.00     0.074 A 
ATOM     37  C   UNL A   1      40.036  28.660  29.550  1.00  0.00     0.049 A 
ATOM     38  N   UNL A   1      43.137  29.542  28.865  1.00  0.00    -0.248 NA
ATOM     39  C   UNL A   1      42.099  29.356  26.805  1.00  0.00     0.031 C 
ATOM     40  C   UNL A   1      38.779  28.000  29.912  1.00  0.00     0.029 A 
ATOM     41  N   UNL A   1      39.868  29.911  30.060  1.00  0.00    -0.354 N 
ATOM     42  C   UNL A   1      43.771  30.386  27.960  1.00  0.00     0.074 A 
ATOM     43  C   UNL A   1      43.233  30.047  26.670  1.00  0.00     0.031 C 
ATOM     44  C   UNL A   1      37.898  28.919  30.367  1.00  0.00     0.029 A 
ATOM     45  C   UNL A   1      38.573  30.200  30.484  1.00  0.00     0.049 A 
ATOM     46  H   UNL A   1      40.605  30.561  30.124  1.00  0.00     0.167 HD
ATOM     47  C   UNL A   1      44.483  31.465  28.392  1.00  0.00     0.034 A 
ATOM     48  C   UNL A   1      38.085  31.411  30.873  1.00  0.00     0.034 A 
ATOM     49  C   UNL A   1      44.793  31.343  29.804  1.00  0.00     0.049 A 
ATOM     50  C   UNL A   1      39.257  32.225  31.283  1.00  0.00     0.074 A 
ATOM     51  C   UNL A   1      45.413  30.371  30.570  1.00  0.00     0.029 A 
ATOM     52  N   UNL A   1      44.073  32.102  30.703  1.00  0.00    -0.354 N 
ATOM     53  N   UNL A   1      40.008  31.929  32.309  1.00  0.00    -0.248 NA
ATOM     54  C   UNL A   1      39.896  33.056  30.272  1.00  0.00     0.031 C 
ATOM     55  C   UNL A   1      44.607  30.265  31.743  1.00  0.00     0.029 A 
ATOM     56  C   UNL A   1      43.618  31.250  31.681  1.00  0.00     0.049 A 
ATOM     57  H   UNL A   1      43.917  33.073  30.654  1.00  0.00     0.167 HD
ATOM     58  C   UNL A   1      41.308  32.136  31.875  1.00  0.00     0.074 A 
ATOM     59  C   UNL A   1      41.172  32.919  30.646  1.00  0.00     0.031 C 
ATOM     60  C   UNL A   1      42.355  31.414  32.379  1.00  0.00     0.034 A 
BRANCH  47  61
ATOM     61  C   UNL A   1      44.568  32.789  27.659  1.00  0.00     0.023 A 
ATOM     62  C   UNL A   1      43.840  33.868  28.198  1.00  0.00     0.031 A 
ATOM     63  C   UNL A   1      45.064  32.984  26.349  1.00  0.00     0.131 A 
ATOM     64  C   UNL A   1      43.537  34.998  27.420  1.00  0.00     0.055 A 
ATOM     65  C   UNL A   1      44.820  34.142  25.605  1.00  0.00     0.041 A 
ATOM     66  F   UNL A   1      45.734  32.044  25.674  1.00  0.00    -0.206 F 
ATOM     67  C   UNL A   1      44.021  35.144  26.124  1.00  0.00     0.022 A 
BRANCH  64  68
ATOM     68  S   UNL A   1      42.335  36.185  28.070  1.00  0.00     0.124 S 
ATOM     69  O   UNL A   1      41.085  35.450  27.907  1.00  0.00    -0.237 OA
ATOM     70  O   UNL A   1      42.804  36.365  29.440  1.00  0.00    -0.237 OA
ATOM     71  O   UNL A   1      42.498  37.344  27.197  1.00  0.00    -0.744 OA
ENDBRANCH  64  68
ENDBRANCH  47  61
BRANCH  48  72
ATOM     72  C   UNL A   1      36.735  31.989  30.603  1.00  0.00     0.023 A 
ATOM     73  C   UNL A   1      35.976  32.654  31.593  1.00  0.00     0.031 A 
ATOM     74  C   UNL A   1      36.279  32.116  29.271  1.00  0.00     0.131 A 
ATOM     75  C   UNL A   1      34.831  33.408  31.232  1.00  0.00     0.055 A 
ATOM     76  C   UNL A   1      35.150  32.862  28.922  1.00  0.00     0.041 A 
ATOM     77  F   UNL A   1      36.967  31.591  28.245  1.00  0.00    -0.206 F 
ATOM     78  C   UNL A   1      34.427  33.523  29.901  1.00  0.00     0.022 A 
BRANCH  75  79
ATOM     79  S   UNL A   1      33.895  34.347  32.487  1.00  0.00     0.124 S 
ATOM     80  O   UNL A   1      32.952  35.100  31.668  1.00  0.00    -0.237 OA
ATOM     81  O   UNL A   1      33.334  33.290  33.320  1.00  0.00    -0.237 OA
ATOM     82  O   UNL A   1      34.924  35.158  33.141  1.00  0.00    -0.744 OA
ENDBRANCH  75  79
ENDBRANCH  48  72
BRANCH  60  83
ATOM     83  C   UNL A   1      42.135  30.574  33.628  1.00  0.00     0.023 A 
ATOM     84  C   UNL A   1      42.195  29.162  33.688  1.00  0.00     0.031 A 
ATOM     85  C   UNL A   1      41.960  31.263  34.843  1.00  0.00     0.131 A 
ATOM     86  C   UNL A   1      42.063  28.497  34.926  1.00  0.00     0.055 A 
ATOM     87  C   UNL A   1      41.856  30.605  36.068  1.00  0.00     0.041 A 
ATOM     88  F   UNL A   1      41.915  32.606  34.865  1.00  0.00    -0.206 F 
ATOM     89  C   UNL A   1      41.898  29.217  36.113  1.00  0.00     0.022 A 
BRANCH  86  90
ATOM     90  S   UNL A   1      42.065  26.676  35.022  1.00  0.00     0.124 S 
ATOM     91  O   UNL A   1      43.007  26.276  33.982  1.00  0.00    -0.237 OA
ATOM     92  O   UNL A   1      42.493  26.433  36.397  1.00  0.00    -0.237 OA
ATOM     93  O   UNL A   1      40.671  26.320  34.749  1.00  0.00    -0.744 OA
ENDBRANCH  86  90
ENDBRANCH  60  83
ENDBRANCH  34  35
ENDBRANCH  26  29
ENDBRANCH  24  25
ENDBRANCH  23  24
ENDBRANCH   1  23
TORSDOF 20
ENDMDL
MODEL 3
REMARK VINA RESULT:     -10.4      2.917      7.908
REMARK SMILES CCCc1nnc(SCC(=O)NCCCCNC(=O)c2ccc(-c3c4nc(c(-c5cc(S(=O)(=O)[O-])ccc5F)c5ccc([nH]5)c(-c5cc(S(=O)(=O)[O-])ccc5F)c5nc(c(-c6cc(S(=O)(=O)[O-])ccc6F)c6ccc3[nH]6)C=C5)C=C4)cc2)n1C[C@H]1CCCO1
REMARK SMILES IDX 14 1 13 2 12 3 10 4 11 5 9 7 8 8 7 9 4 10 5 11 83 12 6 13
REMARK SMILES IDX 3 14 2 15 1 16 84 17 85 18 86 19 89 20 87 21 88 22 15 23
REMARK SMILES IDX 16 24 17 25 18 26 19 28 20 29 21 30 82 31 22 32 81 33 23 34
REMARK SMILES IDX 24 35 25 36 75 37 26 38 80 39 74 40 76 41 27 42 79 43 73 44
REMARK SMILES IDX 72 45 28 47 60 48 40 49 59 50 41 51 44 52 58 53 77 54 42 55
REMARK SMILES IDX 43 56 57 58 78 59 45 60 29 61 30 62 38 63 31 64 37 65 39 66
REMARK SMILES IDX 36 67 32 68 33 69 34 70 35 71 61 72 62 73 70 74 63 75 69 76
REMARK SMILES IDX 71 77 68 78 64 79 65 80 66 81 67 82 46 83 47 84 55 85 48 86
REMARK SMILES IDX 54 87 56 88 53 89 49 90 50 91 51 92 52 93
REMARK H PARENT 12 6 17 27 76 46 44 57
REMARK Flexibility Score: inf
ROOT
ATOM      1  C   UNL A   1      33.353  29.623  26.795  1.00  0.00     0.023 C 
ENDROOT
BRANCH   1   2
ATOM      2  C   UNL A   1      32.035  28.866  26.679  1.00  0.00     0.116 C 
BRANCH   2   3
ATOM      3  N   UNL A   1      31.395  29.143  25.415  1.00  0.00    -0.355 N 
ATOM      4  C   UNL A   1      31.810  28.676  24.207  1.00  0.00     0.230 C 
ATOM      5  O   UNL A   1      31.464  29.252  23.178  1.00  0.00    -0.274 OA
ATOM      6  H   UNL A   1      30.594  29.716  25.428  1.00  0.00     0.163 HD
BRANCH   4   7
ATOM      7  C   UNL A   1      32.566  27.379  24.179  1.00  0.00     0.178 C 
BRANCH   7   8
ATOM      8  S   UNL A   1      33.628  27.076  22.790  1.00  0.00    -0.076 SA
BRANCH   8   9
ATOM      9  C   UNL A   1      33.586  25.395  22.428  1.00  0.00     0.191 A 
ATOM     10  C   UNL A   1      33.073  23.288  22.484  1.00  0.00     0.133 A 
ATOM     11  N   UNL A   1      33.051  23.684  21.224  1.00  0.00    -0.134 NA
ATOM     12  N   UNL A   1      33.707  24.285  23.233  1.00  0.00    -0.303 N 
ATOM     13  N   UNL A   1      33.364  25.005  21.193  1.00  0.00    -0.123 NA
BRANCH  10  14
ATOM     14  C   UNL A   1      32.425  21.995  22.886  1.00  0.00     0.077 C 
BRANCH  14  15
ATOM     15  C   UNL A   1      33.098  21.064  23.885  1.00  0.00     0.005 C 
ATOM     16  C   UNL A   1      32.686  19.604  23.781  1.00  0.00     0.004 C 
ENDBRANCH  14  15
ENDBRANCH  10  14
BRANCH  12  17
ATOM     17  C   UNL A   1      34.224  24.149  24.576  1.00  0.00     0.158 C 
BRANCH  17  18
ATOM     18  C   UNL A   1      35.744  24.097  24.902  1.00  0.00     0.138 C 
ATOM     19  C   UNL A   1      36.342  23.363  26.094  1.00  0.00     0.036 C 
ATOM     20  O   UNL A   1      36.386  23.468  23.763  1.00  0.00    -0.376 OA
ATOM     21  C   UNL A   1      36.766  21.996  25.598  1.00  0.00     0.031 C 
ATOM     22  C   UNL A   1      36.769  22.124  24.094  1.00  0.00     0.160 C 
ENDBRANCH  17  18
ENDBRANCH  12  17
ENDBRANCH   8   9
ENDBRANCH   7   8
ENDBRANCH   4   7
ENDBRANCH   2   3
ENDBRANCH   1   2
BRANCH   1  23
ATOM     23  C   UNL A   1      33.233  31.059  27.321  1.00  0.00     0.023 C 
BRANCH  23  24
ATOM     24  C   UNL A   1      34.559  31.694  27.715  1.00  0.00     0.116 C 
BRANCH  24  25
ATOM     25  N   UNL A   1      34.512  32.252  29.062  1.00  0.00    -0.352 N 
ATOM     26  C   UNL A   1      35.281  31.923  30.154  1.00  0.00     0.251 C 
ATOM     27  H   UNL A   1      33.840  32.958  29.209  1.00  0.00     0.163 HD
ATOM     28  O   UNL A   1      34.910  32.225  31.288  1.00  0.00    -0.269 OA
BRANCH  26  29
ATOM     29  C   UNL A   1      36.551  31.213  29.944  1.00  0.00     0.039 A 
ATOM     30  C   UNL A   1      37.772  31.879  30.015  1.00  0.00     0.014 A 
ATOM     31  C   UNL A   1      36.505  29.841  29.703  1.00  0.00     0.014 A 
ATOM     32  C   UNL A   1      38.944  31.133  29.927  1.00  0.00     0.010 A 
ATOM     33  C   UNL A   1      37.651  29.088  29.734  1.00  0.00     0.010 A 
ATOM     34  C   UNL A   1      38.877  29.732  29.809  1.00  0.00    -0.014 A 
BRANCH  34  35
ATOM     35  C   UNL A   1      40.081  28.918  29.941  1.00  0.00     0.031 A 
ATOM     36  C   UNL A   1      40.450  28.624  31.351  1.00  0.00     0.074 A 
ATOM     37  C   UNL A   1      40.685  28.288  28.911  1.00  0.00     0.049 A 
ATOM     38  N   UNL A   1      41.452  29.097  32.013  1.00  0.00    -0.248 NA
ATOM     39  C   UNL A   1      39.502  27.860  32.181  1.00  0.00     0.031 C 
ATOM     40  C   UNL A   1      40.260  28.215  27.510  1.00  0.00     0.029 A 
ATOM     41  N   UNL A   1      41.774  27.471  28.930  1.00  0.00    -0.354 N 
ATOM     42  C   UNL A   1      41.413  28.478  33.257  1.00  0.00     0.074 A 
ATOM     43  C   UNL A   1      40.090  27.930  33.378  1.00  0.00     0.031 C 
ATOM     44  C   UNL A   1      40.933  27.225  26.882  1.00  0.00     0.029 A 
ATOM     45  C   UNL A   1      41.948  26.702  27.781  1.00  0.00     0.049 A 
ATOM     46  H   UNL A   1      42.390  27.426  29.696  1.00  0.00     0.167 HD
ATOM     47  C   UNL A   1      42.559  28.246  33.957  1.00  0.00     0.034 A 
ATOM     48  C   UNL A   1      42.840  25.690  27.596  1.00  0.00     0.034 A 
ATOM     49  C   UNL A   1      43.648  29.054  33.441  1.00  0.00     0.049 A 
ATOM     50  C   UNL A   1      43.927  25.901  28.584  1.00  0.00     0.074 A 
ATOM     51  C   UNL A   1      43.816  30.411  33.220  1.00  0.00     0.029 A 
ATOM     52  N   UNL A   1      44.607  28.443  32.661  1.00  0.00    -0.354 N 
ATOM     53  N   UNL A   1      44.727  26.933  28.557  1.00  0.00    -0.248 NA
ATOM     54  C   UNL A   1      43.802  25.253  29.882  1.00  0.00     0.031 C 
ATOM     55  C   UNL A   1      44.453  30.494  31.946  1.00  0.00     0.029 A 
ATOM     56  C   UNL A   1      44.741  29.196  31.518  1.00  0.00     0.049 A 
ATOM     57  H   UNL A   1      45.104  27.623  32.883  1.00  0.00     0.167 HD
ATOM     58  C   UNL A   1      44.839  27.335  29.879  1.00  0.00     0.074 A 
ATOM     59  C   UNL A   1      44.325  26.208  30.658  1.00  0.00     0.031 C 
ATOM     60  C   UNL A   1      45.060  28.643  30.213  1.00  0.00     0.034 A 
BRANCH  47  61
ATOM     61  C   UNL A   1      42.800  27.036  34.837  1.00  0.00     0.023 A 
ATOM     62  C   UNL A   1      43.573  25.992  34.293  1.00  0.00     0.031 A 
ATOM     63  C   UNL A   1      42.104  26.720  36.027  1.00  0.00     0.131 A 
ATOM     64  C   UNL A   1      43.538  24.699  34.845  1.00  0.00     0.055 A 
ATOM     65  C   UNL A   1      42.129  25.451  36.612  1.00  0.00     0.041 A 
ATOM     66  F   UNL A   1      41.289  27.581  36.646  1.00  0.00    -0.206 F 
ATOM     67  C   UNL A   1      42.819  24.420  36.002  1.00  0.00     0.022 A 
BRANCH  64  68
ATOM     68  S   UNL A   1      44.295  23.349  33.907  1.00  0.00     0.124 S 
ATOM     69  O   UNL A   1      43.449  23.312  32.719  1.00  0.00    -0.237 OA
ATOM     70  O   UNL A   1      45.654  23.844  33.716  1.00  0.00    -0.237 OA
ATOM     71  O   UNL A   1      44.167  22.203  34.803  1.00  0.00    -0.744 OA
ENDBRANCH  64  68
ENDBRANCH  47  61
BRANCH  48  72
ATOM     72  C   UNL A   1      42.639  24.411  26.853  1.00  0.00     0.023 A 
ATOM     73  C   UNL A   1      43.658  23.805  26.082  1.00  0.00     0.031 A 
ATOM     74  C   UNL A   1      41.493  23.624  27.108  1.00  0.00     0.131 A 
ATOM     75  C   UNL A   1      43.509  22.475  25.616  1.00  0.00     0.055 A 
ATOM     76  C   UNL A   1      41.353  22.312  26.647  1.00  0.00     0.041 A 
ATOM     77  F   UNL A   1      40.501  24.071  27.894  1.00  0.00    -0.206 F 
ATOM     78  C   UNL A   1      42.367  21.727  25.908  1.00  0.00     0.022 A 
BRANCH  75  79
ATOM     79  S   UNL A   1      44.853  21.649  24.698  1.00  0.00     0.124 S 
ATOM     80  O   UNL A   1      44.626  22.114  23.335  1.00  0.00    -0.237 OA
ATOM     81  O   UNL A   1      46.048  22.151  25.367  1.00  0.00    -0.237 OA
ATOM     82  O   UNL A   1      44.587  20.225  24.914  1.00  0.00    -0.744 OA
ENDBRANCH  75  79
ENDBRANCH  48  72
BRANCH  60  83
ATOM     83  C   UNL A   1      45.468  29.622  29.123  1.00  0.00     0.023 A 
ATOM     84  C   UNL A   1      46.797  29.890  28.716  1.00  0.00     0.031 A 
ATOM     85  C   UNL A   1      44.434  30.234  28.390  1.00  0.00     0.131 A 
ATOM     86  C   UNL A   1      47.045  30.755  27.628  1.00  0.00     0.055 A 
ATOM     87  C   UNL A   1      44.682  31.067  27.300  1.00  0.00     0.041 A 
ATOM     88  F   UNL A   1      43.148  30.008  28.706  1.00  0.00    -0.206 F 
ATOM     89  C   UNL A   1      45.990  31.337  26.919  1.00  0.00     0.022 A 
BRANCH  86  90
ATOM     90  S   UNL A   1      48.749  31.173  27.128  1.00  0.00     0.124 S 
ATOM     91  O   UNL A   1      48.590  32.400  26.356  1.00  0.00    -0.237 OA
ATOM     92  O   UNL A   1      49.429  31.312  28.414  1.00  0.00    -0.237 OA
ATOM     93  O   UNL A   1      49.168  30.009  26.344  1.00  0.00    -0.744 OA
ENDBRANCH  86  90
ENDBRANCH  60  83
ENDBRANCH  34  35
ENDBRANCH  26  29
ENDBRANCH  24  25
ENDBRANCH  23  24
ENDBRANCH   1  23
TORSDOF 20
ENDMDL
