MODEL 1
REMARK VINA RESULT:     -11.6      0.000      0.000
REMARK SMILES O=C(C[C@H]1C[C@H]2CC[C@@H](C1)N2C(=O)[C@H]1CCCCO1)NCCCCNC(=O)c1ccc(-c2c3nc(c(-c4cc(S(=O)(=O)[O-])ccc4F)c4ccc([nH]4)c(-c4cc(S(=O)(=O)[O-])ccc4F)c4nc(c(-c5cc(S(=O)(=O)[O-])ccc5F)c5ccc2[nH]5)C=C4)C=C3)cc1
REMARK SMILES IDX 22 1 21 2 20 3 1 4 2 5 3 7 4 8 5 9 10 10 6 11 9 12 7 13
REMARK SMILES IDX 11 14 8 15 12 16 13 17 14 18 15 19 19 20 16 21 18 22 17 23
REMARK SMILES IDX 23 24 24 25 25 26 26 27 27 29 28 30 29 31 90 32 30 33 89 34
REMARK SMILES IDX 31 35 32 36 33 37 83 38 34 39 88 40 82 41 84 42 35 43 87 44
REMARK SMILES IDX 81 45 80 46 36 48 68 49 48 50 67 51 49 52 52 53 66 54 85 55
REMARK SMILES IDX 50 56 51 57 65 59 86 60 53 61 37 62 38 63 46 64 39 65 45 66
REMARK SMILES IDX 47 67 44 68 40 69 41 70 42 71 43 72 69 73 70 74 78 75 71 76
REMARK SMILES IDX 77 77 79 78 76 79 72 80 73 81 74 82 75 83 54 84 55 85 63 86
REMARK SMILES IDX 56 87 62 88 64 89 61 90 57 91 58 92 59 93 60 94
REMARK H PARENT 20 6 25 28 84 47 52 58
REMARK Flexibility Score: inf
ROOT
ATOM      1  C   UNL A   1      34.456  30.785  27.419  1.00  0.00     0.023 C 
ENDROOT
BRANCH   1   2
ATOM      2  C   UNL A   1      34.265  29.298  27.051  1.00  0.00     0.116 C 
BRANCH   2   3
ATOM      3  N   UNL A   1      32.901  28.880  26.721  1.00  0.00    -0.356 N 
ATOM      4  O   UNL A   1      32.996  29.678  24.571  1.00  0.00    -0.275 OA
ATOM      5  C   UNL A   1      32.422  29.004  25.424  1.00  0.00     0.220 C 
ATOM      6  H   UNL A   1      32.319  28.507  27.423  1.00  0.00     0.163 HD
BRANCH   5   7
ATOM      7  C   UNL A   1      31.146  28.240  25.090  1.00  0.00     0.103 C 
BRANCH   7   8
ATOM      8  C   UNL A   1      31.155  27.128  23.996  1.00  0.00     0.002 C 
ATOM      9  C   UNL A   1      32.332  27.053  22.990  1.00  0.00     0.029 C 
ATOM     10  C   UNL A   1      30.793  25.738  24.532  1.00  0.00     0.029 C 
ATOM     11  C   UNL A   1      33.325  25.880  23.197  1.00  0.00     0.085 C 
ATOM     12  C   UNL A   1      31.975  24.781  24.696  1.00  0.00     0.085 C 
ATOM     13  C   UNL A   1      34.051  26.053  24.532  1.00  0.00     0.027 C 
ATOM     14  N   UNL A   1      32.641  24.596  23.441  1.00  0.00    -0.334 N 
ATOM     15  C   UNL A   1      33.158  25.269  25.498  1.00  0.00     0.027 C 
BRANCH  14  16
ATOM     16  C   UNL A   1      33.289  23.411  23.069  1.00  0.00     0.252 C 
ATOM     17  O   UNL A   1      34.091  23.453  22.126  1.00  0.00    -0.272 OA
BRANCH  16  18
ATOM     18  C   UNL A   1      33.163  22.095  23.941  1.00  0.00     0.207 C 
ATOM     19  C   UNL A   1      32.434  20.872  23.368  1.00  0.00     0.042 C 
ATOM     20  O   UNL A   1      34.519  21.702  24.238  1.00  0.00    -0.368 OA
ATOM     21  C   UNL A   1      32.527  19.666  24.302  1.00  0.00     0.006 C 
ATOM     22  C   UNL A   1      34.643  20.649  25.186  1.00  0.00     0.161 C 
ATOM     23  C   UNL A   1      33.966  19.384  24.686  1.00  0.00     0.029 C 
ENDBRANCH  16  18
ENDBRANCH  14  16
ENDBRANCH   7   8
ENDBRANCH   5   7
ENDBRANCH   2   3
ENDBRANCH   1   2
BRANCH   1  24
ATOM     24  C   UNL A   1      33.236  31.614  27.870  1.00  0.00     0.023 C 
BRANCH  24  25
ATOM     25  C   UNL A   1      32.780  32.770  26.963  1.00  0.00     0.116 C 
BRANCH  25  26
ATOM     26  N   UNL A   1      32.471  34.010  27.648  1.00  0.00    -0.352 N 
ATOM     27  C   UNL A   1      33.115  34.711  28.644  1.00  0.00     0.251 C 
ATOM     28  H   UNL A   1      31.637  34.434  27.340  1.00  0.00     0.163 HD
ATOM     29  O   UNL A   1      32.621  35.784  28.992  1.00  0.00    -0.269 OA
BRANCH  27  30
ATOM     30  C   UNL A   1      34.330  34.218  29.353  1.00  0.00     0.039 A 
ATOM     31  C   UNL A   1      34.145  33.587  30.594  1.00  0.00     0.014 A 
ATOM     32  C   UNL A   1      35.633  34.411  28.896  1.00  0.00     0.014 A 
ATOM     33  C   UNL A   1      35.235  33.085  31.323  1.00  0.00     0.010 A 
ATOM     34  C   UNL A   1      36.716  33.859  29.603  1.00  0.00     0.010 A 
ATOM     35  C   UNL A   1      36.537  33.175  30.814  1.00  0.00    -0.014 A 
BRANCH  35  36
ATOM     36  C   UNL A   1      37.695  32.517  31.500  1.00  0.00     0.031 A 
ATOM     37  C   UNL A   1      38.424  31.347  30.881  1.00  0.00     0.074 A 
ATOM     38  C   UNL A   1      38.055  32.927  32.735  1.00  0.00     0.049 A 
ATOM     39  N   UNL A   1      39.416  30.639  31.364  1.00  0.00    -0.248 NA
ATOM     40  C   UNL A   1      37.957  30.900  29.562  1.00  0.00     0.031 C 
ATOM     41  C   UNL A   1      37.406  34.004  33.485  1.00  0.00     0.029 A 
ATOM     42  N   UNL A   1      39.044  32.485  33.585  1.00  0.00    -0.354 N 
ATOM     43  C   UNL A   1      39.698  29.667  30.409  1.00  0.00     0.074 A 
ATOM     44  C   UNL A   1      38.720  29.836  29.352  1.00  0.00     0.031 C 
ATOM     45  C   UNL A   1      38.020  34.150  34.670  1.00  0.00     0.029 A 
ATOM     46  C   UNL A   1      39.083  33.155  34.788  1.00  0.00     0.049 A 
ATOM     47  H   UNL A   1      39.665  31.757  33.355  1.00  0.00     0.167 HD
ATOM     48  C   UNL A   1      40.692  28.739  30.397  1.00  0.00     0.034 A 
ATOM     49  C   UNL A   1      39.870  32.990  35.872  1.00  0.00     0.034 A 
ATOM     50  C   UNL A   1      41.664  28.573  31.454  1.00  0.00     0.049 A 
ATOM     51  C   UNL A   1      40.946  31.933  35.851  1.00  0.00     0.074 A 
ATOM     52  C   UNL A   1      42.745  27.705  31.503  1.00  0.00     0.029 A 
ATOM     53  N   UNL A   1      41.671  29.272  32.654  1.00  0.00    -0.354 N 
ATOM     54  N   UNL A   1      41.242  31.074  34.904  1.00  0.00    -0.248 NA
ATOM     55  C   UNL A   1      41.805  31.838  37.039  1.00  0.00     0.031 C 
ATOM     56  C   UNL A   1      43.352  27.822  32.757  1.00  0.00     0.029 A 
ATOM     57  C   UNL A   1      42.710  28.828  33.461  1.00  0.00     0.049 A 
ATOM     58  H   UNL A   1      41.032  29.980  32.896  1.00  0.00     0.167 HD
ATOM     59  C   UNL A   1      42.343  30.359  35.372  1.00  0.00     0.074 A 
ATOM     60  C   UNL A   1      42.667  30.899  36.674  1.00  0.00     0.031 C 
ATOM     61  C   UNL A   1      43.027  29.352  34.770  1.00  0.00     0.034 A 
BRANCH  48  62
ATOM     62  C   UNL A   1      40.773  27.814  29.200  1.00  0.00     0.023 A 
ATOM     63  C   UNL A   1      41.688  28.039  28.157  1.00  0.00     0.031 A 
ATOM     64  C   UNL A   1      39.929  26.693  29.098  1.00  0.00     0.131 A 
ATOM     65  C   UNL A   1      41.687  27.205  27.027  1.00  0.00     0.055 A 
ATOM     66  C   UNL A   1      39.991  25.817  28.012  1.00  0.00     0.041 A 
ATOM     67  F   UNL A   1      39.023  26.429  30.054  1.00  0.00    -0.206 F 
ATOM     68  C   UNL A   1      40.863  26.080  26.959  1.00  0.00     0.022 A 
BRANCH  65  69
ATOM     69  S   UNL A   1      42.675  27.702  25.591  1.00  0.00     0.124 S 
ATOM     70  O   UNL A   1      43.960  28.018  26.211  1.00  0.00    -0.237 OA
ATOM     71  O   UNL A   1      42.642  26.509  24.756  1.00  0.00    -0.237 OA
ATOM     72  O   UNL A   1      41.948  28.858  25.060  1.00  0.00    -0.744 OA
ENDBRANCH  65  69
ENDBRANCH  48  62
BRANCH  49  73
ATOM     73  C   UNL A   1      39.671  33.842  37.081  1.00  0.00     0.023 A 
ATOM     74  C   UNL A   1      39.027  33.342  38.224  1.00  0.00     0.031 A 
ATOM     75  C   UNL A   1      40.089  35.185  37.095  1.00  0.00     0.131 A 
ATOM     76  C   UNL A   1      38.776  34.190  39.314  1.00  0.00     0.055 A 
ATOM     77  C   UNL A   1      39.889  36.009  38.204  1.00  0.00     0.041 A 
ATOM     78  F   UNL A   1      40.712  35.713  36.030  1.00  0.00    -0.206 F 
ATOM     79  C   UNL A   1      39.217  35.516  39.318  1.00  0.00     0.022 A 
BRANCH  76  80
ATOM     80  S   UNL A   1      37.783  33.561  40.694  1.00  0.00     0.124 S 
ATOM     81  O   UNL A   1      36.756  32.798  39.997  1.00  0.00    -0.237 OA
ATOM     82  O   UNL A   1      38.765  32.784  41.443  1.00  0.00    -0.237 OA
ATOM     83  O   UNL A   1      37.315  34.777  41.359  1.00  0.00    -0.744 OA
ENDBRANCH  76  80
ENDBRANCH  49  73
BRANCH  61  84
ATOM     84  C   UNL A   1      44.230  28.798  35.500  1.00  0.00     0.023 A 
ATOM     85  C   UNL A   1      44.122  27.733  36.413  1.00  0.00     0.031 A 
ATOM     86  C   UNL A   1      45.504  29.357  35.291  1.00  0.00     0.131 A 
ATOM     87  C   UNL A   1      45.253  27.301  37.123  1.00  0.00     0.055 A 
ATOM     88  C   UNL A   1      46.637  28.878  35.951  1.00  0.00     0.041 A 
ATOM     89  F   UNL A   1      45.670  30.380  34.437  1.00  0.00    -0.206 F 
ATOM     90  C   UNL A   1      46.513  27.854  36.884  1.00  0.00     0.022 A 
BRANCH  87  91
ATOM     91  S   UNL A   1      45.039  26.074  38.443  1.00  0.00     0.124 S 
ATOM     92  O   UNL A   1      44.534  24.920  37.706  1.00  0.00    -0.237 OA
ATOM     93  O   UNL A   1      46.392  25.948  38.975  1.00  0.00    -0.237 OA
ATOM     94  O   UNL A   1      44.076  26.703  39.344  1.00  0.00    -0.744 OA
ENDBRANCH  87  91
ENDBRANCH  61  84
ENDBRANCH  35  36
ENDBRANCH  27  30
ENDBRANCH  25  26
ENDBRANCH  24  25
ENDBRANCH   1  24
TORSDOF 17
ENDMDL
MODEL 2
REMARK VINA RESULT:     -11.3      5.525     11.065
REMARK SMILES O=C(C[C@H]1C[C@H]2CC[C@@H](C1)N2C(=O)[C@H]1CCCCO1)NCCCCNC(=O)c1ccc(-c2c3nc(c(-c4cc(S(=O)(=O)[O-])ccc4F)c4ccc([nH]4)c(-c4cc(S(=O)(=O)[O-])ccc4F)c4nc(c(-c5cc(S(=O)(=O)[O-])ccc5F)c5ccc2[nH]5)C=C4)C=C3)cc1
REMARK SMILES IDX 22 1 21 2 20 3 1 4 2 5 3 7 4 8 5 9 10 10 6 11 9 12 7 13
REMARK SMILES IDX 11 14 8 15 12 16 13 17 14 18 15 19 19 20 16 21 18 22 17 23
REMARK SMILES IDX 23 24 24 25 25 26 26 27 27 29 28 30 29 31 90 32 30 33 89 34
REMARK SMILES IDX 31 35 32 36 33 37 83 38 34 39 88 40 82 41 84 42 35 43 87 44
REMARK SMILES IDX 81 45 80 46 36 48 68 49 48 50 67 51 49 52 52 53 66 54 85 55
REMARK SMILES IDX 50 56 51 57 65 59 86 60 53 61 37 62 38 63 46 64 39 65 45 66
REMARK SMILES IDX 47 67 44 68 40 69 41 70 42 71 43 72 69 73 70 74 78 75 71 76
REMARK SMILES IDX 77 77 79 78 76 79 72 80 73 81 74 82 75 83 54 84 55 85 63 86
REMARK SMILES IDX 56 87 62 88 64 89 61 90 57 91 58 92 59 93 60 94
REMARK H PARENT 20 6 25 28 84 47 52 58
REMARK Flexibility Score: inf
ROOT
ATOM      1  C   UNL A   1      35.391  21.837  26.297  1.00  0.00     0.023 C 
ENDROOT
BRANCH   1   2
ATOM      2  C   UNL A   1      34.141  22.683  25.977  1.00  0.00     0.116 C 
BRANCH   2   3
ATOM      3  N   UNL A   1      34.111  23.328  24.662  1.00  0.00    -0.356 N 
ATOM      4  O   UNL A   1      32.514  21.912  23.819  1.00  0.00    -0.275 OA
ATOM      5  C   UNL A   1      33.175  22.942  23.712  1.00  0.00     0.220 C 
ATOM      6  H   UNL A   1      34.758  24.039  24.450  1.00  0.00     0.163 HD
BRANCH   5   7
ATOM      7  C   UNL A   1      32.982  23.878  22.524  1.00  0.00     0.103 C 
BRANCH   7   8
ATOM      8  C   UNL A   1      31.825  24.923  22.521  1.00  0.00     0.002 C 
ATOM      9  C   UNL A   1      31.000  25.157  23.813  1.00  0.00     0.029 C 
ATOM     10  C   UNL A   1      32.201  26.252  21.856  1.00  0.00     0.029 C 
ATOM     11  C   UNL A   1      31.267  26.492  24.555  1.00  0.00     0.085 C 
ATOM     12  C   UNL A   1      32.469  27.407  22.823  1.00  0.00     0.085 C 
ATOM     13  C   UNL A   1      32.704  26.508  25.079  1.00  0.00     0.027 C 
ATOM     14  N   UNL A   1      31.315  27.648  23.638  1.00  0.00    -0.334 N 
ATOM     15  C   UNL A   1      33.469  27.168  23.929  1.00  0.00     0.027 C 
BRANCH  14  16
ATOM     16  C   UNL A   1      30.959  28.909  24.132  1.00  0.00     0.252 C 
ATOM     17  O   UNL A   1      31.513  29.310  25.166  1.00  0.00    -0.272 OA
BRANCH  16  18
ATOM     18  C   UNL A   1      30.032  29.887  23.301  1.00  0.00     0.207 C 
ATOM     19  C   UNL A   1      28.828  29.322  22.534  1.00  0.00     0.042 C 
ATOM     20  O   UNL A   1      29.536  30.847  24.256  1.00  0.00    -0.368 OA
ATOM     21  C   UNL A   1      27.987  30.430  21.902  1.00  0.00     0.006 C 
ATOM     22  C   UNL A   1      28.836  31.949  23.690  1.00  0.00     0.161 C 
ATOM     23  C   UNL A   1      27.608  31.479  22.928  1.00  0.00     0.029 C 
ENDBRANCH  16  18
ENDBRANCH  14  16
ENDBRANCH   7   8
ENDBRANCH   5   7
ENDBRANCH   2   3
ENDBRANCH   1   2
BRANCH   1  24
ATOM     24  C   UNL A   1      35.842  20.749  25.301  1.00  0.00     0.023 C 
BRANCH  24  25
ATOM     25  C   UNL A   1      37.195  20.942  24.594  1.00  0.00     0.116 C 
BRANCH  25  26
ATOM     26  N   UNL A   1      38.249  20.041  25.017  1.00  0.00    -0.352 N 
ATOM     27  C   UNL A   1      39.407  20.233  25.740  1.00  0.00     0.251 C 
ATOM     28  H   UNL A   1      38.109  19.108  24.733  1.00  0.00     0.163 HD
ATOM     29  O   UNL A   1      40.091  19.241  25.988  1.00  0.00    -0.269 OA
BRANCH  27  30
ATOM     30  C   UNL A   1      39.897  21.570  26.180  1.00  0.00     0.039 A 
ATOM     31  C   UNL A   1      41.225  21.659  26.627  1.00  0.00     0.014 A 
ATOM     32  C   UNL A   1      39.099  22.712  26.243  1.00  0.00     0.014 A 
ATOM     33  C   UNL A   1      41.770  22.882  27.050  1.00  0.00     0.010 A 
ATOM     34  C   UNL A   1      39.663  23.945  26.615  1.00  0.00     0.010 A 
ATOM     35  C   UNL A   1      41.006  24.056  27.007  1.00  0.00    -0.014 A 
BRANCH  35  36
ATOM     36  C   UNL A   1      41.607  25.395  27.310  1.00  0.00     0.031 A 
ATOM     37  C   UNL A   1      40.841  26.455  28.066  1.00  0.00     0.074 A 
ATOM     38  C   UNL A   1      42.835  25.694  26.835  1.00  0.00     0.049 A 
ATOM     39  N   UNL A   1      41.202  27.678  28.371  1.00  0.00    -0.248 NA
ATOM     40  C   UNL A   1      39.487  26.102  28.512  1.00  0.00     0.031 C 
ATOM     41  C   UNL A   1      43.670  24.794  26.037  1.00  0.00     0.029 A 
ATOM     42  N   UNL A   1      43.594  26.838  26.940  1.00  0.00    -0.354 N 
ATOM     43  C   UNL A   1      40.123  28.241  29.049  1.00  0.00     0.074 A 
ATOM     44  C   UNL A   1      39.071  27.243  29.043  1.00  0.00     0.031 C 
ATOM     45  C   UNL A   1      44.825  25.409  25.740  1.00  0.00     0.029 A 
ATOM     46  C   UNL A   1      44.806  26.762  26.290  1.00  0.00     0.049 A 
ATOM     47  H   UNL A   1      43.298  27.636  27.433  1.00  0.00     0.167 HD
ATOM     48  C   UNL A   1      40.025  29.460  29.643  1.00  0.00     0.034 A 
ATOM     49  C   UNL A   1      45.791  27.672  26.137  1.00  0.00     0.034 A 
ATOM     50  C   UNL A   1      41.077  30.452  29.645  1.00  0.00     0.049 A 
ATOM     51  C   UNL A   1      45.649  29.031  26.778  1.00  0.00     0.074 A 
ATOM     52  C   UNL A   1      41.095  31.688  30.273  1.00  0.00     0.029 A 
ATOM     53  N   UNL A   1      42.290  30.337  28.978  1.00  0.00    -0.354 N 
ATOM     54  N   UNL A   1      44.649  29.513  27.478  1.00  0.00    -0.248 NA
ATOM     55  C   UNL A   1      46.777  29.959  26.621  1.00  0.00     0.031 C 
ATOM     56  C   UNL A   1      42.277  32.349  29.921  1.00  0.00     0.029 A 
ATOM     57  C   UNL A   1      43.042  31.492  29.148  1.00  0.00     0.049 A 
ATOM     58  H   UNL A   1      42.574  29.550  28.460  1.00  0.00     0.167 HD
ATOM     59  C   UNL A   1      45.045  30.790  27.872  1.00  0.00     0.074 A 
ATOM     60  C   UNL A   1      46.378  30.994  27.347  1.00  0.00     0.031 C 
ATOM     61  C   UNL A   1      44.367  31.706  28.610  1.00  0.00     0.034 A 
BRANCH  48  62
ATOM     62  C   UNL A   1      38.722  29.798  30.337  1.00  0.00     0.023 A 
ATOM     63  C   UNL A   1      37.810  30.714  29.784  1.00  0.00     0.031 A 
ATOM     64  C   UNL A   1      38.384  29.199  31.564  1.00  0.00     0.131 A 
ATOM     65  C   UNL A   1      36.646  31.060  30.489  1.00  0.00     0.055 A 
ATOM     66  C   UNL A   1      37.183  29.482  32.219  1.00  0.00     0.041 A 
ATOM     67  F   UNL A   1      39.217  28.325  32.152  1.00  0.00    -0.206 F 
ATOM     68  C   UNL A   1      36.313  30.432  31.690  1.00  0.00     0.022 A 
BRANCH  65  69
ATOM     69  S   UNL A   1      35.654  32.450  29.879  1.00  0.00     0.124 S 
ATOM     70  O   UNL A   1      34.487  32.387  30.756  1.00  0.00    -0.237 OA
ATOM     71  O   UNL A   1      36.544  33.585  30.076  1.00  0.00    -0.237 OA
ATOM     72  O   UNL A   1      35.391  32.095  28.482  1.00  0.00    -0.744 OA
ENDBRANCH  65  69
ENDBRANCH  48  62
BRANCH  49  73
ATOM     73  C   UNL A   1      47.004  27.338  25.336  1.00  0.00     0.023 A 
ATOM     74  C   UNL A   1      47.130  27.749  24.000  1.00  0.00     0.031 A 
ATOM     75  C   UNL A   1      48.043  26.565  25.887  1.00  0.00     0.131 A 
ATOM     76  C   UNL A   1      48.242  27.347  23.243  1.00  0.00     0.055 A 
ATOM     77  C   UNL A   1      49.175  26.216  25.149  1.00  0.00     0.041 A 
ATOM     78  F   UNL A   1      47.976  26.147  27.161  1.00  0.00    -0.206 F 
ATOM     79  C   UNL A   1      49.273  26.597  23.814  1.00  0.00     0.022 A 
BRANCH  76  80
ATOM     80  S   UNL A   1      48.279  27.743  21.475  1.00  0.00     0.124 S 
ATOM     81  O   UNL A   1      49.359  28.719  21.412  1.00  0.00    -0.237 OA
ATOM     82  O   UNL A   1      48.554  26.439  20.879  1.00  0.00    -0.237 OA
ATOM     83  O   UNL A   1      46.940  28.273  21.217  1.00  0.00    -0.744 OA
ENDBRANCH  76  80
ENDBRANCH  49  73
BRANCH  61  84
ATOM     84  C   UNL A   1      45.078  33.000  28.934  1.00  0.00     0.023 A 
ATOM     85  C   UNL A   1      45.989  33.104  30.001  1.00  0.00     0.031 A 
ATOM     86  C   UNL A   1      44.828  34.155  28.169  1.00  0.00     0.131 A 
ATOM     87  C   UNL A   1      46.569  34.345  30.310  1.00  0.00     0.055 A 
ATOM     88  C   UNL A   1      45.459  35.370  28.441  1.00  0.00     0.041 A 
ATOM     89  F   UNL A   1      43.964  34.121  27.142  1.00  0.00    -0.206 F 
ATOM     90  C   UNL A   1      46.325  35.474  29.525  1.00  0.00     0.022 A 
BRANCH  87  91
ATOM     91  S   UNL A   1      47.569  34.489  31.817  1.00  0.00     0.124 S 
ATOM     92  O   UNL A   1      46.724  33.828  32.807  1.00  0.00    -0.237 OA
ATOM     93  O   UNL A   1      48.791  33.782  31.449  1.00  0.00    -0.237 OA
ATOM     94  O   UNL A   1      47.718  35.932  31.994  1.00  0.00    -0.744 OA
ENDBRANCH  87  91
ENDBRANCH  61  84
ENDBRANCH  35  36
ENDBRANCH  27  30
ENDBRANCH  25  26
ENDBRANCH  24  25
ENDBRANCH   1  24
TORSDOF 17
ENDMDL
MODEL 3
REMARK VINA RESULT:     -11.3      1.620      2.038
REMARK SMILES O=C(C[C@H]1C[C@H]2CC[C@@H](C1)N2C(=O)[C@H]1CCCCO1)NCCCCNC(=O)c1ccc(-c2c3nc(c(-c4cc(S(=O)(=O)[O-])ccc4F)c4ccc([nH]4)c(-c4cc(S(=O)(=O)[O-])ccc4F)c4nc(c(-c5cc(S(=O)(=O)[O-])ccc5F)c5ccc2[nH]5)C=C4)C=C3)cc1
REMARK SMILES IDX 22 1 21 2 20 3 1 4 2 5 3 7 4 8 5 9 10 10 6 11 9 12 7 13
REMARK SMILES IDX 11 14 8 15 12 16 13 17 14 18 15 19 19 20 16 21 18 22 17 23
REMARK SMILES IDX 23 24 24 25 25 26 26 27 27 29 28 30 29 31 90 32 30 33 89 34
REMARK SMILES IDX 31 35 32 36 33 37 83 38 34 39 88 40 82 41 84 42 35 43 87 44
REMARK SMILES IDX 81 45 80 46 36 48 68 49 48 50 67 51 49 52 52 53 66 54 85 55
REMARK SMILES IDX 50 56 51 57 65 59 86 60 53 61 37 62 38 63 46 64 39 65 45 66
REMARK SMILES IDX 47 67 44 68 40 69 41 70 42 71 43 72 69 73 70 74 78 75 71 76
REMARK SMILES IDX 77 77 79 78 76 79 72 80 73 81 74 82 75 83 54 84 55 85 63 86
REMARK SMILES IDX 56 87 62 88 64 89 61 90 57 91 58 92 59 93 60 94
REMARK H PARENT 20 6 25 28 84 47 52 58
REMARK Flexibility Score: inf
ROOT
ATOM      1  C   UNL A   1      34.678  30.942  27.643  1.00  0.00     0.023 C 
ENDROOT
BRANCH   1   2
ATOM      2  C   UNL A   1      34.849  29.427  27.883  1.00  0.00     0.116 C 
BRANCH   2   3
ATOM      3  N   UNL A   1      34.741  28.565  26.703  1.00  0.00    -0.356 N 
ATOM      4  O   UNL A   1      32.627  27.838  27.219  1.00  0.00    -0.275 OA
ATOM      5  C   UNL A   1      33.546  27.924  26.409  1.00  0.00     0.220 C 
ATOM      6  H   UNL A   1      35.520  28.441  26.114  1.00  0.00     0.163 HD
BRANCH   5   7
ATOM      7  C   UNL A   1      33.411  27.341  25.006  1.00  0.00     0.103 C 
BRANCH   7   8
ATOM      8  C   UNL A   1      33.788  25.853  24.730  1.00  0.00     0.002 C 
ATOM      9  C   UNL A   1      34.128  24.916  25.916  1.00  0.00     0.029 C 
ATOM     10  C   UNL A   1      32.859  25.162  23.725  1.00  0.00     0.029 C 
ATOM     11  C   UNL A   1      33.057  23.849  26.265  1.00  0.00     0.085 C 
ATOM     12  C   UNL A   1      31.850  24.190  24.340  1.00  0.00     0.085 C 
ATOM     13  C   UNL A   1      31.784  24.543  26.754  1.00  0.00     0.027 C 
ATOM     14  N   UNL A   1      32.533  23.163  25.069  1.00  0.00    -0.334 N 
ATOM     15  C   UNL A   1      30.981  24.709  25.461  1.00  0.00     0.027 C 
BRANCH  14  16
ATOM     16  C   UNL A   1      32.054  21.853  25.205  1.00  0.00     0.252 C 
ATOM     17  O   UNL A   1      30.913  21.692  25.662  1.00  0.00    -0.272 OA
BRANCH  16  18
ATOM     18  C   UNL A   1      32.849  20.620  24.612  1.00  0.00     0.207 C 
ATOM     19  C   UNL A   1      34.247  20.287  25.156  1.00  0.00     0.042 C 
ATOM     20  O   UNL A   1      32.004  19.474  24.839  1.00  0.00    -0.368 OA
ATOM     21  C   UNL A   1      34.797  18.995  24.552  1.00  0.00     0.006 C 
ATOM     22  C   UNL A   1      32.434  18.276  24.204  1.00  0.00     0.161 C 
ATOM     23  C   UNL A   1      33.806  17.858  24.703  1.00  0.00     0.029 C 
ENDBRANCH  16  18
ENDBRANCH  14  16
ENDBRANCH   7   8
ENDBRANCH   5   7
ENDBRANCH   2   3
ENDBRANCH   1   2
BRANCH   1  24
ATOM     24  C   UNL A   1      33.271  31.567  27.735  1.00  0.00     0.023 C 
BRANCH  24  25
ATOM     25  C   UNL A   1      32.991  32.828  26.899  1.00  0.00     0.116 C 
BRANCH  25  26
ATOM     26  N   UNL A   1      32.624  34.007  27.661  1.00  0.00    -0.352 N 
ATOM     27  C   UNL A   1      33.218  34.654  28.723  1.00  0.00     0.251 C 
ATOM     28  H   UNL A   1      31.786  34.427  27.358  1.00  0.00     0.163 HD
ATOM     29  O   UNL A   1      32.681  35.683  29.131  1.00  0.00    -0.269 OA
BRANCH  27  30
ATOM     30  C   UNL A   1      34.427  34.147  29.432  1.00  0.00     0.039 A 
ATOM     31  C   UNL A   1      34.232  33.484  30.654  1.00  0.00     0.014 A 
ATOM     32  C   UNL A   1      35.734  34.356  28.993  1.00  0.00     0.014 A 
ATOM     33  C   UNL A   1      35.317  32.967  31.382  1.00  0.00     0.010 A 
ATOM     34  C   UNL A   1      36.812  33.790  29.697  1.00  0.00     0.010 A 
ATOM     35  C   UNL A   1      36.623  33.074  30.889  1.00  0.00    -0.014 A 
BRANCH  35  36
ATOM     36  C   UNL A   1      37.777  32.403  31.570  1.00  0.00     0.031 A 
ATOM     37  C   UNL A   1      38.533  31.270  30.917  1.00  0.00     0.074 A 
ATOM     38  C   UNL A   1      38.107  32.767  32.828  1.00  0.00     0.049 A 
ATOM     39  N   UNL A   1      39.525  30.555  31.391  1.00  0.00    -0.248 NA
ATOM     40  C   UNL A   1      38.098  30.872  29.572  1.00  0.00     0.031 C 
ATOM     41  C   UNL A   1      37.430  33.803  33.608  1.00  0.00     0.029 A 
ATOM     42  N   UNL A   1      39.085  32.302  33.678  1.00  0.00    -0.354 N 
ATOM     43  C   UNL A   1      39.839  29.627  30.401  1.00  0.00     0.074 A 
ATOM     44  C   UNL A   1      38.879  29.827  29.333  1.00  0.00     0.031 C 
ATOM     45  C   UNL A   1      38.018  33.907  34.810  1.00  0.00     0.029 A 
ATOM     46  C   UNL A   1      39.092  32.922  34.907  1.00  0.00     0.049 A 
ATOM     47  H   UNL A   1      39.720  31.592  33.430  1.00  0.00     0.167 HD
ATOM     48  C   UNL A   1      40.845  28.713  30.371  1.00  0.00     0.034 A 
ATOM     49  C   UNL A   1      39.860  32.722  35.999  1.00  0.00     0.034 A 
ATOM     50  C   UNL A   1      41.799  28.516  31.439  1.00  0.00     0.049 A 
ATOM     51  C   UNL A   1      40.951  31.681  35.956  1.00  0.00     0.074 A 
ATOM     52  C   UNL A   1      42.890  27.660  31.473  1.00  0.00     0.029 A 
ATOM     53  N   UNL A   1      41.774  29.164  32.667  1.00  0.00    -0.354 N 
ATOM     54  N   UNL A   1      41.276  30.866  34.980  1.00  0.00    -0.248 NA
ATOM     55  C   UNL A   1      41.788  31.547  37.156  1.00  0.00     0.031 C 
ATOM     56  C   UNL A   1      43.471  27.732  32.744  1.00  0.00     0.029 A 
ATOM     57  C   UNL A   1      42.803  28.700  33.475  1.00  0.00     0.049 A 
ATOM     58  H   UNL A   1      41.120  29.853  32.926  1.00  0.00     0.167 HD
ATOM     59  C   UNL A   1      42.378  30.146  35.440  1.00  0.00     0.074 A 
ATOM     60  C   UNL A   1      42.669  30.635  36.770  1.00  0.00     0.031 C 
ATOM     61  C   UNL A   1      43.087  29.174  34.811  1.00  0.00     0.034 A 
BRANCH  48  62
ATOM     62  C   UNL A   1      40.961  27.840  29.138  1.00  0.00     0.023 A 
ATOM     63  C   UNL A   1      41.964  28.054  28.176  1.00  0.00     0.031 A 
ATOM     64  C   UNL A   1      40.063  26.779  28.921  1.00  0.00     0.131 A 
ATOM     65  C   UNL A   1      41.999  27.274  27.010  1.00  0.00     0.055 A 
ATOM     66  C   UNL A   1      40.156  25.950  27.800  1.00  0.00     0.041 A 
ATOM     67  F   UNL A   1      39.075  26.528  29.795  1.00  0.00    -0.206 F 
ATOM     68  C   UNL A   1      41.119  26.206  26.827  1.00  0.00     0.022 A 
BRANCH  65  69
ATOM     69  S   UNL A   1      43.119  27.773  25.675  1.00  0.00     0.124 S 
ATOM     70  O   UNL A   1      43.871  26.542  25.444  1.00  0.00    -0.237 OA
ATOM     71  O   UNL A   1      42.198  28.169  24.620  1.00  0.00    -0.237 OA
ATOM     72  O   UNL A   1      43.895  28.864  26.270  1.00  0.00    -0.744 OA
ENDBRANCH  65  69
ENDBRANCH  48  62
BRANCH  49  73
ATOM     73  C   UNL A   1      39.627  33.520  37.238  1.00  0.00     0.023 A 
ATOM     74  C   UNL A   1      40.352  34.695  37.495  1.00  0.00     0.031 A 
ATOM     75  C   UNL A   1      38.699  33.096  38.207  1.00  0.00     0.131 A 
ATOM     76  C   UNL A   1      40.175  35.378  38.708  1.00  0.00     0.055 A 
ATOM     77  C   UNL A   1      38.483  33.810  39.386  1.00  0.00     0.041 A 
ATOM     78  F   UNL A   1      37.976  31.982  38.012  1.00  0.00    -0.206 F 
ATOM     79  C   UNL A   1      39.234  34.952  39.648  1.00  0.00     0.022 A 
BRANCH  76  80
ATOM     80  S   UNL A   1      41.258  36.783  39.080  1.00  0.00     0.124 S 
ATOM     81  O   UNL A   1      40.293  37.852  39.297  1.00  0.00    -0.237 OA
ATOM     82  O   UNL A   1      41.971  36.310  40.263  1.00  0.00    -0.237 OA
ATOM     83  O   UNL A   1      42.075  36.911  37.874  1.00  0.00    -0.744 OA
ENDBRANCH  76  80
ENDBRANCH  49  73
BRANCH  61  84
ATOM     84  C   UNL A   1      44.283  28.605  35.541  1.00  0.00     0.023 A 
ATOM     85  C   UNL A   1      44.159  27.557  36.472  1.00  0.00     0.031 A 
ATOM     86  C   UNL A   1      45.568  29.133  35.314  1.00  0.00     0.131 A 
ATOM     87  C   UNL A   1      45.285  27.112  37.181  1.00  0.00     0.055 A 
ATOM     88  C   UNL A   1      46.694  28.639  35.973  1.00  0.00     0.041 A 
ATOM     89  F   UNL A   1      45.749  30.138  34.442  1.00  0.00    -0.206 F 
ATOM     90  C   UNL A   1      46.556  27.633  36.924  1.00  0.00     0.022 A 
BRANCH  87  91
ATOM     91  S   UNL A   1      45.054  25.911  38.522  1.00  0.00     0.124 S 
ATOM     92  O   UNL A   1      43.992  26.533  39.306  1.00  0.00    -0.237 OA
ATOM     93  O   UNL A   1      44.684  24.700  37.796  1.00  0.00    -0.237 OA
ATOM     94  O   UNL A   1      46.361  25.867  39.173  1.00  0.00    -0.744 OA
ENDBRANCH  87  91
ENDBRANCH  61  84
ENDBRANCH  35  36
ENDBRANCH  27  30
ENDBRANCH  25  26
ENDBRANCH  24  25
ENDBRANCH   1  24
TORSDOF 17
ENDMDL
