MODEL 1
REMARK VINA RESULT:     -12.5      0.000      0.000
REMARK SMILES COc1cccc(NC(=O)[C@@H]2[C@@H](C(=O)NCCCCNC(=O)c3ccc(-c4c5nc(c(-c6cc(S(=O)(=O)[O-])ccc6F)c6ccc([nH]6)c(-c6cc(S(=O)(=O)[O-])ccc6F)c6nc(c(-c7cc(S(=O)(=O)[O-])ccc7F)c7ccc4[nH]7)C=C6)C=C5)cc3)[C@H]3C=C[C@@H]2C3)c1
REMARK SMILES IDX 17 1 16 2 15 3 13 4 14 5 12 7 11 8 89 9 86 10 88 11 90 12
REMARK SMILES IDX 87 13 9 14 8 15 10 17 7 18 3 19 4 20 91 21 5 22 6 23 2 24
REMARK SMILES IDX 1 25 18 26 19 27 20 28 21 29 22 31 23 32 24 33 85 34 25 35
REMARK SMILES IDX 84 36 26 37 27 38 28 39 78 40 29 41 83 42 77 43 79 44 30 45
REMARK SMILES IDX 82 46 76 47 75 48 31 50 63 51 43 52 62 53 44 54 47 55 61 56
REMARK SMILES IDX 80 57 45 58 46 59 60 61 81 62 48 63 32 64 33 65 41 66 34 67
REMARK SMILES IDX 40 68 42 69 39 70 35 71 36 72 37 73 38 74 64 75 65 76 73 77
REMARK SMILES IDX 66 78 72 79 74 80 71 81 67 82 68 83 69 84 70 85 49 86 50 87
REMARK SMILES IDX 58 88 51 89 57 90 59 91 56 92 52 93 53 94 54 95 55 96
REMARK H PARENT 15 6 8 16 20 30 79 49 47 60
REMARK Flexibility Score: inf
ROOT
ATOM      1  C   UNL A   1      35.635  22.864  23.737  1.00  0.00     0.023 C 
ENDROOT
BRANCH   1   2
ATOM      2  C   UNL A   1      35.207  24.129  24.493  1.00  0.00     0.116 C 
BRANCH   2   3
ATOM      3  N   UNL A   1      34.503  25.086  23.649  1.00  0.00    -0.356 N 
ATOM      4  C   UNL A   1      33.765  26.200  23.939  1.00  0.00     0.224 C 
ATOM      5  O   UNL A   1      33.494  26.947  22.998  1.00  0.00    -0.275 OA
ATOM      6  H   UNL A   1      34.572  24.893  22.687  1.00  0.00     0.163 HD
BRANCH   4   7
ATOM      7  C   UNL A   1      33.231  26.440  25.349  1.00  0.00     0.098 C 
ATOM      8  C   UNL A   1      31.667  26.345  25.381  1.00  0.00     0.099 C 
ATOM      9  C   UNL A   1      31.292  27.677  26.121  1.00  0.00     0.025 C 
ATOM     10  C   UNL A   1      33.515  27.828  25.986  1.00  0.00     0.025 C 
ATOM     11  C   UNL A   1      31.628  28.852  25.221  1.00  0.00    -0.027 C 
ATOM     12  C   UNL A   1      32.457  27.815  27.103  1.00  0.00     0.017 C 
ATOM     13  C   UNL A   1      32.963  28.943  25.154  1.00  0.00    -0.027 C 
BRANCH   8  14
ATOM     14  C   UNL A   1      30.684  25.241  25.846  1.00  0.00     0.228 C 
ATOM     15  N   UNL A   1      30.535  23.922  25.584  1.00  0.00    -0.326 N 
ATOM     16  H   UNL A   1      29.724  23.580  26.025  1.00  0.00     0.169 HD
ATOM     17  O   UNL A   1      29.827  25.626  26.674  1.00  0.00    -0.274 OA
BRANCH  15  18
ATOM     18  C   UNL A   1      31.171  22.893  24.882  1.00  0.00     0.044 A 
ATOM     19  C   UNL A   1      32.200  20.711  24.807  1.00  0.00     0.120 A 
ATOM     20  C   UNL A   1      32.564  20.865  23.472  1.00  0.00     0.046 A 
ATOM     21  C   UNL A   1      31.587  21.740  25.541  1.00  0.00     0.072 A 
ATOM     22  C   UNL A   1      32.124  21.986  22.812  1.00  0.00     0.006 A 
ATOM     23  C   UNL A   1      31.375  22.916  23.527  1.00  0.00     0.026 A 
BRANCH  19  24
ATOM     24  O   UNL A   1      32.320  19.467  25.363  1.00  0.00    -0.497 OA
ATOM     25  C   UNL A   1      32.456  18.514  24.295  1.00  0.00     0.278 C 
ENDBRANCH  19  24
ENDBRANCH  15  18
ENDBRANCH   8  14
ENDBRANCH   4   7
ENDBRANCH   2   3
ENDBRANCH   1   2
BRANCH   1  26
ATOM     26  C   UNL A   1      36.037  21.682  24.624  1.00  0.00     0.023 C 
BRANCH  26  27
ATOM     27  C   UNL A   1      37.088  21.995  25.687  1.00  0.00     0.116 C 
BRANCH  27  28
ATOM     28  N   UNL A   1      38.215  21.074  25.718  1.00  0.00    -0.352 N 
ATOM     29  C   UNL A   1      39.497  21.324  26.175  1.00  0.00     0.251 C 
ATOM     30  H   UNL A   1      38.045  20.168  25.371  1.00  0.00     0.163 HD
ATOM     31  O   UNL A   1      40.363  20.473  26.071  1.00  0.00    -0.269 OA
BRANCH  29  32
ATOM     32  C   UNL A   1      39.806  22.665  26.733  1.00  0.00     0.039 A 
ATOM     33  C   UNL A   1      40.695  22.765  27.806  1.00  0.00     0.014 A 
ATOM     34  C   UNL A   1      39.289  23.819  26.143  1.00  0.00     0.014 A 
ATOM     35  C   UNL A   1      41.133  24.026  28.224  1.00  0.00     0.010 A 
ATOM     36  C   UNL A   1      39.799  25.066  26.496  1.00  0.00     0.010 A 
ATOM     37  C   UNL A   1      40.728  25.186  27.541  1.00  0.00    -0.014 A 
BRANCH  37  38
ATOM     38  C   UNL A   1      41.259  26.528  27.908  1.00  0.00     0.031 A 
ATOM     39  C   UNL A   1      42.683  26.892  27.577  1.00  0.00     0.074 A 
ATOM     40  C   UNL A   1      40.486  27.391  28.598  1.00  0.00     0.049 A 
ATOM     41  N   UNL A   1      43.349  27.983  27.861  1.00  0.00    -0.248 NA
ATOM     42  C   UNL A   1      43.474  25.874  26.871  1.00  0.00     0.031 C 
ATOM     43  C   UNL A   1      39.114  27.132  29.043  1.00  0.00     0.029 A 
ATOM     44  N   UNL A   1      40.745  28.661  29.051  1.00  0.00    -0.354 N 
ATOM     45  C   UNL A   1      44.639  27.774  27.384  1.00  0.00     0.074 A 
ATOM     46  C   UNL A   1      44.679  26.422  26.869  1.00  0.00     0.031 C 
ATOM     47  C   UNL A   1      38.642  28.220  29.671  1.00  0.00     0.029 A 
ATOM     48  C   UNL A   1      39.683  29.242  29.708  1.00  0.00     0.049 A 
ATOM     49  H   UNL A   1      41.607  29.115  28.918  1.00  0.00     0.167 HD
ATOM     50  C   UNL A   1      45.685  28.637  27.349  1.00  0.00     0.034 A 
ATOM     51  C   UNL A   1      39.562  30.459  30.275  1.00  0.00     0.034 A 
ATOM     52  C   UNL A   1      45.622  29.990  27.847  1.00  0.00     0.049 A 
ATOM     53  C   UNL A   1      40.728  31.413  30.204  1.00  0.00     0.074 A 
ATOM     54  C   UNL A   1      46.599  30.971  27.812  1.00  0.00     0.029 A 
ATOM     55  N   UNL A   1      44.520  30.555  28.478  1.00  0.00    -0.354 N 
ATOM     56  N   UNL A   1      41.923  31.223  29.692  1.00  0.00    -0.248 NA
ATOM     57  C   UNL A   1      40.521  32.751  30.772  1.00  0.00     0.031 C 
ATOM     58  C   UNL A   1      46.109  32.105  28.472  1.00  0.00     0.029 A 
ATOM     59  C   UNL A   1      44.800  31.860  28.853  1.00  0.00     0.049 A 
ATOM     60  H   UNL A   1      43.664  30.095  28.635  1.00  0.00     0.167 HD
ATOM     61  C   UNL A   1      42.598  32.431  29.848  1.00  0.00     0.074 A 
ATOM     62  C   UNL A   1      41.669  33.344  30.482  1.00  0.00     0.031 C 
ATOM     63  C   UNL A   1      43.869  32.757  29.499  1.00  0.00     0.034 A 
BRANCH  50  64
ATOM     64  C   UNL A   1      46.982  28.126  26.764  1.00  0.00     0.023 A 
ATOM     65  C   UNL A   1      47.248  28.202  25.384  1.00  0.00     0.031 A 
ATOM     66  C   UNL A   1      47.943  27.507  27.582  1.00  0.00     0.131 A 
ATOM     67  C   UNL A   1      48.389  27.581  24.854  1.00  0.00     0.055 A 
ATOM     68  C   UNL A   1      49.124  26.975  27.059  1.00  0.00     0.041 A 
ATOM     69  F   UNL A   1      47.741  27.387  28.903  1.00  0.00    -0.206 F 
ATOM     70  C   UNL A   1      49.344  26.991  25.684  1.00  0.00     0.022 A 
BRANCH  67  71
ATOM     71  S   UNL A   1      48.516  27.404  23.052  1.00  0.00     0.124 S 
ATOM     72  O   UNL A   1      49.841  27.965  22.795  1.00  0.00    -0.237 OA
ATOM     73  O   UNL A   1      48.384  25.964  22.866  1.00  0.00    -0.237 OA
ATOM     74  O   UNL A   1      47.401  28.205  22.550  1.00  0.00    -0.744 OA
ENDBRANCH  67  71
ENDBRANCH  50  64
BRANCH  51  75
ATOM     75  C   UNL A   1      38.292  30.860  30.946  1.00  0.00     0.023 A 
ATOM     76  C   UNL A   1      37.289  31.548  30.244  1.00  0.00     0.031 A 
ATOM     77  C   UNL A   1      38.078  30.597  32.309  1.00  0.00     0.131 A 
ATOM     78  C   UNL A   1      36.140  31.993  30.918  1.00  0.00     0.055 A 
ATOM     79  C   UNL A   1      36.912  30.997  32.965  1.00  0.00     0.041 A 
ATOM     80  F   UNL A   1      39.001  29.933  33.026  1.00  0.00    -0.206 F 
ATOM     81  C   UNL A   1      35.940  31.712  32.271  1.00  0.00     0.022 A 
BRANCH  78  82
ATOM     82  S   UNL A   1      34.942  33.014  30.014  1.00  0.00     0.124 S 
ATOM     83  O   UNL A   1      34.387  32.054  29.068  1.00  0.00    -0.237 OA
ATOM     84  O   UNL A   1      34.051  33.450  31.085  1.00  0.00    -0.237 OA
ATOM     85  O   UNL A   1      35.768  34.067  29.427  1.00  0.00    -0.744 OA
ENDBRANCH  78  82
ENDBRANCH  51  75
BRANCH  63  86
ATOM     86  C   UNL A   1      44.303  34.181  29.759  1.00  0.00     0.023 A 
ATOM     87  C   UNL A   1      44.077  35.206  28.824  1.00  0.00     0.031 A 
ATOM     88  C   UNL A   1      44.983  34.506  30.946  1.00  0.00     0.131 A 
ATOM     89  C   UNL A   1      44.592  36.491  29.058  1.00  0.00     0.055 A 
ATOM     90  C   UNL A   1      45.433  35.802  31.203  1.00  0.00     0.041 A 
ATOM     91  F   UNL A   1      45.228  33.567  31.874  1.00  0.00    -0.206 F 
ATOM     92  C   UNL A   1      45.254  36.799  30.248  1.00  0.00     0.022 A 
BRANCH  89  93
ATOM     93  S   UNL A   1      44.490  37.722  27.730  1.00  0.00     0.124 S 
ATOM     94  O   UNL A   1      45.847  37.701  27.191  1.00  0.00    -0.237 OA
ATOM     95  O   UNL A   1      43.454  37.164  26.868  1.00  0.00    -0.237 OA
ATOM     96  O   UNL A   1      44.119  38.951  28.430  1.00  0.00    -0.744 OA
ENDBRANCH  89  93
ENDBRANCH  63  86
ENDBRANCH  37  38
ENDBRANCH  29  32
ENDBRANCH  27  28
ENDBRANCH  26  27
ENDBRANCH   1  26
TORSDOF 17
ENDMDL
MODEL 2
REMARK VINA RESULT:     -12.3      5.532      8.263
REMARK SMILES COc1cccc(NC(=O)[C@@H]2[C@@H](C(=O)NCCCCNC(=O)c3ccc(-c4c5nc(c(-c6cc(S(=O)(=O)[O-])ccc6F)c6ccc([nH]6)c(-c6cc(S(=O)(=O)[O-])ccc6F)c6nc(c(-c7cc(S(=O)(=O)[O-])ccc7F)c7ccc4[nH]7)C=C6)C=C5)cc3)[C@H]3C=C[C@@H]2C3)c1
REMARK SMILES IDX 17 1 16 2 15 3 13 4 14 5 12 7 11 8 89 9 86 10 88 11 90 12
REMARK SMILES IDX 87 13 9 14 8 15 10 17 7 18 3 19 4 20 91 21 5 22 6 23 2 24
REMARK SMILES IDX 1 25 18 26 19 27 20 28 21 29 22 31 23 32 24 33 85 34 25 35
REMARK SMILES IDX 84 36 26 37 27 38 28 39 78 40 29 41 83 42 77 43 79 44 30 45
REMARK SMILES IDX 82 46 76 47 75 48 31 50 63 51 43 52 62 53 44 54 47 55 61 56
REMARK SMILES IDX 80 57 45 58 46 59 60 61 81 62 48 63 32 64 33 65 41 66 34 67
REMARK SMILES IDX 40 68 42 69 39 70 35 71 36 72 37 73 38 74 64 75 65 76 73 77
REMARK SMILES IDX 66 78 72 79 74 80 71 81 67 82 68 83 69 84 70 85 49 86 50 87
REMARK SMILES IDX 58 88 51 89 57 90 59 91 56 92 52 93 53 94 54 95 55 96
REMARK H PARENT 15 6 8 16 20 30 79 49 47 60
REMARK Flexibility Score: inf
ROOT
ATOM      1  C   UNL A   1      32.182  29.681  27.124  1.00  0.00     0.023 C 
ENDROOT
BRANCH   1   2
ATOM      2  C   UNL A   1      33.464  28.896  26.813  1.00  0.00     0.116 C 
BRANCH   2   3
ATOM      3  N   UNL A   1      33.939  29.099  25.452  1.00  0.00    -0.356 N 
ATOM      4  C   UNL A   1      33.450  28.702  24.237  1.00  0.00     0.224 C 
ATOM      5  O   UNL A   1      33.941  29.231  23.240  1.00  0.00    -0.275 OA
ATOM      6  H   UNL A   1      34.772  29.620  25.394  1.00  0.00     0.163 HD
BRANCH   4   7
ATOM      7  C   UNL A   1      32.411  27.586  24.139  1.00  0.00     0.098 C 
ATOM      8  C   UNL A   1      32.301  27.051  22.670  1.00  0.00     0.099 C 
ATOM      9  C   UNL A   1      30.750  27.113  22.435  1.00  0.00     0.025 C 
ATOM     10  C   UNL A   1      30.945  27.952  24.495  1.00  0.00     0.025 C 
ATOM     11  C   UNL A   1      30.317  28.567  22.392  1.00  0.00    -0.027 C 
ATOM     12  C   UNL A   1      30.221  26.770  23.828  1.00  0.00     0.017 C 
ATOM     13  C   UNL A   1      30.426  29.060  23.632  1.00  0.00    -0.027 C 
BRANCH   8  14
ATOM     14  C   UNL A   1      32.846  25.785  21.962  1.00  0.00     0.228 C 
ATOM     15  N   UNL A   1      32.956  24.478  22.292  1.00  0.00    -0.326 N 
ATOM     16  H   UNL A   1      33.440  23.991  21.587  1.00  0.00     0.169 HD
ATOM     17  O   UNL A   1      33.275  25.984  20.802  1.00  0.00    -0.274 OA
BRANCH  15  18
ATOM     18  C   UNL A   1      32.597  23.601  23.322  1.00  0.00     0.044 A 
ATOM     19  C   UNL A   1      32.816  21.487  24.466  1.00  0.00     0.120 A 
ATOM     20  C   UNL A   1      31.777  21.789  25.343  1.00  0.00     0.046 A 
ATOM     21  C   UNL A   1      33.175  22.337  23.407  1.00  0.00     0.072 A 
ATOM     22  C   UNL A   1      31.230  23.047  25.281  1.00  0.00     0.006 A 
ATOM     23  C   UNL A   1      31.721  23.929  24.323  1.00  0.00     0.026 A 
BRANCH  19  24
ATOM     24  O   UNL A   1      33.592  20.396  24.745  1.00  0.00    -0.497 OA
ATOM     25  C   UNL A   1      32.720  19.272  24.955  1.00  0.00     0.278 C 
ENDBRANCH  19  24
ENDBRANCH  15  18
ENDBRANCH   8  14
ENDBRANCH   4   7
ENDBRANCH   2   3
ENDBRANCH   1   2
BRANCH   1  26
ATOM     26  C   UNL A   1      32.169  31.128  26.623  1.00  0.00     0.023 C 
BRANCH  26  27
ATOM     27  C   UNL A   1      33.190  32.054  27.280  1.00  0.00     0.116 C 
BRANCH  27  28
ATOM     28  N   UNL A   1      32.726  33.416  27.497  1.00  0.00    -0.352 N 
ATOM     29  C   UNL A   1      33.196  34.331  28.423  1.00  0.00     0.251 C 
ATOM     30  H   UNL A   1      31.990  33.722  26.918  1.00  0.00     0.163 HD
ATOM     31  O   UNL A   1      32.658  35.418  28.540  1.00  0.00    -0.269 OA
BRANCH  29  32
ATOM     32  C   UNL A   1      34.322  33.935  29.308  1.00  0.00     0.039 A 
ATOM     33  C   UNL A   1      34.052  33.191  30.458  1.00  0.00     0.014 A 
ATOM     34  C   UNL A   1      35.641  34.224  28.954  1.00  0.00     0.014 A 
ATOM     35  C   UNL A   1      35.111  32.661  31.201  1.00  0.00     0.010 A 
ATOM     36  C   UNL A   1      36.690  33.617  29.639  1.00  0.00     0.010 A 
ATOM     37  C   UNL A   1      36.439  32.826  30.771  1.00  0.00    -0.014 A 
BRANCH  37  38
ATOM     38  C   UNL A   1      37.574  32.187  31.493  1.00  0.00     0.031 A 
ATOM     39  C   UNL A   1      38.351  31.073  30.842  1.00  0.00     0.074 A 
ATOM     40  C   UNL A   1      37.861  32.559  32.757  1.00  0.00     0.049 A 
ATOM     41  N   UNL A   1      39.332  30.352  31.324  1.00  0.00    -0.248 NA
ATOM     42  C   UNL A   1      37.939  30.691  29.483  1.00  0.00     0.031 C 
ATOM     43  C   UNL A   1      37.138  33.575  33.527  1.00  0.00     0.029 A 
ATOM     44  N   UNL A   1      38.835  32.123  33.621  1.00  0.00    -0.354 N 
ATOM     45  C   UNL A   1      39.641  29.423  30.336  1.00  0.00     0.074 A 
ATOM     46  C   UNL A   1      38.688  29.622  29.265  1.00  0.00     0.031 C 
ATOM     47  C   UNL A   1      37.716  33.708  34.732  1.00  0.00     0.029 A 
ATOM     48  C   UNL A   1      38.825  32.766  34.839  1.00  0.00     0.049 A 
ATOM     49  H   UNL A   1      39.481  31.417  33.392  1.00  0.00     0.167 HD
ATOM     50  C   UNL A   1      40.644  28.510  30.307  1.00  0.00     0.034 A 
ATOM     51  C   UNL A   1      39.620  32.616  35.916  1.00  0.00     0.034 A 
ATOM     52  C   UNL A   1      41.600  28.339  31.375  1.00  0.00     0.049 A 
ATOM     53  C   UNL A   1      40.744  31.612  35.856  1.00  0.00     0.074 A 
ATOM     54  C   UNL A   1      42.691  27.487  31.430  1.00  0.00     0.029 A 
ATOM     55  N   UNL A   1      41.578  29.030  32.580  1.00  0.00    -0.354 N 
ATOM     56  N   UNL A   1      41.064  30.784  34.887  1.00  0.00    -0.248 NA
ATOM     57  C   UNL A   1      41.625  31.537  37.028  1.00  0.00     0.031 C 
ATOM     58  C   UNL A   1      43.290  27.622  32.689  1.00  0.00     0.029 A 
ATOM     59  C   UNL A   1      42.621  28.611  33.391  1.00  0.00     0.049 A 
ATOM     60  H   UNL A   1      40.918  29.719  32.822  1.00  0.00     0.167 HD
ATOM     61  C   UNL A   1      42.204  30.113  35.323  1.00  0.00     0.074 A 
ATOM     62  C   UNL A   1      42.524  30.650  36.631  1.00  0.00     0.031 C 
ATOM     63  C   UNL A   1      42.922  29.144  34.700  1.00  0.00     0.034 A 
BRANCH  50  64
ATOM     64  C   UNL A   1      40.736  27.624  29.085  1.00  0.00     0.023 A 
ATOM     65  C   UNL A   1      41.686  27.860  28.074  1.00  0.00     0.031 A 
ATOM     66  C   UNL A   1      39.832  26.564  28.898  1.00  0.00     0.131 A 
ATOM     67  C   UNL A   1      41.645  27.118  26.885  1.00  0.00     0.055 A 
ATOM     68  C   UNL A   1      39.859  25.767  27.752  1.00  0.00     0.041 A 
ATOM     69  F   UNL A   1      38.890  26.299  29.816  1.00  0.00    -0.206 F 
ATOM     70  C   UNL A   1      40.756  26.054  26.726  1.00  0.00     0.022 A 
BRANCH  67  71
ATOM     71  S   UNL A   1      42.653  27.678  25.483  1.00  0.00     0.124 S 
ATOM     72  O   UNL A   1      42.644  26.495  24.625  1.00  0.00    -0.237 OA
ATOM     73  O   UNL A   1      41.903  28.828  24.995  1.00  0.00    -0.237 OA
ATOM     74  O   UNL A   1      43.945  27.986  26.092  1.00  0.00    -0.744 OA
ENDBRANCH  67  71
ENDBRANCH  50  64
BRANCH  51  75
ATOM     75  C   UNL A   1      39.401  33.438  37.141  1.00  0.00     0.023 A 
ATOM     76  C   UNL A   1      38.715  32.916  38.250  1.00  0.00     0.031 A 
ATOM     77  C   UNL A   1      39.839  34.772  37.206  1.00  0.00     0.131 A 
ATOM     78  C   UNL A   1      38.444  33.736  39.357  1.00  0.00     0.055 A 
ATOM     79  C   UNL A   1      39.611  35.570  38.330  1.00  0.00     0.041 A 
ATOM     80  F   UNL A   1      40.508  35.318  36.178  1.00  0.00    -0.206 F 
ATOM     81  C   UNL A   1      38.897  35.056  39.409  1.00  0.00     0.022 A 
BRANCH  78  82
ATOM     82  S   UNL A   1      37.421  33.073  40.701  1.00  0.00     0.124 S 
ATOM     83  O   UNL A   1      36.154  32.834  40.020  1.00  0.00    -0.237 OA
ATOM     84  O   UNL A   1      38.173  31.886  41.094  1.00  0.00    -0.237 OA
ATOM     85  O   UNL A   1      37.409  34.154  41.684  1.00  0.00    -0.744 OA
ENDBRANCH  78  82
ENDBRANCH  51  75
BRANCH  63  86
ATOM     86  C   UNL A   1      44.152  28.640  35.418  1.00  0.00     0.023 A 
ATOM     87  C   UNL A   1      44.087  27.590  36.350  1.00  0.00     0.031 A 
ATOM     88  C   UNL A   1      45.402  29.243  35.188  1.00  0.00     0.131 A 
ATOM     89  C   UNL A   1      45.234  27.225  37.073  1.00  0.00     0.055 A 
ATOM     90  C   UNL A   1      46.552  28.829  35.861  1.00  0.00     0.041 A 
ATOM     91  F   UNL A   1      45.523  30.252  34.309  1.00  0.00    -0.206 F 
ATOM     92  C   UNL A   1      46.469  27.826  36.822  1.00  0.00     0.022 A 
BRANCH  89  93
ATOM     93  S   UNL A   1      45.062  26.035  38.431  1.00  0.00     0.124 S 
ATOM     94  O   UNL A   1      44.301  24.961  37.800  1.00  0.00    -0.237 OA
ATOM     95  O   UNL A   1      46.451  25.728  38.753  1.00  0.00    -0.237 OA
ATOM     96  O   UNL A   1      44.339  26.787  39.456  1.00  0.00    -0.744 OA
ENDBRANCH  89  93
ENDBRANCH  63  86
ENDBRANCH  37  38
ENDBRANCH  29  32
ENDBRANCH  27  28
ENDBRANCH  26  27
ENDBRANCH   1  26
TORSDOF 17
ENDMDL
MODEL 3
REMARK VINA RESULT:     -12.2      2.359      8.446
REMARK SMILES COc1cccc(NC(=O)[C@@H]2[C@@H](C(=O)NCCCCNC(=O)c3ccc(-c4c5nc(c(-c6cc(S(=O)(=O)[O-])ccc6F)c6ccc([nH]6)c(-c6cc(S(=O)(=O)[O-])ccc6F)c6nc(c(-c7cc(S(=O)(=O)[O-])ccc7F)c7ccc4[nH]7)C=C6)C=C5)cc3)[C@H]3C=C[C@@H]2C3)c1
REMARK SMILES IDX 17 1 16 2 15 3 13 4 14 5 12 7 11 8 89 9 86 10 88 11 90 12
REMARK SMILES IDX 87 13 9 14 8 15 10 17 7 18 3 19 4 20 91 21 5 22 6 23 2 24
REMARK SMILES IDX 1 25 18 26 19 27 20 28 21 29 22 31 23 32 24 33 85 34 25 35
REMARK SMILES IDX 84 36 26 37 27 38 28 39 78 40 29 41 83 42 77 43 79 44 30 45
REMARK SMILES IDX 82 46 76 47 75 48 31 50 63 51 43 52 62 53 44 54 47 55 61 56
REMARK SMILES IDX 80 57 45 58 46 59 60 61 81 62 48 63 32 64 33 65 41 66 34 67
REMARK SMILES IDX 40 68 42 69 39 70 35 71 36 72 37 73 38 74 64 75 65 76 73 77
REMARK SMILES IDX 66 78 72 79 74 80 71 81 67 82 68 83 69 84 70 85 49 86 50 87
REMARK SMILES IDX 58 88 51 89 57 90 59 91 56 92 52 93 53 94 54 95 55 96
REMARK H PARENT 15 6 8 16 20 30 79 49 47 60
REMARK Flexibility Score: inf
ROOT
ATOM      1  C   UNL A   1      37.422  22.157  24.468  1.00  0.00     0.023 C 
ENDROOT
BRANCH   1   2
ATOM      2  C   UNL A   1      36.899  23.264  25.395  1.00  0.00     0.116 C 
BRANCH   2   3
ATOM      3  N   UNL A   1      36.108  22.751  26.504  1.00  0.00    -0.356 N 
ATOM      4  C   UNL A   1      34.786  22.416  26.615  1.00  0.00     0.224 C 
ATOM      5  O   UNL A   1      34.456  21.779  27.615  1.00  0.00    -0.275 OA
ATOM      6  H   UNL A   1      36.622  22.621  27.333  1.00  0.00     0.163 HD
BRANCH   4   7
ATOM      7  C   UNL A   1      33.768  22.900  25.585  1.00  0.00     0.098 C 
ATOM      8  C   UNL A   1      32.308  22.797  26.148  1.00  0.00     0.099 C 
ATOM      9  C   UNL A   1      31.583  22.030  24.986  1.00  0.00     0.025 C 
ATOM     10  C   UNL A   1      33.688  22.115  24.247  1.00  0.00     0.025 C 
ATOM     11  C   UNL A   1      32.116  20.610  24.926  1.00  0.00    -0.027 C 
ATOM     12  C   UNL A   1      32.307  22.587  23.759  1.00  0.00     0.017 C 
ATOM     13  C   UNL A   1      33.375  20.669  24.471  1.00  0.00    -0.027 C 
BRANCH   8  14
ATOM     14  C   UNL A   1      31.322  23.843  26.726  1.00  0.00     0.228 C 
ATOM     15  N   UNL A   1      31.271  25.194  26.754  1.00  0.00    -0.326 N 
ATOM     16  H   UNL A   1      30.505  25.492  27.298  1.00  0.00     0.169 HD
ATOM     17  O   UNL A   1      30.316  23.351  27.287  1.00  0.00    -0.274 OA
BRANCH  15  18
ATOM     18  C   UNL A   1      31.965  26.302  26.255  1.00  0.00     0.044 A 
ATOM     19  C   UNL A   1      33.158  27.422  24.481  1.00  0.00     0.120 A 
ATOM     20  C   UNL A   1      33.471  28.505  25.297  1.00  0.00     0.046 A 
ATOM     21  C   UNL A   1      32.487  26.286  24.965  1.00  0.00     0.072 A 
ATOM     22  C   UNL A   1      32.928  28.537  26.558  1.00  0.00     0.006 A 
ATOM     23  C   UNL A   1      32.129  27.469  26.955  1.00  0.00     0.026 A 
BRANCH  19  24
ATOM     24  O   UNL A   1      33.389  27.544  23.138  1.00  0.00    -0.497 OA
ATOM     25  C   UNL A   1      34.111  28.768  22.922  1.00  0.00     0.278 C 
ENDBRANCH  19  24
ENDBRANCH  15  18
ENDBRANCH   8  14
ENDBRANCH   4   7
ENDBRANCH   2   3
ENDBRANCH   1   2
BRANCH   1  26
ATOM     26  C   UNL A   1      37.877  20.879  25.177  1.00  0.00     0.023 C 
BRANCH  26  27
ATOM     27  C   UNL A   1      39.187  20.996  25.953  1.00  0.00     0.116 C 
BRANCH  27  28
ATOM     28  N   UNL A   1      40.020  19.803  25.925  1.00  0.00    -0.352 N 
ATOM     29  C   UNL A   1      41.393  19.729  26.087  1.00  0.00     0.251 C 
ATOM     30  H   UNL A   1      39.553  18.950  25.771  1.00  0.00     0.163 HD
ATOM     31  O   UNL A   1      41.969  18.661  25.965  1.00  0.00    -0.269 OA
BRANCH  29  32
ATOM     32  C   UNL A   1      42.150  20.980  26.348  1.00  0.00     0.039 A 
ATOM     33  C   UNL A   1      42.504  21.795  25.270  1.00  0.00     0.014 A 
ATOM     34  C   UNL A   1      42.428  21.385  27.654  1.00  0.00     0.014 A 
ATOM     35  C   UNL A   1      43.056  23.057  25.513  1.00  0.00     0.010 A 
ATOM     36  C   UNL A   1      42.887  22.677  27.895  1.00  0.00     0.010 A 
ATOM     37  C   UNL A   1      43.206  23.531  26.828  1.00  0.00    -0.014 A 
BRANCH  37  38
ATOM     38  C   UNL A   1      43.698  24.908  27.105  1.00  0.00     0.031 A 
ATOM     39  C   UNL A   1      42.762  25.947  27.666  1.00  0.00     0.074 A 
ATOM     40  C   UNL A   1      44.966  25.246  26.789  1.00  0.00     0.049 A 
ATOM     41  N   UNL A   1      42.981  27.212  27.922  1.00  0.00    -0.248 NA
ATOM     42  C   UNL A   1      41.383  25.512  27.933  1.00  0.00     0.031 C 
ATOM     43  C   UNL A   1      45.951  24.354  26.173  1.00  0.00     0.029 A 
ATOM     44  N   UNL A   1      45.642  26.432  26.936  1.00  0.00    -0.354 N 
ATOM     45  C   UNL A   1      41.765  27.725  28.363  1.00  0.00     0.074 A 
ATOM     46  C   UNL A   1      40.798  26.653  28.258  1.00  0.00     0.031 C 
ATOM     47  C   UNL A   1      47.113  25.012  26.030  1.00  0.00     0.029 A 
ATOM     48  C   UNL A   1      46.949  26.382  26.508  1.00  0.00     0.049 A 
ATOM     49  H   UNL A   1      45.231  27.242  27.314  1.00  0.00     0.167 HD
ATOM     50  C   UNL A   1      41.486  28.964  28.840  1.00  0.00     0.034 A 
ATOM     51  C   UNL A   1      47.907  27.329  26.502  1.00  0.00     0.034 A 
ATOM     52  C   UNL A   1      42.467  30.016  28.957  1.00  0.00     0.049 A 
ATOM     53  C   UNL A   1      47.583  28.694  27.058  1.00  0.00     0.074 A 
ATOM     54  C   UNL A   1      42.311  31.289  29.479  1.00  0.00     0.029 A 
ATOM     55  N   UNL A   1      43.790  29.919  28.543  1.00  0.00    -0.354 N 
ATOM     56  N   UNL A   1      46.444  29.145  27.532  1.00  0.00    -0.248 NA
ATOM     57  C   UNL A   1      48.680  29.668  27.096  1.00  0.00     0.031 C 
ATOM     58  C   UNL A   1      43.520  31.979  29.325  1.00  0.00     0.029 A 
ATOM     59  C   UNL A   1      44.454  31.113  28.777  1.00  0.00     0.049 A 
ATOM     60  H   UNL A   1      44.197  29.118  28.141  1.00  0.00     0.167 HD
ATOM     61  C   UNL A   1      46.699  30.448  27.953  1.00  0.00     0.074 A 
ATOM     62  C   UNL A   1      48.103  30.698  27.696  1.00  0.00     0.031 C 
ATOM     63  C   UNL A   1      45.852  31.355  28.503  1.00  0.00     0.034 A 
BRANCH  50  64
ATOM     64  C   UNL A   1      40.057  29.239  29.250  1.00  0.00     0.023 A 
ATOM     65  C   UNL A   1      39.680  29.308  30.604  1.00  0.00     0.031 A 
ATOM     66  C   UNL A   1      39.047  29.381  28.282  1.00  0.00     0.131 A 
ATOM     67  C   UNL A   1      38.325  29.410  30.952  1.00  0.00     0.055 A 
ATOM     68  C   UNL A   1      37.710  29.578  28.636  1.00  0.00     0.041 A 
ATOM     69  F   UNL A   1      39.338  29.306  26.974  1.00  0.00    -0.206 F 
ATOM     70  C   UNL A   1      37.338  29.573  29.977  1.00  0.00     0.022 A 
BRANCH  67  71
ATOM     71  S   UNL A   1      37.857  29.150  32.686  1.00  0.00     0.124 S 
ATOM     72  O   UNL A   1      37.740  27.694  32.742  1.00  0.00    -0.237 OA
ATOM     73  O   UNL A   1      38.984  29.730  33.407  1.00  0.00    -0.237 OA
ATOM     74  O   UNL A   1      36.594  29.874  32.812  1.00  0.00    -0.744 OA
ENDBRANCH  67  71
ENDBRANCH  50  64
BRANCH  51  75
ATOM     75  C   UNL A   1      49.267  27.030  25.969  1.00  0.00     0.023 A 
ATOM     76  C   UNL A   1      49.651  27.451  24.686  1.00  0.00     0.031 A 
ATOM     77  C   UNL A   1      50.192  26.283  26.720  1.00  0.00     0.131 A 
ATOM     78  C   UNL A   1      50.904  27.083  24.172  1.00  0.00     0.055 A 
ATOM     79  C   UNL A   1      51.457  25.961  26.225  1.00  0.00     0.041 A 
ATOM     80  F   UNL A   1      49.880  25.864  27.958  1.00  0.00    -0.206 F 
ATOM     81  C   UNL A   1      51.814  26.350  24.937  1.00  0.00     0.022 A 
BRANCH  78  82
ATOM     82  S   UNL A   1      51.300  27.511  22.453  1.00  0.00     0.124 S 
ATOM     83  O   UNL A   1      50.264  26.793  21.722  1.00  0.00    -0.237 OA
ATOM     84  O   UNL A   1      51.182  28.966  22.471  1.00  0.00    -0.237 OA
ATOM     85  O   UNL A   1      52.658  27.000  22.280  1.00  0.00    -0.744 OA
ENDBRANCH  78  82
ENDBRANCH  51  75
BRANCH  63  86
ATOM     86  C   UNL A   1      46.444  32.686  28.904  1.00  0.00     0.023 A 
ATOM     87  C   UNL A   1      46.492  33.772  28.013  1.00  0.00     0.031 A 
ATOM     88  C   UNL A   1      46.999  32.856  30.185  1.00  0.00     0.131 A 
ATOM     89  C   UNL A   1      47.148  34.956  28.388  1.00  0.00     0.055 A 
ATOM     90  C   UNL A   1      47.588  34.059  30.576  1.00  0.00     0.041 A 
ATOM     91  F   UNL A   1      46.982  31.852  31.077  1.00  0.00    -0.206 F 
ATOM     92  C   UNL A   1      47.681  35.111  29.669  1.00  0.00     0.022 A 
BRANCH  89  93
ATOM     93  S   UNL A   1      47.399  36.244  27.137  1.00  0.00     0.124 S 
ATOM     94  O   UNL A   1      48.516  35.705  26.366  1.00  0.00    -0.237 OA
ATOM     95  O   UNL A   1      46.110  36.271  26.456  1.00  0.00    -0.237 OA
ATOM     96  O   UNL A   1      47.709  37.434  27.927  1.00  0.00    -0.744 OA
ENDBRANCH  89  93
ENDBRANCH  63  86
ENDBRANCH  37  38
ENDBRANCH  29  32
ENDBRANCH  27  28
ENDBRANCH  26  27
ENDBRANCH   1  26
TORSDOF 17
ENDMDL
