MODEL 1
REMARK VINA RESULT:     -10.8      0.000      0.000
REMARK SMILES CC[C@H](C)[C@@H](NC(=O)[C@@H]1CCCN1C(=O)C1CC1)C(=O)NCCCCNC(=O)c1ccc(-c2c3nc(c(-c4cc(S(=O)(=O)[O-])ccc4F)c4ccc([nH]4)c(-c4cc(S(=O)(=O)[O-])ccc4F)c4nc(c(-c5cc(S(=O)(=O)[O-])ccc5F)c5ccc2[nH]5)C=C4)C=C3)cc1
REMARK SMILES IDX 23 1 22 2 21 3 19 4 20 5 5 7 3 8 4 9 2 10 1 11 6 12 7 13
REMARK SMILES IDX 8 15 9 16 10 17 13 18 11 19 12 20 14 21 15 22 16 23 17 24
REMARK SMILES IDX 18 25 24 26 25 27 26 28 27 29 28 31 29 32 30 33 91 34 31 35
REMARK SMILES IDX 90 36 32 37 33 38 34 39 84 40 35 41 89 42 83 43 85 44 36 45
REMARK SMILES IDX 88 46 82 47 81 48 37 50 69 51 49 52 68 53 50 54 53 55 67 56
REMARK SMILES IDX 86 57 51 58 52 59 66 61 87 62 54 63 38 64 39 65 47 66 40 67
REMARK SMILES IDX 46 68 48 69 45 70 41 71 42 72 43 73 44 74 70 75 71 76 79 77
REMARK SMILES IDX 72 78 78 79 80 80 77 81 73 82 74 83 75 84 76 85 55 86 56 87
REMARK SMILES IDX 64 88 57 89 63 90 65 91 62 92 58 93 59 94 60 95 61 96
REMARK H PARENT 21 6 6 14 26 30 85 49 53 60
REMARK Flexibility Score: inf
ROOT
ATOM      1  C   UNL A   1      32.076  29.646  27.219  1.00  0.00     0.023 C 
ENDROOT
BRANCH   1   2
ATOM      2  C   UNL A   1      33.400  29.101  26.642  1.00  0.00     0.116 C 
BRANCH   2   3
ATOM      3  N   UNL A   1      33.179  28.048  25.653  1.00  0.00    -0.354 N 
ATOM      4  C   UNL A   1      32.814  28.280  24.338  1.00  0.00     0.242 C 
ATOM      5  O   UNL A   1      33.380  29.141  23.660  1.00  0.00    -0.273 OA
ATOM      6  H   UNL A   1      33.296  27.113  25.940  1.00  0.00     0.163 HD
BRANCH   4   7
ATOM      7  C   UNL A   1      31.771  27.304  23.683  1.00  0.00     0.174 C 
BRANCH   7   8
ATOM      8  C   UNL A   1      30.273  27.749  23.796  1.00  0.00     0.018 C 
ATOM      9  C   UNL A   1      29.775  28.690  22.686  1.00  0.00     0.010 C 
BRANCH   8  10
ATOM     10  C   UNL A   1      29.310  26.523  23.865  1.00  0.00     0.002 C 
ATOM     11  C   UNL A   1      27.815  26.847  23.894  1.00  0.00     0.004 C 
ENDBRANCH   8  10
ENDBRANCH   7   8
BRANCH   7  12
ATOM     12  N   UNL A   1      32.057  26.438  22.496  1.00  0.00    -0.342 N 
ATOM     13  C   UNL A   1      32.664  25.279  22.149  1.00  0.00     0.243 C 
ATOM     14  H   UNL A   1      31.669  26.853  21.693  1.00  0.00     0.164 HD
ATOM     15  O   UNL A   1      33.033  25.240  20.962  1.00  0.00    -0.273 OA
BRANCH  13  16
ATOM     16  C   UNL A   1      32.674  23.960  22.936  1.00  0.00     0.174 C 
ATOM     17  C   UNL A   1      31.216  23.501  23.120  1.00  0.00     0.037 C 
ATOM     18  N   UNL A   1      33.250  24.013  24.251  1.00  0.00    -0.330 N 
ATOM     19  C   UNL A   1      31.046  23.156  24.588  1.00  0.00     0.024 C 
ATOM     20  C   UNL A   1      32.263  23.728  25.275  1.00  0.00     0.120 C 
BRANCH  18  21
ATOM     21  C   UNL A   1      34.534  24.368  24.572  1.00  0.00     0.226 C 
ATOM     22  O   UNL A   1      34.735  25.304  25.353  1.00  0.00    -0.275 OA
BRANCH  21  23
ATOM     23  C   UNL A   1      35.764  23.680  24.120  1.00  0.00     0.079 C 
ATOM     24  C   UNL A   1      36.946  23.185  24.892  1.00  0.00     0.014 C 
ATOM     25  C   UNL A   1      35.988  22.203  24.277  1.00  0.00     0.014 C 
ENDBRANCH  21  23
ENDBRANCH  18  21
ENDBRANCH  13  16
ENDBRANCH   7  12
ENDBRANCH   4   7
ENDBRANCH   2   3
ENDBRANCH   1   2
BRANCH   1  26
ATOM     26  C   UNL A   1      31.784  31.107  26.840  1.00  0.00     0.023 C 
BRANCH  26  27
ATOM     27  C   UNL A   1      32.964  32.087  26.897  1.00  0.00     0.116 C 
BRANCH  27  28
ATOM     28  N   UNL A   1      32.600  33.422  27.358  1.00  0.00    -0.352 N 
ATOM     29  C   UNL A   1      33.154  34.169  28.379  1.00  0.00     0.251 C 
ATOM     30  H   UNL A   1      31.858  33.850  26.873  1.00  0.00     0.163 HD
ATOM     31  O   UNL A   1      32.664  35.248  28.700  1.00  0.00    -0.269 OA
BRANCH  29  32
ATOM     32  C   UNL A   1      34.328  33.639  29.114  1.00  0.00     0.039 A 
ATOM     33  C   UNL A   1      34.138  32.676  30.109  1.00  0.00     0.014 A 
ATOM     34  C   UNL A   1      35.619  34.063  28.789  1.00  0.00     0.014 A 
ATOM     35  C   UNL A   1      35.248  32.074  30.714  1.00  0.00     0.010 A 
ATOM     36  C   UNL A   1      36.722  33.412  29.342  1.00  0.00     0.010 A 
ATOM     37  C   UNL A   1      36.552  32.404  30.307  1.00  0.00    -0.014 A 
BRANCH  37  38
ATOM     38  C   UNL A   1      37.740  31.706  30.878  1.00  0.00     0.031 A 
ATOM     39  C   UNL A   1      38.214  32.032  32.270  1.00  0.00     0.074 A 
ATOM     40  C   UNL A   1      38.427  30.820  30.128  1.00  0.00     0.049 A 
ATOM     41  N   UNL A   1      39.240  31.557  32.931  1.00  0.00    -0.248 NA
ATOM     42  C   UNL A   1      37.452  33.055  33.000  1.00  0.00     0.031 C 
ATOM     43  C   UNL A   1      38.108  30.455  28.745  1.00  0.00     0.029 A 
ATOM     44  N   UNL A   1      39.536  30.062  30.418  1.00  0.00    -0.354 N 
ATOM     45  C   UNL A   1      39.256  32.235  34.147  1.00  0.00     0.074 A 
ATOM     46  C   UNL A   1      38.181  33.203  34.095  1.00  0.00     0.031 C 
ATOM     47  C   UNL A   1      38.974  29.518  28.325  1.00  0.00     0.029 A 
ATOM     48  C   UNL A   1      39.933  29.238  29.388  1.00  0.00     0.049 A 
ATOM     49  H   UNL A   1      40.005  30.104  31.283  1.00  0.00     0.167 HD
ATOM     50  C   UNL A   1      40.069  32.050  35.219  1.00  0.00     0.034 A 
ATOM     51  C   UNL A   1      40.949  28.354  29.312  1.00  0.00     0.034 A 
ATOM     52  C   UNL A   1      41.126  31.067  35.262  1.00  0.00     0.049 A 
ATOM     53  C   UNL A   1      41.844  28.166  30.513  1.00  0.00     0.074 A 
ATOM     54  C   UNL A   1      41.966  30.748  36.315  1.00  0.00     0.029 A 
ATOM     55  N   UNL A   1      41.493  30.247  34.202  1.00  0.00    -0.354 N 
ATOM     56  N   UNL A   1      41.799  28.764  31.681  1.00  0.00    -0.248 NA
ATOM     57  C   UNL A   1      42.914  27.169  30.388  1.00  0.00     0.031 C 
ATOM     58  C   UNL A   1      42.882  29.787  35.871  1.00  0.00     0.029 A 
ATOM     59  C   UNL A   1      42.565  29.446  34.566  1.00  0.00     0.049 A 
ATOM     60  H   UNL A   1      41.056  30.236  33.320  1.00  0.00     0.167 HD
ATOM     61  C   UNL A   1      42.813  28.186  32.441  1.00  0.00     0.074 A 
ATOM     62  C   UNL A   1      43.439  27.184  31.604  1.00  0.00     0.031 C 
ATOM     63  C   UNL A   1      43.188  28.454  33.719  1.00  0.00     0.034 A 
BRANCH  50  64
ATOM     64  C   UNL A   1      39.853  32.950  36.414  1.00  0.00     0.023 A 
ATOM     65  C   UNL A   1      39.146  32.514  37.549  1.00  0.00     0.031 A 
ATOM     66  C   UNL A   1      40.316  34.278  36.402  1.00  0.00     0.131 A 
ATOM     67  C   UNL A   1      38.833  33.422  38.572  1.00  0.00     0.055 A 
ATOM     68  C   UNL A   1      40.083  35.150  37.469  1.00  0.00     0.041 A 
ATOM     69  F   UNL A   1      40.984  34.761  35.343  1.00  0.00    -0.206 F 
ATOM     70  C   UNL A   1      39.319  34.730  38.554  1.00  0.00     0.022 A 
BRANCH  67  71
ATOM     71  S   UNL A   1      37.634  32.915  39.837  1.00  0.00     0.124 S 
ATOM     72  O   UNL A   1      38.129  31.589  40.196  1.00  0.00    -0.237 OA
ATOM     73  O   UNL A   1      37.789  33.952  40.852  1.00  0.00    -0.237 OA
ATOM     74  O   UNL A   1      36.359  32.924  39.124  1.00  0.00    -0.744 OA
ENDBRANCH  67  71
ENDBRANCH  50  64
BRANCH  51  75
ATOM     75  C   UNL A   1      41.174  27.557  28.070  1.00  0.00     0.023 A 
ATOM     76  C   UNL A   1      40.959  26.170  28.055  1.00  0.00     0.031 A 
ATOM     77  C   UNL A   1      41.656  28.160  26.894  1.00  0.00     0.131 A 
ATOM     78  C   UNL A   1      41.271  25.423  26.908  1.00  0.00     0.055 A 
ATOM     79  C   UNL A   1      41.915  27.421  25.739  1.00  0.00     0.041 A 
ATOM     80  F   UNL A   1      41.875  29.484  26.851  1.00  0.00    -0.206 F 
ATOM     81  C   UNL A   1      41.737  26.040  25.746  1.00  0.00     0.022 A 
BRANCH  78  82
ATOM     82  S   UNL A   1      41.139  23.615  26.985  1.00  0.00     0.124 S 
ATOM     83  O   UNL A   1      39.696  23.417  26.897  1.00  0.00    -0.237 OA
ATOM     84  O   UNL A   1      41.916  23.204  25.821  1.00  0.00    -0.237 OA
ATOM     85  O   UNL A   1      41.737  23.285  28.277  1.00  0.00    -0.744 OA
ENDBRANCH  78  82
ENDBRANCH  51  75
BRANCH  63  86
ATOM     86  C   UNL A   1      44.296  27.608  34.299  1.00  0.00     0.023 A 
ATOM     87  C   UNL A   1      44.053  26.338  34.849  1.00  0.00     0.031 A 
ATOM     88  C   UNL A   1      45.617  28.094  34.320  1.00  0.00     0.131 A 
ATOM     89  C   UNL A   1      45.100  25.626  35.455  1.00  0.00     0.055 A 
ATOM     90  C   UNL A   1      46.665  27.353  34.866  1.00  0.00     0.041 A 
ATOM     91  F   UNL A   1      45.908  29.303  33.811  1.00  0.00    -0.206 F 
ATOM     92  C   UNL A   1      46.407  26.117  35.451  1.00  0.00     0.022 A 
BRANCH  89  93
ATOM     93  S   UNL A   1      44.710  24.092  36.344  1.00  0.00     0.124 S 
ATOM     94  O   UNL A   1      43.572  23.583  35.586  1.00  0.00    -0.237 OA
ATOM     95  O   UNL A   1      45.951  23.335  36.217  1.00  0.00    -0.237 OA
ATOM     96  O   UNL A   1      44.399  24.550  37.697  1.00  0.00    -0.744 OA
ENDBRANCH  89  93
ENDBRANCH  63  86
ENDBRANCH  37  38
ENDBRANCH  29  32
ENDBRANCH  27  28
ENDBRANCH  26  27
ENDBRANCH   1  26
TORSDOF 20
ENDMDL
MODEL 2
REMARK VINA RESULT:     -10.6      5.079     10.300
REMARK SMILES CC[C@H](C)[C@@H](NC(=O)[C@@H]1CCCN1C(=O)C1CC1)C(=O)NCCCCNC(=O)c1ccc(-c2c3nc(c(-c4cc(S(=O)(=O)[O-])ccc4F)c4ccc([nH]4)c(-c4cc(S(=O)(=O)[O-])ccc4F)c4nc(c(-c5cc(S(=O)(=O)[O-])ccc5F)c5ccc2[nH]5)C=C4)C=C3)cc1
REMARK SMILES IDX 23 1 22 2 21 3 19 4 20 5 5 7 3 8 4 9 2 10 1 11 6 12 7 13
REMARK SMILES IDX 8 15 9 16 10 17 13 18 11 19 12 20 14 21 15 22 16 23 17 24
REMARK SMILES IDX 18 25 24 26 25 27 26 28 27 29 28 31 29 32 30 33 91 34 31 35
REMARK SMILES IDX 90 36 32 37 33 38 34 39 84 40 35 41 89 42 83 43 85 44 36 45
REMARK SMILES IDX 88 46 82 47 81 48 37 50 69 51 49 52 68 53 50 54 53 55 67 56
REMARK SMILES IDX 86 57 51 58 52 59 66 61 87 62 54 63 38 64 39 65 47 66 40 67
REMARK SMILES IDX 46 68 48 69 45 70 41 71 42 72 43 73 44 74 70 75 71 76 79 77
REMARK SMILES IDX 72 78 78 79 80 80 77 81 73 82 74 83 75 84 76 85 55 86 56 87
REMARK SMILES IDX 64 88 57 89 63 90 65 91 62 92 58 93 59 94 60 95 61 96
REMARK H PARENT 21 6 6 14 26 30 85 49 53 60
REMARK Flexibility Score: inf
ROOT
ATOM      1  C   UNL A   1      36.646  23.056  23.514  1.00  0.00     0.023 C 
ENDROOT
BRANCH   1   2
ATOM      2  C   UNL A   1      35.256  23.722  23.435  1.00  0.00     0.116 C 
BRANCH   2   3
ATOM      3  N   UNL A   1      35.005  24.612  24.568  1.00  0.00    -0.354 N 
ATOM      4  C   UNL A   1      34.145  24.318  25.612  1.00  0.00     0.242 C 
ATOM      5  O   UNL A   1      34.160  23.215  26.162  1.00  0.00    -0.273 OA
ATOM      6  H   UNL A   1      35.479  25.476  24.590  1.00  0.00     0.163 HD
BRANCH   4   7
ATOM      7  C   UNL A   1      33.260  25.484  26.183  1.00  0.00     0.174 C 
BRANCH   7   8
ATOM      8  C   UNL A   1      33.763  26.931  25.853  1.00  0.00     0.018 C 
ATOM      9  C   UNL A   1      33.515  27.407  24.411  1.00  0.00     0.010 C 
BRANCH   8  10
ATOM     10  C   UNL A   1      33.157  27.990  26.827  1.00  0.00     0.002 C 
ATOM     11  C   UNL A   1      32.246  29.042  26.191  1.00  0.00     0.004 C 
ENDBRANCH   8  10
ENDBRANCH   7   8
BRANCH   7  12
ATOM     12  N   UNL A   1      31.782  25.393  26.400  1.00  0.00    -0.342 N 
ATOM     13  C   UNL A   1      30.602  25.532  25.751  1.00  0.00     0.243 C 
ATOM     14  H   UNL A   1      31.608  25.145  27.337  1.00  0.00     0.164 HD
ATOM     15  O   UNL A   1      29.648  25.813  26.497  1.00  0.00    -0.273 OA
BRANCH  13  16
ATOM     16  C   UNL A   1      30.274  25.104  24.313  1.00  0.00     0.174 C 
ATOM     17  C   UNL A   1      31.244  23.976  23.915  1.00  0.00     0.037 C 
ATOM     18  N   UNL A   1      30.402  26.120  23.306  1.00  0.00    -0.330 N 
ATOM     19  C   UNL A   1      31.813  24.344  22.557  1.00  0.00     0.024 C 
ATOM     20  C   UNL A   1      31.442  25.794  22.351  1.00  0.00     0.120 C 
BRANCH  18  21
ATOM     21  C   UNL A   1      29.723  27.309  23.249  1.00  0.00     0.226 C 
ATOM     22  O   UNL A   1      28.518  27.343  23.522  1.00  0.00    -0.275 OA
BRANCH  21  23
ATOM     23  C   UNL A   1      30.314  28.633  22.950  1.00  0.00     0.079 C 
ATOM     24  C   UNL A   1      29.834  29.741  22.066  1.00  0.00     0.014 C 
ATOM     25  C   UNL A   1      29.818  29.914  23.560  1.00  0.00     0.014 C 
ENDBRANCH  21  23
ENDBRANCH  18  21
ENDBRANCH  13  16
ENDBRANCH   7  12
ENDBRANCH   4   7
ENDBRANCH   2   3
ENDBRANCH   1   2
BRANCH   1  26
ATOM     26  C   UNL A   1      36.626  21.642  24.117  1.00  0.00     0.023 C 
BRANCH  26  27
ATOM     27  C   UNL A   1      37.128  21.496  25.560  1.00  0.00     0.116 C 
BRANCH  27  28
ATOM     28  N   UNL A   1      38.201  20.520  25.715  1.00  0.00    -0.352 N 
ATOM     29  C   UNL A   1      39.481  20.706  26.198  1.00  0.00     0.251 C 
ATOM     30  H   UNL A   1      37.982  19.601  25.438  1.00  0.00     0.163 HD
ATOM     31  O   UNL A   1      40.297  19.789  26.176  1.00  0.00    -0.269 OA
BRANCH  29  32
ATOM     32  C   UNL A   1      39.878  22.039  26.714  1.00  0.00     0.039 A 
ATOM     33  C   UNL A   1      40.836  22.125  27.729  1.00  0.00     0.014 A 
ATOM     34  C   UNL A   1      39.335  23.204  26.165  1.00  0.00     0.014 A 
ATOM     35  C   UNL A   1      41.314  23.379  28.128  1.00  0.00     0.010 A 
ATOM     36  C   UNL A   1      39.863  24.447  26.515  1.00  0.00     0.010 A 
ATOM     37  C   UNL A   1      40.864  24.551  27.495  1.00  0.00    -0.014 A 
BRANCH  37  38
ATOM     38  C   UNL A   1      41.430  25.886  27.848  1.00  0.00     0.031 A 
ATOM     39  C   UNL A   1      42.833  26.247  27.436  1.00  0.00     0.074 A 
ATOM     40  C   UNL A   1      40.706  26.752  28.587  1.00  0.00     0.049 A 
ATOM     41  N   UNL A   1      43.512  27.342  27.672  1.00  0.00    -0.248 NA
ATOM     42  C   UNL A   1      43.581  25.226  26.691  1.00  0.00     0.031 C 
ATOM     43  C   UNL A   1      39.355  26.504  29.098  1.00  0.00     0.029 A 
ATOM     44  N   UNL A   1      40.998  28.017  29.037  1.00  0.00    -0.354 N 
ATOM     45  C   UNL A   1      44.772  27.134  27.119  1.00  0.00     0.074 A 
ATOM     46  C   UNL A   1      44.781  25.781  26.603  1.00  0.00     0.031 C 
ATOM     47  C   UNL A   1      38.924  27.594  29.754  1.00  0.00     0.029 A 
ATOM     48  C   UNL A   1      39.975  28.606  29.746  1.00  0.00     0.049 A 
ATOM     49  H   UNL A   1      41.861  28.461  28.868  1.00  0.00     0.167 HD
ATOM     50  C   UNL A   1      45.816  27.997  27.021  1.00  0.00     0.034 A 
ATOM     51  C   UNL A   1      39.891  29.825  30.318  1.00  0.00     0.034 A 
ATOM     52  C   UNL A   1      45.787  29.350  27.524  1.00  0.00     0.049 A 
ATOM     53  C   UNL A   1      41.064  30.768  30.201  1.00  0.00     0.074 A 
ATOM     54  C   UNL A   1      46.759  30.330  27.424  1.00  0.00     0.029 A 
ATOM     55  N   UNL A   1      44.731  29.913  28.231  1.00  0.00    -0.354 N 
ATOM     56  N   UNL A   1      42.222  30.581  29.611  1.00  0.00    -0.248 NA
ATOM     57  C   UNL A   1      40.908  32.093  30.814  1.00  0.00     0.031 C 
ATOM     58  C   UNL A   1      46.321  31.459  28.125  1.00  0.00     0.029 A 
ATOM     59  C   UNL A   1      45.041  31.214  28.597  1.00  0.00     0.049 A 
ATOM     60  H   UNL A   1      43.886  29.455  28.441  1.00  0.00     0.167 HD
ATOM     61  C   UNL A   1      42.916  31.780  29.750  1.00  0.00     0.074 A 
ATOM     62  C   UNL A   1      42.041  32.685  30.465  1.00  0.00     0.031 C 
ATOM     63  C   UNL A   1      44.162  32.107  29.318  1.00  0.00     0.034 A 
BRANCH  50  64
ATOM     64  C   UNL A   1      47.079  27.483  26.366  1.00  0.00     0.023 A 
ATOM     65  C   UNL A   1      48.039  26.751  27.088  1.00  0.00     0.031 A 
ATOM     66  C   UNL A   1      47.353  27.771  25.017  1.00  0.00     0.131 A 
ATOM     67  C   UNL A   1      49.266  26.423  26.490  1.00  0.00     0.055 A 
ATOM     68  C   UNL A   1      48.537  27.357  24.401  1.00  0.00     0.041 A 
ATOM     69  F   UNL A   1      46.485  28.480  24.278  1.00  0.00    -0.206 F 
ATOM     70  C   UNL A   1      49.511  26.697  25.144  1.00  0.00     0.022 A 
BRANCH  67  71
ATOM     71  S   UNL A   1      50.599  25.793  27.547  1.00  0.00     0.124 S 
ATOM     72  O   UNL A   1      50.285  24.367  27.598  1.00  0.00    -0.237 OA
ATOM     73  O   UNL A   1      51.796  26.158  26.798  1.00  0.00    -0.237 OA
ATOM     74  O   UNL A   1      50.407  26.510  28.805  1.00  0.00    -0.744 OA
ENDBRANCH  67  71
ENDBRANCH  50  64
BRANCH  51  75
ATOM     75  C   UNL A   1      38.652  30.246  31.035  1.00  0.00     0.023 A 
ATOM     76  C   UNL A   1      37.642  30.962  30.372  1.00  0.00     0.031 A 
ATOM     77  C   UNL A   1      38.480  29.986  32.407  1.00  0.00     0.131 A 
ATOM     78  C   UNL A   1      36.531  31.435  31.087  1.00  0.00     0.055 A 
ATOM     79  C   UNL A   1      37.347  30.414  33.102  1.00  0.00     0.041 A 
ATOM     80  F   UNL A   1      39.411  29.302  33.090  1.00  0.00    -0.206 F 
ATOM     81  C   UNL A   1      36.371  31.156  32.445  1.00  0.00     0.022 A 
BRANCH  78  82
ATOM     82  S   UNL A   1      35.334  32.498  30.230  1.00  0.00     0.124 S 
ATOM     83  O   UNL A   1      34.330  32.711  31.267  1.00  0.00    -0.237 OA
ATOM     84  O   UNL A   1      36.152  33.653  29.880  1.00  0.00    -0.237 OA
ATOM     85  O   UNL A   1      34.901  31.678  29.100  1.00  0.00    -0.744 OA
ENDBRANCH  78  82
ENDBRANCH  51  75
BRANCH  63  86
ATOM     86  C   UNL A   1      44.624  33.523  29.568  1.00  0.00     0.023 A 
ATOM     87  C   UNL A   1      44.340  34.567  28.672  1.00  0.00     0.031 A 
ATOM     88  C   UNL A   1      45.381  33.825  30.715  1.00  0.00     0.131 A 
ATOM     89  C   UNL A   1      44.864  35.848  28.901  1.00  0.00     0.055 A 
ATOM     90  C   UNL A   1      45.844  35.116  30.971  1.00  0.00     0.041 A 
ATOM     91  F   UNL A   1      45.685  32.867  31.606  1.00  0.00    -0.206 F 
ATOM     92  C   UNL A   1      45.600  36.134  30.054  1.00  0.00     0.022 A 
BRANCH  89  93
ATOM     93  S   UNL A   1      44.660  37.116  27.618  1.00  0.00     0.124 S 
ATOM     94  O   UNL A   1      44.077  38.221  28.372  1.00  0.00    -0.237 OA
ATOM     95  O   UNL A   1      46.030  37.312  27.154  1.00  0.00    -0.237 OA
ATOM     96  O   UNL A   1      43.764  36.484  26.652  1.00  0.00    -0.744 OA
ENDBRANCH  89  93
ENDBRANCH  63  86
ENDBRANCH  37  38
ENDBRANCH  29  32
ENDBRANCH  27  28
ENDBRANCH  26  27
ENDBRANCH   1  26
TORSDOF 20
ENDMDL
MODEL 3
REMARK VINA RESULT:     -10.4      2.442      2.928
REMARK SMILES CC[C@H](C)[C@@H](NC(=O)[C@@H]1CCCN1C(=O)C1CC1)C(=O)NCCCCNC(=O)c1ccc(-c2c3nc(c(-c4cc(S(=O)(=O)[O-])ccc4F)c4ccc([nH]4)c(-c4cc(S(=O)(=O)[O-])ccc4F)c4nc(c(-c5cc(S(=O)(=O)[O-])ccc5F)c5ccc2[nH]5)C=C4)C=C3)cc1
REMARK SMILES IDX 23 1 22 2 21 3 19 4 20 5 5 7 3 8 4 9 2 10 1 11 6 12 7 13
REMARK SMILES IDX 8 15 9 16 10 17 13 18 11 19 12 20 14 21 15 22 16 23 17 24
REMARK SMILES IDX 18 25 24 26 25 27 26 28 27 29 28 31 29 32 30 33 91 34 31 35
REMARK SMILES IDX 90 36 32 37 33 38 34 39 84 40 35 41 89 42 83 43 85 44 36 45
REMARK SMILES IDX 88 46 82 47 81 48 37 50 69 51 49 52 68 53 50 54 53 55 67 56
REMARK SMILES IDX 86 57 51 58 52 59 66 61 87 62 54 63 38 64 39 65 47 66 40 67
REMARK SMILES IDX 46 68 48 69 45 70 41 71 42 72 43 73 44 74 70 75 71 76 79 77
REMARK SMILES IDX 72 78 78 79 80 80 77 81 73 82 74 83 75 84 76 85 55 86 56 87
REMARK SMILES IDX 64 88 57 89 63 90 65 91 62 92 58 93 59 94 60 95 61 96
REMARK H PARENT 21 6 6 14 26 30 85 49 53 60
REMARK Flexibility Score: inf
ROOT
ATOM      1  C   UNL A   1      34.904  31.423  28.416  1.00  0.00     0.023 C 
ENDROOT
BRANCH   1   2
ATOM      2  C   UNL A   1      35.042  30.106  27.622  1.00  0.00     0.116 C 
BRANCH   2   3
ATOM      3  N   UNL A   1      33.861  29.254  27.757  1.00  0.00    -0.354 N 
ATOM      4  C   UNL A   1      33.431  28.363  26.790  1.00  0.00     0.242 C 
ATOM      5  O   UNL A   1      34.220  27.603  26.224  1.00  0.00    -0.273 OA
ATOM      6  H   UNL A   1      33.338  29.319  28.590  1.00  0.00     0.163 HD
BRANCH   4   7
ATOM      7  C   UNL A   1      31.884  28.231  26.550  1.00  0.00     0.174 C 
BRANCH   7   8
ATOM      8  C   UNL A   1      31.292  29.178  25.451  1.00  0.00     0.018 C 
ATOM      9  C   UNL A   1      31.493  30.683  25.693  1.00  0.00     0.010 C 
BRANCH   8  10
ATOM     10  C   UNL A   1      31.847  28.835  24.033  1.00  0.00     0.002 C 
ATOM     11  C   UNL A   1      30.804  28.468  22.976  1.00  0.00     0.004 C 
ENDBRANCH   8  10
ENDBRANCH   7   8
BRANCH   7  12
ATOM     12  N   UNL A   1      31.105  26.967  26.743  1.00  0.00    -0.342 N 
ATOM     13  C   UNL A   1      30.769  25.820  26.109  1.00  0.00     0.243 C 
ATOM     14  H   UNL A   1      30.697  26.973  27.638  1.00  0.00     0.164 HD
ATOM     15  O   UNL A   1      29.712  25.309  26.518  1.00  0.00    -0.273 OA
BRANCH  13  16
ATOM     16  C   UNL A   1      31.662  24.964  25.197  1.00  0.00     0.174 C 
ATOM     17  C   UNL A   1      30.975  24.849  23.824  1.00  0.00     0.037 C 
ATOM     18  N   UNL A   1      31.911  23.619  25.638  1.00  0.00    -0.330 N 
ATOM     19  C   UNL A   1      30.985  23.378  23.450  1.00  0.00     0.024 C 
ATOM     20  C   UNL A   1      31.353  22.647  24.719  1.00  0.00     0.120 C 
BRANCH  18  21
ATOM     21  C   UNL A   1      32.510  23.237  26.809  1.00  0.00     0.226 C 
ATOM     22  O   UNL A   1      31.818  22.985  27.801  1.00  0.00    -0.275 OA
BRANCH  21  23
ATOM     23  C   UNL A   1      33.960  23.013  27.010  1.00  0.00     0.079 C 
ATOM     24  C   UNL A   1      34.841  21.878  26.594  1.00  0.00     0.014 C 
ATOM     25  C   UNL A   1      34.984  23.219  25.930  1.00  0.00     0.014 C 
ENDBRANCH  21  23
ENDBRANCH  18  21
ENDBRANCH  13  16
ENDBRANCH   7  12
ENDBRANCH   4   7
ENDBRANCH   2   3
ENDBRANCH   1   2
BRANCH   1  26
ATOM     26  C   UNL A   1      33.676  32.261  28.024  1.00  0.00     0.023 C 
BRANCH  26  27
ATOM     27  C   UNL A   1      33.884  33.776  27.888  1.00  0.00     0.116 C 
BRANCH  27  28
ATOM     28  N   UNL A   1      33.126  34.563  28.854  1.00  0.00    -0.352 N 
ATOM     29  C   UNL A   1      33.366  34.752  30.201  1.00  0.00     0.251 C 
ATOM     30  H   UNL A   1      32.334  35.026  28.496  1.00  0.00     0.163 HD
ATOM     31  O   UNL A   1      32.571  35.378  30.896  1.00  0.00    -0.269 OA
BRANCH  29  32
ATOM     32  C   UNL A   1      34.581  34.160  30.813  1.00  0.00     0.039 A 
ATOM     33  C   UNL A   1      34.446  33.115  31.732  1.00  0.00     0.014 A 
ATOM     34  C   UNL A   1      35.852  34.609  30.447  1.00  0.00     0.014 A 
ATOM     35  C   UNL A   1      35.588  32.461  32.212  1.00  0.00     0.010 A 
ATOM     36  C   UNL A   1      36.983  33.912  30.872  1.00  0.00     0.010 A 
ATOM     37  C   UNL A   1      36.866  32.824  31.755  1.00  0.00    -0.014 A 
BRANCH  37  38
ATOM     38  C   UNL A   1      38.083  32.079  32.189  1.00  0.00     0.031 A 
ATOM     39  C   UNL A   1      38.761  32.426  33.488  1.00  0.00     0.074 A 
ATOM     40  C   UNL A   1      38.611  31.127  31.392  1.00  0.00     0.049 A 
ATOM     41  N   UNL A   1      39.842  31.915  34.024  1.00  0.00    -0.248 NA
ATOM     42  C   UNL A   1      38.164  33.517  34.269  1.00  0.00     0.031 C 
ATOM     43  C   UNL A   1      38.085  30.732  30.083  1.00  0.00     0.029 A 
ATOM     44  N   UNL A   1      39.708  30.316  31.561  1.00  0.00    -0.354 N 
ATOM     45  C   UNL A   1      40.062  32.634  35.195  1.00  0.00     0.074 A 
ATOM     46  C   UNL A   1      39.043  33.662  35.248  1.00  0.00     0.031 C 
ATOM     47  C   UNL A   1      38.833  29.731  29.590  1.00  0.00     0.029 A 
ATOM     48  C   UNL A   1      39.913  29.434  30.524  1.00  0.00     0.049 A 
ATOM     49  H   UNL A   1      40.293  30.362  32.352  1.00  0.00     0.167 HD
ATOM     50  C   UNL A   1      41.004  32.440  36.153  1.00  0.00     0.034 A 
ATOM     51  C   UNL A   1      40.861  28.490  30.349  1.00  0.00     0.034 A 
ATOM     52  C   UNL A   1      42.003  31.399  36.096  1.00  0.00     0.049 A 
ATOM     53  C   UNL A   1      41.901  28.292  31.424  1.00  0.00     0.074 A 
ATOM     54  C   UNL A   1      42.963  31.069  37.037  1.00  0.00     0.029 A 
ATOM     55  N   UNL A   1      42.176  30.521  35.032  1.00  0.00    -0.354 N 
ATOM     56  N   UNL A   1      42.051  28.933  32.560  1.00  0.00    -0.248 NA
ATOM     57  C   UNL A   1      42.890  27.230  31.198  1.00  0.00     0.031 C 
ATOM     58  C   UNL A   1      43.756  30.040  36.516  1.00  0.00     0.029 A 
ATOM     59  C   UNL A   1      43.244  29.672  35.281  1.00  0.00     0.049 A 
ATOM     60  H   UNL A   1      41.621  30.504  34.219  1.00  0.00     0.167 HD
ATOM     61  C   UNL A   1      43.128  28.324  33.200  1.00  0.00     0.074 A 
ATOM     62  C   UNL A   1      43.578  27.258  32.330  1.00  0.00     0.031 C 
ATOM     63  C   UNL A   1      43.689  28.615  34.402  1.00  0.00     0.034 A 
BRANCH  50  64
ATOM     64  C   UNL A   1      41.005  33.394  37.326  1.00  0.00     0.023 A 
ATOM     65  C   UNL A   1      41.939  34.441  37.427  1.00  0.00     0.031 A 
ATOM     66  C   UNL A   1      40.093  33.228  38.384  1.00  0.00     0.131 A 
ATOM     67  C   UNL A   1      42.008  35.210  38.598  1.00  0.00     0.055 A 
ATOM     68  C   UNL A   1      40.105  34.060  39.507  1.00  0.00     0.041 A 
ATOM     69  F   UNL A   1      39.186  32.239  38.358  1.00  0.00    -0.206 F 
ATOM     70  C   UNL A   1      41.081  35.045  39.628  1.00  0.00     0.022 A 
BRANCH  67  71
ATOM     71  S   UNL A   1      43.436  36.306  38.828  1.00  0.00     0.124 S 
ATOM     72  O   UNL A   1      42.824  37.623  38.672  1.00  0.00    -0.237 OA
ATOM     73  O   UNL A   1      43.884  35.964  40.173  1.00  0.00    -0.237 OA
ATOM     74  O   UNL A   1      44.342  35.918  37.749  1.00  0.00    -0.744 OA
ENDBRANCH  67  71
ENDBRANCH  50  64
BRANCH  51  75
ATOM     75  C   UNL A   1      40.869  27.637  29.124  1.00  0.00     0.023 A 
ATOM     76  C   UNL A   1      41.766  27.892  28.074  1.00  0.00     0.031 A 
ATOM     77  C   UNL A   1      39.946  26.588  28.960  1.00  0.00     0.131 A 
ATOM     78  C   UNL A   1      41.692  27.143  26.889  1.00  0.00     0.055 A 
ATOM     79  C   UNL A   1      39.911  25.811  27.800  1.00  0.00     0.041 A 
ATOM     80  F   UNL A   1      39.069  26.297  29.933  1.00  0.00    -0.206 F 
ATOM     81  C   UNL A   1      40.778  26.096  26.749  1.00  0.00     0.022 A 
BRANCH  78  82
ATOM     82  S   UNL A   1      42.754  27.613  25.495  1.00  0.00     0.124 S 
ATOM     83  O   UNL A   1      42.051  28.775  24.963  1.00  0.00    -0.237 OA
ATOM     84  O   UNL A   1      44.025  27.878  26.159  1.00  0.00    -0.237 OA
ATOM     85  O   UNL A   1      42.736  26.427  24.640  1.00  0.00    -0.744 OA
ENDBRANCH  78  82
ENDBRANCH  51  75
BRANCH  63  86
ATOM     86  C   UNL A   1      44.821  27.727  34.862  1.00  0.00     0.023 A 
ATOM     87  C   UNL A   1      44.593  26.446  35.392  1.00  0.00     0.031 A 
ATOM     88  C   UNL A   1      46.150  28.184  34.788  1.00  0.00     0.131 A 
ATOM     89  C   UNL A   1      45.668  25.691  35.886  1.00  0.00     0.055 A 
ATOM     90  C   UNL A   1      47.221  27.402  35.222  1.00  0.00     0.041 A 
ATOM     91  F   UNL A   1      46.428  29.401  34.294  1.00  0.00    -0.206 F 
ATOM     92  C   UNL A   1      46.982  26.154  35.790  1.00  0.00     0.022 A 
BRANCH  89  93
ATOM     93  S   UNL A   1      45.315  24.139  36.757  1.00  0.00     0.124 S 
ATOM     94  O   UNL A   1      43.993  23.795  36.242  1.00  0.00    -0.237 OA
ATOM     95  O   UNL A   1      46.412  23.281  36.322  1.00  0.00    -0.237 OA
ATOM     96  O   UNL A   1      45.350  24.521  38.168  1.00  0.00    -0.744 OA
ENDBRANCH  89  93
ENDBRANCH  63  86
ENDBRANCH  37  38
ENDBRANCH  29  32
ENDBRANCH  27  28
ENDBRANCH  26  27
ENDBRANCH   1  26
TORSDOF 20
ENDMDL
