MODEL 1
REMARK VINA RESULT:     -13.2      0.000      0.000
REMARK SMILES CC(C)Cc1ccc(-c2cc(Cl)cc3c2O[C@H](C(F)(F)F)C(C(=O)NCCCCNC(=O)c2ccc(-c4c5nc(c(-c6cc(S(=O)(=O)[O-])ccc6F)c6ccc([nH]6)c(-c6cc(S(=O)(=O)[O-])ccc6F)c6nc(c(-c7cc(S(=O)(=O)[O-])ccc7F)c7ccc4[nH]7)C=C6)C=C5)cc2)=C3)cc1
REMARK SMILES IDX 27 1 26 2 25 3 23 4 24 5 22 7 9 8 10 9 15 10 11 11 14 12
REMARK SMILES IDX 16 13 12 14 13 15 96 16 17 17 8 18 5 19 6 20 98 21 7 22
REMARK SMILES IDX 97 23 4 24 2 25 1 26 3 27 18 28 19 29 20 30 21 31 28 32
REMARK SMILES IDX 29 33 30 34 31 35 32 37 33 38 34 39 95 40 35 41 94 42 36 43
REMARK SMILES IDX 37 44 38 45 88 46 39 47 93 48 87 49 89 50 40 51 92 52 86 53
REMARK SMILES IDX 85 54 41 56 73 57 53 58 72 59 54 60 57 61 71 62 90 63 55 64
REMARK SMILES IDX 56 65 70 67 91 68 58 69 42 70 43 71 51 72 44 73 50 74 52 75
REMARK SMILES IDX 49 76 45 77 46 78 47 79 48 80 74 81 75 82 83 83 76 84 82 85
REMARK SMILES IDX 84 86 81 87 77 88 78 89 79 90 80 91 59 92 60 93 68 94 61 95
REMARK SMILES IDX 67 96 69 97 66 98 62 99 63 100 64 101 65 102
REMARK H PARENT 25 6 30 36 89 55 57 66
REMARK Flexibility Score: inf
ROOT
ATOM      1  C   UNL A   1      31.744  30.235  26.529  1.00  0.00     0.023 C 
ENDROOT
BRANCH   1   2
ATOM      2  C   UNL A   1      32.252  29.568  25.242  1.00  0.00     0.116 C 
BRANCH   2   3
ATOM      3  N   UNL A   1      33.181  28.510  25.575  1.00  0.00    -0.352 N 
ATOM      4  C   UNL A   1      32.989  27.171  25.554  1.00  0.00     0.251 C 
ATOM      5  O   UNL A   1      33.565  26.482  26.390  1.00  0.00    -0.270 OA
ATOM      6  H   UNL A   1      34.078  28.805  25.856  1.00  0.00     0.163 HD
BRANCH   4   7
ATOM      7  C   UNL A   1      32.181  26.581  24.443  1.00  0.00     0.067 C 
ATOM      8  C   UNL A   1      33.350  22.672  24.713  1.00  0.00     0.026 A 
ATOM      9  C   UNL A   1      34.757  22.683  24.900  1.00  0.00     0.033 A 
ATOM     10  C   UNL A   1      32.769  23.893  24.323  1.00  0.00     0.135 A 
ATOM     11  C   UNL A   1      35.553  23.762  24.524  1.00  0.00     0.042 A 
ATOM     12  C   UNL A   1      33.599  24.928  23.829  1.00  0.00     0.019 A 
ATOM     13  O   UNL A   1      31.413  24.164  24.447  1.00  0.00    -0.475 OA
ATOM     14  Cl  UNL A   1      37.251  23.699  24.786  1.00  0.00    -0.084 Cl
ATOM     15  C   UNL A   1      34.986  24.861  23.908  1.00  0.00     0.032 A 
ATOM     16  C   UNL A   1      32.951  26.191  23.407  1.00  0.00     0.025 C 
ATOM     17  C   UNL A   1      31.129  25.567  24.886  1.00  0.00     0.314 C 
BRANCH   8  18
ATOM     18  C   UNL A   1      32.738  21.314  24.683  1.00  0.00    -0.015 A 
ATOM     19  C   UNL A   1      32.751  18.473  24.308  1.00  0.00    -0.048 A 
ATOM     20  C   UNL A   1      32.910  19.037  25.582  1.00  0.00     0.004 A 
ATOM     21  C   UNL A   1      32.420  19.339  23.260  1.00  0.00     0.004 A 
ATOM     22  C   UNL A   1      32.886  20.430  25.770  1.00  0.00     0.009 A 
ATOM     23  C   UNL A   1      32.412  20.737  23.444  1.00  0.00     0.009 A 
BRANCH  19  24
ATOM     24  C   UNL A   1      32.886  16.971  24.130  1.00  0.00     0.038 C 
BRANCH  24  25
ATOM     25  C   UNL A   1      33.412  16.141  25.330  1.00  0.00    -0.013 C 
ATOM     26  C   UNL A   1      32.708  14.787  25.467  1.00  0.00     0.008 C 
ATOM     27  C   UNL A   1      34.920  15.897  25.176  1.00  0.00     0.008 C 
ENDBRANCH  24  25
ENDBRANCH  19  24
ENDBRANCH   8  18
BRANCH  17  28
ATOM     28  C   UNL A   1      29.748  26.044  24.385  1.00  0.00     0.429 C 
ATOM     29  F   UNL A   1      29.301  25.333  23.325  1.00  0.00    -0.167 F 
ATOM     30  F   UNL A   1      28.812  25.948  25.362  1.00  0.00    -0.167 F 
ATOM     31  F   UNL A   1      29.753  27.347  23.997  1.00  0.00    -0.167 F 
ENDBRANCH  17  28
ENDBRANCH   4   7
ENDBRANCH   2   3
ENDBRANCH   1   2
BRANCH   1  32
ATOM     32  C   UNL A   1      31.793  31.770  26.534  1.00  0.00     0.023 C 
BRANCH  32  33
ATOM     33  C   UNL A   1      32.801  32.378  27.502  1.00  0.00     0.116 C 
BRANCH  33  34
ATOM     34  N   UNL A   1      32.582  33.802  27.687  1.00  0.00    -0.352 N 
ATOM     35  C   UNL A   1      33.168  34.658  28.587  1.00  0.00     0.251 C 
ATOM     36  H   UNL A   1      31.921  34.211  27.083  1.00  0.00     0.163 HD
ATOM     37  O   UNL A   1      32.705  35.786  28.745  1.00  0.00    -0.269 OA
BRANCH  35  38
ATOM     38  C   UNL A   1      34.331  34.208  29.383  1.00  0.00     0.039 A 
ATOM     39  C   UNL A   1      34.113  33.496  30.564  1.00  0.00     0.014 A 
ATOM     40  C   UNL A   1      35.636  34.474  28.956  1.00  0.00     0.014 A 
ATOM     41  C   UNL A   1      35.200  32.988  31.278  1.00  0.00     0.010 A 
ATOM     42  C   UNL A   1      36.715  33.905  29.628  1.00  0.00     0.010 A 
ATOM     43  C   UNL A   1      36.510  33.152  30.795  1.00  0.00    -0.014 A 
BRANCH  43  44
ATOM     44  C   UNL A   1      37.673  32.536  31.487  1.00  0.00     0.031 A 
ATOM     45  C   UNL A   1      38.415  31.393  30.848  1.00  0.00     0.074 A 
ATOM     46  C   UNL A   1      38.019  32.961  32.720  1.00  0.00     0.049 A 
ATOM     47  N   UNL A   1      39.393  30.669  31.329  1.00  0.00    -0.248 NA
ATOM     48  C   UNL A   1      37.978  30.995  29.503  1.00  0.00     0.031 C 
ATOM     49  C   UNL A   1      37.355  34.037  33.460  1.00  0.00     0.029 A 
ATOM     50  N   UNL A   1      39.005  32.534  33.575  1.00  0.00    -0.354 N 
ATOM     51  C   UNL A   1      39.681  29.723  30.351  1.00  0.00     0.074 A 
ATOM     52  C   UNL A   1      38.731  29.929  29.279  1.00  0.00     0.031 C 
ATOM     53  C   UNL A   1      37.967  34.201  34.643  1.00  0.00     0.029 A 
ATOM     54  C   UNL A   1      39.032  33.211  34.774  1.00  0.00     0.049 A 
ATOM     55  H   UNL A   1      39.637  31.813  33.351  1.00  0.00     0.167 HD
ATOM     56  C   UNL A   1      40.661  28.784  30.340  1.00  0.00     0.034 A 
ATOM     57  C   UNL A   1      39.809  33.042  35.862  1.00  0.00     0.034 A 
ATOM     58  C   UNL A   1      41.605  28.597  31.415  1.00  0.00     0.049 A 
ATOM     59  C   UNL A   1      40.865  31.964  35.842  1.00  0.00     0.074 A 
ATOM     60  C   UNL A   1      42.670  27.714  31.483  1.00  0.00     0.029 A 
ATOM     61  N   UNL A   1      41.595  29.296  32.616  1.00  0.00    -0.354 N 
ATOM     62  N   UNL A   1      41.157  31.111  34.888  1.00  0.00    -0.248 NA
ATOM     63  C   UNL A   1      41.702  31.834  37.043  1.00  0.00     0.031 C 
ATOM     64  C   UNL A   1      43.253  27.824  32.750  1.00  0.00     0.029 A 
ATOM     65  C   UNL A   1      42.609  28.836  33.443  1.00  0.00     0.049 A 
ATOM     66  H   UNL A   1      40.960  30.011  32.847  1.00  0.00     0.167 HD
ATOM     67  C   UNL A   1      42.233  30.365  35.362  1.00  0.00     0.074 A 
ATOM     68  C   UNL A   1      42.546  30.880  36.679  1.00  0.00     0.031 C 
ATOM     69  C   UNL A   1      42.906  29.350  34.761  1.00  0.00     0.034 A 
BRANCH  56  70
ATOM     70  C   UNL A   1      40.738  27.872  29.137  1.00  0.00     0.023 A 
ATOM     71  C   UNL A   1      41.665  28.089  28.102  1.00  0.00     0.031 A 
ATOM     72  C   UNL A   1      39.858  26.782  29.011  1.00  0.00     0.131 A 
ATOM     73  C   UNL A   1      41.639  27.282  26.956  1.00  0.00     0.055 A 
ATOM     74  C   UNL A   1      39.895  25.928  27.906  1.00  0.00     0.041 A 
ATOM     75  F   UNL A   1      38.936  26.535  29.955  1.00  0.00    -0.206 F 
ATOM     76  C   UNL A   1      40.779  26.185  26.862  1.00  0.00     0.022 A 
BRANCH  73  77
ATOM     77  S   UNL A   1      42.640  27.775  25.526  1.00  0.00     0.124 S 
ATOM     78  O   UNL A   1      42.788  26.505  24.818  1.00  0.00    -0.237 OA
ATOM     79  O   UNL A   1      41.797  28.773  24.879  1.00  0.00    -0.237 OA
ATOM     80  O   UNL A   1      43.868  28.289  26.128  1.00  0.00    -0.744 OA
ENDBRANCH  73  77
ENDBRANCH  56  70
BRANCH  57  81
ATOM     81  C   UNL A   1      39.615  33.894  37.072  1.00  0.00     0.023 A 
ATOM     82  C   UNL A   1      38.968  33.392  38.213  1.00  0.00     0.031 A 
ATOM     83  C   UNL A   1      40.031  35.237  37.088  1.00  0.00     0.131 A 
ATOM     84  C   UNL A   1      38.712  34.240  39.303  1.00  0.00     0.055 A 
ATOM     85  C   UNL A   1      39.827  36.060  38.197  1.00  0.00     0.041 A 
ATOM     86  F   UNL A   1      40.657  35.767  36.026  1.00  0.00    -0.206 F 
ATOM     87  C   UNL A   1      39.151  35.566  39.308  1.00  0.00     0.022 A 
BRANCH  84  88
ATOM     88  S   UNL A   1      37.712  33.610  40.677  1.00  0.00     0.124 S 
ATOM     89  O   UNL A   1      36.630  32.934  39.971  1.00  0.00    -0.237 OA
ATOM     90  O   UNL A   1      38.662  32.748  41.372  1.00  0.00    -0.237 OA
ATOM     91  O   UNL A   1      37.327  34.820  41.401  1.00  0.00    -0.744 OA
ENDBRANCH  84  88
ENDBRANCH  57  81
BRANCH  69  92
ATOM     92  C   UNL A   1      44.081  28.764  35.507  1.00  0.00     0.023 A 
ATOM     93  C   UNL A   1      43.934  27.684  36.396  1.00  0.00     0.031 A 
ATOM     94  C   UNL A   1      45.369  29.301  35.327  1.00  0.00     0.131 A 
ATOM     95  C   UNL A   1      45.046  27.211  37.110  1.00  0.00     0.055 A 
ATOM     96  C   UNL A   1      46.482  28.783  35.991  1.00  0.00     0.041 A 
ATOM     97  F   UNL A   1      45.569  30.335  34.494  1.00  0.00    -0.206 F 
ATOM     98  C   UNL A   1      46.321  27.740  36.898  1.00  0.00     0.022 A 
BRANCH  95  99
ATOM     99  S   UNL A   1      44.787  25.950  38.388  1.00  0.00     0.124 S 
ATOM    100  O   UNL A   1      46.158  25.597  38.746  1.00  0.00    -0.237 OA
ATOM    101  O   UNL A   1      44.032  26.679  39.399  1.00  0.00    -0.237 OA
ATOM    102  O   UNL A   1      44.040  24.904  37.691  1.00  0.00    -0.744 OA
ENDBRANCH  95  99
ENDBRANCH  69  92
ENDBRANCH  43  44
ENDBRANCH  35  38
ENDBRANCH  33  34
ENDBRANCH  32  33
ENDBRANCH   1  32
TORSDOF 18
ENDMDL
MODEL 2
REMARK VINA RESULT:     -12.6      1.891      2.461
REMARK SMILES CC(C)Cc1ccc(-c2cc(Cl)cc3c2O[C@H](C(F)(F)F)C(C(=O)NCCCCNC(=O)c2ccc(-c4c5nc(c(-c6cc(S(=O)(=O)[O-])ccc6F)c6ccc([nH]6)c(-c6cc(S(=O)(=O)[O-])ccc6F)c6nc(c(-c7cc(S(=O)(=O)[O-])ccc7F)c7ccc4[nH]7)C=C6)C=C5)cc2)=C3)cc1
REMARK SMILES IDX 27 1 26 2 25 3 23 4 24 5 22 7 9 8 10 9 15 10 11 11 14 12
REMARK SMILES IDX 16 13 12 14 13 15 96 16 17 17 8 18 5 19 6 20 98 21 7 22
REMARK SMILES IDX 97 23 4 24 2 25 1 26 3 27 18 28 19 29 20 30 21 31 28 32
REMARK SMILES IDX 29 33 30 34 31 35 32 37 33 38 34 39 95 40 35 41 94 42 36 43
REMARK SMILES IDX 37 44 38 45 88 46 39 47 93 48 87 49 89 50 40 51 92 52 86 53
REMARK SMILES IDX 85 54 41 56 73 57 53 58 72 59 54 60 57 61 71 62 90 63 55 64
REMARK SMILES IDX 56 65 70 67 91 68 58 69 42 70 43 71 51 72 44 73 50 74 52 75
REMARK SMILES IDX 49 76 45 77 46 78 47 79 48 80 74 81 75 82 83 83 76 84 82 85
REMARK SMILES IDX 84 86 81 87 77 88 78 89 79 90 80 91 59 92 60 93 68 94 61 95
REMARK SMILES IDX 67 96 69 97 66 98 62 99 63 100 64 101 65 102
REMARK H PARENT 25 6 30 36 89 55 57 66
REMARK Flexibility Score: inf
ROOT
ATOM      1  C   UNL A   1      31.251  30.423  25.762  1.00  0.00     0.023 C 
ENDROOT
BRANCH   1   2
ATOM      2  C   UNL A   1      30.721  30.137  24.349  1.00  0.00     0.116 C 
BRANCH   2   3
ATOM      3  N   UNL A   1      31.702  29.378  23.605  1.00  0.00    -0.352 N 
ATOM      4  C   UNL A   1      32.192  28.142  23.857  1.00  0.00     0.251 C 
ATOM      5  O   UNL A   1      33.360  27.905  23.568  1.00  0.00    -0.270 OA
ATOM      6  H   UNL A   1      32.063  29.822  22.803  1.00  0.00     0.163 HD
BRANCH   4   7
ATOM      7  C   UNL A   1      31.257  27.092  24.364  1.00  0.00     0.067 C 
ATOM      8  C   UNL A   1      32.807  23.802  22.494  1.00  0.00     0.026 A 
ATOM      9  C   UNL A   1      33.090  24.192  21.159  1.00  0.00     0.033 A 
ATOM     10  C   UNL A   1      32.017  24.693  23.244  1.00  0.00     0.135 A 
ATOM     11  C   UNL A   1      32.462  25.274  20.547  1.00  0.00     0.042 A 
ATOM     12  C   UNL A   1      31.293  25.709  22.573  1.00  0.00     0.019 A 
ATOM     13  O   UNL A   1      31.945  24.665  24.630  1.00  0.00    -0.475 OA
ATOM     14  Cl  UNL A   1      32.862  25.683  18.925  1.00  0.00    -0.084 Cl
ATOM     15  C   UNL A   1      31.496  25.990  21.226  1.00  0.00     0.032 A 
ATOM     16  C   UNL A   1      30.454  26.614  23.391  1.00  0.00     0.025 C 
ATOM     17  C   UNL A   1      31.908  26.029  25.247  1.00  0.00     0.314 C 
BRANCH   8  18
ATOM     18  C   UNL A   1      33.149  22.387  22.814  1.00  0.00    -0.015 A 
ATOM     19  C   UNL A   1      33.057  19.989  24.379  1.00  0.00    -0.048 A 
ATOM     20  C   UNL A   1      32.202  20.172  23.283  1.00  0.00     0.004 A 
ATOM     21  C   UNL A   1      34.062  20.943  24.576  1.00  0.00     0.004 A 
ATOM     22  C   UNL A   1      32.259  21.341  22.503  1.00  0.00     0.009 A 
ATOM     23  C   UNL A   1      34.109  22.122  23.805  1.00  0.00     0.009 A 
BRANCH  19  24
ATOM     24  C   UNL A   1      32.896  18.761  25.259  1.00  0.00     0.038 C 
BRANCH  24  25
ATOM     25  C   UNL A   1      32.936  17.369  24.578  1.00  0.00    -0.013 C 
ATOM     26  C   UNL A   1      34.252  17.111  23.836  1.00  0.00     0.008 C 
ATOM     27  C   UNL A   1      32.741  16.266  25.629  1.00  0.00     0.008 C 
ENDBRANCH  24  25
ENDBRANCH  19  24
ENDBRANCH   8  18
BRANCH  17  28
ATOM     28  C   UNL A   1      31.180  26.011  26.609  1.00  0.00     0.429 C 
ATOM     29  F   UNL A   1      31.624  25.029  27.427  1.00  0.00    -0.167 F 
ATOM     30  F   UNL A   1      31.335  27.188  27.263  1.00  0.00    -0.167 F 
ATOM     31  F   UNL A   1      29.838  25.825  26.482  1.00  0.00    -0.167 F 
ENDBRANCH  17  28
ENDBRANCH   4   7
ENDBRANCH   2   3
ENDBRANCH   1   2
BRANCH   1  32
ATOM     32  C   UNL A   1      31.249  31.902  26.175  1.00  0.00     0.023 C 
BRANCH  32  33
ATOM     33  C   UNL A   1      32.587  32.430  26.680  1.00  0.00     0.116 C 
BRANCH  33  34
ATOM     34  N   UNL A   1      32.450  33.731  27.312  1.00  0.00    -0.352 N 
ATOM     35  C   UNL A   1      33.150  34.256  28.371  1.00  0.00     0.251 C 
ATOM     36  H   UNL A   1      31.761  34.319  26.927  1.00  0.00     0.163 HD
ATOM     37  O   UNL A   1      32.754  35.288  28.910  1.00  0.00    -0.269 OA
BRANCH  35  38
ATOM     38  C   UNL A   1      34.354  33.560  28.877  1.00  0.00     0.039 A 
ATOM     39  C   UNL A   1      35.603  34.165  28.724  1.00  0.00     0.014 A 
ATOM     40  C   UNL A   1      34.248  32.320  29.514  1.00  0.00     0.014 A 
ATOM     41  C   UNL A   1      36.736  33.562  29.275  1.00  0.00     0.010 A 
ATOM     42  C   UNL A   1      35.365  31.757  30.125  1.00  0.00     0.010 A 
ATOM     43  C   UNL A   1      36.622  32.374  30.017  1.00  0.00    -0.014 A 
BRANCH  43  44
ATOM     44  C   UNL A   1      37.800  31.768  30.694  1.00  0.00     0.031 A 
ATOM     45  C   UNL A   1      38.618  30.718  29.992  1.00  0.00     0.074 A 
ATOM     46  C   UNL A   1      38.092  32.114  31.964  1.00  0.00     0.049 A 
ATOM     47  N   UNL A   1      39.622  30.011  30.444  1.00  0.00    -0.248 NA
ATOM     48  C   UNL A   1      38.237  30.403  28.608  1.00  0.00     0.031 C 
ATOM     49  C   UNL A   1      37.352  33.093  32.764  1.00  0.00     0.029 A 
ATOM     50  N   UNL A   1      39.078  31.674  32.812  1.00  0.00    -0.354 N 
ATOM     51  C   UNL A   1      39.985  29.159  29.406  1.00  0.00     0.074 A 
ATOM     52  C   UNL A   1      39.052  29.397  28.325  1.00  0.00     0.031 C 
ATOM     53  C   UNL A   1      37.926  33.197  33.974  1.00  0.00     0.029 A 
ATOM     54  C   UNL A   1      39.038  32.256  34.060  1.00  0.00     0.049 A 
ATOM     55  H   UNL A   1      39.754  31.006  32.552  1.00  0.00     0.167 HD
ATOM     56  C   UNL A   1      41.014  28.276  29.351  1.00  0.00     0.034 A 
ATOM     57  C   UNL A   1      39.797  32.045  35.154  1.00  0.00     0.034 A 
ATOM     58  C   UNL A   1      41.940  28.056  30.436  1.00  0.00     0.049 A 
ATOM     59  C   UNL A   1      40.909  31.028  35.083  1.00  0.00     0.074 A 
ATOM     60  C   UNL A   1      43.049  27.228  30.467  1.00  0.00     0.029 A 
ATOM     61  N   UNL A   1      41.862  28.658  31.686  1.00  0.00    -0.354 N 
ATOM     62  N   UNL A   1      41.271  30.268  34.076  1.00  0.00    -0.248 NA
ATOM     63  C   UNL A   1      41.722  30.850  36.293  1.00  0.00     0.031 C 
ATOM     64  C   UNL A   1      43.593  27.269  31.755  1.00  0.00     0.029 A 
ATOM     65  C   UNL A   1      42.879  28.190  32.505  1.00  0.00     0.049 A 
ATOM     66  H   UNL A   1      41.184  29.320  31.952  1.00  0.00     0.167 HD
ATOM     67  C   UNL A   1      42.374  29.545  34.522  1.00  0.00     0.074 A 
ATOM     68  C   UNL A   1      42.626  29.972  35.883  1.00  0.00     0.031 C 
ATOM     69  C   UNL A   1      43.115  28.615  33.866  1.00  0.00     0.034 A 
BRANCH  56  70
ATOM     70  C   UNL A   1      41.170  27.466  28.086  1.00  0.00     0.023 A 
ATOM     71  C   UNL A   1      40.823  26.103  28.031  1.00  0.00     0.031 A 
ATOM     72  C   UNL A   1      41.693  28.056  26.921  1.00  0.00     0.131 A 
ATOM     73  C   UNL A   1      41.076  25.361  26.868  1.00  0.00     0.055 A 
ATOM     74  C   UNL A   1      41.861  27.332  25.739  1.00  0.00     0.041 A 
ATOM     75  F   UNL A   1      42.063  29.347  26.916  1.00  0.00    -0.206 F 
ATOM     76  C   UNL A   1      41.567  25.971  25.712  1.00  0.00     0.022 A 
BRANCH  73  77
ATOM     77  S   UNL A   1      40.895  23.558  26.936  1.00  0.00     0.124 S 
ATOM     78  O   UNL A   1      41.379  23.265  28.284  1.00  0.00    -0.237 OA
ATOM     79  O   UNL A   1      39.465  23.375  26.717  1.00  0.00    -0.237 OA
ATOM     80  O   UNL A   1      41.759  23.085  25.856  1.00  0.00    -0.744 OA
ENDBRANCH  73  77
ENDBRANCH  56  70
BRANCH  57  81
ATOM     81  C   UNL A   1      39.527  32.789  36.419  1.00  0.00     0.023 A 
ATOM     82  C   UNL A   1      38.645  32.278  37.384  1.00  0.00     0.031 A 
ATOM     83  C   UNL A   1      40.111  34.046  36.660  1.00  0.00     0.131 A 
ATOM     84  C   UNL A   1      38.334  33.040  38.522  1.00  0.00     0.055 A 
ATOM     85  C   UNL A   1      39.843  34.774  37.821  1.00  0.00     0.041 A 
ATOM     86  F   UNL A   1      40.964  34.580  35.772  1.00  0.00    -0.206 F 
ATOM     87  C   UNL A   1      38.938  34.278  38.753  1.00  0.00     0.022 A 
BRANCH  84  88
ATOM     88  S   UNL A   1      37.051  32.432  39.650  1.00  0.00     0.124 S 
ATOM     89  O   UNL A   1      37.225  33.312  40.799  1.00  0.00    -0.237 OA
ATOM     90  O   UNL A   1      35.838  32.635  38.864  1.00  0.00    -0.237 OA
ATOM     91  O   UNL A   1      37.423  31.036  39.868  1.00  0.00    -0.744 OA
ENDBRANCH  84  88
ENDBRANCH  57  81
BRANCH  69  92
ATOM     92  C   UNL A   1      44.301  28.035  34.599  1.00  0.00     0.023 A 
ATOM     93  C   UNL A   1      44.214  26.830  35.317  1.00  0.00     0.031 A 
ATOM     94  C   UNL A   1      45.538  28.705  34.580  1.00  0.00     0.131 A 
ATOM     95  C   UNL A   1      45.328  26.359  36.030  1.00  0.00     0.055 A 
ATOM     96  C   UNL A   1      46.661  28.199  35.237  1.00  0.00     0.041 A 
ATOM     97  F   UNL A   1      45.679  29.863  33.913  1.00  0.00    -0.206 F 
ATOM     98  C   UNL A   1      46.555  27.026  35.978  1.00  0.00     0.022 A 
BRANCH  95  99
ATOM     99  S   UNL A   1      45.128  24.909  37.102  1.00  0.00     0.124 S 
ATOM    100  O   UNL A   1      46.504  24.641  37.508  1.00  0.00    -0.237 OA
ATOM    101  O   UNL A   1      44.242  25.411  38.145  1.00  0.00    -0.237 OA
ATOM    102  O   UNL A   1      44.537  23.908  36.215  1.00  0.00    -0.744 OA
ENDBRANCH  95  99
ENDBRANCH  69  92
ENDBRANCH  43  44
ENDBRANCH  35  38
ENDBRANCH  33  34
ENDBRANCH  32  33
ENDBRANCH   1  32
TORSDOF 18
ENDMDL
MODEL 3
REMARK VINA RESULT:     -11.6      6.628     14.159
REMARK SMILES CC(C)Cc1ccc(-c2cc(Cl)cc3c2O[C@H](C(F)(F)F)C(C(=O)NCCCCNC(=O)c2ccc(-c4c5nc(c(-c6cc(S(=O)(=O)[O-])ccc6F)c6ccc([nH]6)c(-c6cc(S(=O)(=O)[O-])ccc6F)c6nc(c(-c7cc(S(=O)(=O)[O-])ccc7F)c7ccc4[nH]7)C=C6)C=C5)cc2)=C3)cc1
REMARK SMILES IDX 27 1 26 2 25 3 23 4 24 5 22 7 9 8 10 9 15 10 11 11 14 12
REMARK SMILES IDX 16 13 12 14 13 15 96 16 17 17 8 18 5 19 6 20 98 21 7 22
REMARK SMILES IDX 97 23 4 24 2 25 1 26 3 27 18 28 19 29 20 30 21 31 28 32
REMARK SMILES IDX 29 33 30 34 31 35 32 37 33 38 34 39 95 40 35 41 94 42 36 43
REMARK SMILES IDX 37 44 38 45 88 46 39 47 93 48 87 49 89 50 40 51 92 52 86 53
REMARK SMILES IDX 85 54 41 56 73 57 53 58 72 59 54 60 57 61 71 62 90 63 55 64
REMARK SMILES IDX 56 65 70 67 91 68 58 69 42 70 43 71 51 72 44 73 50 74 52 75
REMARK SMILES IDX 49 76 45 77 46 78 47 79 48 80 74 81 75 82 83 83 76 84 82 85
REMARK SMILES IDX 84 86 81 87 77 88 78 89 79 90 80 91 59 92 60 93 68 94 61 95
REMARK SMILES IDX 67 96 69 97 66 98 62 99 63 100 64 101 65 102
REMARK H PARENT 25 6 30 36 89 55 57 66
REMARK Flexibility Score: inf
ROOT
ATOM      1  C   UNL A   1      50.461  23.366  36.542  1.00  0.00     0.023 C 
ENDROOT
BRANCH   1   2
ATOM      2  C   UNL A   1      50.426  21.947  37.130  1.00  0.00     0.116 C 
BRANCH   2   3
ATOM      3  N   UNL A   1      49.667  21.948  38.362  1.00  0.00    -0.352 N 
ATOM      4  C   UNL A   1      48.384  21.573  38.571  1.00  0.00     0.251 C 
ATOM      5  O   UNL A   1      47.729  22.171  39.419  1.00  0.00    -0.270 OA
ATOM      6  H   UNL A   1      50.151  22.266  39.159  1.00  0.00     0.163 HD
BRANCH   4   7
ATOM      7  C   UNL A   1      47.862  20.374  37.847  1.00  0.00     0.067 C 
ATOM      8  C   UNL A   1      46.018  18.428  40.934  1.00  0.00     0.026 A 
ATOM      9  C   UNL A   1      46.900  18.500  42.042  1.00  0.00     0.033 A 
ATOM     10  C   UNL A   1      46.559  18.793  39.687  1.00  0.00     0.135 A 
ATOM     11  C   UNL A   1      48.270  18.712  41.896  1.00  0.00     0.042 A 
ATOM     12  C   UNL A   1      47.965  18.878  39.542  1.00  0.00     0.019 A 
ATOM     13  O   UNL A   1      45.781  19.129  38.588  1.00  0.00    -0.475 OA
ATOM     14  Cl  UNL A   1      49.273  18.788  43.290  1.00  0.00    -0.084 Cl
ATOM     15  C   UNL A   1      48.823  18.819  40.635  1.00  0.00     0.032 A 
ATOM     16  C   UNL A   1      48.501  19.243  38.210  1.00  0.00     0.025 C 
ATOM     17  C   UNL A   1      46.339  20.270  37.796  1.00  0.00     0.314 C 
BRANCH   8  18
ATOM     18  C   UNL A   1      44.738  17.712  41.204  1.00  0.00    -0.015 A 
ATOM     19  C   UNL A   1      43.139  15.520  42.124  1.00  0.00    -0.048 A 
ATOM     20  C   UNL A   1      43.403  16.622  42.951  1.00  0.00     0.004 A 
ATOM     21  C   UNL A   1      43.543  15.609  40.787  1.00  0.00     0.004 A 
ATOM     22  C   UNL A   1      44.173  17.706  42.494  1.00  0.00     0.009 A 
ATOM     23  C   UNL A   1      44.328  16.689  40.333  1.00  0.00     0.009 A 
BRANCH  19  24
ATOM     24  C   UNL A   1      42.392  14.323  42.686  1.00  0.00     0.038 C 
BRANCH  24  25
ATOM     25  C   UNL A   1      42.179  13.098  41.758  1.00  0.00    -0.013 C 
ATOM     26  C   UNL A   1      41.834  11.822  42.534  1.00  0.00     0.008 C 
ATOM     27  C   UNL A   1      41.047  13.388  40.761  1.00  0.00     0.008 C 
ENDBRANCH  24  25
ENDBRANCH  19  24
ENDBRANCH   8  18
BRANCH  17  28
ATOM     28  C   UNL A   1      45.903  20.194  36.316  1.00  0.00     0.429 C 
ATOM     29  F   UNL A   1      45.231  19.056  36.027  1.00  0.00    -0.167 F 
ATOM     30  F   UNL A   1      45.099  21.236  35.988  1.00  0.00    -0.167 F 
ATOM     31  F   UNL A   1      46.955  20.246  35.457  1.00  0.00    -0.167 F 
ENDBRANCH  17  28
ENDBRANCH   4   7
ENDBRANCH   2   3
ENDBRANCH   1   2
BRANCH   1  32
ATOM     32  C   UNL A   1      49.742  23.534  35.196  1.00  0.00     0.023 C 
BRANCH  32  33
ATOM     33  C   UNL A   1      48.488  24.399  35.241  1.00  0.00     0.116 C 
BRANCH  33  34
ATOM     34  N   UNL A   1      48.335  25.063  36.524  1.00  0.00    -0.352 N 
ATOM     35  C   UNL A   1      47.489  26.087  36.873  1.00  0.00     0.251 C 
ATOM     36  H   UNL A   1      48.919  24.733  37.244  1.00  0.00     0.163 HD
ATOM     37  O   UNL A   1      47.648  26.669  37.944  1.00  0.00    -0.269 OA
BRANCH  35  38
ATOM     38  C   UNL A   1      46.416  26.505  35.945  1.00  0.00     0.039 A 
ATOM     39  C   UNL A   1      45.232  25.766  35.898  1.00  0.00     0.014 A 
ATOM     40  C   UNL A   1      46.571  27.633  35.133  1.00  0.00     0.014 A 
ATOM     41  C   UNL A   1      44.176  26.199  35.092  1.00  0.00     0.010 A 
ATOM     42  C   UNL A   1      45.493  28.104  34.388  1.00  0.00     0.010 A 
ATOM     43  C   UNL A   1      44.281  27.395  34.362  1.00  0.00    -0.014 A 
BRANCH  43  44
ATOM     44  C   UNL A   1      43.134  27.926  33.576  1.00  0.00     0.031 A 
ATOM     45  C   UNL A   1      43.001  27.592  32.115  1.00  0.00     0.074 A 
ATOM     46  C   UNL A   1      42.253  28.761  34.161  1.00  0.00     0.049 A 
ATOM     47  N   UNL A   1      42.128  28.026  31.243  1.00  0.00    -0.248 NA
ATOM     48  C   UNL A   1      44.000  26.670  31.556  1.00  0.00     0.031 C 
ATOM     49  C   UNL A   1      42.295  29.188  35.562  1.00  0.00     0.029 A 
ATOM     50  N   UNL A   1      41.156  29.412  33.652  1.00  0.00    -0.354 N 
ATOM     51  C   UNL A   1      42.478  27.441  30.030  1.00  0.00     0.074 A 
ATOM     52  C   UNL A   1      43.681  26.672  30.271  1.00  0.00     0.031 C 
ATOM     53  C   UNL A   1      41.259  30.008  35.804  1.00  0.00     0.029 A 
ATOM     54  C   UNL A   1      40.508  30.210  34.569  1.00  0.00     0.049 A 
ATOM     55  H   UNL A   1      40.858  29.315  32.718  1.00  0.00     0.167 HD
ATOM     56  C   UNL A   1      41.844  27.521  28.833  1.00  0.00     0.034 A 
ATOM     57  C   UNL A   1      39.444  31.025  34.429  1.00  0.00     0.034 A 
ATOM     58  C   UNL A   1      40.641  28.286  28.612  1.00  0.00     0.049 A 
ATOM     59  C   UNL A   1      38.780  31.129  33.079  1.00  0.00     0.074 A 
ATOM     60  C   UNL A   1      39.887  28.392  27.457  1.00  0.00     0.029 A 
ATOM     61  N   UNL A   1      40.020  29.088  29.563  1.00  0.00    -0.354 N 
ATOM     62  N   UNL A   1      39.094  30.529  31.954  1.00  0.00    -0.248 NA
ATOM     63  C   UNL A   1      37.611  32.014  32.981  1.00  0.00     0.031 C 
ATOM     64  C   UNL A   1      38.859  29.314  27.683  1.00  0.00     0.029 A 
ATOM     65  C   UNL A   1      38.917  29.718  29.008  1.00  0.00     0.049 A 
ATOM     66  H   UNL A   1      40.320  29.193  30.495  1.00  0.00     0.167 HD
ATOM     67  C   UNL A   1      38.142  30.939  31.025  1.00  0.00     0.074 A 
ATOM     68  C   UNL A   1      37.234  31.825  31.725  1.00  0.00     0.031 C 
ATOM     69  C   UNL A   1      38.023  30.610  29.713  1.00  0.00     0.034 A 
BRANCH  56  70
ATOM     70  C   UNL A   1      42.459  26.781  27.669  1.00  0.00     0.023 A 
ATOM     71  C   UNL A   1      42.100  25.456  27.359  1.00  0.00     0.031 A 
ATOM     72  C   UNL A   1      43.436  27.399  26.866  1.00  0.00     0.131 A 
ATOM     73  C   UNL A   1      42.765  24.770  26.333  1.00  0.00     0.055 A 
ATOM     74  C   UNL A   1      44.033  26.739  25.790  1.00  0.00     0.041 A 
ATOM     75  F   UNL A   1      43.837  28.654  27.123  1.00  0.00    -0.206 F 
ATOM     76  C   UNL A   1      43.710  25.410  25.528  1.00  0.00     0.022 A 
BRANCH  73  77
ATOM     77  S   UNL A   1      42.487  22.986  26.163  1.00  0.00     0.124 S 
ATOM     78  O   UNL A   1      43.255  22.461  27.291  1.00  0.00    -0.237 OA
ATOM     79  O   UNL A   1      41.037  22.880  26.274  1.00  0.00    -0.237 OA
ATOM     80  O   UNL A   1      43.038  22.676  24.846  1.00  0.00    -0.744 OA
ENDBRANCH  73  77
ENDBRANCH  56  70
BRANCH  57  81
ATOM     81  C   UNL A   1      38.946  31.826  35.585  1.00  0.00     0.023 A 
ATOM     82  C   UNL A   1      38.283  31.211  36.659  1.00  0.00     0.031 A 
ATOM     83  C   UNL A   1      39.083  33.226  35.611  1.00  0.00     0.131 A 
ATOM     84  C   UNL A   1      37.739  31.995  37.689  1.00  0.00     0.055 A 
ATOM     85  C   UNL A   1      38.592  33.996  36.667  1.00  0.00     0.041 A 
ATOM     86  F   UNL A   1      39.711  33.865  34.612  1.00  0.00    -0.206 F 
ATOM     87  C   UNL A   1      37.902  33.383  37.707  1.00  0.00     0.022 A 
BRANCH  84  88
ATOM     88  S   UNL A   1      36.730  31.184  38.959  1.00  0.00     0.124 S 
ATOM     89  O   UNL A   1      37.611  31.240  40.119  1.00  0.00    -0.237 OA
ATOM     90  O   UNL A   1      35.553  32.045  39.004  1.00  0.00    -0.237 OA
ATOM     91  O   UNL A   1      36.502  29.849  38.410  1.00  0.00    -0.744 OA
ENDBRANCH  84  88
ENDBRANCH  57  81
BRANCH  69  92
ATOM     92  C   UNL A   1      36.839  31.173  28.964  1.00  0.00     0.023 A 
ATOM     93  C   UNL A   1      35.772  30.360  28.543  1.00  0.00     0.031 A 
ATOM     94  C   UNL A   1      36.783  32.546  28.663  1.00  0.00     0.131 A 
ATOM     95  C   UNL A   1      34.720  30.918  27.799  1.00  0.00     0.055 A 
ATOM     96  C   UNL A   1      35.703  33.107  27.980  1.00  0.00     0.041 A 
ATOM     97  F   UNL A   1      37.777  33.369  29.037  1.00  0.00    -0.206 F 
ATOM     98  C   UNL A   1      34.670  32.289  27.532  1.00  0.00     0.022 A 
BRANCH  95  99
ATOM     99  S   UNL A   1      33.460  29.812  27.106  1.00  0.00     0.124 S 
ATOM    100  O   UNL A   1      33.836  29.772  25.696  1.00  0.00    -0.237 OA
ATOM    101  O   UNL A   1      33.675  28.582  27.858  1.00  0.00    -0.237 OA
ATOM    102  O   UNL A   1      32.203  30.503  27.393  1.00  0.00    -0.744 OA
ENDBRANCH  95  99
ENDBRANCH  69  92
ENDBRANCH  43  44
ENDBRANCH  35  38
ENDBRANCH  33  34
ENDBRANCH  32  33
ENDBRANCH   1  32
TORSDOF 18
ENDMDL
