MODEL 1
REMARK VINA RESULT:      -8.6      0.000      0.000
REMARK SMILES N#CCC(=O)N/N=C/c1ccc(OCc2ccc(C(=O)NCCCCNC(=O)c3ccc(-c4c5nc(c(-c6cc(S(=O)(=O)[O-])ccc6F)c6ccc([nH]6)c(-c6cc(S(=O)(=O)[O-])ccc6F)c6nc(c(-c7cc(S(=O)(=O)[O-])ccc7F)c7ccc4[nH]7)C=C6)C=C5)cc3)cc2)c(Br)c1
REMARK SMILES IDX 19 1 20 2 21 3 18 5 15 6 16 7 93 8 17 9 92 10 14 11 13 12
REMARK SMILES IDX 12 13 9 14 10 15 96 16 11 17 94 18 95 19 8 20 7 21 6 22 4 23
REMARK SMILES IDX 5 24 3 26 2 27 1 28 22 29 23 30 24 31 25 32 26 33 27 34
REMARK SMILES IDX 28 36 29 37 30 38 91 39 31 40 90 41 32 42 33 43 34 44 84 45
REMARK SMILES IDX 35 46 89 47 83 48 85 49 36 50 88 51 82 52 81 53 37 55 69 56
REMARK SMILES IDX 49 57 68 58 50 59 53 60 67 61 86 62 51 63 52 64 66 66 87 67
REMARK SMILES IDX 54 68 38 69 39 70 47 71 40 72 46 73 48 74 45 75 41 76 42 77
REMARK SMILES IDX 43 78 44 79 70 80 71 81 79 82 72 83 78 84 80 85 77 86 73 87
REMARK SMILES IDX 74 88 75 89 76 90 55 91 56 92 64 93 57 94 63 95 65 96 62 97
REMARK SMILES IDX 58 98 59 99 60 100 61 101
REMARK H PARENT 21 4 6 25 26 35 85 54 53 65
REMARK Flexibility Score: inf
ROOT
ATOM      1  C   UNL A   1      40.124  25.574  28.099  1.00  0.00     0.251 C 
ATOM      2  O   UNL A   1      39.059  25.226  27.581  1.00  0.00    -0.269 OA
ATOM      3  N   UNL A   1      41.177  24.702  27.989  1.00  0.00    -0.352 N 
ATOM      4  H   UNL A   1      40.947  23.867  27.520  1.00  0.00     0.163 HD
ENDROOT
BRANCH   1   5
ATOM      5  C   UNL A   1      40.189  26.904  28.775  1.00  0.00     0.039 A 
ATOM      6  C   UNL A   1      40.275  29.538  29.864  1.00  0.00    -0.011 A 
ATOM      7  C   UNL A   1      40.604  29.300  28.522  1.00  0.00     0.008 A 
ATOM      8  C   UNL A   1      39.961  28.433  30.654  1.00  0.00     0.008 A 
ATOM      9  C   UNL A   1      40.574  28.003  27.991  1.00  0.00     0.014 A 
ATOM     10  C   UNL A   1      39.860  27.150  30.106  1.00  0.00     0.014 A 
BRANCH   6  11
ATOM     11  C   UNL A   1      40.229  30.977  30.352  1.00  0.00     0.265 C 
BRANCH  11  12
ATOM     12  O   UNL A   1      39.710  31.291  31.648  1.00  0.00    -0.488 OA
BRANCH  12  13
ATOM     13  C   UNL A   1      38.512  31.915  31.834  1.00  0.00     0.134 A 
ATOM     14  C   UNL A   1      35.838  32.679  32.222  1.00  0.00    -0.004 A 
ATOM     15  C   UNL A   1      36.265  31.433  32.664  1.00  0.00     0.013 A 
ATOM     16  C   UNL A   1      36.744  33.566  31.635  1.00  0.00     0.029 A 
ATOM     17  C   UNL A   1      37.598  31.071  32.493  1.00  0.00     0.048 A 
ATOM     18  C   UNL A   1      38.085  33.191  31.440  1.00  0.00     0.060 A 
ATOM     19  Br  UNL A   1      39.211  34.514  30.675  1.00  0.00    -0.047 Br
BRANCH  14  20
ATOM     20  C   UNL A   1      34.420  33.021  32.423  1.00  0.00     0.141 C 
ATOM     21  N   UNL A   1      34.044  34.239  32.655  1.00  0.00    -0.181 NA
BRANCH  21  22
ATOM     22  N   UNL A   1      32.710  34.400  32.872  1.00  0.00    -0.246 N 
ATOM     23  C   UNL A   1      31.984  35.509  32.499  1.00  0.00     0.254 C 
ATOM     24  O   UNL A   1      30.856  35.674  32.970  1.00  0.00    -0.272 OA
ATOM     25  H   UNL A   1      32.230  33.672  33.329  1.00  0.00     0.193 HD
BRANCH  23  26
ATOM     26  C   UNL A   1      32.525  36.429  31.433  1.00  0.00     0.221 C 
BRANCH  26  27
ATOM     27  C   UNL A   1      33.336  37.569  32.028  1.00  0.00     0.072 C 
ATOM     28  N   UNL A   1      34.009  38.514  32.521  1.00  0.00    -0.198 NA
ENDBRANCH  26  27
ENDBRANCH  23  26
ENDBRANCH  21  22
ENDBRANCH  14  20
ENDBRANCH  12  13
ENDBRANCH  11  12
ENDBRANCH   6  11
ENDBRANCH   1   5
BRANCH   3  29
ATOM     29  C   UNL A   1      42.559  24.758  28.421  1.00  0.00     0.116 C 
BRANCH  29  30
ATOM     30  C   UNL A   1      43.220  23.380  28.320  1.00  0.00     0.023 C 
BRANCH  30  31
ATOM     31  C   UNL A   1      44.363  23.315  27.300  1.00  0.00     0.023 C 
BRANCH  31  32
ATOM     32  C   UNL A   1      44.011  23.854  25.916  1.00  0.00     0.116 C 
BRANCH  32  33
ATOM     33  N   UNL A   1      45.181  24.176  25.114  1.00  0.00    -0.352 N 
ATOM     34  C   UNL A   1      45.896  25.352  25.081  1.00  0.00     0.251 C 
ATOM     35  H   UNL A   1      45.501  23.462  24.516  1.00  0.00     0.163 HD
ATOM     36  O   UNL A   1      46.785  25.501  24.255  1.00  0.00    -0.269 OA
BRANCH  34  37
ATOM     37  C   UNL A   1      45.535  26.439  26.018  1.00  0.00     0.039 A 
ATOM     38  C   UNL A   1      44.261  27.004  25.932  1.00  0.00     0.014 A 
ATOM     39  C   UNL A   1      46.432  26.865  27.001  1.00  0.00     0.014 A 
ATOM     40  C   UNL A   1      43.860  27.945  26.881  1.00  0.00     0.010 A 
ATOM     41  C   UNL A   1      46.007  27.754  27.985  1.00  0.00     0.010 A 
ATOM     42  C   UNL A   1      44.714  28.298  27.939  1.00  0.00    -0.014 A 
BRANCH  42  43
ATOM     43  C   UNL A   1      44.259  29.216  29.014  1.00  0.00     0.031 A 
ATOM     44  C   UNL A   1      43.871  28.673  30.362  1.00  0.00     0.074 A 
ATOM     45  C   UNL A   1      44.138  30.533  28.751  1.00  0.00     0.049 A 
ATOM     46  N   UNL A   1      43.411  29.309  31.408  1.00  0.00    -0.248 NA
ATOM     47  C   UNL A   1      43.992  27.220  30.547  1.00  0.00     0.031 C 
ATOM     48  C   UNL A   1      44.430  31.167  27.463  1.00  0.00     0.029 A 
ATOM     49  N   UNL A   1      43.730  31.574  29.546  1.00  0.00    -0.354 N 
ATOM     50  C   UNL A   1      43.178  28.335  32.373  1.00  0.00     0.074 A 
ATOM     51  C   UNL A   1      43.491  27.060  31.762  1.00  0.00     0.031 C 
ATOM     52  C   UNL A   1      44.219  32.489  27.565  1.00  0.00     0.029 A 
ATOM     53  C   UNL A   1      43.738  32.793  28.908  1.00  0.00     0.049 A 
ATOM     54  H   UNL A   1      43.458  31.460  30.485  1.00  0.00     0.167 HD
ATOM     55  C   UNL A   1      42.766  28.493  33.656  1.00  0.00     0.034 A 
ATOM     56  C   UNL A   1      43.390  34.016  29.354  1.00  0.00     0.034 A 
ATOM     57  C   UNL A   1      42.466  29.773  34.250  1.00  0.00     0.049 A 
ATOM     58  C   UNL A   1      42.924  34.164  30.779  1.00  0.00     0.074 A 
ATOM     59  C   UNL A   1      42.099  30.054  35.556  1.00  0.00     0.029 A 
ATOM     60  N   UNL A   1      42.489  30.989  33.577  1.00  0.00    -0.354 N 
ATOM     61  N   UNL A   1      42.772  33.239  31.700  1.00  0.00    -0.248 NA
ATOM     62  C   UNL A   1      42.598  35.523  31.230  1.00  0.00     0.031 C 
ATOM     63  C   UNL A   1      41.837  31.425  35.654  1.00  0.00     0.029 A 
ATOM     64  C   UNL A   1      42.112  32.015  34.431  1.00  0.00     0.049 A 
ATOM     65  H   UNL A   1      42.736  31.104  32.630  1.00  0.00     0.167 HD
ATOM     66  C   UNL A   1      42.356  33.911  32.845  1.00  0.00     0.074 A 
ATOM     67  C   UNL A   1      42.304  35.319  32.505  1.00  0.00     0.031 C 
ATOM     68  C   UNL A   1      42.045  33.412  34.070  1.00  0.00     0.034 A 
BRANCH  55  69
ATOM     69  C   UNL A   1      42.595  27.243  34.487  1.00  0.00     0.023 A 
ATOM     70  C   UNL A   1      43.685  26.638  35.140  1.00  0.00     0.031 A 
ATOM     71  C   UNL A   1      41.335  26.633  34.611  1.00  0.00     0.131 A 
ATOM     72  C   UNL A   1      43.509  25.423  35.819  1.00  0.00     0.055 A 
ATOM     73  C   UNL A   1      41.151  25.467  35.357  1.00  0.00     0.041 A 
ATOM     74  F   UNL A   1      40.262  27.152  33.995  1.00  0.00    -0.206 F 
ATOM     75  C   UNL A   1      42.244  24.847  35.954  1.00  0.00     0.022 A 
BRANCH  72  76
ATOM     76  S   UNL A   1      44.979  24.536  36.401  1.00  0.00     0.124 S 
ATOM     77  O   UNL A   1      46.054  25.323  35.803  1.00  0.00    -0.237 OA
ATOM     78  O   UNL A   1      44.851  24.627  37.850  1.00  0.00    -0.237 OA
ATOM     79  O   UNL A   1      44.814  23.195  35.842  1.00  0.00    -0.744 OA
ENDBRANCH  72  76
ENDBRANCH  55  69
BRANCH  56  80
ATOM     80  C   UNL A   1      43.460  35.200  28.449  1.00  0.00     0.023 A 
ATOM     81  C   UNL A   1      44.673  35.872  28.232  1.00  0.00     0.031 A 
ATOM     82  C   UNL A   1      42.305  35.701  27.823  1.00  0.00     0.131 A 
ATOM     83  C   UNL A   1      44.696  37.037  27.450  1.00  0.00     0.055 A 
ATOM     84  C   UNL A   1      42.344  36.831  27.004  1.00  0.00     0.041 A 
ATOM     85  F   UNL A   1      41.122  35.091  27.992  1.00  0.00    -0.206 F 
ATOM     86  C   UNL A   1      43.542  37.515  26.826  1.00  0.00     0.022 A 
BRANCH  83  87
ATOM     87  S   UNL A   1      46.247  37.971  27.330  1.00  0.00     0.124 S 
ATOM     88  O   UNL A   1      46.043  39.017  28.326  1.00  0.00    -0.237 OA
ATOM     89  O   UNL A   1      47.238  36.952  27.664  1.00  0.00    -0.237 OA
ATOM     90  O   UNL A   1      46.264  38.424  25.941  1.00  0.00    -0.744 OA
ENDBRANCH  83  87
ENDBRANCH  56  80
BRANCH  68  91
ATOM     91  C   UNL A   1      41.655  34.411  35.132  1.00  0.00     0.023 A 
ATOM     92  C   UNL A   1      42.608  34.975  35.999  1.00  0.00     0.031 A 
ATOM     93  C   UNL A   1      40.309  34.780  35.298  1.00  0.00     0.131 A 
ATOM     94  C   UNL A   1      42.194  35.828  37.032  1.00  0.00     0.055 A 
ATOM     95  C   UNL A   1      39.911  35.679  36.289  1.00  0.00     0.041 A 
ATOM     96  F   UNL A   1      39.357  34.270  34.501  1.00  0.00    -0.206 F 
ATOM     97  C   UNL A   1      40.854  36.196  37.173  1.00  0.00     0.022 A 
BRANCH  94  98
ATOM     98  S   UNL A   1      43.418  36.370  38.256  1.00  0.00     0.124 S 
ATOM     99  O   UNL A   1      42.727  37.480  38.905  1.00  0.00    -0.237 OA
ATOM    100  O   UNL A   1      43.600  35.170  39.067  1.00  0.00    -0.237 OA
ATOM    101  O   UNL A   1      44.573  36.748  37.443  1.00  0.00    -0.744 OA
ENDBRANCH  94  98
ENDBRANCH  68  91
ENDBRANCH  42  43
ENDBRANCH  34  37
ENDBRANCH  32  33
ENDBRANCH  31  32
ENDBRANCH  30  31
ENDBRANCH  29  30
ENDBRANCH   3  29
TORSDOF 21
ENDMDL
MODEL 2
REMARK VINA RESULT:      -8.4      3.512     10.448
REMARK SMILES N#CCC(=O)N/N=C/c1ccc(OCc2ccc(C(=O)NCCCCNC(=O)c3ccc(-c4c5nc(c(-c6cc(S(=O)(=O)[O-])ccc6F)c6ccc([nH]6)c(-c6cc(S(=O)(=O)[O-])ccc6F)c6nc(c(-c7cc(S(=O)(=O)[O-])ccc7F)c7ccc4[nH]7)C=C6)C=C5)cc3)cc2)c(Br)c1
REMARK SMILES IDX 19 1 20 2 21 3 18 5 15 6 16 7 93 8 17 9 92 10 14 11 13 12
REMARK SMILES IDX 12 13 9 14 10 15 96 16 11 17 94 18 95 19 8 20 7 21 6 22 4 23
REMARK SMILES IDX 5 24 3 26 2 27 1 28 22 29 23 30 24 31 25 32 26 33 27 34
REMARK SMILES IDX 28 36 29 37 30 38 91 39 31 40 90 41 32 42 33 43 34 44 84 45
REMARK SMILES IDX 35 46 89 47 83 48 85 49 36 50 88 51 82 52 81 53 37 55 69 56
REMARK SMILES IDX 49 57 68 58 50 59 53 60 67 61 86 62 51 63 52 64 66 66 87 67
REMARK SMILES IDX 54 68 38 69 39 70 47 71 40 72 46 73 48 74 45 75 41 76 42 77
REMARK SMILES IDX 43 78 44 79 70 80 71 81 79 82 72 83 78 84 80 85 77 86 73 87
REMARK SMILES IDX 74 88 75 89 76 90 55 91 56 92 64 93 57 94 63 95 65 96 62 97
REMARK SMILES IDX 58 98 59 99 60 100 61 101
REMARK H PARENT 21 4 6 25 26 35 85 54 53 65
REMARK Flexibility Score: inf
ROOT
ATOM      1  C   UNL A   1      37.389  30.051  29.943  1.00  0.00     0.251 C 
ATOM      2  O   UNL A   1      36.396  29.329  29.815  1.00  0.00    -0.269 OA
ATOM      3  N   UNL A   1      37.174  31.315  30.430  1.00  0.00    -0.352 N 
ATOM      4  H   UNL A   1      36.224  31.513  30.600  1.00  0.00     0.163 HD
ENDROOT
BRANCH   1   5
ATOM      5  C   UNL A   1      38.728  29.495  29.584  1.00  0.00     0.039 A 
ATOM      6  C   UNL A   1      41.213  28.233  28.978  1.00  0.00    -0.011 A 
ATOM      7  C   UNL A   1      40.389  27.751  30.005  1.00  0.00     0.008 A 
ATOM      8  C   UNL A   1      40.796  29.382  28.307  1.00  0.00     0.008 A 
ATOM      9  C   UNL A   1      39.175  28.380  30.311  1.00  0.00     0.014 A 
ATOM     10  C   UNL A   1      39.550  29.965  28.563  1.00  0.00     0.014 A 
BRANCH   6  11
ATOM     11  C   UNL A   1      42.467  27.449  28.630  1.00  0.00     0.265 C 
BRANCH  11  12
ATOM     12  O   UNL A   1      42.550  26.046  28.902  1.00  0.00    -0.488 OA
BRANCH  12  13
ATOM     13  C   UNL A   1      42.698  25.109  27.923  1.00  0.00     0.134 A 
ATOM     14  C   UNL A   1      43.547  23.315  25.937  1.00  0.00    -0.004 A 
ATOM     15  C   UNL A   1      44.430  23.694  26.940  1.00  0.00     0.013 A 
ATOM     16  C   UNL A   1      42.230  23.781  25.945  1.00  0.00     0.029 A 
ATOM     17  C   UNL A   1      43.995  24.563  27.936  1.00  0.00     0.048 A 
ATOM     18  C   UNL A   1      41.798  24.679  26.939  1.00  0.00     0.060 A 
ATOM     19  Br  UNL A   1      39.972  25.191  26.851  1.00  0.00    -0.047 Br
BRANCH  14  20
ATOM     20  C   UNL A   1      44.048  22.393  24.903  1.00  0.00     0.141 C 
ATOM     21  N   UNL A   1      44.002  21.108  25.062  1.00  0.00    -0.181 NA
BRANCH  21  22
ATOM     22  N   UNL A   1      44.547  20.382  24.048  1.00  0.00    -0.246 N 
ATOM     23  C   UNL A   1      45.321  19.255  24.220  1.00  0.00     0.254 C 
ATOM     24  O   UNL A   1      45.979  18.829  23.268  1.00  0.00    -0.272 OA
ATOM     25  H   UNL A   1      44.378  20.683  23.127  1.00  0.00     0.193 HD
BRANCH  23  26
ATOM     26  C   UNL A   1      45.251  18.496  25.521  1.00  0.00     0.221 C 
BRANCH  26  27
ATOM     27  C   UNL A   1      43.831  18.066  25.851  1.00  0.00     0.072 C 
ATOM     28  N   UNL A   1      42.653  17.709  26.125  1.00  0.00    -0.198 NA
ENDBRANCH  26  27
ENDBRANCH  23  26
ENDBRANCH  21  22
ENDBRANCH  14  20
ENDBRANCH  12  13
ENDBRANCH  11  12
ENDBRANCH   6  11
ENDBRANCH   1   5
BRANCH   3  29
ATOM     29  C   UNL A   1      38.058  32.419  30.744  1.00  0.00     0.116 C 
BRANCH  29  30
ATOM     30  C   UNL A   1      37.265  33.714  30.943  1.00  0.00     0.023 C 
BRANCH  30  31
ATOM     31  C   UNL A   1      36.965  34.038  32.411  1.00  0.00     0.023 C 
BRANCH  31  32
ATOM     32  C   UNL A   1      36.261  32.921  33.177  1.00  0.00     0.116 C 
BRANCH  32  33
ATOM     33  N   UNL A   1      36.435  33.017  34.618  1.00  0.00    -0.352 N 
ATOM     34  C   UNL A   1      37.457  32.511  35.389  1.00  0.00     0.251 C 
ATOM     35  H   UNL A   1      35.731  33.505  35.103  1.00  0.00     0.163 HD
ATOM     36  O   UNL A   1      37.389  32.576  36.608  1.00  0.00    -0.269 OA
BRANCH  34  37
ATOM     37  C   UNL A   1      38.600  31.848  34.724  1.00  0.00     0.039 A 
ATOM     38  C   UNL A   1      38.356  30.718  33.940  1.00  0.00     0.014 A 
ATOM     39  C   UNL A   1      39.894  32.363  34.837  1.00  0.00     0.014 A 
ATOM     40  C   UNL A   1      39.400  30.149  33.209  1.00  0.00     0.010 A 
ATOM     41  C   UNL A   1      40.918  31.835  34.056  1.00  0.00     0.010 A 
ATOM     42  C   UNL A   1      40.680  30.727  33.229  1.00  0.00    -0.014 A 
BRANCH  42  43
ATOM     43  C   UNL A   1      41.772  30.195  32.372  1.00  0.00     0.031 A 
ATOM     44  C   UNL A   1      42.416  28.876  32.696  1.00  0.00     0.074 A 
ATOM     45  C   UNL A   1      42.220  30.936  31.339  1.00  0.00     0.049 A 
ATOM     46  N   UNL A   1      43.408  28.271  32.095  1.00  0.00    -0.248 NA
ATOM     47  C   UNL A   1      41.894  28.157  33.867  1.00  0.00     0.031 C 
ATOM     48  C   UNL A   1      41.710  32.257  30.963  1.00  0.00     0.029 A 
ATOM     49  N   UNL A   1      43.210  30.691  30.421  1.00  0.00    -0.354 N 
ATOM     50  C   UNL A   1      43.635  27.104  32.817  1.00  0.00     0.074 A 
ATOM     51  C   UNL A   1      42.716  27.122  33.937  1.00  0.00     0.031 C 
ATOM     52  C   UNL A   1      42.372  32.692  29.878  1.00  0.00     0.029 A 
ATOM     53  C   UNL A   1      43.378  31.703  29.505  1.00  0.00     0.049 A 
ATOM     54  H   UNL A   1      43.748  29.867  30.417  1.00  0.00     0.167 HD
ATOM     55  C   UNL A   1      44.511  26.102  32.557  1.00  0.00     0.034 A 
ATOM     56  C   UNL A   1      44.250  31.825  28.485  1.00  0.00     0.034 A 
ATOM     57  C   UNL A   1      45.413  26.098  31.430  1.00  0.00     0.049 A 
ATOM     58  C   UNL A   1      45.221  30.703  28.222  1.00  0.00     0.074 A 
ATOM     59  C   UNL A   1      46.299  25.109  31.038  1.00  0.00     0.029 A 
ATOM     60  N   UNL A   1      45.555  27.138  30.520  1.00  0.00    -0.354 N 
ATOM     61  N   UNL A   1      45.378  29.575  28.877  1.00  0.00    -0.248 NA
ATOM     62  C   UNL A   1      46.120  30.863  27.073  1.00  0.00     0.031 C 
ATOM     63  C   UNL A   1      47.019  25.576  29.933  1.00  0.00     0.029 A 
ATOM     64  C   UNL A   1      46.533  26.827  29.587  1.00  0.00     0.049 A 
ATOM     65  H   UNL A   1      45.035  27.975  30.535  1.00  0.00     0.167 HD
ATOM     66  C   UNL A   1      46.379  28.883  28.202  1.00  0.00     0.074 A 
ATOM     67  C   UNL A   1      46.770  29.709  27.078  1.00  0.00     0.031 C 
ATOM     68  C   UNL A   1      46.926  27.672  28.484  1.00  0.00     0.034 A 
BRANCH  55  69
ATOM     69  C   UNL A   1      44.544  24.942  33.524  1.00  0.00     0.023 A 
ATOM     70  C   UNL A   1      45.065  25.079  34.823  1.00  0.00     0.031 A 
ATOM     71  C   UNL A   1      44.072  23.675  33.136  1.00  0.00     0.131 A 
ATOM     72  C   UNL A   1      45.174  23.957  35.657  1.00  0.00     0.055 A 
ATOM     73  C   UNL A   1      44.108  22.580  34.001  1.00  0.00     0.041 A 
ATOM     74  F   UNL A   1      43.582  23.477  31.903  1.00  0.00    -0.206 F 
ATOM     75  C   UNL A   1      44.675  22.713  35.265  1.00  0.00     0.022 A 
BRANCH  72  76
ATOM     76  S   UNL A   1      46.105  24.116  37.205  1.00  0.00     0.124 S 
ATOM     77  O   UNL A   1      45.377  23.202  38.082  1.00  0.00    -0.237 OA
ATOM     78  O   UNL A   1      47.444  23.695  36.814  1.00  0.00    -0.237 OA
ATOM     79  O   UNL A   1      45.969  25.531  37.543  1.00  0.00    -0.744 OA
ENDBRANCH  72  76
ENDBRANCH  55  69
BRANCH  56  80
ATOM     80  C   UNL A   1      44.256  33.051  27.636  1.00  0.00     0.023 A 
ATOM     81  C   UNL A   1      44.672  34.287  28.155  1.00  0.00     0.031 A 
ATOM     82  C   UNL A   1      43.804  33.012  26.305  1.00  0.00     0.131 A 
ATOM     83  C   UNL A   1      44.581  35.443  27.364  1.00  0.00     0.055 A 
ATOM     84  C   UNL A   1      43.765  34.156  25.506  1.00  0.00     0.041 A 
ATOM     85  F   UNL A   1      43.402  31.854  25.758  1.00  0.00    -0.206 F 
ATOM     86  C   UNL A   1      44.141  35.384  26.040  1.00  0.00     0.022 A 
BRANCH  83  87
ATOM     87  S   UNL A   1      44.968  37.045  28.123  1.00  0.00     0.124 S 
ATOM     88  O   UNL A   1      46.302  36.804  28.662  1.00  0.00    -0.237 OA
ATOM     89  O   UNL A   1      44.893  37.947  26.978  1.00  0.00    -0.237 OA
ATOM     90  O   UNL A   1      43.912  37.213  29.118  1.00  0.00    -0.744 OA
ENDBRANCH  83  87
ENDBRANCH  56  80
BRANCH  68  91
ATOM     91  C   UNL A   1      47.983  27.165  27.532  1.00  0.00     0.023 A 
ATOM     92  C   UNL A   1      49.352  27.390  27.764  1.00  0.00     0.031 A 
ATOM     93  C   UNL A   1      47.614  26.475  26.365  1.00  0.00     0.131 A 
ATOM     94  C   UNL A   1      50.297  26.985  26.811  1.00  0.00     0.055 A 
ATOM     95  C   UNL A   1      48.565  26.018  25.450  1.00  0.00     0.041 A 
ATOM     96  F   UNL A   1      46.322  26.235  26.092  1.00  0.00    -0.206 F 
ATOM     97  C   UNL A   1      49.915  26.286  25.663  1.00  0.00     0.022 A 
BRANCH  94  98
ATOM     98  S   UNL A   1      52.029  27.474  27.040  1.00  0.00     0.124 S 
ATOM     99  O   UNL A   1      52.117  27.607  28.491  1.00  0.00    -0.237 OA
ATOM    100  O   UNL A   1      52.751  26.348  26.457  1.00  0.00    -0.237 OA
ATOM    101  O   UNL A   1      52.133  28.728  26.295  1.00  0.00    -0.744 OA
ENDBRANCH  94  98
ENDBRANCH  68  91
ENDBRANCH  42  43
ENDBRANCH  34  37
ENDBRANCH  32  33
ENDBRANCH  31  32
ENDBRANCH  30  31
ENDBRANCH  29  30
ENDBRANCH   3  29
TORSDOF 21
ENDMDL
MODEL 3
REMARK VINA RESULT:      -8.3      3.533     10.178
REMARK SMILES N#CCC(=O)N/N=C/c1ccc(OCc2ccc(C(=O)NCCCCNC(=O)c3ccc(-c4c5nc(c(-c6cc(S(=O)(=O)[O-])ccc6F)c6ccc([nH]6)c(-c6cc(S(=O)(=O)[O-])ccc6F)c6nc(c(-c7cc(S(=O)(=O)[O-])ccc7F)c7ccc4[nH]7)C=C6)C=C5)cc3)cc2)c(Br)c1
REMARK SMILES IDX 19 1 20 2 21 3 18 5 15 6 16 7 93 8 17 9 92 10 14 11 13 12
REMARK SMILES IDX 12 13 9 14 10 15 96 16 11 17 94 18 95 19 8 20 7 21 6 22 4 23
REMARK SMILES IDX 5 24 3 26 2 27 1 28 22 29 23 30 24 31 25 32 26 33 27 34
REMARK SMILES IDX 28 36 29 37 30 38 91 39 31 40 90 41 32 42 33 43 34 44 84 45
REMARK SMILES IDX 35 46 89 47 83 48 85 49 36 50 88 51 82 52 81 53 37 55 69 56
REMARK SMILES IDX 49 57 68 58 50 59 53 60 67 61 86 62 51 63 52 64 66 66 87 67
REMARK SMILES IDX 54 68 38 69 39 70 47 71 40 72 46 73 48 74 45 75 41 76 42 77
REMARK SMILES IDX 43 78 44 79 70 80 71 81 79 82 72 83 78 84 80 85 77 86 73 87
REMARK SMILES IDX 74 88 75 89 76 90 55 91 56 92 64 93 57 94 63 95 65 96 62 97
REMARK SMILES IDX 58 98 59 99 60 100 61 101
REMARK H PARENT 21 4 6 25 26 35 85 54 53 65
REMARK Flexibility Score: inf
ROOT
ATOM      1  C   UNL A   1      37.120  29.723  28.211  1.00  0.00     0.251 C 
ATOM      2  O   UNL A   1      36.329  28.953  27.658  1.00  0.00    -0.269 OA
ATOM      3  N   UNL A   1      36.598  30.888  28.712  1.00  0.00    -0.352 N 
ATOM      4  H   UNL A   1      35.633  30.989  28.545  1.00  0.00     0.163 HD
ENDROOT
BRANCH   1   5
ATOM      5  C   UNL A   1      38.556  29.323  28.308  1.00  0.00     0.039 A 
ATOM      6  C   UNL A   1      41.238  28.420  28.664  1.00  0.00    -0.011 A 
ATOM      7  C   UNL A   1      40.321  28.398  29.725  1.00  0.00     0.008 A 
ATOM      8  C   UNL A   1      40.802  28.952  27.450  1.00  0.00     0.008 A 
ATOM      9  C   UNL A   1      39.007  28.855  29.552  1.00  0.00     0.014 A 
ATOM     10  C   UNL A   1      39.471  29.338  27.259  1.00  0.00     0.014 A 
BRANCH   6  11
ATOM     11  C   UNL A   1      42.616  27.820  28.887  1.00  0.00     0.265 C 
BRANCH  11  12
ATOM     12  O   UNL A   1      42.760  26.517  29.461  1.00  0.00    -0.488 OA
BRANCH  12  13
ATOM     13  C   UNL A   1      43.155  25.429  28.739  1.00  0.00     0.134 A 
ATOM     14  C   UNL A   1      44.474  23.434  27.268  1.00  0.00    -0.004 A 
ATOM     15  C   UNL A   1      45.191  24.199  28.180  1.00  0.00     0.013 A 
ATOM     16  C   UNL A   1      43.097  23.620  27.121  1.00  0.00     0.029 A 
ATOM     17  C   UNL A   1      44.525  25.169  28.925  1.00  0.00     0.048 A 
ATOM     18  C   UNL A   1      42.430  24.617  27.857  1.00  0.00     0.060 A 
ATOM     19  Br  UNL A   1      40.554  24.724  27.589  1.00  0.00    -0.047 Br
BRANCH  14  20
ATOM     20  C   UNL A   1      45.217  22.419  26.501  1.00  0.00     0.141 C 
ATOM     21  N   UNL A   1      44.875  22.099  25.294  1.00  0.00    -0.181 NA
BRANCH  21  22
ATOM     22  N   UNL A   1      45.618  21.111  24.726  1.00  0.00    -0.246 N 
ATOM     23  C   UNL A   1      45.234  19.790  24.645  1.00  0.00     0.254 C 
ATOM     24  O   UNL A   1      46.077  18.937  24.358  1.00  0.00    -0.272 OA
ATOM     25  H   UNL A   1      46.493  21.356  24.347  1.00  0.00     0.193 HD
BRANCH  23  26
ATOM     26  C   UNL A   1      43.777  19.429  24.784  1.00  0.00     0.221 C 
BRANCH  26  27
ATOM     27  C   UNL A   1      43.541  18.455  25.927  1.00  0.00     0.072 C 
ATOM     28  N   UNL A   1      43.346  17.647  26.876  1.00  0.00    -0.198 NA
ENDBRANCH  26  27
ENDBRANCH  23  26
ENDBRANCH  21  22
ENDBRANCH  14  20
ENDBRANCH  12  13
ENDBRANCH  11  12
ENDBRANCH   6  11
ENDBRANCH   1   5
BRANCH   3  29
ATOM     29  C   UNL A   1      37.177  32.001  29.437  1.00  0.00     0.116 C 
BRANCH  29  30
ATOM     30  C   UNL A   1      36.416  33.298  29.146  1.00  0.00     0.023 C 
BRANCH  30  31
ATOM     31  C   UNL A   1      35.615  33.827  30.342  1.00  0.00     0.023 C 
BRANCH  31  32
ATOM     32  C   UNL A   1      35.070  32.746  31.270  1.00  0.00     0.116 C 
BRANCH  32  33
ATOM     33  N   UNL A   1      34.890  33.204  32.639  1.00  0.00    -0.352 N 
ATOM     34  C   UNL A   1      35.754  33.076  33.703  1.00  0.00     0.251 C 
ATOM     35  H   UNL A   1      34.039  33.663  32.829  1.00  0.00     0.163 HD
ATOM     36  O   UNL A   1      35.395  33.411  34.822  1.00  0.00    -0.269 OA
BRANCH  34  37
ATOM     37  C   UNL A   1      37.090  32.482  33.476  1.00  0.00     0.039 A 
ATOM     38  C   UNL A   1      37.169  31.186  32.963  1.00  0.00     0.014 A 
ATOM     39  C   UNL A   1      38.253  33.215  33.726  1.00  0.00     0.014 A 
ATOM     40  C   UNL A   1      38.416  30.653  32.630  1.00  0.00     0.010 A 
ATOM     41  C   UNL A   1      39.488  32.708  33.332  1.00  0.00     0.010 A 
ATOM     42  C   UNL A   1      39.581  31.424  32.774  1.00  0.00    -0.014 A 
BRANCH  42  43
ATOM     43  C   UNL A   1      40.899  30.908  32.323  1.00  0.00     0.031 A 
ATOM     44  C   UNL A   1      41.588  29.812  33.089  1.00  0.00     0.074 A 
ATOM     45  C   UNL A   1      41.500  31.473  31.257  1.00  0.00     0.049 A 
ATOM     46  N   UNL A   1      42.756  29.263  32.878  1.00  0.00    -0.248 NA
ATOM     47  C   UNL A   1      40.880  29.285  34.265  1.00  0.00     0.031 C 
ATOM     48  C   UNL A   1      40.954  32.581  30.468  1.00  0.00     0.029 A 
ATOM     49  N   UNL A   1      42.704  31.202  30.656  1.00  0.00    -0.354 N 
ATOM     50  C   UNL A   1      42.929  28.332  33.896  1.00  0.00     0.074 A 
ATOM     51  C   UNL A   1      41.770  28.439  34.758  1.00  0.00     0.031 C 
ATOM     52  C   UNL A   1      41.807  32.875  29.474  1.00  0.00     0.029 A 
ATOM     53  C   UNL A   1      42.976  32.009  29.575  1.00  0.00     0.049 A 
ATOM     54  H   UNL A   1      43.315  30.496  30.968  1.00  0.00     0.167 HD
ATOM     55  C   UNL A   1      43.947  27.455  34.080  1.00  0.00     0.034 A 
ATOM     56  C   UNL A   1      44.050  32.050  28.762  1.00  0.00     0.034 A 
ATOM     57  C   UNL A   1      45.090  27.358  33.204  1.00  0.00     0.049 A 
ATOM     58  C   UNL A   1      45.173  31.072  28.993  1.00  0.00     0.074 A 
ATOM     59  C   UNL A   1      46.148  26.466  33.262  1.00  0.00     0.029 A 
ATOM     60  N   UNL A   1      45.332  28.187  32.116  1.00  0.00    -0.354 N 
ATOM     61  N   UNL A   1      45.291  30.153  29.924  1.00  0.00    -0.248 NA
ATOM     62  C   UNL A   1      46.301  31.128  28.055  1.00  0.00     0.031 C 
ATOM     63  C   UNL A   1      47.058  26.798  32.252  1.00  0.00     0.029 A 
ATOM     64  C   UNL A   1      46.535  27.848  31.515  1.00  0.00     0.049 A 
ATOM     65  H   UNL A   1      44.735  28.911  31.816  1.00  0.00     0.167 HD
ATOM     66  C   UNL A   1      46.495  29.505  29.666  1.00  0.00     0.074 A 
ATOM     67  C   UNL A   1      47.054  30.124  28.480  1.00  0.00     0.031 C 
ATOM     68  C   UNL A   1      47.088  28.490  30.345  1.00  0.00     0.034 A 
BRANCH  55  69
ATOM     69  C   UNL A   1      43.872  26.551  35.288  1.00  0.00     0.023 A 
ATOM     70  C   UNL A   1      44.353  26.959  36.546  1.00  0.00     0.031 A 
ATOM     71  C   UNL A   1      43.338  25.255  35.178  1.00  0.00     0.131 A 
ATOM     72  C   UNL A   1      44.361  26.057  37.620  1.00  0.00     0.055 A 
ATOM     73  C   UNL A   1      43.274  24.390  36.273  1.00  0.00     0.041 A 
ATOM     74  F   UNL A   1      42.883  24.801  34.000  1.00  0.00    -0.206 F 
ATOM     75  C   UNL A   1      43.802  24.783  37.499  1.00  0.00     0.022 A 
BRANCH  72  76
ATOM     76  S   UNL A   1      45.242  26.523  39.134  1.00  0.00     0.124 S 
ATOM     77  O   UNL A   1      45.931  27.739  38.712  1.00  0.00    -0.237 OA
ATOM     78  O   UNL A   1      44.155  26.703  40.089  1.00  0.00    -0.237 OA
ATOM     79  O   UNL A   1      46.114  25.378  39.390  1.00  0.00    -0.744 OA
ENDBRANCH  72  76
ENDBRANCH  55  69
BRANCH  56  80
ATOM     80  C   UNL A   1      44.126  33.049  27.658  1.00  0.00     0.023 A 
ATOM     81  C   UNL A   1      44.495  34.380  27.911  1.00  0.00     0.031 A 
ATOM     82  C   UNL A   1      43.788  32.698  26.339  1.00  0.00     0.131 A 
ATOM     83  C   UNL A   1      44.470  35.322  26.872  1.00  0.00     0.055 A 
ATOM     84  C   UNL A   1      43.815  33.628  25.298  1.00  0.00     0.041 A 
ATOM     85  F   UNL A   1      43.435  31.437  26.041  1.00  0.00    -0.206 F 
ATOM     86  C   UNL A   1      44.144  34.953  25.565  1.00  0.00     0.022 A 
BRANCH  83  87
ATOM     87  S   UNL A   1      44.791  37.063  27.272  1.00  0.00     0.124 S 
ATOM     88  O   UNL A   1      43.544  37.697  26.859  1.00  0.00    -0.237 OA
ATOM     89  O   UNL A   1      45.034  37.001  28.710  1.00  0.00    -0.237 OA
ATOM     90  O   UNL A   1      45.959  37.389  26.457  1.00  0.00    -0.744 OA
ENDBRANCH  83  87
ENDBRANCH  56  80
BRANCH  68  91
ATOM     91  C   UNL A   1      48.394  27.972  29.791  1.00  0.00     0.023 A 
ATOM     92  C   UNL A   1      48.431  27.087  28.699  1.00  0.00     0.031 A 
ATOM     93  C   UNL A   1      49.613  28.346  30.383  1.00  0.00     0.131 A 
ATOM     94  C   UNL A   1      49.656  26.556  28.272  1.00  0.00     0.055 A 
ATOM     95  C   UNL A   1      50.835  27.863  29.912  1.00  0.00     0.041 A 
ATOM     96  F   UNL A   1      49.636  29.185  31.430  1.00  0.00    -0.206 F 
ATOM     97  C   UNL A   1      50.861  26.950  28.861  1.00  0.00     0.022 A 
BRANCH  94  98
ATOM     98  S   UNL A   1      49.649  25.262  27.001  1.00  0.00     0.124 S 
ATOM     99  O   UNL A   1      48.500  24.453  27.399  1.00  0.00    -0.237 OA
ATOM    100  O   UNL A   1      49.491  26.032  25.772  1.00  0.00    -0.237 OA
ATOM    101  O   UNL A   1      50.950  24.613  27.163  1.00  0.00    -0.744 OA
ENDBRANCH  94  98
ENDBRANCH  68  91
ENDBRANCH  42  43
ENDBRANCH  34  37
ENDBRANCH  32  33
ENDBRANCH  31  32
ENDBRANCH  30  31
ENDBRANCH  29  30
ENDBRANCH   3  29
TORSDOF 21
ENDMDL
