MODEL 1
REMARK VINA RESULT:     -10.6      0.000      0.000
REMARK SMILES CCC(CC)(NC(=O)N(C)C1CC[NH2+]CC1)C(=O)NCCCCNC(=O)c1ccc(-c2c3nc(c(-c4cc(S(=O)(=O)[O-])ccc4F)c4ccc([nH]4)c(-c4cc(S(=O)(=O)[O-])ccc4F)c4nc(c(-c5cc(S(=O)(=O)[O-])ccc5F)c5ccc2[nH]5)C=C4)C=C3)cc1
REMARK SMILES IDX 21 1 20 2 19 3 17 4 18 5 3 7 2 8 1 9 4 10 5 11 6 12 7 13
REMARK SMILES IDX 8 15 9 16 10 17 11 18 12 19 16 20 13 21 15 22 14 23 22 26
REMARK SMILES IDX 23 27 24 28 25 29 26 31 27 32 28 33 89 34 29 35 88 36 30 37
REMARK SMILES IDX 31 38 32 39 82 40 33 41 87 42 81 43 83 44 34 45 86 46 80 47
REMARK SMILES IDX 79 48 35 50 67 51 47 52 66 53 48 54 51 55 65 56 84 57 49 58
REMARK SMILES IDX 50 59 64 61 85 62 52 63 36 64 37 65 45 66 38 67 44 68 46 69
REMARK SMILES IDX 43 70 39 71 40 72 41 73 42 74 68 75 69 76 77 77 70 78 76 79
REMARK SMILES IDX 78 80 75 81 71 82 72 83 73 84 74 85 53 86 54 87 62 88 55 89
REMARK SMILES IDX 61 90 63 91 60 92 56 93 57 94 58 95 59 96
REMARK H PARENT 19 6 6 14 14 24 14 25 24 30 83 49 51 60
REMARK Flexibility Score: inf
ROOT
ATOM      1  C   UNL A   1      31.725  27.647  26.525  1.00  0.00     0.023 C 
ENDROOT
BRANCH   1   2
ATOM      2  C   UNL A   1      32.159  26.257  26.093  1.00  0.00     0.116 C 
BRANCH   2   3
ATOM      3  N   UNL A   1      31.172  25.510  25.323  1.00  0.00    -0.354 N 
ATOM      4  C   UNL A   1      31.041  25.280  23.977  1.00  0.00     0.245 C 
ATOM      5  O   UNL A   1      30.222  24.415  23.649  1.00  0.00    -0.272 OA
ATOM      6  H   UNL A   1      30.468  25.093  25.871  1.00  0.00     0.163 HD
BRANCH   4   7
ATOM      7  C   UNL A   1      31.971  25.972  22.930  1.00  0.00     0.120 C 
BRANCH   7   8
ATOM      8  C   UNL A   1      33.206  26.763  23.465  1.00  0.00     0.035 C 
ATOM      9  C   UNL A   1      33.784  27.861  22.582  1.00  0.00     0.007 C 
ENDBRANCH   7   8
BRANCH   7  10
ATOM     10  C   UNL A   1      31.001  27.008  22.236  1.00  0.00     0.035 C 
ATOM     11  C   UNL A   1      30.175  27.919  23.130  1.00  0.00     0.007 C 
ENDBRANCH   7  10
BRANCH   7  12
ATOM     12  N   UNL A   1      32.485  24.945  21.977  1.00  0.00    -0.323 N 
ATOM     13  C   UNL A   1      33.145  23.759  22.001  1.00  0.00     0.318 C 
ATOM     14  H   UNL A   1      32.284  25.207  21.049  1.00  0.00     0.166 HD
ATOM     15  O   UNL A   1      33.543  23.416  20.884  1.00  0.00    -0.249 OA
BRANCH  13  16
ATOM     16  N   UNL A   1      33.245  22.940  23.099  1.00  0.00    -0.324 N 
ATOM     17  C   UNL A   1      32.492  21.706  23.301  1.00  0.00     0.149 C 
BRANCH  16  18
ATOM     18  C   UNL A   1      34.237  23.201  24.209  1.00  0.00     0.097 C 
ATOM     19  C   UNL A   1      35.550  23.861  23.751  1.00  0.00     0.086 C 
ATOM     20  C   UNL A   1      34.583  22.098  25.238  1.00  0.00     0.086 C 
ATOM     21  C   UNL A   1      36.538  22.823  23.255  1.00  0.00     0.262 C 
ATOM     22  C   UNL A   1      35.762  21.200  24.855  1.00  0.00     0.262 C 
ATOM     23  N   UNL A   1      36.919  21.944  24.356  1.00  0.00    -0.346 N 
ATOM     24  H   UNL A   1      37.307  22.506  25.113  1.00  0.00     0.346 HD
ATOM     25  H   UNL A   1      37.612  21.277  24.015  1.00  0.00     0.346 HD
ENDBRANCH  16  18
ENDBRANCH  13  16
ENDBRANCH   7  12
ENDBRANCH   4   7
ENDBRANCH   2   3
ENDBRANCH   1   2
BRANCH   1  26
ATOM     26  C   UNL A   1      32.686  28.386  27.439  1.00  0.00     0.023 C 
BRANCH  26  27
ATOM     27  C   UNL A   1      33.766  29.147  26.697  1.00  0.00     0.116 C 
BRANCH  27  28
ATOM     28  N   UNL A   1      33.655  30.585  26.884  1.00  0.00    -0.352 N 
ATOM     29  C   UNL A   1      34.408  31.419  27.670  1.00  0.00     0.251 C 
ATOM     30  H   UNL A   1      32.937  31.023  26.373  1.00  0.00     0.163 HD
ATOM     31  O   UNL A   1      34.040  32.577  27.856  1.00  0.00    -0.269 OA
BRANCH  29  32
ATOM     32  C   UNL A   1      35.637  30.905  28.305  1.00  0.00     0.039 A 
ATOM     33  C   UNL A   1      35.541  29.866  29.231  1.00  0.00     0.014 A 
ATOM     34  C   UNL A   1      36.885  31.433  27.963  1.00  0.00     0.014 A 
ATOM     35  C   UNL A   1      36.705  29.318  29.769  1.00  0.00     0.010 A 
ATOM     36  C   UNL A   1      38.042  30.809  28.409  1.00  0.00     0.010 A 
ATOM     37  C   UNL A   1      37.965  29.759  29.333  1.00  0.00    -0.014 A 
BRANCH  37  38
ATOM     38  C   UNL A   1      39.219  29.159  29.854  1.00  0.00     0.031 A 
ATOM     39  C   UNL A   1      39.860  29.734  31.089  1.00  0.00     0.074 A 
ATOM     40  C   UNL A   1      39.800  28.144  29.187  1.00  0.00     0.049 A 
ATOM     41  N   UNL A   1      40.987  29.404  31.664  1.00  0.00    -0.248 NA
ATOM     42  C   UNL A   1      39.161  30.853  31.740  1.00  0.00     0.031 C 
ATOM     43  C   UNL A   1      39.288  27.535  27.957  1.00  0.00     0.029 A 
ATOM     44  N   UNL A   1      40.950  27.442  29.447  1.00  0.00    -0.354 N 
ATOM     45  C   UNL A   1      41.139  30.285  32.731  1.00  0.00     0.074 A 
ATOM     46  C   UNL A   1      40.027  31.207  32.677  1.00  0.00     0.031 C 
ATOM     47  C   UNL A   1      40.093  26.525  27.597  1.00  0.00     0.029 A 
ATOM     48  C   UNL A   1      41.210  26.448  28.532  1.00  0.00     0.049 A 
ATOM     49  H   UNL A   1      41.533  27.633  30.217  1.00  0.00     0.167 HD
ATOM     50  C   UNL A   1      42.102  30.302  33.684  1.00  0.00     0.034 A 
ATOM     51  C   UNL A   1      42.238  25.580  28.454  1.00  0.00     0.034 A 
ATOM     52  C   UNL A   1      43.192  29.359  33.729  1.00  0.00     0.049 A 
ATOM     53  C   UNL A   1      43.314  25.639  29.510  1.00  0.00     0.074 A 
ATOM     54  C   UNL A   1      44.189  29.242  34.680  1.00  0.00     0.029 A 
ATOM     55  N   UNL A   1      43.430  28.374  32.779  1.00  0.00    -0.354 N 
ATOM     56  N   UNL A   1      43.416  26.444  30.543  1.00  0.00    -0.248 NA
ATOM     57  C   UNL A   1      44.407  24.667  29.394  1.00  0.00     0.031 C 
ATOM     58  C   UNL A   1      45.075  28.244  34.262  1.00  0.00     0.029 A 
ATOM     59  C   UNL A   1      44.582  27.673  33.100  1.00  0.00     0.049 A 
ATOM     60  H   UNL A   1      42.865  28.200  31.991  1.00  0.00     0.167 HD
ATOM     61  C   UNL A   1      44.567  26.049  31.220  1.00  0.00     0.074 A 
ATOM     62  C   UNL A   1      45.113  24.926  30.484  1.00  0.00     0.031 C 
ATOM     63  C   UNL A   1      45.120  26.562  32.348  1.00  0.00     0.034 A 
BRANCH  50  64
ATOM     64  C   UNL A   1      42.033  31.392  34.728  1.00  0.00     0.023 A 
ATOM     65  C   UNL A   1      41.025  31.417  35.711  1.00  0.00     0.031 A 
ATOM     66  C   UNL A   1      42.973  32.436  34.729  1.00  0.00     0.131 A 
ATOM     67  C   UNL A   1      40.938  32.500  36.598  1.00  0.00     0.055 A 
ATOM     68  C   UNL A   1      42.935  33.465  35.672  1.00  0.00     0.041 A 
ATOM     69  F   UNL A   1      43.944  32.483  33.802  1.00  0.00    -0.206 F 
ATOM     70  C   UNL A   1      41.903  33.509  36.605  1.00  0.00     0.022 A 
BRANCH  67  71
ATOM     71  S   UNL A   1      39.462  32.648  37.642  1.00  0.00     0.124 S 
ATOM     72  O   UNL A   1      38.937  33.947  37.227  1.00  0.00    -0.237 OA
ATOM     73  O   UNL A   1      38.677  31.485  37.245  1.00  0.00    -0.237 OA
ATOM     74  O   UNL A   1      39.997  32.606  39.001  1.00  0.00    -0.744 OA
ENDBRANCH  67  71
ENDBRANCH  50  64
BRANCH  51  75
ATOM     75  C   UNL A   1      42.308  24.584  27.347  1.00  0.00     0.023 A 
ATOM     76  C   UNL A   1      41.526  23.418  27.374  1.00  0.00     0.031 A 
ATOM     77  C   UNL A   1      43.186  24.761  26.262  1.00  0.00     0.131 A 
ATOM     78  C   UNL A   1      41.674  22.451  26.368  1.00  0.00     0.055 A 
ATOM     79  C   UNL A   1      43.285  23.824  25.232  1.00  0.00     0.041 A 
ATOM     80  F   UNL A   1      43.956  25.858  26.183  1.00  0.00    -0.206 F 
ATOM     81  C   UNL A   1      42.536  22.653  25.289  1.00  0.00     0.022 A 
BRANCH  78  82
ATOM     82  S   UNL A   1      40.789  20.876  26.542  1.00  0.00     0.124 S 
ATOM     83  O   UNL A   1      39.490  21.202  25.965  1.00  0.00    -0.237 OA
ATOM     84  O   UNL A   1      41.628  19.970  25.765  1.00  0.00    -0.237 OA
ATOM     85  O   UNL A   1      40.792  20.643  27.984  1.00  0.00    -0.744 OA
ENDBRANCH  78  82
ENDBRANCH  51  75
BRANCH  63  86
ATOM     86  C   UNL A   1      46.355  25.877  32.882  1.00  0.00     0.023 A 
ATOM     87  C   UNL A   1      46.276  24.778  33.755  1.00  0.00     0.031 A 
ATOM     88  C   UNL A   1      47.632  26.338  32.514  1.00  0.00     0.131 A 
ATOM     89  C   UNL A   1      47.450  24.216  34.277  1.00  0.00     0.055 A 
ATOM     90  C   UNL A   1      48.796  25.729  32.981  1.00  0.00     0.041 A 
ATOM     91  F   UNL A   1      47.768  27.387  31.687  1.00  0.00    -0.206 F 
ATOM     92  C   UNL A   1      48.710  24.670  33.880  1.00  0.00     0.022 A 
BRANCH  89  93
ATOM     93  S   UNL A   1      47.308  22.948  35.566  1.00  0.00     0.124 S 
ATOM     94  O   UNL A   1      48.212  21.913  35.075  1.00  0.00    -0.237 OA
ATOM     95  O   UNL A   1      47.748  23.664  36.759  1.00  0.00    -0.237 OA
ATOM     96  O   UNL A   1      45.889  22.594  35.545  1.00  0.00    -0.744 OA
ENDBRANCH  89  93
ENDBRANCH  63  86
ENDBRANCH  37  38
ENDBRANCH  29  32
ENDBRANCH  27  28
ENDBRANCH  26  27
ENDBRANCH   1  26
TORSDOF 19
ENDMDL
MODEL 2
REMARK VINA RESULT:     -10.2      2.256      3.123
REMARK SMILES CCC(CC)(NC(=O)N(C)C1CC[NH2+]CC1)C(=O)NCCCCNC(=O)c1ccc(-c2c3nc(c(-c4cc(S(=O)(=O)[O-])ccc4F)c4ccc([nH]4)c(-c4cc(S(=O)(=O)[O-])ccc4F)c4nc(c(-c5cc(S(=O)(=O)[O-])ccc5F)c5ccc2[nH]5)C=C4)C=C3)cc1
REMARK SMILES IDX 21 1 20 2 19 3 17 4 18 5 3 7 2 8 1 9 4 10 5 11 6 12 7 13
REMARK SMILES IDX 8 15 9 16 10 17 11 18 12 19 16 20 13 21 15 22 14 23 22 26
REMARK SMILES IDX 23 27 24 28 25 29 26 31 27 32 28 33 89 34 29 35 88 36 30 37
REMARK SMILES IDX 31 38 32 39 82 40 33 41 87 42 81 43 83 44 34 45 86 46 80 47
REMARK SMILES IDX 79 48 35 50 67 51 47 52 66 53 48 54 51 55 65 56 84 57 49 58
REMARK SMILES IDX 50 59 64 61 85 62 52 63 36 64 37 65 45 66 38 67 44 68 46 69
REMARK SMILES IDX 43 70 39 71 40 72 41 73 42 74 68 75 69 76 77 77 70 78 76 79
REMARK SMILES IDX 78 80 75 81 71 82 72 83 73 84 74 85 53 86 54 87 62 88 55 89
REMARK SMILES IDX 61 90 63 91 60 92 56 93 57 94 58 95 59 96
REMARK H PARENT 19 6 6 14 14 24 14 25 24 30 83 49 51 60
REMARK Flexibility Score: inf
ROOT
ATOM      1  C   UNL A   1      31.104  30.827  24.973  1.00  0.00     0.023 C 
ENDROOT
BRANCH   1   2
ATOM      2  C   UNL A   1      30.950  29.317  25.051  1.00  0.00     0.116 C 
BRANCH   2   3
ATOM      3  N   UNL A   1      31.613  28.570  23.990  1.00  0.00    -0.354 N 
ATOM      4  C   UNL A   1      32.537  27.557  24.020  1.00  0.00     0.245 C 
ATOM      5  O   UNL A   1      32.741  26.973  22.951  1.00  0.00    -0.272 OA
ATOM      6  H   UNL A   1      31.348  28.844  23.081  1.00  0.00     0.163 HD
BRANCH   4   7
ATOM      7  C   UNL A   1      33.191  27.080  25.356  1.00  0.00     0.120 C 
BRANCH   7   8
ATOM      8  C   UNL A   1      32.252  26.493  26.455  1.00  0.00     0.035 C 
ATOM      9  C   UNL A   1      30.845  26.079  26.042  1.00  0.00     0.007 C 
ENDBRANCH   7   8
BRANCH   7  10
ATOM     10  C   UNL A   1      33.825  28.409  25.926  1.00  0.00     0.035 C 
ATOM     11  C   UNL A   1      33.771  28.637  27.429  1.00  0.00     0.007 C 
ENDBRANCH   7  10
BRANCH   7  12
ATOM     12  N   UNL A   1      34.219  26.041  25.054  1.00  0.00    -0.323 N 
ATOM     13  C   UNL A   1      34.307  24.695  24.902  1.00  0.00     0.318 C 
ATOM     14  H   UNL A   1      35.102  26.460  24.927  1.00  0.00     0.166 HD
ATOM     15  O   UNL A   1      35.476  24.297  24.882  1.00  0.00    -0.249 OA
BRANCH  13  16
ATOM     16  N   UNL A   1      33.244  23.864  24.648  1.00  0.00    -0.324 N 
ATOM     17  C   UNL A   1      32.700  23.573  23.326  1.00  0.00     0.149 C 
BRANCH  16  18
ATOM     18  C   UNL A   1      32.558  23.078  25.742  1.00  0.00     0.097 C 
ATOM     19  C   UNL A   1      33.430  22.816  26.983  1.00  0.00     0.086 C 
ATOM     20  C   UNL A   1      31.777  21.782  25.417  1.00  0.00     0.086 C 
ATOM     21  C   UNL A   1      34.299  21.587  26.790  1.00  0.00     0.262 C 
ATOM     22  C   UNL A   1      32.603  20.495  25.475  1.00  0.00     0.262 C 
ATOM     23  N   UNL A   1      33.453  20.404  26.663  1.00  0.00    -0.346 N 
ATOM     24  H   UNL A   1      32.862  20.325  27.491  1.00  0.00     0.346 HD
ATOM     25  H   UNL A   1      34.052  19.584  26.572  1.00  0.00     0.346 HD
ENDBRANCH  16  18
ENDBRANCH  13  16
ENDBRANCH   7  12
ENDBRANCH   4   7
ENDBRANCH   2   3
ENDBRANCH   1   2
BRANCH   1  26
ATOM     26  C   UNL A   1      31.062  31.565  26.299  1.00  0.00     0.023 C 
BRANCH  26  27
ATOM     27  C   UNL A   1      32.432  31.936  26.831  1.00  0.00     0.116 C 
BRANCH  27  28
ATOM     28  N   UNL A   1      32.513  33.336  27.217  1.00  0.00    -0.352 N 
ATOM     29  C   UNL A   1      33.388  33.951  28.075  1.00  0.00     0.251 C 
ATOM     30  H   UNL A   1      31.844  33.927  26.803  1.00  0.00     0.163 HD
ATOM     31  O   UNL A   1      33.178  35.108  28.433  1.00  0.00    -0.269 OA
BRANCH  29  32
ATOM     32  C   UNL A   1      34.556  33.203  28.579  1.00  0.00     0.039 A 
ATOM     33  C   UNL A   1      35.834  33.730  28.391  1.00  0.00     0.014 A 
ATOM     34  C   UNL A   1      34.383  31.997  29.263  1.00  0.00     0.014 A 
ATOM     35  C   UNL A   1      36.934  33.073  28.942  1.00  0.00     0.010 A 
ATOM     36  C   UNL A   1      35.463  31.409  29.907  1.00  0.00     0.010 A 
ATOM     37  C   UNL A   1      36.753  31.929  29.737  1.00  0.00    -0.014 A 
BRANCH  37  38
ATOM     38  C   UNL A   1      37.902  31.238  30.374  1.00  0.00     0.031 A 
ATOM     39  C   UNL A   1      38.281  31.578  31.790  1.00  0.00     0.074 A 
ATOM     40  C   UNL A   1      38.630  30.358  29.660  1.00  0.00     0.049 A 
ATOM     41  N   UNL A   1      39.287  31.144  32.504  1.00  0.00    -0.248 NA
ATOM     42  C   UNL A   1      37.437  32.564  32.484  1.00  0.00     0.031 C 
ATOM     43  C   UNL A   1      38.378  29.983  28.267  1.00  0.00     0.029 A 
ATOM     44  N   UNL A   1      39.730  29.615  30.006  1.00  0.00    -0.354 N 
ATOM     45  C   UNL A   1      39.208  31.817  33.719  1.00  0.00     0.074 A 
ATOM     46  C   UNL A   1      38.099  32.739  33.617  1.00  0.00     0.031 C 
ATOM     47  C   UNL A   1      39.267  29.051  27.894  1.00  0.00     0.029 A 
ATOM     48  C   UNL A   1      40.188  28.801  28.997  1.00  0.00     0.049 A 
ATOM     49  H   UNL A   1      40.151  29.660  30.895  1.00  0.00     0.167 HD
ATOM     50  C   UNL A   1      39.972  31.657  34.826  1.00  0.00     0.034 A 
ATOM     51  C   UNL A   1      41.238  27.956  28.964  1.00  0.00     0.034 A 
ATOM     52  C   UNL A   1      41.061  30.715  34.911  1.00  0.00     0.049 A 
ATOM     53  C   UNL A   1      42.092  27.818  30.199  1.00  0.00     0.074 A 
ATOM     54  C   UNL A   1      41.864  30.424  35.999  1.00  0.00     0.029 A 
ATOM     55  N   UNL A   1      41.505  29.917  33.864  1.00  0.00    -0.354 N 
ATOM     56  N   UNL A   1      41.972  28.423  31.360  1.00  0.00    -0.248 NA
ATOM     57  C   UNL A   1      43.216  26.878  30.124  1.00  0.00     0.031 C 
ATOM     58  C   UNL A   1      42.842  29.514  35.588  1.00  0.00     0.029 A 
ATOM     59  C   UNL A   1      42.596  29.164  34.270  1.00  0.00     0.049 A 
ATOM     60  H   UNL A   1      41.105  29.891  32.965  1.00  0.00     0.167 HD
ATOM     61  C   UNL A   1      42.985  27.906  32.163  1.00  0.00     0.074 A 
ATOM     62  C   UNL A   1      43.695  26.933  31.358  1.00  0.00     0.031 C 
ATOM     63  C   UNL A   1      43.299  28.205  33.449  1.00  0.00     0.034 A 
BRANCH  50  64
ATOM     64  C   UNL A   1      39.674  32.541  36.015  1.00  0.00     0.023 A 
ATOM     65  C   UNL A   1      38.836  32.118  37.064  1.00  0.00     0.031 A 
ATOM     66  C   UNL A   1      40.215  33.835  36.092  1.00  0.00     0.131 A 
ATOM     67  C   UNL A   1      38.504  33.005  38.098  1.00  0.00     0.055 A 
ATOM     68  C   UNL A   1      39.954  34.683  37.169  1.00  0.00     0.041 A 
ATOM     69  F   UNL A   1      41.002  34.306  35.111  1.00  0.00    -0.206 F 
ATOM     70  C   UNL A   1      39.081  34.275  38.174  1.00  0.00     0.022 A 
BRANCH  67  71
ATOM     71  S   UNL A   1      37.193  32.532  39.259  1.00  0.00     0.124 S 
ATOM     72  O   UNL A   1      37.460  33.425  40.384  1.00  0.00    -0.237 OA
ATOM     73  O   UNL A   1      35.982  32.807  38.497  1.00  0.00    -0.237 OA
ATOM     74  O   UNL A   1      37.460  31.118  39.520  1.00  0.00    -0.744 OA
ENDBRANCH  67  71
ENDBRANCH  50  64
BRANCH  51  75
ATOM     75  C   UNL A   1      41.546  27.176  27.731  1.00  0.00     0.023 A 
ATOM     76  C   UNL A   1      41.314  25.793  27.675  1.00  0.00     0.031 A 
ATOM     77  C   UNL A   1      42.114  27.793  26.601  1.00  0.00     0.131 A 
ATOM     78  C   UNL A   1      41.695  25.063  26.539  1.00  0.00     0.055 A 
ATOM     79  C   UNL A   1      42.436  27.073  25.449  1.00  0.00     0.041 A 
ATOM     80  F   UNL A   1      42.355  29.114  26.598  1.00  0.00    -0.206 F 
ATOM     81  C   UNL A   1      42.240  25.695  25.420  1.00  0.00     0.022 A 
BRANCH  78  82
ATOM     82  S   UNL A   1      41.556  23.255  26.582  1.00  0.00     0.124 S 
ATOM     83  O   UNL A   1      40.110  23.068  26.543  1.00  0.00    -0.237 OA
ATOM     84  O   UNL A   1      42.286  22.865  25.381  1.00  0.00    -0.237 OA
ATOM     85  O   UNL A   1      42.199  22.895  27.844  1.00  0.00    -0.744 OA
ENDBRANCH  78  82
ENDBRANCH  51  75
BRANCH  63  86
ATOM     86  C   UNL A   1      44.430  27.428  34.079  1.00  0.00     0.023 A 
ATOM     87  C   UNL A   1      44.239  26.147  34.623  1.00  0.00     0.031 A 
ATOM     88  C   UNL A   1      45.720  27.986  34.141  1.00  0.00     0.131 A 
ATOM     89  C   UNL A   1      45.304  25.491  35.257  1.00  0.00     0.055 A 
ATOM     90  C   UNL A   1      46.792  27.299  34.709  1.00  0.00     0.041 A 
ATOM     91  F   UNL A   1      45.960  29.209  33.641  1.00  0.00    -0.206 F 
ATOM     92  C   UNL A   1      46.585  26.049  35.285  1.00  0.00     0.022 A 
BRANCH  89  93
ATOM     93  S   UNL A   1      44.971  23.942  36.139  1.00  0.00     0.124 S 
ATOM     94  O   UNL A   1      43.636  23.600  35.658  1.00  0.00    -0.237 OA
ATOM     95  O   UNL A   1      46.055  23.080  35.678  1.00  0.00    -0.237 OA
ATOM     96  O   UNL A   1      45.044  24.327  37.548  1.00  0.00    -0.744 OA
ENDBRANCH  89  93
ENDBRANCH  63  86
ENDBRANCH  37  38
ENDBRANCH  29  32
ENDBRANCH  27  28
ENDBRANCH  26  27
ENDBRANCH   1  26
TORSDOF 19
ENDMDL
MODEL 3
REMARK VINA RESULT:     -10.2      2.230      7.923
REMARK SMILES CCC(CC)(NC(=O)N(C)C1CC[NH2+]CC1)C(=O)NCCCCNC(=O)c1ccc(-c2c3nc(c(-c4cc(S(=O)(=O)[O-])ccc4F)c4ccc([nH]4)c(-c4cc(S(=O)(=O)[O-])ccc4F)c4nc(c(-c5cc(S(=O)(=O)[O-])ccc5F)c5ccc2[nH]5)C=C4)C=C3)cc1
REMARK SMILES IDX 21 1 20 2 19 3 17 4 18 5 3 7 2 8 1 9 4 10 5 11 6 12 7 13
REMARK SMILES IDX 8 15 9 16 10 17 11 18 12 19 16 20 13 21 15 22 14 23 22 26
REMARK SMILES IDX 23 27 24 28 25 29 26 31 27 32 28 33 89 34 29 35 88 36 30 37
REMARK SMILES IDX 31 38 32 39 82 40 33 41 87 42 81 43 83 44 34 45 86 46 80 47
REMARK SMILES IDX 79 48 35 50 67 51 47 52 66 53 48 54 51 55 65 56 84 57 49 58
REMARK SMILES IDX 50 59 64 61 85 62 52 63 36 64 37 65 45 66 38 67 44 68 46 69
REMARK SMILES IDX 43 70 39 71 40 72 41 73 42 74 68 75 69 76 77 77 70 78 76 79
REMARK SMILES IDX 78 80 75 81 71 82 72 83 73 84 74 85 53 86 54 87 62 88 55 89
REMARK SMILES IDX 61 90 63 91 60 92 56 93 57 94 58 95 59 96
REMARK H PARENT 19 6 6 14 14 24 14 25 24 30 83 49 51 60
REMARK Flexibility Score: inf
ROOT
ATOM      1  C   UNL A   1      30.847  29.169  24.475  1.00  0.00     0.023 C 
ENDROOT
BRANCH   1   2
ATOM      2  C   UNL A   1      30.833  28.388  23.172  1.00  0.00     0.116 C 
BRANCH   2   3
ATOM      3  N   UNL A   1      32.128  28.245  22.519  1.00  0.00    -0.354 N 
ATOM      4  C   UNL A   1      32.995  27.187  22.421  1.00  0.00     0.245 C 
ATOM      5  O   UNL A   1      33.915  27.309  21.607  1.00  0.00    -0.272 OA
ATOM      6  H   UNL A   1      32.440  29.062  22.064  1.00  0.00     0.163 HD
BRANCH   4   7
ATOM      7  C   UNL A   1      32.751  25.851  23.194  1.00  0.00     0.120 C 
BRANCH   7   8
ATOM      8  C   UNL A   1      31.388  25.677  23.934  1.00  0.00     0.035 C 
ATOM      9  C   UNL A   1      30.441  24.594  23.434  1.00  0.00     0.007 C 
ENDBRANCH   7   8
BRANCH   7  10
ATOM     10  C   UNL A   1      33.891  25.869  24.287  1.00  0.00     0.035 C 
ATOM     11  C   UNL A   1      33.489  26.114  25.733  1.00  0.00     0.007 C 
ENDBRANCH   7  10
BRANCH   7  12
ATOM     12  N   UNL A   1      32.888  24.706  22.247  1.00  0.00    -0.323 N 
ATOM     13  C   UNL A   1      33.421  23.458  22.212  1.00  0.00     0.318 C 
ATOM     14  H   UNL A   1      32.462  24.921  21.385  1.00  0.00     0.166 HD
ATOM     15  O   UNL A   1      33.462  22.993  21.070  1.00  0.00    -0.249 OA
BRANCH  13  16
ATOM     16  N   UNL A   1      33.748  22.715  23.320  1.00  0.00    -0.324 N 
ATOM     17  C   UNL A   1      35.102  22.494  23.817  1.00  0.00     0.149 C 
BRANCH  16  18
ATOM     18  C   UNL A   1      32.695  22.096  24.212  1.00  0.00     0.097 C 
ATOM     19  C   UNL A   1      32.856  22.417  25.708  1.00  0.00     0.086 C 
ATOM     20  C   UNL A   1      32.321  20.600  24.076  1.00  0.00     0.086 C 
ATOM     21  C   UNL A   1      33.829  21.461  26.371  1.00  0.00     0.262 C 
ATOM     22  C   UNL A   1      33.139  19.645  24.949  1.00  0.00     0.262 C 
ATOM     23  N   UNL A   1      33.289  20.106  26.330  1.00  0.00    -0.346 N 
ATOM     24  H   UNL A   1      32.376  20.096  26.786  1.00  0.00     0.346 HD
ATOM     25  H   UNL A   1      33.936  19.482  26.812  1.00  0.00     0.346 HD
ENDBRANCH  16  18
ENDBRANCH  13  16
ENDBRANCH   7  12
ENDBRANCH   4   7
ENDBRANCH   2   3
ENDBRANCH   1   2
BRANCH   1  26
ATOM     26  C   UNL A   1      32.199  29.298  25.153  1.00  0.00     0.023 C 
BRANCH  26  27
ATOM     27  C   UNL A   1      32.126  29.896  26.544  1.00  0.00     0.116 C 
BRANCH  27  28
ATOM     28  N   UNL A   1      32.047  31.349  26.516  1.00  0.00    -0.352 N 
ATOM     29  C   UNL A   1      32.850  32.274  27.133  1.00  0.00     0.251 C 
ATOM     30  H   UNL A   1      31.314  31.721  25.975  1.00  0.00     0.163 HD
ATOM     31  O   UNL A   1      32.510  33.455  27.157  1.00  0.00    -0.269 OA
BRANCH  29  32
ATOM     32  C   UNL A   1      34.097  31.833  27.787  1.00  0.00     0.039 A 
ATOM     33  C   UNL A   1      35.043  32.787  28.161  1.00  0.00     0.014 A 
ATOM     34  C   UNL A   1      34.316  30.478  28.053  1.00  0.00     0.014 A 
ATOM     35  C   UNL A   1      36.182  32.385  28.858  1.00  0.00     0.010 A 
ATOM     36  C   UNL A   1      35.390  30.098  28.845  1.00  0.00     0.010 A 
ATOM     37  C   UNL A   1      36.346  31.043  29.239  1.00  0.00    -0.014 A 
BRANCH  37  38
ATOM     38  C   UNL A   1      37.526  30.599  30.021  1.00  0.00     0.031 A 
ATOM     39  C   UNL A   1      38.522  29.659  29.395  1.00  0.00     0.074 A 
ATOM     40  C   UNL A   1      37.665  30.994  31.301  1.00  0.00     0.049 A 
ATOM     41  N   UNL A   1      39.577  29.099  29.926  1.00  0.00    -0.248 NA
ATOM     42  C   UNL A   1      38.277  29.269  27.997  1.00  0.00     0.031 C 
ATOM     43  C   UNL A   1      36.740  31.871  32.022  1.00  0.00     0.029 A 
ATOM     44  N   UNL A   1      38.638  30.712  32.225  1.00  0.00    -0.354 N 
ATOM     45  C   UNL A   1      40.109  28.279  28.936  1.00  0.00     0.074 A 
ATOM     46  C   UNL A   1      39.219  28.359  27.800  1.00  0.00     0.031 C 
ATOM     47  C   UNL A   1      37.213  32.090  33.258  1.00  0.00     0.029 A 
ATOM     48  C   UNL A   1      38.442  31.326  33.441  1.00  0.00     0.049 A 
ATOM     49  H   UNL A   1      39.406  30.125  32.036  1.00  0.00     0.167 HD
ATOM     50  C   UNL A   1      41.250  27.549  28.964  1.00  0.00     0.034 A 
ATOM     51  C   UNL A   1      39.168  31.272  34.575  1.00  0.00     0.034 A 
ATOM     52  C   UNL A   1      42.133  27.499  30.103  1.00  0.00     0.049 A 
ATOM     53  C   UNL A   1      40.419  30.428  34.591  1.00  0.00     0.074 A 
ATOM     54  C   UNL A   1      43.346  26.845  30.224  1.00  0.00     0.029 A 
ATOM     55  N   UNL A   1      41.895  28.124  31.321  1.00  0.00    -0.354 N 
ATOM     56  N   UNL A   1      40.938  29.699  33.629  1.00  0.00    -0.248 NA
ATOM     57  C   UNL A   1      41.186  30.408  35.842  1.00  0.00     0.031 C 
ATOM     58  C   UNL A   1      43.799  27.004  31.537  1.00  0.00     0.029 A 
ATOM     59  C   UNL A   1      42.919  27.836  32.211  1.00  0.00     0.049 A 
ATOM     60  H   UNL A   1      41.114  28.687  31.524  1.00  0.00     0.167 HD
ATOM     61  C   UNL A   1      42.113  29.163  34.150  1.00  0.00     0.074 A 
ATOM     62  C   UNL A   1      42.230  29.666  35.504  1.00  0.00     0.031 C 
ATOM     63  C   UNL A   1      43.015  28.337  33.563  1.00  0.00     0.034 A 
BRANCH  50  64
ATOM     64  C   UNL A   1      41.584  26.727  27.742  1.00  0.00     0.023 A 
ATOM     65  C   UNL A   1      41.363  25.337  27.697  1.00  0.00     0.031 A 
ATOM     66  C   UNL A   1      42.155  27.335  26.611  1.00  0.00     0.131 A 
ATOM     67  C   UNL A   1      41.780  24.596  26.581  1.00  0.00     0.055 A 
ATOM     68  C   UNL A   1      42.486  26.606  25.468  1.00  0.00     0.041 A 
ATOM     69  F   UNL A   1      42.414  28.652  26.601  1.00  0.00    -0.206 F 
ATOM     70  C   UNL A   1      42.314  25.225  25.454  1.00  0.00     0.022 A 
BRANCH  67  71
ATOM     71  S   UNL A   1      41.756  22.785  26.686  1.00  0.00     0.124 S 
ATOM     72  O   UNL A   1      42.071  22.407  25.310  1.00  0.00    -0.237 OA
ATOM     73  O   UNL A   1      42.790  22.513  27.676  1.00  0.00    -0.237 OA
ATOM     74  O   UNL A   1      40.390  22.485  27.109  1.00  0.00    -0.744 OA
ENDBRANCH  67  71
ENDBRANCH  50  64
BRANCH  51  75
ATOM     75  C   UNL A   1      38.742  32.029  35.786  1.00  0.00     0.023 A 
ATOM     76  C   UNL A   1      38.104  31.381  36.856  1.00  0.00     0.031 A 
ATOM     77  C   UNL A   1      38.930  33.421  35.878  1.00  0.00     0.131 A 
ATOM     78  C   UNL A   1      37.630  32.127  37.946  1.00  0.00     0.055 A 
ATOM     79  C   UNL A   1      38.510  34.150  36.993  1.00  0.00     0.041 A 
ATOM     80  F   UNL A   1      39.536  34.092  34.886  1.00  0.00    -0.206 F 
ATOM     81  C   UNL A   1      37.843  33.505  38.029  1.00  0.00     0.022 A 
BRANCH  78  82
ATOM     82  S   UNL A   1      36.644  31.282  39.212  1.00  0.00     0.124 S 
ATOM     83  O   UNL A   1      35.423  32.080  39.217  1.00  0.00    -0.237 OA
ATOM     84  O   UNL A   1      36.529  29.937  38.659  1.00  0.00    -0.237 OA
ATOM     85  O   UNL A   1      37.468  31.392  40.413  1.00  0.00    -0.744 OA
ENDBRANCH  78  82
ENDBRANCH  51  75
BRANCH  63  86
ATOM     86  C   UNL A   1      44.235  27.966  34.371  1.00  0.00     0.023 A 
ATOM     87  C   UNL A   1      44.182  27.012  35.401  1.00  0.00     0.031 A 
ATOM     88  C   UNL A   1      45.471  28.584  34.106  1.00  0.00     0.131 A 
ATOM     89  C   UNL A   1      45.326  26.748  36.169  1.00  0.00     0.055 A 
ATOM     90  C   UNL A   1      46.622  28.264  34.826  1.00  0.00     0.041 A 
ATOM     91  F   UNL A   1      45.580  29.506  33.136  1.00  0.00    -0.206 F 
ATOM     92  C   UNL A   1      46.551  27.352  35.874  1.00  0.00     0.022 A 
BRANCH  89  93
ATOM     93  S   UNL A   1      45.168  25.680  37.626  1.00  0.00     0.124 S 
ATOM     94  O   UNL A   1      44.976  24.366  37.020  1.00  0.00    -0.237 OA
ATOM     95  O   UNL A   1      46.443  25.888  38.305  1.00  0.00    -0.237 OA
ATOM     96  O   UNL A   1      44.002  26.220  38.322  1.00  0.00    -0.744 OA
ENDBRANCH  89  93
ENDBRANCH  63  86
ENDBRANCH  37  38
ENDBRANCH  29  32
ENDBRANCH  27  28
ENDBRANCH  26  27
ENDBRANCH   1  26
TORSDOF 19
ENDMDL
