MODEL 1
REMARK VINA RESULT:     -12.5      0.000      0.000
REMARK SMILES N#Cc1ccc(C(F)(F)F)nc1N1CCOC[C@H]1C(=O)NCCCCNC(=O)c1ccc(-c2c3nc(c(-c4cc(S(=O)(=O)[O-])ccc4F)c4ccc([nH]4)c(-c4cc(S(=O)(=O)[O-])ccc4F)c4nc(c(-c5cc(S(=O)(=O)[O-])ccc5F)c5ccc2[nH]5)C=C4)C=C3)cc1
REMARK SMILES IDX 24 1 23 2 22 3 21 4 19 5 20 6 18 8 13 9 14 10 15 11 17 12
REMARK SMILES IDX 16 13 12 14 3 15 4 16 5 17 11 18 6 19 2 20 1 21 7 22 8 23
REMARK SMILES IDX 9 24 10 25 25 26 26 27 27 28 28 30 29 31 30 32 91 33 31 34
REMARK SMILES IDX 90 35 32 36 33 37 34 38 84 39 35 40 89 41 83 42 85 43 36 44
REMARK SMILES IDX 88 45 82 46 81 47 37 49 69 50 49 51 68 52 50 53 53 54 67 55
REMARK SMILES IDX 86 56 51 57 52 58 66 60 87 61 54 62 38 63 39 64 47 65 40 66
REMARK SMILES IDX 46 67 48 68 45 69 41 70 42 71 43 72 44 73 70 74 71 75 79 76
REMARK SMILES IDX 72 77 78 78 80 79 77 80 73 81 74 82 75 83 76 84 55 85 56 86
REMARK SMILES IDX 64 87 57 88 63 89 65 90 62 91 58 92 59 93 60 94 61 95
REMARK H PARENT 21 7 26 29 85 48 53 59
REMARK Flexibility Score: inf
ROOT
ATOM      1  C   UNL A   1      31.608  31.417  26.775  1.00  0.00     0.023 C 
ENDROOT
BRANCH   1   2
ATOM      2  C   UNL A   1      31.813  30.383  25.684  1.00  0.00     0.023 C 
BRANCH   2   3
ATOM      3  C   UNL A   1      33.103  29.568  25.815  1.00  0.00     0.116 C 
BRANCH   3   4
ATOM      4  N   UNL A   1      33.743  29.373  24.532  1.00  0.00    -0.354 N 
ATOM      5  C   UNL A   1      33.703  28.389  23.593  1.00  0.00     0.245 C 
ATOM      6  O   UNL A   1      34.378  28.627  22.578  1.00  0.00    -0.273 OA
ATOM      7  H   UNL A   1      34.339  30.116  24.282  1.00  0.00     0.163 HD
BRANCH   5   8
ATOM      8  C   UNL A   1      32.843  27.100  23.637  1.00  0.00     0.199 C 
ATOM      9  N   UNL A   1      31.722  26.978  22.675  1.00  0.00    -0.339 N 
ATOM     10  C   UNL A   1      32.053  26.467  21.351  1.00  0.00     0.147 C 
ATOM     11  C   UNL A   1      32.878  25.182  21.457  1.00  0.00     0.181 C 
ATOM     12  C   UNL A   1      33.692  25.809  23.615  1.00  0.00     0.195 C 
ATOM     13  O   UNL A   1      34.025  25.327  22.303  1.00  0.00    -0.377 OA
BRANCH   9  14
ATOM     14  C   UNL A   1      30.452  27.440  22.951  1.00  0.00     0.148 A 
ATOM     15  C   UNL A   1      29.546  26.724  23.755  1.00  0.00     0.095 A 
ATOM     16  C   UNL A   1      28.216  27.135  23.848  1.00  0.00     0.025 A 
ATOM     17  C   UNL A   1      27.815  28.290  23.202  1.00  0.00     0.035 A 
ATOM     18  N   UNL A   1      30.068  28.612  22.389  1.00  0.00    -0.225 NA
ATOM     19  C   UNL A   1      28.765  29.034  22.507  1.00  0.00     0.146 A 
BRANCH  15  20
ATOM     20  C   UNL A   1      29.942  25.597  24.551  1.00  0.00     0.103 C 
ATOM     21  N   UNL A   1      30.240  24.682  25.196  1.00  0.00    -0.192 NA
ENDBRANCH  15  20
BRANCH  19  22
ATOM     22  C   UNL A   1      28.329  30.352  21.868  1.00  0.00     0.433 C 
ATOM     23  F   UNL A   1      29.351  31.238  21.705  1.00  0.00    -0.165 F 
ATOM     24  F   UNL A   1      27.742  30.202  20.650  1.00  0.00    -0.165 F 
ATOM     25  F   UNL A   1      27.404  31.021  22.630  1.00  0.00    -0.165 F 
ENDBRANCH  19  22
ENDBRANCH   9  14
ENDBRANCH   5   8
ENDBRANCH   3   4
ENDBRANCH   2   3
ENDBRANCH   1   2
BRANCH   1  26
ATOM     26  C   UNL A   1      32.842  32.255  27.055  1.00  0.00     0.116 C 
BRANCH  26  27
ATOM     27  N   UNL A   1      32.548  33.631  27.442  1.00  0.00    -0.352 N 
ATOM     28  C   UNL A   1      33.167  34.369  28.427  1.00  0.00     0.251 C 
ATOM     29  H   UNL A   1      31.827  34.081  26.945  1.00  0.00     0.163 HD
ATOM     30  O   UNL A   1      32.737  35.469  28.751  1.00  0.00    -0.269 OA
BRANCH  28  31
ATOM     31  C   UNL A   1      34.333  33.769  29.104  1.00  0.00     0.039 A 
ATOM     32  C   UNL A   1      34.147  32.701  29.979  1.00  0.00     0.014 A 
ATOM     33  C   UNL A   1      35.619  34.199  28.764  1.00  0.00     0.014 A 
ATOM     34  C   UNL A   1      35.264  32.033  30.478  1.00  0.00     0.010 A 
ATOM     35  C   UNL A   1      36.715  33.442  29.143  1.00  0.00     0.010 A 
ATOM     36  C   UNL A   1      36.556  32.378  30.042  1.00  0.00    -0.014 A 
BRANCH  36  37
ATOM     37  C   UNL A   1      37.761  31.703  30.585  1.00  0.00     0.031 A 
ATOM     38  C   UNL A   1      38.219  32.034  31.983  1.00  0.00     0.074 A 
ATOM     39  C   UNL A   1      38.440  30.815  29.832  1.00  0.00     0.049 A 
ATOM     40  N   UNL A   1      39.251  31.579  32.646  1.00  0.00    -0.248 NA
ATOM     41  C   UNL A   1      37.435  33.038  32.723  1.00  0.00     0.031 C 
ATOM     42  C   UNL A   1      38.113  30.446  28.453  1.00  0.00     0.029 A 
ATOM     43  N   UNL A   1      39.540  30.050  30.127  1.00  0.00    -0.354 N 
ATOM     44  C   UNL A   1      39.233  32.239  33.869  1.00  0.00     0.074 A 
ATOM     45  C   UNL A   1      38.158  33.202  33.816  1.00  0.00     0.031 C 
ATOM     46  C   UNL A   1      38.957  29.484  28.044  1.00  0.00     0.029 A 
ATOM     47  C   UNL A   1      39.917  29.207  29.107  1.00  0.00     0.049 A 
ATOM     48  H   UNL A   1      40.015  30.100  30.988  1.00  0.00     0.167 HD
ATOM     49  C   UNL A   1      40.009  32.031  34.960  1.00  0.00     0.034 A 
ATOM     50  C   UNL A   1      40.924  28.313  29.044  1.00  0.00     0.034 A 
ATOM     51  C   UNL A   1      41.072  31.062  35.002  1.00  0.00     0.049 A 
ATOM     52  C   UNL A   1      41.812  28.141  30.253  1.00  0.00     0.074 A 
ATOM     53  C   UNL A   1      41.914  30.752  36.054  1.00  0.00     0.029 A 
ATOM     54  N   UNL A   1      41.443  30.245  33.941  1.00  0.00    -0.354 N 
ATOM     55  N   UNL A   1      41.757  28.748  31.418  1.00  0.00    -0.248 NA
ATOM     56  C   UNL A   1      42.886  27.147  30.144  1.00  0.00     0.031 C 
ATOM     57  C   UNL A   1      42.843  29.809  35.606  1.00  0.00     0.029 A 
ATOM     58  C   UNL A   1      42.517  29.451  34.307  1.00  0.00     0.049 A 
ATOM     59  H   UNL A   1      41.006  30.232  33.058  1.00  0.00     0.167 HD
ATOM     60  C   UNL A   1      42.757  28.168  32.195  1.00  0.00     0.074 A 
ATOM     61  C   UNL A   1      43.381  27.153  31.371  1.00  0.00     0.031 C 
ATOM     62  C   UNL A   1      43.127  28.443  33.473  1.00  0.00     0.034 A 
BRANCH  49  63
ATOM     63  C   UNL A   1      39.736  32.881  36.178  1.00  0.00     0.023 A 
ATOM     64  C   UNL A   1      38.962  32.403  37.252  1.00  0.00     0.031 A 
ATOM     65  C   UNL A   1      40.225  34.196  36.257  1.00  0.00     0.131 A 
ATOM     66  C   UNL A   1      38.635  33.256  38.316  1.00  0.00     0.055 A 
ATOM     67  C   UNL A   1      39.975  35.009  37.365  1.00  0.00     0.041 A 
ATOM     68  F   UNL A   1      40.942  34.720  35.251  1.00  0.00    -0.206 F 
ATOM     69  C   UNL A   1      39.163  34.546  38.395  1.00  0.00     0.022 A 
BRANCH  66  70
ATOM     70  S   UNL A   1      37.380  32.710  39.506  1.00  0.00     0.124 S 
ATOM     71  O   UNL A   1      36.169  32.735  38.689  1.00  0.00    -0.237 OA
ATOM     72  O   UNL A   1      37.863  31.391  39.894  1.00  0.00    -0.237 OA
ATOM     73  O   UNL A   1      37.436  33.729  40.553  1.00  0.00    -0.744 OA
ENDBRANCH  66  70
ENDBRANCH  49  63
BRANCH  50  74
ATOM     74  C   UNL A   1      41.158  27.503  27.810  1.00  0.00     0.023 A 
ATOM     75  C   UNL A   1      40.863  26.131  27.778  1.00  0.00     0.031 A 
ATOM     76  C   UNL A   1      41.762  28.069  26.673  1.00  0.00     0.131 A 
ATOM     77  C   UNL A   1      41.243  25.356  26.671  1.00  0.00     0.055 A 
ATOM     78  C   UNL A   1      42.070  27.308  25.543  1.00  0.00     0.041 A 
ATOM     79  F   UNL A   1      42.069  29.376  26.645  1.00  0.00    -0.206 F 
ATOM     80  C   UNL A   1      41.830  25.939  25.546  1.00  0.00     0.022 A 
BRANCH  77  81
ATOM     81  S   UNL A   1      41.089  23.551  26.783  1.00  0.00     0.124 S 
ATOM     82  O   UNL A   1      41.506  23.305  28.158  1.00  0.00    -0.237 OA
ATOM     83  O   UNL A   1      39.673  23.350  26.494  1.00  0.00    -0.237 OA
ATOM     84  O   UNL A   1      42.009  23.069  25.754  1.00  0.00    -0.744 OA
ENDBRANCH  77  81
ENDBRANCH  50  74
BRANCH  62  85
ATOM     85  C   UNL A   1      44.209  27.576  34.077  1.00  0.00     0.023 A 
ATOM     86  C   UNL A   1      43.923  26.336  34.674  1.00  0.00     0.031 A 
ATOM     87  C   UNL A   1      45.543  28.024  34.097  1.00  0.00     0.131 A 
ATOM     88  C   UNL A   1      44.934  25.639  35.352  1.00  0.00     0.055 A 
ATOM     89  C   UNL A   1      46.561  27.279  34.690  1.00  0.00     0.041 A 
ATOM     90  F   UNL A   1      45.878  29.202  33.546  1.00  0.00    -0.206 F 
ATOM     91  C   UNL A   1      46.255  26.090  35.345  1.00  0.00     0.022 A 
BRANCH  88  92
ATOM     92  S   UNL A   1      44.462  24.223  36.384  1.00  0.00     0.124 S 
ATOM     93  O   UNL A   1      45.698  23.446  36.411  1.00  0.00    -0.237 OA
ATOM     94  O   UNL A   1      44.085  24.863  37.639  1.00  0.00    -0.237 OA
ATOM     95  O   UNL A   1      43.360  23.612  35.643  1.00  0.00    -0.744 OA
ENDBRANCH  88  92
ENDBRANCH  62  85
ENDBRANCH  36  37
ENDBRANCH  28  31
ENDBRANCH  26  27
ENDBRANCH   1  26
TORSDOF 17
ENDMDL
MODEL 2
REMARK VINA RESULT:     -12.3      1.280      1.565
REMARK SMILES N#Cc1ccc(C(F)(F)F)nc1N1CCOC[C@H]1C(=O)NCCCCNC(=O)c1ccc(-c2c3nc(c(-c4cc(S(=O)(=O)[O-])ccc4F)c4ccc([nH]4)c(-c4cc(S(=O)(=O)[O-])ccc4F)c4nc(c(-c5cc(S(=O)(=O)[O-])ccc5F)c5ccc2[nH]5)C=C4)C=C3)cc1
REMARK SMILES IDX 24 1 23 2 22 3 21 4 19 5 20 6 18 8 13 9 14 10 15 11 17 12
REMARK SMILES IDX 16 13 12 14 3 15 4 16 5 17 11 18 6 19 2 20 1 21 7 22 8 23
REMARK SMILES IDX 9 24 10 25 25 26 26 27 27 28 28 30 29 31 30 32 91 33 31 34
REMARK SMILES IDX 90 35 32 36 33 37 34 38 84 39 35 40 89 41 83 42 85 43 36 44
REMARK SMILES IDX 88 45 82 46 81 47 37 49 69 50 49 51 68 52 50 53 53 54 67 55
REMARK SMILES IDX 86 56 51 57 52 58 66 60 87 61 54 62 38 63 39 64 47 65 40 66
REMARK SMILES IDX 46 67 48 68 45 69 41 70 42 71 43 72 44 73 70 74 71 75 79 76
REMARK SMILES IDX 72 77 78 78 80 79 77 80 73 81 74 82 75 83 76 84 55 85 56 86
REMARK SMILES IDX 64 87 57 88 63 89 65 90 62 91 58 92 59 93 60 94 61 95
REMARK H PARENT 21 7 26 29 85 48 53 59
REMARK Flexibility Score: inf
ROOT
ATOM      1  C   UNL A   1      31.573  31.338  26.692  1.00  0.00     0.023 C 
ENDROOT
BRANCH   1   2
ATOM      2  C   UNL A   1      31.829  30.181  25.745  1.00  0.00     0.023 C 
BRANCH   2   3
ATOM      3  C   UNL A   1      33.249  29.609  25.811  1.00  0.00     0.116 C 
BRANCH   3   4
ATOM      4  N   UNL A   1      33.803  29.406  24.490  1.00  0.00    -0.354 N 
ATOM      5  C   UNL A   1      33.709  28.413  23.565  1.00  0.00     0.245 C 
ATOM      6  O   UNL A   1      34.313  28.646  22.505  1.00  0.00    -0.273 OA
ATOM      7  H   UNL A   1      34.376  30.151  24.195  1.00  0.00     0.163 HD
BRANCH   5   8
ATOM      8  C   UNL A   1      32.864  27.118  23.678  1.00  0.00     0.199 C 
ATOM      9  N   UNL A   1      31.739  26.937  22.729  1.00  0.00    -0.339 N 
ATOM     10  C   UNL A   1      32.068  26.365  21.431  1.00  0.00     0.147 C 
ATOM     11  C   UNL A   1      32.909  25.095  21.594  1.00  0.00     0.181 C 
ATOM     12  C   UNL A   1      33.728  25.837  23.714  1.00  0.00     0.195 C 
ATOM     13  O   UNL A   1      34.059  25.295  22.425  1.00  0.00    -0.377 OA
BRANCH   9  14
ATOM     14  C   UNL A   1      30.466  27.398  22.991  1.00  0.00     0.148 A 
ATOM     15  C   UNL A   1      29.554  26.685  23.791  1.00  0.00     0.095 A 
ATOM     16  C   UNL A   1      28.222  27.093  23.869  1.00  0.00     0.025 A 
ATOM     17  C   UNL A   1      27.824  28.243  23.211  1.00  0.00     0.035 A 
ATOM     18  N   UNL A   1      30.084  28.564  22.417  1.00  0.00    -0.225 NA
ATOM     19  C   UNL A   1      28.779  28.984  22.520  1.00  0.00     0.146 A 
BRANCH  15  20
ATOM     20  C   UNL A   1      29.946  25.565  24.599  1.00  0.00     0.103 C 
ATOM     21  N   UNL A   1      30.261  24.675  25.270  1.00  0.00    -0.192 NA
ENDBRANCH  15  20
BRANCH  19  22
ATOM     22  C   UNL A   1      28.345  30.296  21.867  1.00  0.00     0.433 C 
ATOM     23  F   UNL A   1      27.397  30.966  22.581  1.00  0.00    -0.165 F 
ATOM     24  F   UNL A   1      29.369  31.168  21.658  1.00  0.00    -0.165 F 
ATOM     25  F   UNL A   1      27.783  30.105  20.631  1.00  0.00    -0.165 F 
ENDBRANCH  19  22
ENDBRANCH   9  14
ENDBRANCH   5   8
ENDBRANCH   3   4
ENDBRANCH   2   3
ENDBRANCH   1   2
BRANCH   1  26
ATOM     26  C   UNL A   1      32.813  32.160  26.995  1.00  0.00     0.116 C 
BRANCH  26  27
ATOM     27  N   UNL A   1      32.531  33.546  27.354  1.00  0.00    -0.352 N 
ATOM     28  C   UNL A   1      33.155  34.297  28.326  1.00  0.00     0.251 C 
ATOM     29  H   UNL A   1      31.816  33.994  26.847  1.00  0.00     0.163 HD
ATOM     30  O   UNL A   1      32.735  35.407  28.627  1.00  0.00    -0.269 OA
BRANCH  28  31
ATOM     31  C   UNL A   1      34.313  33.699  29.019  1.00  0.00     0.039 A 
ATOM     32  C   UNL A   1      34.120  32.616  29.874  1.00  0.00     0.014 A 
ATOM     33  C   UNL A   1      35.601  34.147  28.712  1.00  0.00     0.014 A 
ATOM     34  C   UNL A   1      35.234  31.952  30.385  1.00  0.00     0.010 A 
ATOM     35  C   UNL A   1      36.697  33.395  29.103  1.00  0.00     0.010 A 
ATOM     36  C   UNL A   1      36.530  32.317  29.981  1.00  0.00    -0.014 A 
BRANCH  36  37
ATOM     37  C   UNL A   1      37.731  31.646  30.540  1.00  0.00     0.031 A 
ATOM     38  C   UNL A   1      38.164  31.969  31.947  1.00  0.00     0.074 A 
ATOM     39  C   UNL A   1      38.429  30.768  29.792  1.00  0.00     0.049 A 
ATOM     40  N   UNL A   1      39.188  31.516  32.623  1.00  0.00    -0.248 NA
ATOM     41  C   UNL A   1      37.360  32.962  32.681  1.00  0.00     0.031 C 
ATOM     42  C   UNL A   1      38.127  30.407  28.404  1.00  0.00     0.029 A 
ATOM     43  N   UNL A   1      39.529  30.009  30.099  1.00  0.00    -0.354 N 
ATOM     44  C   UNL A   1      39.145  32.168  33.851  1.00  0.00     0.074 A 
ATOM     45  C   UNL A   1      38.064  33.123  33.787  1.00  0.00     0.031 C 
ATOM     46  C   UNL A   1      38.984  29.454  28.002  1.00  0.00     0.029 A 
ATOM     47  C   UNL A   1      39.929  29.176  29.079  1.00  0.00     0.049 A 
ATOM     48  H   UNL A   1      39.989  30.056  30.967  1.00  0.00     0.167 HD
ATOM     49  C   UNL A   1      39.904  31.957  34.953  1.00  0.00     0.034 A 
ATOM     50  C   UNL A   1      40.943  28.289  29.026  1.00  0.00     0.034 A 
ATOM     51  C   UNL A   1      40.974  30.995  35.006  1.00  0.00     0.049 A 
ATOM     52  C   UNL A   1      41.812  28.114  30.249  1.00  0.00     0.074 A 
ATOM     53  C   UNL A   1      41.800  30.682  36.069  1.00  0.00     0.029 A 
ATOM     54  N   UNL A   1      41.368  30.188  33.945  1.00  0.00    -0.354 N 
ATOM     55  N   UNL A   1      41.734  28.712  31.416  1.00  0.00    -0.248 NA
ATOM     56  C   UNL A   1      42.894  27.129  30.150  1.00  0.00     0.031 C 
ATOM     57  C   UNL A   1      42.743  29.749  35.629  1.00  0.00     0.029 A 
ATOM     58  C   UNL A   1      42.441  29.399  34.323  1.00  0.00     0.049 A 
ATOM     59  H   UNL A   1      40.945  30.178  33.055  1.00  0.00     0.167 HD
ATOM     60  C   UNL A   1      42.725  28.133  32.205  1.00  0.00     0.074 A 
ATOM     61  C   UNL A   1      43.369  27.129  31.384  1.00  0.00     0.031 C 
ATOM     62  C   UNL A   1      43.072  28.401  33.491  1.00  0.00     0.034 A 
BRANCH  49  63
ATOM     63  C   UNL A   1      39.606  32.795  36.173  1.00  0.00     0.023 A 
ATOM     64  C   UNL A   1      40.257  34.023  36.400  1.00  0.00     0.031 A 
ATOM     65  C   UNL A   1      38.687  32.353  37.139  1.00  0.00     0.131 A 
ATOM     66  C   UNL A   1      40.039  34.721  37.597  1.00  0.00     0.055 A 
ATOM     67  C   UNL A   1      38.403  33.101  38.284  1.00  0.00     0.041 A 
ATOM     68  F   UNL A   1      38.058  31.175  36.994  1.00  0.00    -0.206 F 
ATOM     69  C   UNL A   1      39.093  34.285  38.525  1.00  0.00     0.022 A 
BRANCH  66  70
ATOM     70  S   UNL A   1      41.129  36.116  37.993  1.00  0.00     0.124 S 
ATOM     71  O   UNL A   1      41.957  36.192  36.792  1.00  0.00    -0.237 OA
ATOM     72  O   UNL A   1      40.186  37.210  38.190  1.00  0.00    -0.237 OA
ATOM     73  O   UNL A   1      41.830  35.670  39.197  1.00  0.00    -0.744 OA
ENDBRANCH  66  70
ENDBRANCH  49  63
BRANCH  50  74
ATOM     74  C   UNL A   1      41.203  27.490  27.790  1.00  0.00     0.023 A 
ATOM     75  C   UNL A   1      40.924  26.115  27.745  1.00  0.00     0.031 A 
ATOM     76  C   UNL A   1      41.816  28.070  26.665  1.00  0.00     0.131 A 
ATOM     77  C   UNL A   1      41.328  25.352  26.638  1.00  0.00     0.055 A 
ATOM     78  C   UNL A   1      42.147  27.321  25.535  1.00  0.00     0.041 A 
ATOM     79  F   UNL A   1      42.108  29.381  26.649  1.00  0.00    -0.206 F 
ATOM     80  C   UNL A   1      41.923  25.949  25.526  1.00  0.00     0.022 A 
BRANCH  77  81
ATOM     81  S   UNL A   1      41.193  23.545  26.736  1.00  0.00     0.124 S 
ATOM     82  O   UNL A   1      41.578  23.295  28.120  1.00  0.00    -0.237 OA
ATOM     83  O   UNL A   1      39.787  23.328  26.411  1.00  0.00    -0.237 OA
ATOM     84  O   UNL A   1      42.144  23.079  25.728  1.00  0.00    -0.744 OA
ENDBRANCH  77  81
ENDBRANCH  50  74
BRANCH  62  85
ATOM     85  C   UNL A   1      44.149  27.537  34.107  1.00  0.00     0.023 A 
ATOM     86  C   UNL A   1      43.864  26.288  34.684  1.00  0.00     0.031 A 
ATOM     87  C   UNL A   1      45.479  27.997  34.158  1.00  0.00     0.131 A 
ATOM     88  C   UNL A   1      44.867  25.592  35.374  1.00  0.00     0.055 A 
ATOM     89  C   UNL A   1      46.492  27.254  34.763  1.00  0.00     0.041 A 
ATOM     90  F   UNL A   1      45.813  29.184  33.627  1.00  0.00    -0.206 F 
ATOM     91  C   UNL A   1      46.184  26.055  35.398  1.00  0.00     0.022 A 
BRANCH  88  92
ATOM     92  S   UNL A   1      44.389  24.160  36.380  1.00  0.00     0.124 S 
ATOM     93  O   UNL A   1      44.223  24.762  37.700  1.00  0.00    -0.237 OA
ATOM     94  O   UNL A   1      43.164  23.714  35.726  1.00  0.00    -0.237 OA
ATOM     95  O   UNL A   1      45.529  23.254  36.249  1.00  0.00    -0.744 OA
ENDBRANCH  88  92
ENDBRANCH  62  85
ENDBRANCH  36  37
ENDBRANCH  28  31
ENDBRANCH  26  27
ENDBRANCH   1  26
TORSDOF 17
ENDMDL
MODEL 3
REMARK VINA RESULT:     -11.9      1.527      7.621
REMARK SMILES N#Cc1ccc(C(F)(F)F)nc1N1CCOC[C@H]1C(=O)NCCCCNC(=O)c1ccc(-c2c3nc(c(-c4cc(S(=O)(=O)[O-])ccc4F)c4ccc([nH]4)c(-c4cc(S(=O)(=O)[O-])ccc4F)c4nc(c(-c5cc(S(=O)(=O)[O-])ccc5F)c5ccc2[nH]5)C=C4)C=C3)cc1
REMARK SMILES IDX 24 1 23 2 22 3 21 4 19 5 20 6 18 8 13 9 14 10 15 11 17 12
REMARK SMILES IDX 16 13 12 14 3 15 4 16 5 17 11 18 6 19 2 20 1 21 7 22 8 23
REMARK SMILES IDX 9 24 10 25 25 26 26 27 27 28 28 30 29 31 30 32 91 33 31 34
REMARK SMILES IDX 90 35 32 36 33 37 34 38 84 39 35 40 89 41 83 42 85 43 36 44
REMARK SMILES IDX 88 45 82 46 81 47 37 49 69 50 49 51 68 52 50 53 53 54 67 55
REMARK SMILES IDX 86 56 51 57 52 58 66 60 87 61 54 62 38 63 39 64 47 65 40 66
REMARK SMILES IDX 46 67 48 68 45 69 41 70 42 71 43 72 44 73 70 74 71 75 79 76
REMARK SMILES IDX 72 77 78 78 80 79 77 80 73 81 74 82 75 83 76 84 55 85 56 86
REMARK SMILES IDX 64 87 57 88 63 89 65 90 62 91 58 92 59 93 60 94 61 95
REMARK H PARENT 21 7 26 29 85 48 53 59
REMARK Flexibility Score: inf
ROOT
ATOM      1  C   UNL A   1      31.398  31.572  26.507  1.00  0.00     0.023 C 
ENDROOT
BRANCH   1   2
ATOM      2  C   UNL A   1      31.629  30.389  25.584  1.00  0.00     0.023 C 
BRANCH   2   3
ATOM      3  C   UNL A   1      32.963  29.667  25.799  1.00  0.00     0.116 C 
BRANCH   3   4
ATOM      4  N   UNL A   1      33.661  29.453  24.550  1.00  0.00    -0.354 N 
ATOM      5  C   UNL A   1      33.664  28.454  23.627  1.00  0.00     0.245 C 
ATOM      6  O   UNL A   1      34.384  28.676  22.639  1.00  0.00    -0.273 OA
ATOM      7  H   UNL A   1      34.267  30.193  24.316  1.00  0.00     0.163 HD
BRANCH   5   8
ATOM      8  C   UNL A   1      32.805  27.164  23.653  1.00  0.00     0.199 C 
ATOM      9  N   UNL A   1      31.698  27.045  22.672  1.00  0.00    -0.339 N 
ATOM     10  C   UNL A   1      32.051  26.538  21.352  1.00  0.00     0.147 C 
ATOM     11  C   UNL A   1      32.875  25.254  21.466  1.00  0.00     0.181 C 
ATOM     12  C   UNL A   1      33.654  25.873  23.639  1.00  0.00     0.195 C 
ATOM     13  O   UNL A   1      34.009  25.397  22.331  1.00  0.00    -0.377 OA
BRANCH   9  14
ATOM     14  C   UNL A   1      30.425  27.505  22.930  1.00  0.00     0.148 A 
ATOM     15  C   UNL A   1      29.505  26.784  23.714  1.00  0.00     0.095 A 
ATOM     16  C   UNL A   1      28.174  27.194  23.787  1.00  0.00     0.025 A 
ATOM     17  C   UNL A   1      27.783  28.354  23.142  1.00  0.00     0.035 A 
ATOM     18  N   UNL A   1      30.050  28.680  22.369  1.00  0.00    -0.225 NA
ATOM     19  C   UNL A   1      28.746  29.102  22.468  1.00  0.00     0.146 A 
BRANCH  15  20
ATOM     20  C   UNL A   1      29.888  25.652  24.510  1.00  0.00     0.103 C 
ATOM     21  N   UNL A   1      30.208  24.753  25.166  1.00  0.00    -0.192 NA
ENDBRANCH  15  20
BRANCH  19  22
ATOM     22  C   UNL A   1      28.319  30.424  21.830  1.00  0.00     0.433 C 
ATOM     23  F   UNL A   1      29.344  31.312  21.693  1.00  0.00    -0.165 F 
ATOM     24  F   UNL A   1      27.755  30.282  20.601  1.00  0.00    -0.165 F 
ATOM     25  F   UNL A   1      27.380  31.087  22.579  1.00  0.00    -0.165 F 
ENDBRANCH  19  22
ENDBRANCH   9  14
ENDBRANCH   5   8
ENDBRANCH   3   4
ENDBRANCH   2   3
ENDBRANCH   1   2
BRANCH   1  26
ATOM     26  C   UNL A   1      32.673  32.303  26.887  1.00  0.00     0.116 C 
BRANCH  26  27
ATOM     27  N   UNL A   1      32.459  33.677  27.327  1.00  0.00    -0.352 N 
ATOM     28  C   UNL A   1      33.147  34.353  28.310  1.00  0.00     0.251 C 
ATOM     29  H   UNL A   1      31.743  34.176  26.872  1.00  0.00     0.163 HD
ATOM     30  O   UNL A   1      32.781  35.461  28.684  1.00  0.00    -0.269 OA
BRANCH  28  31
ATOM     31  C   UNL A   1      34.307  33.678  28.925  1.00  0.00     0.039 A 
ATOM     32  C   UNL A   1      35.565  34.271  28.857  1.00  0.00     0.014 A 
ATOM     33  C   UNL A   1      34.104  32.514  29.673  1.00  0.00     0.014 A 
ATOM     34  C   UNL A   1      36.615  33.715  29.585  1.00  0.00     0.010 A 
ATOM     35  C   UNL A   1      35.111  32.055  30.507  1.00  0.00     0.010 A 
ATOM     36  C   UNL A   1      36.391  32.621  30.439  1.00  0.00    -0.014 A 
BRANCH  36  37
ATOM     37  C   UNL A   1      37.502  31.991  31.197  1.00  0.00     0.031 A 
ATOM     38  C   UNL A   1      38.378  30.976  30.507  1.00  0.00     0.074 A 
ATOM     39  C   UNL A   1      37.713  32.317  32.487  1.00  0.00     0.049 A 
ATOM     40  N   UNL A   1      39.386  30.293  30.983  1.00  0.00    -0.248 NA
ATOM     41  C   UNL A   1      38.054  30.659  29.105  1.00  0.00     0.031 C 
ATOM     42  C   UNL A   1      36.906  33.256  33.270  1.00  0.00     0.029 A 
ATOM     43  N   UNL A   1      38.683  31.904  33.365  1.00  0.00    -0.354 N 
ATOM     44  C   UNL A   1      39.810  29.475  29.942  1.00  0.00     0.074 A 
ATOM     45  C   UNL A   1      38.886  29.665  28.849  1.00  0.00     0.031 C 
ATOM     46  C   UNL A   1      37.449  33.390  34.491  1.00  0.00     0.029 A 
ATOM     47  C   UNL A   1      38.607  32.509  34.599  1.00  0.00     0.049 A 
ATOM     48  H   UNL A   1      39.369  31.237  33.134  1.00  0.00     0.167 HD
ATOM     49  C   UNL A   1      40.900  28.673  29.880  1.00  0.00     0.034 A 
ATOM     50  C   UNL A   1      39.388  32.366  35.688  1.00  0.00     0.034 A 
ATOM     51  C   UNL A   1      41.818  28.499  30.975  1.00  0.00     0.049 A 
ATOM     52  C   UNL A   1      40.564  31.421  35.613  1.00  0.00     0.074 A 
ATOM     53  C   UNL A   1      42.964  27.726  31.024  1.00  0.00     0.029 A 
ATOM     54  N   UNL A   1      41.695  29.107  32.218  1.00  0.00    -0.354 N 
ATOM     55  N   UNL A   1      40.973  30.682  34.607  1.00  0.00    -0.248 NA
ATOM     56  C   UNL A   1      41.393  31.307  36.818  1.00  0.00     0.031 C 
ATOM     57  C   UNL A   1      43.486  27.802  32.318  1.00  0.00     0.029 A 
ATOM     58  C   UNL A   1      42.728  28.706  33.047  1.00  0.00     0.049 A 
ATOM     59  H   UNL A   1      40.977  29.733  32.472  1.00  0.00     0.167 HD
ATOM     60  C   UNL A   1      42.139  30.058  35.045  1.00  0.00     0.074 A 
ATOM     61  C   UNL A   1      42.373  30.526  36.395  1.00  0.00     0.031 C 
ATOM     62  C   UNL A   1      42.947  29.182  34.393  1.00  0.00     0.034 A 
BRANCH  49  63
ATOM     63  C   UNL A   1      41.136  27.920  28.592  1.00  0.00     0.023 A 
ATOM     64  C   UNL A   1      40.793  26.561  28.460  1.00  0.00     0.031 A 
ATOM     65  C   UNL A   1      41.742  28.553  27.494  1.00  0.00     0.131 A 
ATOM     66  C   UNL A   1      41.128  25.864  27.290  1.00  0.00     0.055 A 
ATOM     67  C   UNL A   1      41.986  27.877  26.297  1.00  0.00     0.041 A 
ATOM     68  F   UNL A   1      42.121  29.839  27.570  1.00  0.00    -0.206 F 
ATOM     69  C   UNL A   1      41.692  26.520  26.195  1.00  0.00     0.022 A 
BRANCH  66  70
ATOM     70  S   UNL A   1      40.965  24.058  27.284  1.00  0.00     0.124 S 
ATOM     71  O   UNL A   1      39.514  23.894  27.234  1.00  0.00    -0.237 OA
ATOM     72  O   UNL A   1      41.692  23.677  26.080  1.00  0.00    -0.237 OA
ATOM     73  O   UNL A   1      41.587  23.655  28.544  1.00  0.00    -0.744 OA
ENDBRANCH  66  70
ENDBRANCH  49  63
BRANCH  50  74
ATOM     74  C   UNL A   1      39.105  33.127  36.943  1.00  0.00     0.023 A 
ATOM     75  C   UNL A   1      39.701  34.376  37.182  1.00  0.00     0.031 A 
ATOM     76  C   UNL A   1      38.307  32.578  37.962  1.00  0.00     0.131 A 
ATOM     77  C   UNL A   1      39.554  34.996  38.432  1.00  0.00     0.055 A 
ATOM     78  C   UNL A   1      38.103  33.234  39.177  1.00  0.00     0.041 A 
ATOM     79  F   UNL A   1      37.712  31.385  37.792  1.00  0.00    -0.206 F 
ATOM     80  C   UNL A   1      38.746  34.441  39.426  1.00  0.00     0.022 A 
BRANCH  77  81
ATOM     81  S   UNL A   1      40.554  36.468  38.791  1.00  0.00     0.124 S 
ATOM     82  O   UNL A   1      41.023  36.183  40.142  1.00  0.00    -0.237 OA
ATOM     83  O   UNL A   1      41.560  36.415  37.736  1.00  0.00    -0.237 OA
ATOM     84  O   UNL A   1      39.593  37.565  38.681  1.00  0.00    -0.744 OA
ENDBRANCH  77  81
ENDBRANCH  50  74
BRANCH  62  85
ATOM     85  C   UNL A   1      44.201  28.737  35.112  1.00  0.00     0.023 A 
ATOM     86  C   UNL A   1      44.206  27.643  35.994  1.00  0.00     0.031 A 
ATOM     87  C   UNL A   1      45.401  29.453  34.945  1.00  0.00     0.131 A 
ATOM     88  C   UNL A   1      45.353  27.361  36.750  1.00  0.00     0.055 A 
ATOM     89  C   UNL A   1      46.566  29.107  35.629  1.00  0.00     0.041 A 
ATOM     90  F   UNL A   1      45.459  30.510  34.118  1.00  0.00    -0.206 F 
ATOM     91  C   UNL A   1      46.540  28.071  36.557  1.00  0.00     0.022 A 
BRANCH  88  92
ATOM     92  S   UNL A   1      45.220  26.164  38.107  1.00  0.00     0.124 S 
ATOM     93  O   UNL A   1      44.738  24.974  37.411  1.00  0.00    -0.237 OA
ATOM     94  O   UNL A   1      46.590  26.101  38.602  1.00  0.00    -0.237 OA
ATOM     95  O   UNL A   1      44.258  26.784  39.016  1.00  0.00    -0.744 OA
ENDBRANCH  88  92
ENDBRANCH  62  85
ENDBRANCH  36  37
ENDBRANCH  28  31
ENDBRANCH  26  27
ENDBRANCH   1  26
TORSDOF 17
ENDMDL
