MODEL 1
REMARK VINA RESULT:     -11.9      0.000      0.000
REMARK SMILES O=C(NCCCCNC(=O)c1cnc(-c2ccccc2Cl)nc1)c1ccc(-c2c3nc(c(-c4cc(S(=O)(=O)[O-])ccc4F)c4ccc([nH]4)c(-c4cc(S(=O)(=O)[O-])ccc4F)c4nc(c(-c5cc(S(=O)(=O)[O-])ccc5F)c5ccc2[nH]5)C=C4)C=C3)cc1
REMARK SMILES IDX 4 1 3 2 1 3 2 4 24 6 25 7 86 8 26 9 85 10 27 11 28 12 29 13
REMARK SMILES IDX 79 14 30 15 84 16 78 17 80 18 31 19 83 20 77 21 76 22 32 24
REMARK SMILES IDX 64 25 44 26 63 27 45 28 48 29 62 30 81 31 46 32 47 33 61 35
REMARK SMILES IDX 82 36 49 37 33 38 34 39 42 40 35 41 41 42 43 43 40 44 36 45
REMARK SMILES IDX 37 46 38 47 39 48 65 49 66 50 74 51 67 52 73 53 75 54 72 55
REMARK SMILES IDX 68 56 69 57 70 58 71 59 50 60 51 61 59 62 52 63 58 64 60 65
REMARK SMILES IDX 57 66 53 67 54 68 55 69 56 70 5 71 6 72 7 73 8 74 9 75 10 77
REMARK SMILES IDX 11 78 12 79 23 80 13 81 22 82 14 83 15 84 16 85 20 86 17 87
REMARK SMILES IDX 19 88 21 89 18 90
REMARK H PARENT 3 5 80 23 48 34 8 76
REMARK Flexibility Score: inf
ROOT
ATOM      1  C   UNL A   1      32.926  29.758  25.917  1.00  0.00     0.116 C 
ENDROOT
BRANCH   1   2
ATOM      2  N   UNL A   1      32.593  31.118  26.315  1.00  0.00    -0.352 N 
ATOM      3  O   UNL A   1      32.761  33.030  27.504  1.00  0.00    -0.269 OA
ATOM      4  C   UNL A   1      33.254  31.950  27.190  1.00  0.00     0.251 C 
ATOM      5  H   UNL A   1      31.782  31.495  25.901  1.00  0.00     0.163 HD
BRANCH   4   6
ATOM      6  C   UNL A   1      34.545  31.519  27.768  1.00  0.00     0.039 A 
ATOM      7  C   UNL A   1      34.708  30.214  28.231  1.00  0.00     0.014 A 
ATOM      8  C   UNL A   1      35.590  32.441  27.882  1.00  0.00     0.014 A 
ATOM      9  C   UNL A   1      35.841  29.880  28.962  1.00  0.00     0.010 A 
ATOM     10  C   UNL A   1      36.775  32.068  28.526  1.00  0.00     0.010 A 
ATOM     11  C   UNL A   1      36.896  30.796  29.104  1.00  0.00    -0.014 A 
BRANCH  11  12
ATOM     12  C   UNL A   1      38.131  30.368  29.815  1.00  0.00     0.031 A 
ATOM     13  C   UNL A   1      38.412  30.803  31.228  1.00  0.00     0.074 A 
ATOM     14  C   UNL A   1      38.983  29.539  29.179  1.00  0.00     0.049 A 
ATOM     15  N   UNL A   1      39.432  30.504  31.994  1.00  0.00    -0.248 NA
ATOM     16  C   UNL A   1      37.431  31.696  31.859  1.00  0.00     0.031 C 
ATOM     17  C   UNL A   1      38.810  29.051  27.807  1.00  0.00     0.029 A 
ATOM     18  N   UNL A   1      40.143  28.941  29.598  1.00  0.00    -0.354 N 
ATOM     19  C   UNL A   1      39.225  31.181  33.192  1.00  0.00     0.074 A 
ATOM     20  C   UNL A   1      38.000  31.937  33.033  1.00  0.00     0.031 C 
ATOM     21  C   UNL A   1      39.792  28.186  27.521  1.00  0.00     0.029 A 
ATOM     22  C   UNL A   1      40.711  28.122  28.650  1.00  0.00     0.049 A 
ATOM     23  H   UNL A   1      40.532  29.084  30.491  1.00  0.00     0.167 HD
ATOM     24  C   UNL A   1      39.982  31.165  34.318  1.00  0.00     0.034 A 
ATOM     25  C   UNL A   1      41.858  27.417  28.671  1.00  0.00     0.034 A 
ATOM     26  C   UNL A   1      41.204  30.404  34.454  1.00  0.00     0.049 A 
ATOM     27  C   UNL A   1      42.709  27.463  29.911  1.00  0.00     0.074 A 
ATOM     28  C   UNL A   1      42.036  30.295  35.557  1.00  0.00     0.029 A 
ATOM     29  N   UNL A   1      41.781  29.632  33.451  1.00  0.00    -0.354 N 
ATOM     30  N   UNL A   1      42.489  28.097  31.041  1.00  0.00    -0.248 NA
ATOM     31  C   UNL A   1      43.958  26.696  29.880  1.00  0.00     0.031 C 
ATOM     32  C   UNL A   1      43.147  29.525  35.198  1.00  0.00     0.029 A 
ATOM     33  C   UNL A   1      42.972  29.075  33.899  1.00  0.00     0.049 A 
ATOM     34  H   UNL A   1      41.400  29.498  32.553  1.00  0.00     0.167 HD
ATOM     35  C   UNL A   1      43.565  27.783  31.864  1.00  0.00     0.074 A 
ATOM     36  C   UNL A   1      44.417  26.886  31.109  1.00  0.00     0.031 C 
ATOM     37  C   UNL A   1      43.825  28.196  33.131  1.00  0.00     0.034 A 
BRANCH  24  38
ATOM     38  C   UNL A   1      39.537  32.032  35.475  1.00  0.00     0.023 A 
ATOM     39  C   UNL A   1      38.813  31.511  36.561  1.00  0.00     0.031 A 
ATOM     40  C   UNL A   1      39.831  33.409  35.485  1.00  0.00     0.131 A 
ATOM     41  C   UNL A   1      38.344  32.368  37.570  1.00  0.00     0.055 A 
ATOM     42  C   UNL A   1      39.434  34.242  36.532  1.00  0.00     0.041 A 
ATOM     43  F   UNL A   1      40.503  33.972  34.467  1.00  0.00    -0.206 F 
ATOM     44  C   UNL A   1      38.672  33.726  37.576  1.00  0.00     0.022 A 
BRANCH  41  45
ATOM     45  S   UNL A   1      37.175  31.711  38.791  1.00  0.00     0.124 S 
ATOM     46  O   UNL A   1      36.937  30.364  38.279  1.00  0.00    -0.237 OA
ATOM     47  O   UNL A   1      37.934  31.798  40.033  1.00  0.00    -0.237 OA
ATOM     48  O   UNL A   1      36.032  32.618  38.693  1.00  0.00    -0.744 OA
ENDBRANCH  41  45
ENDBRANCH  24  38
BRANCH  25  49
ATOM     49  C   UNL A   1      42.284  26.640  27.473  1.00  0.00     0.023 A 
ATOM     50  C   UNL A   1      41.991  25.274  27.353  1.00  0.00     0.031 A 
ATOM     51  C   UNL A   1      43.021  27.250  26.441  1.00  0.00     0.131 A 
ATOM     52  C   UNL A   1      42.469  24.552  26.250  1.00  0.00     0.055 A 
ATOM     53  C   UNL A   1      43.441  26.541  25.315  1.00  0.00     0.041 A 
ATOM     54  F   UNL A   1      43.328  28.556  26.504  1.00  0.00    -0.206 F 
ATOM     55  C   UNL A   1      43.178  25.179  25.221  1.00  0.00     0.022 A 
BRANCH  52  56
ATOM     56  S   UNL A   1      42.233  22.754  26.221  1.00  0.00     0.124 S 
ATOM     57  O   UNL A   1      43.044  22.331  27.357  1.00  0.00    -0.237 OA
ATOM     58  O   UNL A   1      40.788  22.637  26.386  1.00  0.00    -0.237 OA
ATOM     59  O   UNL A   1      42.743  22.365  24.909  1.00  0.00    -0.744 OA
ENDBRANCH  52  56
ENDBRANCH  25  49
BRANCH  37  60
ATOM     60  C   UNL A   1      45.065  27.638  33.788  1.00  0.00     0.023 A 
ATOM     61  C   UNL A   1      45.028  26.469  34.569  1.00  0.00     0.031 A 
ATOM     62  C   UNL A   1      46.295  28.305  33.657  1.00  0.00     0.131 A 
ATOM     63  C   UNL A   1      46.182  26.042  35.243  1.00  0.00     0.055 A 
ATOM     64  C   UNL A   1      47.456  27.837  34.272  1.00  0.00     0.041 A 
ATOM     65  F   UNL A   1      46.389  29.430  32.927  1.00  0.00    -0.206 F 
ATOM     66  C   UNL A   1      47.400  26.709  35.085  1.00  0.00     0.022 A 
BRANCH  63  67
ATOM     67  S   UNL A   1      46.044  24.671  36.422  1.00  0.00     0.124 S 
ATOM     68  O   UNL A   1      47.444  24.324  36.649  1.00  0.00    -0.237 OA
ATOM     69  O   UNL A   1      45.352  25.294  37.546  1.00  0.00    -0.237 OA
ATOM     70  O   UNL A   1      45.267  23.670  35.694  1.00  0.00    -0.744 OA
ENDBRANCH  63  67
ENDBRANCH  37  60
ENDBRANCH  11  12
ENDBRANCH   4   6
ENDBRANCH   1   2
BRANCH   1  71
ATOM     71  C   UNL A   1      31.768  28.782  26.077  1.00  0.00     0.023 C 
BRANCH  71  72
ATOM     72  C   UNL A   1      32.165  27.313  26.167  1.00  0.00     0.023 C 
BRANCH  72  73
ATOM     73  C   UNL A   1      31.001  26.334  26.297  1.00  0.00     0.116 C 
BRANCH  73  74
ATOM     74  N   UNL A   1      31.025  25.292  25.280  1.00  0.00    -0.352 N 
ATOM     75  C   UNL A   1      30.561  25.331  23.990  1.00  0.00     0.254 C 
ATOM     76  H   UNL A   1      31.431  24.439  25.557  1.00  0.00     0.163 HD
ATOM     77  O   UNL A   1      30.520  24.320  23.296  1.00  0.00    -0.269 OA
BRANCH  75  78
ATOM     78  C   UNL A   1      30.085  26.593  23.434  1.00  0.00     0.076 A 
ATOM     79  C   UNL A   1      30.879  27.418  22.671  1.00  0.00     0.129 A 
ATOM     80  C   UNL A   1      28.797  27.018  23.648  1.00  0.00     0.129 A 
ATOM     81  N   UNL A   1      30.479  28.629  22.232  1.00  0.00    -0.236 NA
ATOM     82  N   UNL A   1      28.342  28.219  23.228  1.00  0.00    -0.236 NA
ATOM     83  C   UNL A   1      29.224  28.999  22.571  1.00  0.00     0.160 A 
BRANCH  83  84
ATOM     84  C   UNL A   1      28.796  30.338  22.166  1.00  0.00     0.038 A 
ATOM     85  C   UNL A   1      28.220  30.519  20.892  1.00  0.00     0.013 A 
ATOM     86  C   UNL A   1      28.949  31.475  22.979  1.00  0.00     0.052 A 
ATOM     87  C   UNL A   1      27.789  31.774  20.456  1.00  0.00     0.001 A 
ATOM     88  C   UNL A   1      28.515  32.734  22.542  1.00  0.00     0.021 A 
ATOM     89  Cl  UNL A   1      29.735  31.423  24.524  1.00  0.00    -0.084 Cl
ATOM     90  C   UNL A   1      27.931  32.881  21.285  1.00  0.00     0.002 A 
ENDBRANCH  83  84
ENDBRANCH  75  78
ENDBRANCH  73  74
ENDBRANCH  72  73
ENDBRANCH  71  72
ENDBRANCH   1  71
TORSDOF 15
ENDMDL
MODEL 2
REMARK VINA RESULT:     -11.8      5.228     10.151
REMARK SMILES O=C(NCCCCNC(=O)c1cnc(-c2ccccc2Cl)nc1)c1ccc(-c2c3nc(c(-c4cc(S(=O)(=O)[O-])ccc4F)c4ccc([nH]4)c(-c4cc(S(=O)(=O)[O-])ccc4F)c4nc(c(-c5cc(S(=O)(=O)[O-])ccc5F)c5ccc2[nH]5)C=C4)C=C3)cc1
REMARK SMILES IDX 4 1 3 2 1 3 2 4 24 6 25 7 86 8 26 9 85 10 27 11 28 12 29 13
REMARK SMILES IDX 79 14 30 15 84 16 78 17 80 18 31 19 83 20 77 21 76 22 32 24
REMARK SMILES IDX 64 25 44 26 63 27 45 28 48 29 62 30 81 31 46 32 47 33 61 35
REMARK SMILES IDX 82 36 49 37 33 38 34 39 42 40 35 41 41 42 43 43 40 44 36 45
REMARK SMILES IDX 37 46 38 47 39 48 65 49 66 50 74 51 67 52 73 53 75 54 72 55
REMARK SMILES IDX 68 56 69 57 70 58 71 59 50 60 51 61 59 62 52 63 58 64 60 65
REMARK SMILES IDX 57 66 53 67 54 68 55 69 56 70 5 71 6 72 7 73 8 74 9 75 10 77
REMARK SMILES IDX 11 78 12 79 23 80 13 81 22 82 14 83 15 84 16 85 20 86 17 87
REMARK SMILES IDX 19 88 21 89 18 90
REMARK H PARENT 3 5 80 23 48 34 8 76
REMARK Flexibility Score: inf
ROOT
ATOM      1  C   UNL A   1      36.565  22.245  25.380  1.00  0.00     0.116 C 
ENDROOT
BRANCH   1   2
ATOM      2  N   UNL A   1      37.489  21.130  25.537  1.00  0.00    -0.352 N 
ATOM      3  O   UNL A   1      39.469  20.118  25.925  1.00  0.00    -0.269 OA
ATOM      4  C   UNL A   1      38.795  21.143  25.971  1.00  0.00     0.251 C 
ATOM      5  H   UNL A   1      37.129  20.244  25.300  1.00  0.00     0.163 HD
BRANCH   4   6
ATOM      6  C   UNL A   1      39.385  22.406  26.464  1.00  0.00     0.039 A 
ATOM      7  C   UNL A   1      38.907  23.633  26.004  1.00  0.00     0.014 A 
ATOM      8  C   UNL A   1      40.452  22.362  27.367  1.00  0.00     0.014 A 
ATOM      9  C   UNL A   1      39.601  24.798  26.303  1.00  0.00     0.010 A 
ATOM     10  C   UNL A   1      41.082  23.550  27.752  1.00  0.00     0.010 A 
ATOM     11  C   UNL A   1      40.686  24.775  27.194  1.00  0.00    -0.014 A 
BRANCH  11  12
ATOM     12  C   UNL A   1      41.345  26.057  27.561  1.00  0.00     0.031 A 
ATOM     13  C   UNL A   1      42.724  26.400  27.065  1.00  0.00     0.074 A 
ATOM     14  C   UNL A   1      40.660  26.936  28.320  1.00  0.00     0.049 A 
ATOM     15  N   UNL A   1      43.430  27.482  27.278  1.00  0.00    -0.248 NA
ATOM     16  C   UNL A   1      43.402  25.397  26.232  1.00  0.00     0.031 C 
ATOM     17  C   UNL A   1      39.314  26.709  28.857  1.00  0.00     0.029 A 
ATOM     18  N   UNL A   1      40.979  28.196  28.754  1.00  0.00    -0.354 N 
ATOM     19  C   UNL A   1      44.640  27.288  26.620  1.00  0.00     0.074 A 
ATOM     20  C   UNL A   1      44.583  25.965  26.033  1.00  0.00     0.031 C 
ATOM     21  C   UNL A   1      38.903  27.813  29.494  1.00  0.00     0.029 A 
ATOM     22  C   UNL A   1      39.982  28.792  29.489  1.00  0.00     0.049 A 
ATOM     23  H   UNL A   1      41.840  28.633  28.557  1.00  0.00     0.167 HD
ATOM     24  C   UNL A   1      45.693  28.138  26.511  1.00  0.00     0.034 A 
ATOM     25  C   UNL A   1      39.944  29.984  30.116  1.00  0.00     0.034 A 
ATOM     26  C   UNL A   1      45.729  29.454  27.109  1.00  0.00     0.049 A 
ATOM     27  C   UNL A   1      41.148  30.882  30.027  1.00  0.00     0.074 A 
ATOM     28  C   UNL A   1      46.733  30.406  27.040  1.00  0.00     0.029 A 
ATOM     29  N   UNL A   1      44.723  30.002  27.898  1.00  0.00    -0.354 N 
ATOM     30  N   UNL A   1      42.278  30.688  29.387  1.00  0.00    -0.248 NA
ATOM     31  C   UNL A   1      41.069  32.160  30.743  1.00  0.00     0.031 C 
ATOM     32  C   UNL A   1      46.370  31.490  27.846  1.00  0.00     0.029 A 
ATOM     33  C   UNL A   1      45.099  31.260  28.349  1.00  0.00     0.049 A 
ATOM     34  H   UNL A   1      43.867  29.562  28.106  1.00  0.00     0.167 HD
ATOM     35  C   UNL A   1      43.035  31.835  29.604  1.00  0.00     0.074 A 
ATOM     36  C   UNL A   1      42.223  32.721  30.413  1.00  0.00     0.031 C 
ATOM     37  C   UNL A   1      44.289  32.129  29.171  1.00  0.00     0.034 A 
BRANCH  24  38
ATOM     38  C   UNL A   1      46.911  27.651  25.758  1.00  0.00     0.023 A 
ATOM     39  C   UNL A   1      47.139  27.989  24.412  1.00  0.00     0.031 A 
ATOM     40  C   UNL A   1      47.855  26.823  26.393  1.00  0.00     0.131 A 
ATOM     41  C   UNL A   1      48.237  27.444  23.727  1.00  0.00     0.055 A 
ATOM     42  C   UNL A   1      48.990  26.351  25.730  1.00  0.00     0.041 A 
ATOM     43  F   UNL A   1      47.685  26.448  27.671  1.00  0.00    -0.206 F 
ATOM     44  C   UNL A   1      49.178  26.648  24.383  1.00  0.00     0.022 A 
BRANCH  41  45
ATOM     45  S   UNL A   1      48.334  27.667  21.929  1.00  0.00     0.124 S 
ATOM     46  O   UNL A   1      48.587  26.303  21.474  1.00  0.00    -0.237 OA
ATOM     47  O   UNL A   1      47.020  28.214  21.608  1.00  0.00    -0.237 OA
ATOM     48  O   UNL A   1      49.454  28.591  21.758  1.00  0.00    -0.744 OA
ENDBRANCH  41  45
ENDBRANCH  24  38
BRANCH  25  49
ATOM     49  C   UNL A   1      38.744  30.378  30.907  1.00  0.00     0.023 A 
ATOM     50  C   UNL A   1      37.676  31.063  30.311  1.00  0.00     0.031 A 
ATOM     51  C   UNL A   1      38.665  30.102  32.285  1.00  0.00     0.131 A 
ATOM     52  C   UNL A   1      36.594  31.487  31.096  1.00  0.00     0.055 A 
ATOM     53  C   UNL A   1      37.558  30.471  33.049  1.00  0.00     0.041 A 
ATOM     54  F   UNL A   1      39.659  29.448  32.906  1.00  0.00    -0.206 F 
ATOM     55  C   UNL A   1      36.519  31.182  32.458  1.00  0.00     0.022 A 
BRANCH  52  56
ATOM     56  S   UNL A   1      35.324  32.531  30.331  1.00  0.00     0.124 S 
ATOM     57  O   UNL A   1      34.888  31.697  29.217  1.00  0.00    -0.237 OA
ATOM     58  O   UNL A   1      34.369  32.695  31.422  1.00  0.00    -0.237 OA
ATOM     59  O   UNL A   1      36.055  33.739  29.958  1.00  0.00    -0.744 OA
ENDBRANCH  52  56
ENDBRANCH  25  49
BRANCH  37  60
ATOM     60  C   UNL A   1      44.830  33.491  29.535  1.00  0.00     0.023 A 
ATOM     61  C   UNL A   1      44.569  34.627  28.749  1.00  0.00     0.031 A 
ATOM     62  C   UNL A   1      45.648  33.647  30.668  1.00  0.00     0.131 A 
ATOM     63  C   UNL A   1      45.175  35.852  29.067  1.00  0.00     0.055 A 
ATOM     64  C   UNL A   1      46.191  34.883  31.019  1.00  0.00     0.041 A 
ATOM     65  F   UNL A   1      45.936  32.596  31.453  1.00  0.00    -0.206 F 
ATOM     66  C   UNL A   1      45.970  35.991  30.207  1.00  0.00     0.022 A 
BRANCH  63  67
ATOM     67  S   UNL A   1      45.004  37.236  27.906  1.00  0.00     0.124 S 
ATOM     68  O   UNL A   1      44.733  38.354  28.803  1.00  0.00    -0.237 OA
ATOM     69  O   UNL A   1      46.306  37.250  27.244  1.00  0.00    -0.237 OA
ATOM     70  O   UNL A   1      43.883  36.835  27.057  1.00  0.00    -0.744 OA
ENDBRANCH  63  67
ENDBRANCH  37  60
ENDBRANCH  11  12
ENDBRANCH   4   6
ENDBRANCH   1   2
BRANCH   1  71
ATOM     71  C   UNL A   1      35.425  21.952  24.414  1.00  0.00     0.023 C 
BRANCH  71  72
ATOM     72  C   UNL A   1      34.598  20.714  24.744  1.00  0.00     0.023 C 
BRANCH  72  73
ATOM     73  C   UNL A   1      33.176  20.994  25.223  1.00  0.00     0.116 C 
BRANCH  73  74
ATOM     74  N   UNL A   1      33.098  21.208  26.662  1.00  0.00    -0.352 N 
ATOM     75  C   UNL A   1      32.827  22.362  27.351  1.00  0.00     0.254 C 
ATOM     76  H   UNL A   1      33.264  20.413  27.217  1.00  0.00     0.163 HD
ATOM     77  O   UNL A   1      32.940  22.418  28.571  1.00  0.00    -0.269 OA
BRANCH  75  78
ATOM     78  C   UNL A   1      32.414  23.556  26.623  1.00  0.00     0.076 A 
ATOM     79  C   UNL A   1      33.312  24.453  26.090  1.00  0.00     0.129 A 
ATOM     80  C   UNL A   1      31.084  23.843  26.431  1.00  0.00     0.129 A 
ATOM     81  N   UNL A   1      32.941  25.607  25.499  1.00  0.00    -0.236 NA
ATOM     82  N   UNL A   1      30.657  24.982  25.842  1.00  0.00    -0.236 NA
ATOM     83  C   UNL A   1      31.613  25.844  25.438  1.00  0.00     0.160 A 
BRANCH  83  84
ATOM     84  C   UNL A   1      31.192  27.122  24.865  1.00  0.00     0.038 A 
ATOM     85  C   UNL A   1      30.392  27.125  23.704  1.00  0.00     0.013 A 
ATOM     86  C   UNL A   1      31.566  28.367  25.403  1.00  0.00     0.052 A 
ATOM     87  C   UNL A   1      29.958  28.316  23.118  1.00  0.00     0.001 A 
ATOM     88  C   UNL A   1      31.128  29.563  24.815  1.00  0.00     0.021 A 
ATOM     89  Cl  UNL A   1      32.631  28.519  26.762  1.00  0.00    -0.084 Cl
ATOM     90  C   UNL A   1      30.322  29.535  23.679  1.00  0.00     0.002 A 
ENDBRANCH  83  84
ENDBRANCH  75  78
ENDBRANCH  73  74
ENDBRANCH  72  73
ENDBRANCH  71  72
ENDBRANCH   1  71
TORSDOF 15
ENDMDL
MODEL 3
REMARK VINA RESULT:     -11.7      6.035     11.166
REMARK SMILES O=C(NCCCCNC(=O)c1cnc(-c2ccccc2Cl)nc1)c1ccc(-c2c3nc(c(-c4cc(S(=O)(=O)[O-])ccc4F)c4ccc([nH]4)c(-c4cc(S(=O)(=O)[O-])ccc4F)c4nc(c(-c5cc(S(=O)(=O)[O-])ccc5F)c5ccc2[nH]5)C=C4)C=C3)cc1
REMARK SMILES IDX 4 1 3 2 1 3 2 4 24 6 25 7 86 8 26 9 85 10 27 11 28 12 29 13
REMARK SMILES IDX 79 14 30 15 84 16 78 17 80 18 31 19 83 20 77 21 76 22 32 24
REMARK SMILES IDX 64 25 44 26 63 27 45 28 48 29 62 30 81 31 46 32 47 33 61 35
REMARK SMILES IDX 82 36 49 37 33 38 34 39 42 40 35 41 41 42 43 43 40 44 36 45
REMARK SMILES IDX 37 46 38 47 39 48 65 49 66 50 74 51 67 52 73 53 75 54 72 55
REMARK SMILES IDX 68 56 69 57 70 58 71 59 50 60 51 61 59 62 52 63 58 64 60 65
REMARK SMILES IDX 57 66 53 67 54 68 55 69 56 70 5 71 6 72 7 73 8 74 9 75 10 77
REMARK SMILES IDX 11 78 12 79 23 80 13 81 22 82 14 83 15 84 16 85 20 86 17 87
REMARK SMILES IDX 19 88 21 89 18 90
REMARK H PARENT 3 5 80 23 48 34 8 76
REMARK Flexibility Score: inf
ROOT
ATOM      1  C   UNL A   1      36.519  22.201  25.471  1.00  0.00     0.116 C 
ENDROOT
BRANCH   1   2
ATOM      2  N   UNL A   1      37.472  21.107  25.586  1.00  0.00    -0.352 N 
ATOM      3  O   UNL A   1      39.488  20.139  25.897  1.00  0.00    -0.269 OA
ATOM      4  C   UNL A   1      38.792  21.147  25.976  1.00  0.00     0.251 C 
ATOM      5  H   UNL A   1      37.125  20.215  25.353  1.00  0.00     0.163 HD
BRANCH   4   6
ATOM      6  C   UNL A   1      39.369  22.420  26.460  1.00  0.00     0.039 A 
ATOM      7  C   UNL A   1      38.912  23.637  25.955  1.00  0.00     0.014 A 
ATOM      8  C   UNL A   1      40.403  22.393  27.401  1.00  0.00     0.014 A 
ATOM      9  C   UNL A   1      39.599  24.806  26.252  1.00  0.00     0.010 A 
ATOM     10  C   UNL A   1      41.024  23.588  27.780  1.00  0.00     0.010 A 
ATOM     11  C   UNL A   1      40.652  24.801  27.181  1.00  0.00    -0.014 A 
BRANCH  11  12
ATOM     12  C   UNL A   1      41.302  26.089  27.542  1.00  0.00     0.031 A 
ATOM     13  C   UNL A   1      42.685  26.433  27.057  1.00  0.00     0.074 A 
ATOM     14  C   UNL A   1      40.606  26.974  28.285  1.00  0.00     0.049 A 
ATOM     15  N   UNL A   1      43.385  27.520  27.266  1.00  0.00    -0.248 NA
ATOM     16  C   UNL A   1      43.375  25.424  26.241  1.00  0.00     0.031 C 
ATOM     17  C   UNL A   1      39.256  26.747  28.809  1.00  0.00     0.029 A 
ATOM     18  N   UNL A   1      40.916  28.239  28.708  1.00  0.00    -0.354 N 
ATOM     19  C   UNL A   1      44.602  27.324  26.622  1.00  0.00     0.074 A 
ATOM     20  C   UNL A   1      44.557  25.995  26.048  1.00  0.00     0.031 C 
ATOM     21  C   UNL A   1      38.833  27.856  29.431  1.00  0.00     0.029 A 
ATOM     22  C   UNL A   1      39.909  28.839  29.427  1.00  0.00     0.049 A 
ATOM     23  H   UNL A   1      41.777  28.677  28.516  1.00  0.00     0.167 HD
ATOM     24  C   UNL A   1      45.654  28.176  26.515  1.00  0.00     0.034 A 
ATOM     25  C   UNL A   1      39.860  30.037  30.041  1.00  0.00     0.034 A 
ATOM     26  C   UNL A   1      45.678  29.498  27.100  1.00  0.00     0.049 A 
ATOM     27  C   UNL A   1      41.061  30.939  29.956  1.00  0.00     0.074 A 
ATOM     28  C   UNL A   1      46.679  30.454  27.032  1.00  0.00     0.029 A 
ATOM     29  N   UNL A   1      44.662  30.051  27.873  1.00  0.00    -0.354 N 
ATOM     30  N   UNL A   1      42.199  30.743  29.330  1.00  0.00    -0.248 NA
ATOM     31  C   UNL A   1      40.970  32.224  30.657  1.00  0.00     0.031 C 
ATOM     32  C   UNL A   1      46.303  31.545  27.823  1.00  0.00     0.029 A 
ATOM     33  C   UNL A   1      45.029  31.315  28.315  1.00  0.00     0.049 A 
ATOM     34  H   UNL A   1      43.805  29.609  28.076  1.00  0.00     0.167 HD
ATOM     35  C   UNL A   1      42.949  31.894  29.543  1.00  0.00     0.074 A 
ATOM     36  C   UNL A   1      42.125  32.786  30.334  1.00  0.00     0.031 C 
ATOM     37  C   UNL A   1      44.206  32.189  29.120  1.00  0.00     0.034 A 
BRANCH  24  38
ATOM     38  C   UNL A   1      46.881  27.686  25.780  1.00  0.00     0.023 A 
ATOM     39  C   UNL A   1      47.121  28.010  24.433  1.00  0.00     0.031 A 
ATOM     40  C   UNL A   1      47.823  26.870  26.434  1.00  0.00     0.131 A 
ATOM     41  C   UNL A   1      48.228  27.462  23.765  1.00  0.00     0.055 A 
ATOM     42  C   UNL A   1      48.966  26.396  25.788  1.00  0.00     0.041 A 
ATOM     43  F   UNL A   1      47.642  26.510  27.715  1.00  0.00    -0.206 F 
ATOM     44  C   UNL A   1      49.166  26.679  24.440  1.00  0.00     0.022 A 
BRANCH  41  45
ATOM     45  S   UNL A   1      48.341  27.664  21.965  1.00  0.00     0.124 S 
ATOM     46  O   UNL A   1      49.460  28.595  21.842  1.00  0.00    -0.237 OA
ATOM     47  O   UNL A   1      48.592  26.302  21.510  1.00  0.00    -0.237 OA
ATOM     48  O   UNL A   1      47.038  28.216  21.600  1.00  0.00    -0.744 OA
ENDBRANCH  41  45
ENDBRANCH  24  38
BRANCH  25  49
ATOM     49  C   UNL A   1      38.651  30.434  30.816  1.00  0.00     0.023 A 
ATOM     50  C   UNL A   1      37.592  31.122  30.205  1.00  0.00     0.031 A 
ATOM     51  C   UNL A   1      38.552  30.159  32.192  1.00  0.00     0.131 A 
ATOM     52  C   UNL A   1      36.501  31.549  30.975  1.00  0.00     0.055 A 
ATOM     53  C   UNL A   1      37.435  30.532  32.941  1.00  0.00     0.041 A 
ATOM     54  F   UNL A   1      39.536  29.503  32.828  1.00  0.00    -0.206 F 
ATOM     55  C   UNL A   1      36.407  31.245  32.335  1.00  0.00     0.022 A 
BRANCH  52  56
ATOM     56  S   UNL A   1      35.243  32.596  30.191  1.00  0.00     0.124 S 
ATOM     57  O   UNL A   1      34.338  32.854  31.305  1.00  0.00    -0.237 OA
ATOM     58  O   UNL A   1      36.038  33.731  29.733  1.00  0.00    -0.237 OA
ATOM     59  O   UNL A   1      34.705  31.745  29.133  1.00  0.00    -0.744 OA
ENDBRANCH  52  56
ENDBRANCH  25  49
BRANCH  37  60
ATOM     60  C   UNL A   1      44.738  33.557  29.475  1.00  0.00     0.023 A 
ATOM     61  C   UNL A   1      44.506  34.678  28.659  1.00  0.00     0.031 A 
ATOM     62  C   UNL A   1      45.519  33.733  30.631  1.00  0.00     0.131 A 
ATOM     63  C   UNL A   1      45.104  35.908  28.973  1.00  0.00     0.055 A 
ATOM     64  C   UNL A   1      46.053  34.975  30.976  1.00  0.00     0.041 A 
ATOM     65  F   UNL A   1      45.778  32.697  31.446  1.00  0.00    -0.206 F 
ATOM     66  C   UNL A   1      45.861  36.068  30.137  1.00  0.00     0.022 A 
BRANCH  63  67
ATOM     67  S   UNL A   1      44.976  37.269  27.780  1.00  0.00     0.124 S 
ATOM     68  O   UNL A   1      46.106  37.005  26.896  1.00  0.00    -0.237 OA
ATOM     69  O   UNL A   1      43.652  37.055  27.204  1.00  0.00    -0.237 OA
ATOM     70  O   UNL A   1      45.103  38.465  28.610  1.00  0.00    -0.744 OA
ENDBRANCH  63  67
ENDBRANCH  37  60
ENDBRANCH  11  12
ENDBRANCH   4   6
ENDBRANCH   1   2
BRANCH   1  71
ATOM     71  C   UNL A   1      35.812  22.246  24.123  1.00  0.00     0.023 C 
BRANCH  71  72
ATOM     72  C   UNL A   1      35.188  23.589  23.761  1.00  0.00     0.023 C 
BRANCH  72  73
ATOM     73  C   UNL A   1      34.104  23.532  22.689  1.00  0.00     0.116 C 
BRANCH  73  74
ATOM     74  N   UNL A   1      32.799  23.950  23.183  1.00  0.00    -0.352 N 
ATOM     75  C   UNL A   1      31.799  23.191  23.732  1.00  0.00     0.254 C 
ATOM     76  H   UNL A   1      32.609  24.913  23.113  1.00  0.00     0.163 HD
ATOM     77  O   UNL A   1      30.693  23.667  23.969  1.00  0.00    -0.269 OA
BRANCH  75  78
ATOM     78  C   UNL A   1      32.040  21.782  24.024  1.00  0.00     0.076 A 
ATOM     79  C   UNL A   1      32.173  21.298  25.305  1.00  0.00     0.129 A 
ATOM     80  C   UNL A   1      32.144  20.859  23.012  1.00  0.00     0.129 A 
ATOM     81  N   UNL A   1      32.490  20.016  25.581  1.00  0.00    -0.236 NA
ATOM     82  N   UNL A   1      32.455  19.563  23.232  1.00  0.00    -0.236 NA
ATOM     83  C   UNL A   1      32.661  19.204  24.516  1.00  0.00     0.160 A 
BRANCH  83  84
ATOM     84  C   UNL A   1      33.075  17.828  24.790  1.00  0.00     0.038 A 
ATOM     85  C   UNL A   1      32.095  16.865  25.104  1.00  0.00     0.013 A 
ATOM     86  C   UNL A   1      34.419  17.411  24.781  1.00  0.00     0.052 A 
ATOM     87  C   UNL A   1      32.434  15.536  25.371  1.00  0.00     0.001 A 
ATOM     88  C   UNL A   1      34.758  16.077  25.047  1.00  0.00     0.021 A 
ATOM     89  Cl  UNL A   1      35.737  18.506  24.517  1.00  0.00    -0.084 Cl
ATOM     90  C   UNL A   1      33.766  15.142  25.335  1.00  0.00     0.002 A 
ENDBRANCH  83  84
ENDBRANCH  75  78
ENDBRANCH  73  74
ENDBRANCH  72  73
ENDBRANCH  71  72
ENDBRANCH   1  71
TORSDOF 15
ENDMDL
