MODEL 1
REMARK VINA RESULT:     -12.4      0.000      0.000
REMARK SMILES O=C(Cc1ccn(-c2ccccc2F)c1)NCCCCNC(=O)c1ccc(-c2c3nc(c(-c4cc(S(=O)(=O)[O-])ccc4F)c4ccc([nH]4)c(-c4cc(S(=O)(=O)[O-])ccc4F)c4nc(c(-c5cc(S(=O)(=O)[O-])ccc5F)c5ccc2[nH]5)C=C4)C=C3)cc1
REMARK SMILES IDX 19 1 18 2 17 3 16 4 1 5 2 6 3 8 4 9 5 10 15 11 6 12 7 13
REMARK SMILES IDX 8 14 9 15 13 16 10 17 12 18 14 19 11 20 20 21 21 22 22 23
REMARK SMILES IDX 23 25 24 26 25 27 86 28 26 29 85 30 27 31 28 32 29 33 79 34
REMARK SMILES IDX 30 35 84 36 78 37 80 38 31 39 83 40 77 41 76 42 32 44 64 45
REMARK SMILES IDX 44 46 63 47 45 48 48 49 62 50 81 51 46 52 47 53 61 55 82 56
REMARK SMILES IDX 49 57 33 58 34 59 42 60 35 61 41 62 43 63 40 64 36 65 37 66
REMARK SMILES IDX 38 67 39 68 65 69 66 70 74 71 67 72 73 73 75 74 72 75 68 76
REMARK SMILES IDX 69 77 70 78 71 79 50 80 51 81 59 82 52 83 58 84 60 85 57 86
REMARK SMILES IDX 53 87 54 88 55 89 56 90
REMARK H PARENT 16 7 21 24 80 43 48 54
REMARK Flexibility Score: inf
ROOT
ATOM      1  C   UNL A   1      33.529  28.643  27.266  1.00  0.00     0.023 C 
ENDROOT
BRANCH   1   2
ATOM      2  C   UNL A   1      32.775  27.729  26.287  1.00  0.00     0.023 C 
BRANCH   2   3
ATOM      3  C   UNL A   1      31.419  27.223  26.782  1.00  0.00     0.116 C 
BRANCH   3   4
ATOM      4  N   UNL A   1      31.378  25.776  26.860  1.00  0.00    -0.356 N 
ATOM      5  O   UNL A   1      29.976  25.455  25.070  1.00  0.00    -0.275 OA
ATOM      6  C   UNL A   1      30.661  24.993  25.980  1.00  0.00     0.224 C 
ATOM      7  H   UNL A   1      31.886  25.332  27.577  1.00  0.00     0.163 HD
BRANCH   6   8
ATOM      8  C   UNL A   1      30.677  23.507  26.301  1.00  0.00     0.137 C 
BRANCH   8   9
ATOM      9  C   UNL A   1      31.831  22.760  25.712  1.00  0.00    -0.021 A 
ATOM     10  C   UNL A   1      31.815  21.917  24.569  1.00  0.00     0.024 A 
ATOM     11  C   UNL A   1      33.148  22.808  26.135  1.00  0.00     0.095 A 
ATOM     12  C   UNL A   1      33.112  21.532  24.314  1.00  0.00     0.091 A 
ATOM     13  N   UNL A   1      33.945  22.088  25.264  1.00  0.00    -0.321 N 
BRANCH  13  14
ATOM     14  C   UNL A   1      35.358  21.983  25.297  1.00  0.00     0.081 A 
ATOM     15  C   UNL A   1      36.132  23.103  25.636  1.00  0.00     0.030 A 
ATOM     16  C   UNL A   1      35.997  20.776  25.003  1.00  0.00     0.147 A 
ATOM     17  C   UNL A   1      37.525  23.000  25.690  1.00  0.00     0.002 A 
ATOM     18  C   UNL A   1      37.387  20.686  25.024  1.00  0.00     0.041 A 
ATOM     19  F   UNL A   1      35.306  19.690  24.627  1.00  0.00    -0.205 F 
ATOM     20  C   UNL A   1      38.153  21.796  25.376  1.00  0.00     0.003 A 
ENDBRANCH  13  14
ENDBRANCH   8   9
ENDBRANCH   6   8
ENDBRANCH   3   4
ENDBRANCH   2   3
ENDBRANCH   1   2
BRANCH   1  21
ATOM     21  C   UNL A   1      34.974  28.943  26.866  1.00  0.00     0.116 C 
BRANCH  21  22
ATOM     22  N   UNL A   1      35.359  30.289  27.254  1.00  0.00    -0.352 N 
ATOM     23  C   UNL A   1      36.346  30.700  28.118  1.00  0.00     0.251 C 
ATOM     24  H   UNL A   1      34.838  31.011  26.837  1.00  0.00     0.163 HD
ATOM     25  O   UNL A   1      36.264  31.818  28.615  1.00  0.00    -0.269 OA
BRANCH  23  26
ATOM     26  C   UNL A   1      37.490  29.825  28.462  1.00  0.00     0.039 A 
ATOM     27  C   UNL A   1      38.599  29.824  27.604  1.00  0.00     0.014 A 
ATOM     28  C   UNL A   1      37.443  28.943  29.547  1.00  0.00     0.014 A 
ATOM     29  C   UNL A   1      39.678  28.985  27.863  1.00  0.00     0.010 A 
ATOM     30  C   UNL A   1      38.529  28.119  29.824  1.00  0.00     0.010 A 
ATOM     31  C   UNL A   1      39.651  28.151  28.988  1.00  0.00    -0.014 A 
BRANCH  31  32
ATOM     32  C   UNL A   1      40.890  27.445  29.387  1.00  0.00     0.031 A 
ATOM     33  C   UNL A   1      41.207  26.276  28.407  1.00  0.00     0.074 A 
ATOM     34  C   UNL A   1      41.522  27.915  30.511  1.00  0.00     0.049 A 
ATOM     35  N   UNL A   1      41.878  25.178  28.582  1.00  0.00    -0.248 NA
ATOM     36  C   UNL A   1      40.616  26.306  27.035  1.00  0.00     0.031 C 
ATOM     37  C   UNL A   1      41.087  29.086  31.315  1.00  0.00     0.029 A 
ATOM     38  N   UNL A   1      42.646  27.528  31.211  1.00  0.00    -0.354 N 
ATOM     39  C   UNL A   1      41.971  24.512  27.332  1.00  0.00     0.074 A 
ATOM     40  C   UNL A   1      41.075  25.196  26.452  1.00  0.00     0.031 C 
ATOM     41  C   UNL A   1      41.865  29.249  32.412  1.00  0.00     0.029 A 
ATOM     42  C   UNL A   1      42.890  28.225  32.430  1.00  0.00     0.049 A 
ATOM     43  H   UNL A   1      43.242  26.814  30.888  1.00  0.00     0.167 HD
ATOM     44  C   UNL A   1      42.865  23.509  27.068  1.00  0.00     0.034 A 
ATOM     45  C   UNL A   1      43.824  27.958  33.401  1.00  0.00     0.034 A 
ATOM     46  C   UNL A   1      43.609  23.211  28.243  1.00  0.00     0.049 A 
ATOM     47  C   UNL A   1      44.639  26.876  32.825  1.00  0.00     0.074 A 
ATOM     48  C   UNL A   1      43.269  22.601  29.421  1.00  0.00     0.029 A 
ATOM     49  N   UNL A   1      44.788  23.894  28.413  1.00  0.00    -0.354 N 
ATOM     50  N   UNL A   1      45.481  27.011  31.845  1.00  0.00    -0.248 NA
ATOM     51  C   UNL A   1      44.425  25.512  33.327  1.00  0.00     0.031 C 
ATOM     52  C   UNL A   1      43.947  23.379  30.381  1.00  0.00     0.029 A 
ATOM     53  C   UNL A   1      44.844  24.242  29.737  1.00  0.00     0.049 A 
ATOM     54  H   UNL A   1      45.460  24.093  27.722  1.00  0.00     0.167 HD
ATOM     55  C   UNL A   1      45.644  25.719  31.418  1.00  0.00     0.074 A 
ATOM     56  C   UNL A   1      45.241  24.858  32.508  1.00  0.00     0.031 C 
ATOM     57  C   UNL A   1      45.579  25.429  30.096  1.00  0.00     0.034 A 
BRANCH  44  58
ATOM     58  C   UNL A   1      43.337  22.844  25.797  1.00  0.00     0.023 A 
ATOM     59  C   UNL A   1      43.466  21.428  25.819  1.00  0.00     0.031 A 
ATOM     60  C   UNL A   1      43.948  23.502  24.724  1.00  0.00     0.131 A 
ATOM     61  C   UNL A   1      44.257  20.743  24.886  1.00  0.00     0.055 A 
ATOM     62  C   UNL A   1      44.701  22.809  23.760  1.00  0.00     0.041 A 
ATOM     63  F   UNL A   1      43.915  24.838  24.613  1.00  0.00    -0.206 F 
ATOM     64  C   UNL A   1      44.885  21.430  23.855  1.00  0.00     0.022 A 
BRANCH  61  65
ATOM     65  S   UNL A   1      44.556  18.966  25.133  1.00  0.00     0.124 S 
ATOM     66  O   UNL A   1      43.445  18.579  25.996  1.00  0.00    -0.237 OA
ATOM     67  O   UNL A   1      44.509  18.456  23.766  1.00  0.00    -0.237 OA
ATOM     68  O   UNL A   1      45.876  18.927  25.761  1.00  0.00    -0.744 OA
ENDBRANCH  61  65
ENDBRANCH  44  58
BRANCH  45  69
ATOM     69  C   UNL A   1      44.159  28.334  34.840  1.00  0.00     0.023 A 
ATOM     70  C   UNL A   1      44.164  27.483  35.959  1.00  0.00     0.031 A 
ATOM     71  C   UNL A   1      44.652  29.656  35.103  1.00  0.00     0.131 A 
ATOM     72  C   UNL A   1      44.725  27.925  37.194  1.00  0.00     0.055 A 
ATOM     73  C   UNL A   1      45.288  30.048  36.280  1.00  0.00     0.041 A 
ATOM     74  F   UNL A   1      44.555  30.642  34.200  1.00  0.00    -0.206 F 
ATOM     75  C   UNL A   1      45.345  29.170  37.333  1.00  0.00     0.022 A 
BRANCH  72  76
ATOM     76  S   UNL A   1      44.699  26.885  38.687  1.00  0.00     0.124 S 
ATOM     77  O   UNL A   1      45.769  25.933  38.407  1.00  0.00    -0.237 OA
ATOM     78  O   UNL A   1      44.956  27.840  39.760  1.00  0.00    -0.237 OA
ATOM     79  O   UNL A   1      43.348  26.324  38.674  1.00  0.00    -0.744 OA
ENDBRANCH  72  76
ENDBRANCH  45  69
BRANCH  57  80
ATOM     80  C   UNL A   1      45.967  26.553  29.158  1.00  0.00     0.023 A 
ATOM     81  C   UNL A   1      44.955  27.292  28.528  1.00  0.00     0.031 A 
ATOM     82  C   UNL A   1      47.291  26.886  28.815  1.00  0.00     0.131 A 
ATOM     83  C   UNL A   1      45.273  28.315  27.615  1.00  0.00     0.055 A 
ATOM     84  C   UNL A   1      47.611  27.907  27.911  1.00  0.00     0.041 A 
ATOM     85  F   UNL A   1      48.321  26.218  29.334  1.00  0.00    -0.206 F 
ATOM     86  C   UNL A   1      46.596  28.633  27.306  1.00  0.00     0.022 A 
BRANCH  83  87
ATOM     87  S   UNL A   1      43.927  29.278  26.876  1.00  0.00     0.124 S 
ATOM     88  O   UNL A   1      43.312  28.315  25.969  1.00  0.00    -0.237 OA
ATOM     89  O   UNL A   1      43.133  29.655  28.042  1.00  0.00    -0.237 OA
ATOM     90  O   UNL A   1      44.621  30.388  26.225  1.00  0.00    -0.744 OA
ENDBRANCH  83  87
ENDBRANCH  57  80
ENDBRANCH  31  32
ENDBRANCH  23  26
ENDBRANCH  21  22
ENDBRANCH   1  21
TORSDOF 16
ENDMDL
MODEL 2
REMARK VINA RESULT:     -12.4      4.675     10.301
REMARK SMILES O=C(Cc1ccn(-c2ccccc2F)c1)NCCCCNC(=O)c1ccc(-c2c3nc(c(-c4cc(S(=O)(=O)[O-])ccc4F)c4ccc([nH]4)c(-c4cc(S(=O)(=O)[O-])ccc4F)c4nc(c(-c5cc(S(=O)(=O)[O-])ccc5F)c5ccc2[nH]5)C=C4)C=C3)cc1
REMARK SMILES IDX 19 1 18 2 17 3 16 4 1 5 2 6 3 8 4 9 5 10 15 11 6 12 7 13
REMARK SMILES IDX 8 14 9 15 13 16 10 17 12 18 14 19 11 20 20 21 21 22 22 23
REMARK SMILES IDX 23 25 24 26 25 27 86 28 26 29 85 30 27 31 28 32 29 33 79 34
REMARK SMILES IDX 30 35 84 36 78 37 80 38 31 39 83 40 77 41 76 42 32 44 64 45
REMARK SMILES IDX 44 46 63 47 45 48 48 49 62 50 81 51 46 52 47 53 61 55 82 56
REMARK SMILES IDX 49 57 33 58 34 59 42 60 35 61 41 62 43 63 40 64 36 65 37 66
REMARK SMILES IDX 38 67 39 68 65 69 66 70 74 71 67 72 73 73 75 74 72 75 68 76
REMARK SMILES IDX 69 77 70 78 71 79 50 80 51 81 59 82 52 83 58 84 60 85 57 86
REMARK SMILES IDX 53 87 54 88 55 89 56 90
REMARK H PARENT 16 7 21 24 80 43 48 54
REMARK Flexibility Score: inf
ROOT
ATOM      1  C   UNL A   1      36.985  23.498  25.035  1.00  0.00     0.023 C 
ENDROOT
BRANCH   1   2
ATOM      2  C   UNL A   1      35.509  23.082  25.155  1.00  0.00     0.023 C 
BRANCH   2   3
ATOM      3  C   UNL A   1      34.814  23.516  26.447  1.00  0.00     0.116 C 
BRANCH   3   4
ATOM      4  N   UNL A   1      33.379  23.622  26.279  1.00  0.00    -0.356 N 
ATOM      5  O   UNL A   1      32.804  22.505  28.200  1.00  0.00    -0.275 OA
ATOM      6  C   UNL A   1      32.473  23.114  27.186  1.00  0.00     0.224 C 
ATOM      7  H   UNL A   1      33.034  24.080  25.478  1.00  0.00     0.163 HD
BRANCH   6   8
ATOM      8  C   UNL A   1      31.018  23.250  26.767  1.00  0.00     0.137 C 
BRANCH   8   9
ATOM      9  C   UNL A   1      30.809  24.008  25.495  1.00  0.00    -0.021 A 
ATOM     10  C   UNL A   1      30.867  23.497  24.170  1.00  0.00     0.024 A 
ATOM     11  C   UNL A   1      30.450  25.340  25.377  1.00  0.00     0.095 A 
ATOM     12  C   UNL A   1      30.497  24.510  23.314  1.00  0.00     0.091 A 
ATOM     13  N   UNL A   1      30.223  25.646  24.047  1.00  0.00    -0.321 N 
BRANCH  13  14
ATOM     14  C   UNL A   1      29.740  26.875  23.531  1.00  0.00     0.081 A 
ATOM     15  C   UNL A   1      30.622  27.751  22.881  1.00  0.00     0.030 A 
ATOM     16  C   UNL A   1      28.393  27.226  23.652  1.00  0.00     0.147 A 
ATOM     17  C   UNL A   1      30.147  28.956  22.351  1.00  0.00     0.002 A 
ATOM     18  C   UNL A   1      27.930  28.443  23.153  1.00  0.00     0.041 A 
ATOM     19  F   UNL A   1      27.520  26.446  24.306  1.00  0.00    -0.205 F 
ATOM     20  C   UNL A   1      28.806  29.305  22.495  1.00  0.00     0.003 A 
ENDBRANCH  13  14
ENDBRANCH   8   9
ENDBRANCH   6   8
ENDBRANCH   3   4
ENDBRANCH   2   3
ENDBRANCH   1   2
BRANCH   1  21
ATOM     21  C   UNL A   1      37.541  24.217  26.264  1.00  0.00     0.116 C 
BRANCH  21  22
ATOM     22  N   UNL A   1      38.737  23.561  26.762  1.00  0.00    -0.352 N 
ATOM     23  C   UNL A   1      39.919  24.112  27.195  1.00  0.00     0.251 C 
ATOM     24  H   UNL A   1      38.694  22.578  26.795  1.00  0.00     0.163 HD
ATOM     25  O   UNL A   1      40.927  23.414  27.198  1.00  0.00    -0.269 OA
BRANCH  23  26
ATOM     26  C   UNL A   1      40.000  25.520  27.645  1.00  0.00     0.039 A 
ATOM     27  C   UNL A   1      39.678  25.803  28.980  1.00  0.00     0.014 A 
ATOM     28  C   UNL A   1      40.286  26.563  26.757  1.00  0.00     0.014 A 
ATOM     29  C   UNL A   1      39.697  27.118  29.436  1.00  0.00     0.010 A 
ATOM     30  C   UNL A   1      40.329  27.876  27.214  1.00  0.00     0.010 A 
ATOM     31  C   UNL A   1      40.047  28.150  28.556  1.00  0.00    -0.014 A 
BRANCH  31  32
ATOM     32  C   UNL A   1      40.296  29.504  29.102  1.00  0.00     0.031 A 
ATOM     33  C   UNL A   1      38.956  30.224  29.442  1.00  0.00     0.074 A 
ATOM     34  C   UNL A   1      41.610  29.884  29.208  1.00  0.00     0.049 A 
ATOM     35  N   UNL A   1      38.665  31.488  29.513  1.00  0.00    -0.248 NA
ATOM     36  C   UNL A   1      37.731  29.399  29.664  1.00  0.00     0.031 C 
ATOM     37  C   UNL A   1      42.780  29.036  28.863  1.00  0.00     0.029 A 
ATOM     38  N   UNL A   1      42.243  31.037  29.621  1.00  0.00    -0.354 N 
ATOM     39  C   UNL A   1      37.330  31.609  29.980  1.00  0.00     0.074 A 
ATOM     40  C   UNL A   1      36.776  30.291  29.939  1.00  0.00     0.031 C 
ATOM     41  C   UNL A   1      43.942  29.720  28.991  1.00  0.00     0.029 A 
ATOM     42  C   UNL A   1      43.658  31.066  29.449  1.00  0.00     0.049 A 
ATOM     43  H   UNL A   1      41.749  31.794  30.012  1.00  0.00     0.167 HD
ATOM     44  C   UNL A   1      36.801  32.769  30.480  1.00  0.00     0.034 A 
ATOM     45  C   UNL A   1      44.524  32.119  29.617  1.00  0.00     0.034 A 
ATOM     46  C   UNL A   1      37.762  33.812  30.385  1.00  0.00     0.049 A 
ATOM     47  C   UNL A   1      43.682  33.186  30.182  1.00  0.00     0.074 A 
ATOM     48  C   UNL A   1      38.273  34.503  29.319  1.00  0.00     0.029 A 
ATOM     49  N   UNL A   1      38.578  33.996  31.474  1.00  0.00    -0.354 N 
ATOM     50  N   UNL A   1      43.197  33.201  31.387  1.00  0.00    -0.248 NA
ATOM     51  C   UNL A   1      43.275  34.283  29.294  1.00  0.00     0.031 C 
ATOM     52  C   UNL A   1      39.639  34.616  29.648  1.00  0.00     0.029 A 
ATOM     53  C   UNL A   1      39.835  34.224  30.978  1.00  0.00     0.049 A 
ATOM     54  H   UNL A   1      38.313  33.970  32.422  1.00  0.00     0.167 HD
ATOM     55  C   UNL A   1      42.189  34.124  31.286  1.00  0.00     0.074 A 
ATOM     56  C   UNL A   1      42.477  34.941  30.126  1.00  0.00     0.031 C 
ATOM     57  C   UNL A   1      40.964  33.847  31.793  1.00  0.00     0.034 A 
BRANCH  44  58
ATOM     58  C   UNL A   1      35.548  33.089  31.261  1.00  0.00     0.023 A 
ATOM     59  C   UNL A   1      34.803  34.226  30.846  1.00  0.00     0.031 A 
ATOM     60  C   UNL A   1      35.230  32.568  32.520  1.00  0.00     0.131 A 
ATOM     61  C   UNL A   1      33.887  34.860  31.698  1.00  0.00     0.055 A 
ATOM     62  C   UNL A   1      34.275  33.175  33.354  1.00  0.00     0.041 A 
ATOM     63  F   UNL A   1      35.885  31.513  33.026  1.00  0.00    -0.206 F 
ATOM     64  C   UNL A   1      33.623  34.342  32.960  1.00  0.00     0.022 A 
BRANCH  61  65
ATOM     65  S   UNL A   1      33.159  36.442  31.174  1.00  0.00     0.124 S 
ATOM     66  O   UNL A   1      33.365  36.419  29.730  1.00  0.00    -0.237 OA
ATOM     67  O   UNL A   1      31.776  36.306  31.623  1.00  0.00    -0.237 OA
ATOM     68  O   UNL A   1      33.947  37.437  31.900  1.00  0.00    -0.744 OA
ENDBRANCH  61  65
ENDBRANCH  44  58
BRANCH  45  69
ATOM     69  C   UNL A   1      45.961  32.518  29.297  1.00  0.00     0.023 A 
ATOM     70  C   UNL A   1      46.469  32.923  28.050  1.00  0.00     0.031 A 
ATOM     71  C   UNL A   1      46.895  32.631  30.380  1.00  0.00     0.131 A 
ATOM     72  C   UNL A   1      47.775  33.490  27.958  1.00  0.00     0.055 A 
ATOM     73  C   UNL A   1      48.129  33.276  30.301  1.00  0.00     0.041 A 
ATOM     74  F   UNL A   1      46.637  32.129  31.595  1.00  0.00    -0.206 F 
ATOM     75  C   UNL A   1      48.570  33.729  29.083  1.00  0.00     0.022 A 
BRANCH  72  76
ATOM     76  S   UNL A   1      48.503  33.971  26.361  1.00  0.00     0.124 S 
ATOM     77  O   UNL A   1      49.215  35.195  26.715  1.00  0.00    -0.237 OA
ATOM     78  O   UNL A   1      49.334  32.823  26.016  1.00  0.00    -0.237 OA
ATOM     79  O   UNL A   1      47.329  34.160  25.509  1.00  0.00    -0.744 OA
ENDBRANCH  72  76
ENDBRANCH  45  69
BRANCH  57  80
ATOM     80  C   UNL A   1      40.939  32.876  32.954  1.00  0.00     0.023 A 
ATOM     81  C   UNL A   1      40.724  31.514  32.696  1.00  0.00     0.031 A 
ATOM     82  C   UNL A   1      41.057  33.246  34.307  1.00  0.00     0.131 A 
ATOM     83  C   UNL A   1      40.649  30.585  33.751  1.00  0.00     0.055 A 
ATOM     84  C   UNL A   1      40.988  32.323  35.360  1.00  0.00     0.041 A 
ATOM     85  F   UNL A   1      41.228  34.520  34.656  1.00  0.00    -0.206 F 
ATOM     86  C   UNL A   1      40.786  30.979  35.083  1.00  0.00     0.022 A 
BRANCH  83  87
ATOM     87  S   UNL A   1      40.431  28.830  33.357  1.00  0.00     0.124 S 
ATOM     88  O   UNL A   1      41.386  28.630  32.272  1.00  0.00    -0.237 OA
ATOM     89  O   UNL A   1      40.757  28.179  34.623  1.00  0.00    -0.237 OA
ATOM     90  O   UNL A   1      39.024  28.741  32.968  1.00  0.00    -0.744 OA
ENDBRANCH  83  87
ENDBRANCH  57  80
ENDBRANCH  31  32
ENDBRANCH  23  26
ENDBRANCH  21  22
ENDBRANCH   1  21
TORSDOF 16
ENDMDL
MODEL 3
REMARK VINA RESULT:     -12.3      4.639     10.387
REMARK SMILES O=C(Cc1ccn(-c2ccccc2F)c1)NCCCCNC(=O)c1ccc(-c2c3nc(c(-c4cc(S(=O)(=O)[O-])ccc4F)c4ccc([nH]4)c(-c4cc(S(=O)(=O)[O-])ccc4F)c4nc(c(-c5cc(S(=O)(=O)[O-])ccc5F)c5ccc2[nH]5)C=C4)C=C3)cc1
REMARK SMILES IDX 19 1 18 2 17 3 16 4 1 5 2 6 3 8 4 9 5 10 15 11 6 12 7 13
REMARK SMILES IDX 8 14 9 15 13 16 10 17 12 18 14 19 11 20 20 21 21 22 22 23
REMARK SMILES IDX 23 25 24 26 25 27 86 28 26 29 85 30 27 31 28 32 29 33 79 34
REMARK SMILES IDX 30 35 84 36 78 37 80 38 31 39 83 40 77 41 76 42 32 44 64 45
REMARK SMILES IDX 44 46 63 47 45 48 48 49 62 50 81 51 46 52 47 53 61 55 82 56
REMARK SMILES IDX 49 57 33 58 34 59 42 60 35 61 41 62 43 63 40 64 36 65 37 66
REMARK SMILES IDX 38 67 39 68 65 69 66 70 74 71 67 72 73 73 75 74 72 75 68 76
REMARK SMILES IDX 69 77 70 78 71 79 50 80 51 81 59 82 52 83 58 84 60 85 57 86
REMARK SMILES IDX 53 87 54 88 55 89 56 90
REMARK H PARENT 16 7 21 24 80 43 48 54
REMARK Flexibility Score: inf
ROOT
ATOM      1  C   UNL A   1      36.576  23.112  25.594  1.00  0.00     0.023 C 
ENDROOT
BRANCH   1   2
ATOM      2  C   UNL A   1      35.614  23.712  24.556  1.00  0.00     0.023 C 
BRANCH   2   3
ATOM      3  C   UNL A   1      34.540  22.755  24.035  1.00  0.00     0.116 C 
BRANCH   3   4
ATOM      4  N   UNL A   1      33.251  23.405  23.908  1.00  0.00    -0.356 N 
ATOM      5  O   UNL A   1      33.485  24.030  21.712  1.00  0.00    -0.275 OA
ATOM      6  C   UNL A   1      32.812  23.989  22.739  1.00  0.00     0.224 C 
ATOM      7  H   UNL A   1      32.661  23.431  24.696  1.00  0.00     0.163 HD
BRANCH   6   8
ATOM      8  C   UNL A   1      31.473  24.699  22.853  1.00  0.00     0.137 C 
BRANCH   8   9
ATOM      9  C   UNL A   1      31.570  26.146  23.219  1.00  0.00    -0.021 A 
ATOM     10  C   UNL A   1      30.931  27.240  22.576  1.00  0.00     0.024 A 
ATOM     11  C   UNL A   1      32.249  26.681  24.301  1.00  0.00     0.095 A 
ATOM     12  C   UNL A   1      31.201  28.373  23.311  1.00  0.00     0.091 A 
ATOM     13  N   UNL A   1      31.999  28.038  24.384  1.00  0.00    -0.321 N 
BRANCH  13  14
ATOM     14  C   UNL A   1      32.429  28.917  25.410  1.00  0.00     0.081 A 
ATOM     15  C   UNL A   1      31.697  30.084  25.679  1.00  0.00     0.030 A 
ATOM     16  C   UNL A   1      33.569  28.637  26.167  1.00  0.00     0.147 A 
ATOM     17  C   UNL A   1      32.105  30.945  26.703  1.00  0.00     0.002 A 
ATOM     18  C   UNL A   1      33.992  29.514  27.164  1.00  0.00     0.041 A 
ATOM     19  F   UNL A   1      34.329  27.561  25.918  1.00  0.00    -0.205 F 
ATOM     20  C   UNL A   1      33.255  30.665  27.438  1.00  0.00     0.003 A 
ENDBRANCH  13  14
ENDBRANCH   8   9
ENDBRANCH   6   8
ENDBRANCH   3   4
ENDBRANCH   2   3
ENDBRANCH   1   2
BRANCH   1  21
ATOM     21  C   UNL A   1      37.502  24.130  26.261  1.00  0.00     0.116 C 
BRANCH  21  22
ATOM     22  N   UNL A   1      38.622  23.475  26.913  1.00  0.00    -0.352 N 
ATOM     23  C   UNL A   1      39.771  24.021  27.434  1.00  0.00     0.251 C 
ATOM     24  H   UNL A   1      38.547  22.497  26.995  1.00  0.00     0.163 HD
ATOM     25  O   UNL A   1      40.752  23.300  27.578  1.00  0.00    -0.269 OA
BRANCH  23  26
ATOM     26  C   UNL A   1      39.847  25.450  27.812  1.00  0.00     0.039 A 
ATOM     27  C   UNL A   1      39.537  25.799  29.134  1.00  0.00     0.014 A 
ATOM     28  C   UNL A   1      40.118  26.449  26.870  1.00  0.00     0.014 A 
ATOM     29  C   UNL A   1      39.553  27.135  29.523  1.00  0.00     0.010 A 
ATOM     30  C   UNL A   1      40.158  27.784  27.260  1.00  0.00     0.010 A 
ATOM     31  C   UNL A   1      39.888  28.123  28.590  1.00  0.00    -0.014 A 
BRANCH  31  32
ATOM     32  C   UNL A   1      40.135  29.504  29.065  1.00  0.00     0.031 A 
ATOM     33  C   UNL A   1      38.798  30.212  29.442  1.00  0.00     0.074 A 
ATOM     34  C   UNL A   1      41.444  29.915  29.085  1.00  0.00     0.049 A 
ATOM     35  N   UNL A   1      38.483  31.471  29.475  1.00  0.00    -0.248 NA
ATOM     36  C   UNL A   1      37.604  29.373  29.762  1.00  0.00     0.031 C 
ATOM     37  C   UNL A   1      42.613  29.076  28.716  1.00  0.00     0.029 A 
ATOM     38  N   UNL A   1      42.071  31.097  29.417  1.00  0.00    -0.354 N 
ATOM     39  C   UNL A   1      37.171  31.586  30.005  1.00  0.00     0.074 A 
ATOM     40  C   UNL A   1      36.645  30.257  30.049  1.00  0.00     0.031 C 
ATOM     41  C   UNL A   1      43.765  29.788  28.756  1.00  0.00     0.029 A 
ATOM     42  C   UNL A   1      43.475  31.147  29.170  1.00  0.00     0.049 A 
ATOM     43  H   UNL A   1      41.581  31.859  29.800  1.00  0.00     0.167 HD
ATOM     44  C   UNL A   1      36.643  32.755  30.483  1.00  0.00     0.034 A 
ATOM     45  C   UNL A   1      44.324  32.222  29.249  1.00  0.00     0.034 A 
ATOM     46  C   UNL A   1      37.575  33.812  30.294  1.00  0.00     0.049 A 
ATOM     47  C   UNL A   1      43.489  33.297  29.811  1.00  0.00     0.074 A 
ATOM     48  C   UNL A   1      38.015  34.466  29.175  1.00  0.00     0.029 A 
ATOM     49  N   UNL A   1      38.440  34.059  31.331  1.00  0.00    -0.354 N 
ATOM     50  N   UNL A   1      43.066  33.354  31.038  1.00  0.00    -0.248 NA
ATOM     51  C   UNL A   1      43.013  34.345  28.900  1.00  0.00     0.031 C 
ATOM     52  C   UNL A   1      39.393  34.621  29.428  1.00  0.00     0.029 A 
ATOM     53  C   UNL A   1      39.666  34.291  30.761  1.00  0.00     0.049 A 
ATOM     54  H   UNL A   1      38.225  34.069  32.291  1.00  0.00     0.167 HD
ATOM     55  C   UNL A   1      42.033  34.251  30.950  1.00  0.00     0.074 A 
ATOM     56  C   UNL A   1      42.244  35.022  29.744  1.00  0.00     0.031 C 
ATOM     57  C   UNL A   1      40.842  33.972  31.531  1.00  0.00     0.034 A 
BRANCH  44  58
ATOM     58  C   UNL A   1      35.424  33.083  31.313  1.00  0.00     0.023 A 
ATOM     59  C   UNL A   1      34.641  34.194  30.897  1.00  0.00     0.031 A 
ATOM     60  C   UNL A   1      35.178  32.604  32.604  1.00  0.00     0.131 A 
ATOM     61  C   UNL A   1      33.757  34.844  31.770  1.00  0.00     0.055 A 
ATOM     62  C   UNL A   1      34.255  33.225  33.463  1.00  0.00     0.041 A 
ATOM     63  F   UNL A   1      35.875  31.577  33.113  1.00  0.00    -0.206 F 
ATOM     64  C   UNL A   1      33.564  34.367  33.061  1.00  0.00     0.022 A 
BRANCH  61  65
ATOM     65  S   UNL A   1      32.977  36.395  31.228  1.00  0.00     0.124 S 
ATOM     66  O   UNL A   1      33.926  37.401  31.692  1.00  0.00    -0.237 OA
ATOM     67  O   UNL A   1      32.900  36.209  29.782  1.00  0.00    -0.237 OA
ATOM     68  O   UNL A   1      31.689  36.388  31.920  1.00  0.00    -0.744 OA
ENDBRANCH  61  65
ENDBRANCH  44  58
BRANCH  45  69
ATOM     69  C   UNL A   1      45.734  32.636  28.838  1.00  0.00     0.023 A 
ATOM     70  C   UNL A   1      46.122  33.225  27.622  1.00  0.00     0.031 A 
ATOM     71  C   UNL A   1      46.781  32.552  29.815  1.00  0.00     0.131 A 
ATOM     72  C   UNL A   1      47.433  33.770  27.476  1.00  0.00     0.055 A 
ATOM     73  C   UNL A   1      48.025  33.173  29.702  1.00  0.00     0.041 A 
ATOM     74  F   UNL A   1      46.634  31.866  30.957  1.00  0.00    -0.206 F 
ATOM     75  C   UNL A   1      48.352  33.807  28.529  1.00  0.00     0.022 A 
BRANCH  72  76
ATOM     76  S   UNL A   1      48.006  34.486  25.905  1.00  0.00     0.124 S 
ATOM     77  O   UNL A   1      48.447  35.812  26.324  1.00  0.00    -0.237 OA
ATOM     78  O   UNL A   1      49.056  33.565  25.484  1.00  0.00    -0.237 OA
ATOM     79  O   UNL A   1      46.801  34.467  25.076  1.00  0.00    -0.744 OA
ENDBRANCH  72  76
ENDBRANCH  45  69
BRANCH  57  80
ATOM     80  C   UNL A   1      40.898  33.051  32.733  1.00  0.00     0.023 A 
ATOM     81  C   UNL A   1      40.612  31.689  32.558  1.00  0.00     0.031 A 
ATOM     82  C   UNL A   1      41.161  33.472  34.050  1.00  0.00     0.131 A 
ATOM     83  C   UNL A   1      40.608  30.809  33.656  1.00  0.00     0.055 A 
ATOM     84  C   UNL A   1      41.164  32.597  35.144  1.00  0.00     0.041 A 
ATOM     85  F   UNL A   1      41.409  34.753  34.323  1.00  0.00    -0.206 F 
ATOM     86  C   UNL A   1      40.889  31.252  34.949  1.00  0.00     0.022 A 
BRANCH  83  87
ATOM     87  S   UNL A   1      40.293  29.048  33.364  1.00  0.00     0.124 S 
ATOM     88  O   UNL A   1      38.867  29.030  33.056  1.00  0.00    -0.237 OA
ATOM     89  O   UNL A   1      41.191  28.747  32.253  1.00  0.00    -0.237 OA
ATOM     90  O   UNL A   1      40.661  28.422  34.634  1.00  0.00    -0.744 OA
ENDBRANCH  83  87
ENDBRANCH  57  80
ENDBRANCH  31  32
ENDBRANCH  23  26
ENDBRANCH  21  22
ENDBRANCH   1  21
TORSDOF 16
ENDMDL
