MODEL 1
REMARK VINA RESULT:     -10.0      0.000      0.000
REMARK SMILES CC[C@@H](C)[NH2+][C@H](CN=[N+]=[N-])C(=O)NCCCCNC(=O)c1ccc(-c2c3nc(c(-c4cc(S(=O)(=O)[O-])ccc4F)c4ccc([nH]4)c(-c4cc(S(=O)(=O)[O-])ccc4F)c4nc(c(-c5cc(S(=O)(=O)[O-])ccc5F)c5ccc2[nH]5)C=C4)C=C3)cc1
REMARK SMILES IDX 15 1 14 2 13 3 11 4 12 5 6 7 5 8 3 11 4 12 2 13 1 14 7 15
REMARK SMILES IDX 8 16 9 17 10 18 16 19 17 20 18 21 19 22 20 24 21 25 22 26
REMARK SMILES IDX 83 27 23 28 82 29 24 30 25 31 26 32 76 33 27 34 81 35 75 36
REMARK SMILES IDX 77 37 28 38 80 39 74 40 73 41 29 43 61 44 41 45 60 46 42 47
REMARK SMILES IDX 45 48 59 49 78 50 43 51 44 52 58 54 79 55 46 56 30 57 31 58
REMARK SMILES IDX 39 59 32 60 38 61 40 62 37 63 33 64 34 65 35 66 36 67 62 68
REMARK SMILES IDX 63 69 71 70 64 71 70 72 72 73 69 74 65 75 66 76 67 77 68 78
REMARK SMILES IDX 47 79 48 80 56 81 49 82 55 83 57 84 54 85 50 86 51 87 52 88
REMARK SMILES IDX 53 89
REMARK H PARENT 13 6 5 9 5 10 18 23 77 42 45 53
REMARK Flexibility Score: inf
ROOT
ATOM      1  C   UNL A   1      32.775  29.829  25.797  1.00  0.00     0.023 C 
ENDROOT
BRANCH   1   2
ATOM      2  C   UNL A   1      31.406  29.996  25.147  1.00  0.00     0.116 C 
BRANCH   2   3
ATOM      3  N   UNL A   1      31.302  29.594  23.749  1.00  0.00    -0.351 N 
ATOM      4  C   UNL A   1      30.699  28.588  23.059  1.00  0.00     0.278 C 
ATOM      5  O   UNL A   1      30.136  28.968  22.016  1.00  0.00    -0.268 OA
ATOM      6  H   UNL A   1      31.794  30.205  23.155  1.00  0.00     0.163 HD
BRANCH   4   7
ATOM      7  C   UNL A   1      30.866  27.055  23.272  1.00  0.00     0.278 C 
BRANCH   7   8
ATOM      8  N   UNL A   1      31.701  26.281  22.298  1.00  0.00    -0.334 N 
ATOM      9  H   UNL A   1      31.138  25.510  21.941  1.00  0.00     0.347 HD
ATOM     10  H   UNL A   1      31.985  26.942  21.575  1.00  0.00     0.347 HD
BRANCH   8  11
ATOM     11  C   UNL A   1      32.928  25.727  22.847  1.00  0.00     0.179 C 
ATOM     12  C   UNL A   1      32.760  24.256  23.231  1.00  0.00     0.075 C 
BRANCH  11  13
ATOM     13  C   UNL A   1      33.553  26.522  24.007  1.00  0.00     0.061 C 
ATOM     14  C   UNL A   1      34.033  25.557  25.102  1.00  0.00     0.010 C 
ENDBRANCH  11  13
ENDBRANCH   8  11
ENDBRANCH   7   8
BRANCH   7  15
ATOM     15  C   UNL A   1      29.649  26.323  23.896  1.00  0.00     0.166 C 
BRANCH  15  16
ATOM     16  N   UNL A   1      29.954  25.573  25.123  1.00  0.00    -0.087 NA
ATOM     17  N   UNL A   1      30.518  26.214  26.034  1.00  0.00     0.001 N 
ATOM     18  N   UNL A   1      31.045  26.797  26.854  1.00  0.00    -0.003 NA
ENDBRANCH  15  16
ENDBRANCH   7  15
ENDBRANCH   4   7
ENDBRANCH   2   3
ENDBRANCH   1   2
BRANCH   1  19
ATOM     19  C   UNL A   1      32.790  30.379  27.228  1.00  0.00     0.023 C 
BRANCH  19  20
ATOM     20  C   UNL A   1      33.698  31.583  27.482  1.00  0.00     0.116 C 
BRANCH  20  21
ATOM     21  N   UNL A   1      33.009  32.863  27.556  1.00  0.00    -0.352 N 
ATOM     22  C   UNL A   1      33.317  33.928  28.383  1.00  0.00     0.251 C 
ATOM     23  H   UNL A   1      32.242  32.983  26.952  1.00  0.00     0.163 HD
ATOM     24  O   UNL A   1      32.641  34.950  28.370  1.00  0.00    -0.269 OA
BRANCH  22  25
ATOM     25  C   UNL A   1      34.440  33.772  29.336  1.00  0.00     0.039 A 
ATOM     26  C   UNL A   1      34.250  32.973  30.465  1.00  0.00     0.014 A 
ATOM     27  C   UNL A   1      35.711  34.260  29.016  1.00  0.00     0.014 A 
ATOM     28  C   UNL A   1      35.360  32.561  31.206  1.00  0.00     0.010 A 
ATOM     29  C   UNL A   1      36.821  33.782  29.711  1.00  0.00     0.010 A 
ATOM     30  C   UNL A   1      36.660  32.899  30.793  1.00  0.00    -0.014 A 
BRANCH  30  31
ATOM     31  C   UNL A   1      37.854  32.278  31.433  1.00  0.00     0.031 A 
ATOM     32  C   UNL A   1      38.588  31.158  30.747  1.00  0.00     0.074 A 
ATOM     33  C   UNL A   1      38.233  32.680  32.666  1.00  0.00     0.049 A 
ATOM     34  N   UNL A   1      39.601  30.451  31.177  1.00  0.00    -0.248 NA
ATOM     35  C   UNL A   1      38.110  30.770  29.411  1.00  0.00     0.031 C 
ATOM     36  C   UNL A   1      37.578  33.729  33.452  1.00  0.00     0.029 A 
ATOM     37  N   UNL A   1      39.254  32.253  33.484  1.00  0.00    -0.354 N 
ATOM     38  C   UNL A   1      39.875  29.528  30.174  1.00  0.00     0.074 A 
ATOM     39  C   UNL A   1      38.893  29.737  29.132  1.00  0.00     0.031 C 
ATOM     40  C   UNL A   1      38.223  33.880  34.620  1.00  0.00     0.029 A 
ATOM     41  C   UNL A   1      39.300  32.898  34.702  1.00  0.00     0.049 A 
ATOM     42  H   UNL A   1      39.893  31.552  33.224  1.00  0.00     0.167 HD
ATOM     43  C   UNL A   1      40.863  28.603  30.123  1.00  0.00     0.034 A 
ATOM     44  C   UNL A   1      40.097  32.705  35.775  1.00  0.00     0.034 A 
ATOM     45  C   UNL A   1      41.843  28.416  31.165  1.00  0.00     0.049 A 
ATOM     46  C   UNL A   1      41.157  31.630  35.705  1.00  0.00     0.074 A 
ATOM     47  C   UNL A   1      42.932  27.561  31.172  1.00  0.00     0.029 A 
ATOM     48  N   UNL A   1      41.847  29.073  32.387  1.00  0.00    -0.354 N 
ATOM     49  N   UNL A   1      41.453  30.827  34.707  1.00  0.00    -0.248 NA
ATOM     50  C   UNL A   1      41.993  31.436  36.898  1.00  0.00     0.031 C 
ATOM     51  C   UNL A   1      43.535  27.631  32.430  1.00  0.00     0.029 A 
ATOM     52  C   UNL A   1      42.882  28.598  33.177  1.00  0.00     0.049 A 
ATOM     53  H   UNL A   1      41.207  29.772  32.654  1.00  0.00     0.167 HD
ATOM     54  C   UNL A   1      42.523  30.053  35.151  1.00  0.00     0.074 A 
ATOM     55  C   UNL A   1      42.840  30.506  36.487  1.00  0.00     0.031 C 
ATOM     56  C   UNL A   1      43.182  29.052  34.513  1.00  0.00     0.034 A 
BRANCH  43  57
ATOM     57  C   UNL A   1      40.925  27.695  28.922  1.00  0.00     0.023 A 
ATOM     58  C   UNL A   1      41.902  27.847  27.923  1.00  0.00     0.031 A 
ATOM     59  C   UNL A   1      40.016  26.628  28.799  1.00  0.00     0.131 A 
ATOM     60  C   UNL A   1      41.922  26.971  26.828  1.00  0.00     0.055 A 
ATOM     61  C   UNL A   1      40.086  25.718  27.744  1.00  0.00     0.041 A 
ATOM     62  F   UNL A   1      39.047  26.450  29.711  1.00  0.00    -0.206 F 
ATOM     63  C   UNL A   1      41.039  25.891  26.746  1.00  0.00     0.022 A 
BRANCH  60  64
ATOM     64  S   UNL A   1      43.055  27.321  25.456  1.00  0.00     0.124 S 
ATOM     65  O   UNL A   1      44.151  27.998  26.144  1.00  0.00    -0.237 OA
ATOM     66  O   UNL A   1      43.351  25.988  24.941  1.00  0.00    -0.237 OA
ATOM     67  O   UNL A   1      42.266  28.171  24.567  1.00  0.00    -0.744 OA
ENDBRANCH  60  64
ENDBRANCH  43  57
BRANCH  44  68
ATOM     68  C   UNL A   1      39.906  33.492  37.032  1.00  0.00     0.023 A 
ATOM     69  C   UNL A   1      39.169  32.973  38.110  1.00  0.00     0.031 A 
ATOM     70  C   UNL A   1      40.371  34.816  37.138  1.00  0.00     0.131 A 
ATOM     71  C   UNL A   1      38.854  33.795  39.205  1.00  0.00     0.055 A 
ATOM     72  C   UNL A   1      40.121  35.603  38.262  1.00  0.00     0.041 A 
ATOM     73  F   UNL A   1      41.076  35.371  36.138  1.00  0.00    -0.206 F 
ATOM     74  C   UNL A   1      39.339  35.100  39.297  1.00  0.00     0.022 A 
BRANCH  71  75
ATOM     75  S   UNL A   1      37.672  33.180  40.438  1.00  0.00     0.124 S 
ATOM     76  O   UNL A   1      38.426  32.093  41.053  1.00  0.00    -0.237 OA
ATOM     77  O   UNL A   1      37.456  34.361  41.266  1.00  0.00    -0.237 OA
ATOM     78  O   UNL A   1      36.525  32.766  39.632  1.00  0.00    -0.744 OA
ENDBRANCH  71  75
ENDBRANCH  44  68
BRANCH  56  79
ATOM     79  C   UNL A   1      44.328  28.401  35.248  1.00  0.00     0.023 A 
ATOM     80  C   UNL A   1      44.148  27.230  36.005  1.00  0.00     0.031 A 
ATOM     81  C   UNL A   1      45.619  28.955  35.187  1.00  0.00     0.131 A 
ATOM     82  C   UNL A   1      45.227  26.683  36.714  1.00  0.00     0.055 A 
ATOM     83  C   UNL A   1      46.704  28.367  35.837  1.00  0.00     0.041 A 
ATOM     84  F   UNL A   1      45.849  30.075  34.483  1.00  0.00    -0.206 F 
ATOM     85  C   UNL A   1      46.508  27.230  36.616  1.00  0.00     0.022 A 
BRANCH  82  86
ATOM     86  S   UNL A   1      44.914  25.294  37.837  1.00  0.00     0.124 S 
ATOM     87  O   UNL A   1      43.481  25.082  37.664  1.00  0.00    -0.237 OA
ATOM     88  O   UNL A   1      45.782  24.252  37.297  1.00  0.00    -0.237 OA
ATOM     89  O   UNL A   1      45.312  25.815  39.144  1.00  0.00    -0.744 OA
ENDBRANCH  82  86
ENDBRANCH  56  79
ENDBRANCH  30  31
ENDBRANCH  22  25
ENDBRANCH  20  21
ENDBRANCH  19  20
ENDBRANCH   1  19
TORSDOF 19
ENDMDL
MODEL 2
REMARK VINA RESULT:      -9.8      1.812      8.125
REMARK SMILES CC[C@@H](C)[NH2+][C@H](CN=[N+]=[N-])C(=O)NCCCCNC(=O)c1ccc(-c2c3nc(c(-c4cc(S(=O)(=O)[O-])ccc4F)c4ccc([nH]4)c(-c4cc(S(=O)(=O)[O-])ccc4F)c4nc(c(-c5cc(S(=O)(=O)[O-])ccc5F)c5ccc2[nH]5)C=C4)C=C3)cc1
REMARK SMILES IDX 15 1 14 2 13 3 11 4 12 5 6 7 5 8 3 11 4 12 2 13 1 14 7 15
REMARK SMILES IDX 8 16 9 17 10 18 16 19 17 20 18 21 19 22 20 24 21 25 22 26
REMARK SMILES IDX 83 27 23 28 82 29 24 30 25 31 26 32 76 33 27 34 81 35 75 36
REMARK SMILES IDX 77 37 28 38 80 39 74 40 73 41 29 43 61 44 41 45 60 46 42 47
REMARK SMILES IDX 45 48 59 49 78 50 43 51 44 52 58 54 79 55 46 56 30 57 31 58
REMARK SMILES IDX 39 59 32 60 38 61 40 62 37 63 33 64 34 65 35 66 36 67 62 68
REMARK SMILES IDX 63 69 71 70 64 71 70 72 72 73 69 74 65 75 66 76 67 77 68 78
REMARK SMILES IDX 47 79 48 80 56 81 49 82 55 83 57 84 54 85 50 86 51 87 52 88
REMARK SMILES IDX 53 89
REMARK H PARENT 13 6 5 9 5 10 18 23 77 42 45 53
REMARK Flexibility Score: inf
ROOT
ATOM      1  C   UNL A   1      31.517  30.421  25.987  1.00  0.00     0.023 C 
ENDROOT
BRANCH   1   2
ATOM      2  C   UNL A   1      32.971  29.965  25.982  1.00  0.00     0.116 C 
BRANCH   2   3
ATOM      3  N   UNL A   1      33.438  29.311  24.765  1.00  0.00    -0.351 N 
ATOM      4  C   UNL A   1      32.862  28.793  23.646  1.00  0.00     0.278 C 
ATOM      5  O   UNL A   1      33.459  29.090  22.596  1.00  0.00    -0.268 OA
ATOM      6  H   UNL A   1      34.418  29.221  24.750  1.00  0.00     0.163 HD
BRANCH   4   7
ATOM      7  C   UNL A   1      31.759  27.698  23.564  1.00  0.00     0.278 C 
BRANCH   7   8
ATOM      8  N   UNL A   1      32.055  26.338  24.118  1.00  0.00    -0.334 N 
ATOM      9  H   UNL A   1      31.619  26.269  25.037  1.00  0.00     0.347 HD
ATOM     10  H   UNL A   1      31.684  25.667  23.444  1.00  0.00     0.347 HD
BRANCH   8  11
ATOM     11  C   UNL A   1      33.468  26.029  24.264  1.00  0.00     0.179 C 
ATOM     12  C   UNL A   1      33.911  24.939  23.288  1.00  0.00     0.075 C 
BRANCH  11  13
ATOM     13  C   UNL A   1      33.929  25.697  25.694  1.00  0.00     0.061 C 
ATOM     14  C   UNL A   1      33.694  24.206  25.984  1.00  0.00     0.010 C 
ENDBRANCH  11  13
ENDBRANCH   8  11
ENDBRANCH   7   8
BRANCH   7  15
ATOM     15  C   UNL A   1      30.827  27.769  22.327  1.00  0.00     0.166 C 
BRANCH  15  16
ATOM     16  N   UNL A   1      29.972  28.963  22.276  1.00  0.00    -0.087 NA
ATOM     17  N   UNL A   1      28.784  28.806  22.630  1.00  0.00     0.001 N 
ATOM     18  N   UNL A   1      27.701  28.655  22.938  1.00  0.00    -0.003 NA
ENDBRANCH  15  16
ENDBRANCH   7  15
ENDBRANCH   4   7
ENDBRANCH   2   3
ENDBRANCH   1   2
BRANCH   1  19
ATOM     19  C   UNL A   1      31.338  31.727  26.769  1.00  0.00     0.023 C 
BRANCH  19  20
ATOM     20  C   UNL A   1      32.381  32.816  26.519  1.00  0.00     0.116 C 
BRANCH  20  21
ATOM     21  N   UNL A   1      32.336  33.933  27.451  1.00  0.00    -0.352 N 
ATOM     22  C   UNL A   1      33.274  34.252  28.416  1.00  0.00     0.251 C 
ATOM     23  H   UNL A   1      31.553  34.526  27.386  1.00  0.00     0.163 HD
ATOM     24  O   UNL A   1      33.108  35.210  29.161  1.00  0.00    -0.269 OA
BRANCH  22  25
ATOM     25  C   UNL A   1      34.448  33.362  28.572  1.00  0.00     0.039 A 
ATOM     26  C   UNL A   1      35.722  33.931  28.545  1.00  0.00     0.014 A 
ATOM     27  C   UNL A   1      34.276  32.021  28.924  1.00  0.00     0.014 A 
ATOM     28  C   UNL A   1      36.815  33.184  28.990  1.00  0.00     0.010 A 
ATOM     29  C   UNL A   1      35.355  31.306  29.444  1.00  0.00     0.010 A 
ATOM     30  C   UNL A   1      36.631  31.893  29.515  1.00  0.00    -0.014 A 
BRANCH  30  31
ATOM     31  C   UNL A   1      37.743  31.180  30.204  1.00  0.00     0.031 A 
ATOM     32  C   UNL A   1      38.076  31.498  31.636  1.00  0.00     0.074 A 
ATOM     33  C   UNL A   1      38.495  30.294  29.515  1.00  0.00     0.049 A 
ATOM     34  N   UNL A   1      39.047  31.033  32.379  1.00  0.00    -0.248 NA
ATOM     35  C   UNL A   1      37.217  32.479  32.317  1.00  0.00     0.031 C 
ATOM     36  C   UNL A   1      38.297  29.930  28.109  1.00  0.00     0.029 A 
ATOM     37  N   UNL A   1      39.584  29.543  29.893  1.00  0.00    -0.354 N 
ATOM     38  C   UNL A   1      38.926  31.671  33.608  1.00  0.00     0.074 A 
ATOM     39  C   UNL A   1      37.813  32.589  33.497  1.00  0.00     0.031 C 
ATOM     40  C   UNL A   1      39.211  29.014  27.753  1.00  0.00     0.029 A 
ATOM     41  C   UNL A   1      40.106  28.767  28.879  1.00  0.00     0.049 A 
ATOM     42  H   UNL A   1      39.957  29.557  30.803  1.00  0.00     0.167 HD
ATOM     43  C   UNL A   1      39.667  31.496  34.728  1.00  0.00     0.034 A 
ATOM     44  C   UNL A   1      41.195  27.969  28.848  1.00  0.00     0.034 A 
ATOM     45  C   UNL A   1      40.766  30.567  34.828  1.00  0.00     0.049 A 
ATOM     46  C   UNL A   1      42.029  27.834  30.101  1.00  0.00     0.074 A 
ATOM     47  C   UNL A   1      41.527  30.258  35.943  1.00  0.00     0.029 A 
ATOM     48  N   UNL A   1      41.275  29.814  33.780  1.00  0.00    -0.354 N 
ATOM     49  N   UNL A   1      41.842  28.384  31.280  1.00  0.00    -0.248 NA
ATOM     50  C   UNL A   1      43.218  26.973  30.024  1.00  0.00     0.031 C 
ATOM     51  C   UNL A   1      42.552  29.395  35.547  1.00  0.00     0.029 A 
ATOM     52  C   UNL A   1      42.376  29.089  34.208  1.00  0.00     0.049 A 
ATOM     53  H   UNL A   1      40.909  29.799  32.866  1.00  0.00     0.167 HD
ATOM     54  C   UNL A   1      42.877  27.912  32.085  1.00  0.00     0.074 A 
ATOM     55  C   UNL A   1      43.663  27.012  31.269  1.00  0.00     0.031 C 
ATOM     56  C   UNL A   1      43.158  28.202  33.381  1.00  0.00     0.034 A 
BRANCH  43  57
ATOM     57  C   UNL A   1      39.345  32.343  35.934  1.00  0.00     0.023 A 
ATOM     58  C   UNL A   1      38.496  31.889  36.957  1.00  0.00     0.031 A 
ATOM     59  C   UNL A   1      39.938  33.611  36.080  1.00  0.00     0.131 A 
ATOM     60  C   UNL A   1      38.233  32.713  38.061  1.00  0.00     0.055 A 
ATOM     61  C   UNL A   1      39.728  34.395  37.215  1.00  0.00     0.041 A 
ATOM     62  F   UNL A   1      40.738  34.104  35.122  1.00  0.00    -0.206 F 
ATOM     63  C   UNL A   1      38.865  33.950  38.212  1.00  0.00     0.022 A 
BRANCH  60  64
ATOM     64  S   UNL A   1      36.972  32.189  39.256  1.00  0.00     0.124 S 
ATOM     65  O   UNL A   1      35.745  32.646  38.609  1.00  0.00    -0.237 OA
ATOM     66  O   UNL A   1      37.167  30.744  39.307  1.00  0.00    -0.237 OA
ATOM     67  O   UNL A   1      37.333  32.910  40.474  1.00  0.00    -0.744 OA
ENDBRANCH  60  64
ENDBRANCH  43  57
BRANCH  44  68
ATOM     68  C   UNL A   1      41.609  27.274  27.590  1.00  0.00     0.023 A 
ATOM     69  C   UNL A   1      41.494  25.880  27.457  1.00  0.00     0.031 A 
ATOM     70  C   UNL A   1      42.224  27.980  26.540  1.00  0.00     0.131 A 
ATOM     71  C   UNL A   1      42.051  25.233  26.342  1.00  0.00     0.055 A 
ATOM     72  C   UNL A   1      42.706  27.340  25.397  1.00  0.00     0.041 A 
ATOM     73  F   UNL A   1      42.370  29.314  26.610  1.00  0.00    -0.206 F 
ATOM     74  C   UNL A   1      42.640  25.954  25.303  1.00  0.00     0.022 A 
BRANCH  71  75
ATOM     75  S   UNL A   1      42.127  23.419  26.342  1.00  0.00     0.124 S 
ATOM     76  O   UNL A   1      42.997  23.161  27.484  1.00  0.00    -0.237 OA
ATOM     77  O   UNL A   1      40.724  23.057  26.510  1.00  0.00    -0.237 OA
ATOM     78  O   UNL A   1      42.700  23.103  25.036  1.00  0.00    -0.744 OA
ENDBRANCH  71  75
ENDBRANCH  44  68
BRANCH  56  79
ATOM     79  C   UNL A   1      44.350  27.514  34.000  1.00  0.00     0.023 A 
ATOM     80  C   UNL A   1      44.234  26.262  34.628  1.00  0.00     0.031 A 
ATOM     81  C   UNL A   1      45.620  28.117  33.958  1.00  0.00     0.131 A 
ATOM     82  C   UNL A   1      45.355  25.678  35.235  1.00  0.00     0.055 A 
ATOM     83  C   UNL A   1      46.746  27.499  34.502  1.00  0.00     0.041 A 
ATOM     84  F   UNL A   1      45.789  29.315  33.375  1.00  0.00    -0.206 F 
ATOM     85  C   UNL A   1      46.615  26.276  35.156  1.00  0.00     0.022 A 
BRANCH  82  86
ATOM     86  S   UNL A   1      45.128  24.164  36.207  1.00  0.00     0.124 S 
ATOM     87  O   UNL A   1      44.117  23.454  35.428  1.00  0.00    -0.237 OA
ATOM     88  O   UNL A   1      46.465  23.580  36.196  1.00  0.00    -0.237 OA
ATOM     89  O   UNL A   1      44.677  24.656  37.507  1.00  0.00    -0.744 OA
ENDBRANCH  82  86
ENDBRANCH  56  79
ENDBRANCH  30  31
ENDBRANCH  22  25
ENDBRANCH  20  21
ENDBRANCH  19  20
ENDBRANCH   1  19
TORSDOF 19
ENDMDL
MODEL 3
REMARK VINA RESULT:      -9.8      2.275      8.325
REMARK SMILES CC[C@@H](C)[NH2+][C@H](CN=[N+]=[N-])C(=O)NCCCCNC(=O)c1ccc(-c2c3nc(c(-c4cc(S(=O)(=O)[O-])ccc4F)c4ccc([nH]4)c(-c4cc(S(=O)(=O)[O-])ccc4F)c4nc(c(-c5cc(S(=O)(=O)[O-])ccc5F)c5ccc2[nH]5)C=C4)C=C3)cc1
REMARK SMILES IDX 15 1 14 2 13 3 11 4 12 5 6 7 5 8 3 11 4 12 2 13 1 14 7 15
REMARK SMILES IDX 8 16 9 17 10 18 16 19 17 20 18 21 19 22 20 24 21 25 22 26
REMARK SMILES IDX 83 27 23 28 82 29 24 30 25 31 26 32 76 33 27 34 81 35 75 36
REMARK SMILES IDX 77 37 28 38 80 39 74 40 73 41 29 43 61 44 41 45 60 46 42 47
REMARK SMILES IDX 45 48 59 49 78 50 43 51 44 52 58 54 79 55 46 56 30 57 31 58
REMARK SMILES IDX 39 59 32 60 38 61 40 62 37 63 33 64 34 65 35 66 36 67 62 68
REMARK SMILES IDX 63 69 71 70 64 71 70 72 72 73 69 74 65 75 66 76 67 77 68 78
REMARK SMILES IDX 47 79 48 80 56 81 49 82 55 83 57 84 54 85 50 86 51 87 52 88
REMARK SMILES IDX 53 89
REMARK H PARENT 13 6 5 9 5 10 18 23 77 42 45 53
REMARK Flexibility Score: inf
ROOT
ATOM      1  C   UNL A   1      32.741  28.316  24.437  1.00  0.00     0.023 C 
ENDROOT
BRANCH   1   2
ATOM      2  C   UNL A   1      32.155  27.972  23.073  1.00  0.00     0.116 C 
BRANCH   2   3
ATOM      3  N   UNL A   1      32.992  27.160  22.198  1.00  0.00    -0.351 N 
ATOM      4  C   UNL A   1      32.903  25.935  21.612  1.00  0.00     0.278 C 
ATOM      5  O   UNL A   1      33.277  25.921  20.426  1.00  0.00    -0.268 OA
ATOM      6  H   UNL A   1      33.837  27.613  21.975  1.00  0.00     0.163 HD
BRANCH   4   7
ATOM      7  C   UNL A   1      32.661  24.563  22.308  1.00  0.00     0.278 C 
BRANCH   7   8
ATOM      8  N   UNL A   1      31.285  24.245  22.808  1.00  0.00    -0.334 N 
ATOM      9  H   UNL A   1      30.614  24.768  22.245  1.00  0.00     0.347 HD
ATOM     10  H   UNL A   1      31.177  23.234  22.728  1.00  0.00     0.347 HD
BRANCH   8  11
ATOM     11  C   UNL A   1      31.050  24.569  24.206  1.00  0.00     0.179 C 
ATOM     12  C   UNL A   1      30.829  23.311  25.047  1.00  0.00     0.075 C 
BRANCH  11  13
ATOM     13  C   UNL A   1      29.938  25.600  24.469  1.00  0.00     0.061 C 
ATOM     14  C   UNL A   1      29.910  25.967  25.961  1.00  0.00     0.010 C 
ENDBRANCH  11  13
ENDBRANCH   8  11
ENDBRANCH   7   8
BRANCH   7  15
ATOM     15  C   UNL A   1      33.855  23.996  23.119  1.00  0.00     0.166 C 
BRANCH  15  16
ATOM     16  N   UNL A   1      34.395  24.916  24.131  1.00  0.00    -0.087 NA
ATOM     17  N   UNL A   1      35.312  24.467  24.850  1.00  0.00     0.001 N 
ATOM     18  N   UNL A   1      36.135  24.049  25.511  1.00  0.00    -0.003 NA
ENDBRANCH  15  16
ENDBRANCH   7  15
ENDBRANCH   4   7
ENDBRANCH   2   3
ENDBRANCH   1   2
BRANCH   1  19
ATOM     19  C   UNL A   1      32.195  29.647  24.966  1.00  0.00     0.023 C 
BRANCH  19  20
ATOM     20  C   UNL A   1      32.383  29.912  26.460  1.00  0.00     0.116 C 
BRANCH  20  21
ATOM     21  N   UNL A   1      32.261  31.307  26.855  1.00  0.00    -0.352 N 
ATOM     22  C   UNL A   1      33.237  32.098  27.434  1.00  0.00     0.251 C 
ATOM     23  H   UNL A   1      31.389  31.734  26.690  1.00  0.00     0.163 HD
ATOM     24  O   UNL A   1      33.002  33.259  27.746  1.00  0.00    -0.269 OA
BRANCH  22  25
ATOM     25  C   UNL A   1      34.550  31.482  27.733  1.00  0.00     0.039 A 
ATOM     26  C   UNL A   1      35.633  32.321  28.002  1.00  0.00     0.014 A 
ATOM     27  C   UNL A   1      34.656  30.102  27.926  1.00  0.00     0.014 A 
ATOM     28  C   UNL A   1      36.785  31.787  28.582  1.00  0.00     0.010 A 
ATOM     29  C   UNL A   1      35.776  29.586  28.577  1.00  0.00     0.010 A 
ATOM     30  C   UNL A   1      36.839  30.430  28.944  1.00  0.00    -0.014 A 
BRANCH  30  31
ATOM     31  C   UNL A   1      37.962  29.900  29.769  1.00  0.00     0.031 A 
ATOM     32  C   UNL A   1      38.152  30.372  31.184  1.00  0.00     0.074 A 
ATOM     33  C   UNL A   1      38.849  29.044  29.215  1.00  0.00     0.049 A 
ATOM     34  N   UNL A   1      39.107  30.078  32.029  1.00  0.00    -0.248 NA
ATOM     35  C   UNL A   1      37.151  31.311  31.713  1.00  0.00     0.031 C 
ATOM     36  C   UNL A   1      38.794  28.542  27.839  1.00  0.00     0.029 A 
ATOM     37  N   UNL A   1      39.976  28.448  29.732  1.00  0.00    -0.354 N 
ATOM     38  C   UNL A   1      38.830  30.802  33.183  1.00  0.00     0.074 A 
ATOM     39  C   UNL A   1      37.642  31.583  32.914  1.00  0.00     0.031 C 
ATOM     40  C   UNL A   1      39.820  27.702  27.630  1.00  0.00     0.029 A 
ATOM     41  C   UNL A   1      40.647  27.648  28.831  1.00  0.00     0.049 A 
ATOM     42  H   UNL A   1      40.276  28.579  30.660  1.00  0.00     0.167 HD
ATOM     43  C   UNL A   1      39.499  30.803  34.361  1.00  0.00     0.034 A 
ATOM     44  C   UNL A   1      41.810  26.971  28.947  1.00  0.00     0.034 A 
ATOM     45  C   UNL A   1      40.674  30.007  34.619  1.00  0.00     0.049 A 
ATOM     46  C   UNL A   1      42.557  27.033  30.259  1.00  0.00     0.074 A 
ATOM     47  C   UNL A   1      41.376  29.877  35.805  1.00  0.00     0.029 A 
ATOM     48  N   UNL A   1      41.333  29.227  33.681  1.00  0.00    -0.354 N 
ATOM     49  N   UNL A   1      42.227  27.657  31.367  1.00  0.00    -0.248 NA
ATOM     50  C   UNL A   1      43.828  26.299  30.340  1.00  0.00     0.031 C 
ATOM     51  C   UNL A   1      42.509  29.097  35.560  1.00  0.00     0.029 A 
ATOM     52  C   UNL A   1      42.466  28.662  34.246  1.00  0.00     0.049 A 
ATOM     53  H   UNL A   1      41.040  29.095  32.750  1.00  0.00     0.167 HD
ATOM     54  C   UNL A   1      43.240  27.368  32.278  1.00  0.00     0.074 A 
ATOM     55  C   UNL A   1      44.171  26.491  31.603  1.00  0.00     0.031 C 
ATOM     56  C   UNL A   1      43.392  27.796  33.558  1.00  0.00     0.034 A 
BRANCH  43  57
ATOM     57  C   UNL A   1      39.003  31.710  35.459  1.00  0.00     0.023 A 
ATOM     58  C   UNL A   1      38.359  31.211  36.604  1.00  0.00     0.031 A 
ATOM     59  C   UNL A   1      39.223  33.097  35.377  1.00  0.00     0.131 A 
ATOM     60  C   UNL A   1      37.923  32.096  37.601  1.00  0.00     0.055 A 
ATOM     61  C   UNL A   1      38.850  33.964  36.405  1.00  0.00     0.041 A 
ATOM     62  F   UNL A   1      39.812  33.632  34.295  1.00  0.00    -0.206 F 
ATOM     63  C   UNL A   1      38.189  33.466  37.523  1.00  0.00     0.022 A 
BRANCH  60  64
ATOM     64  S   UNL A   1      36.911  31.446  38.958  1.00  0.00     0.124 S 
ATOM     65  O   UNL A   1      36.651  30.082  38.505  1.00  0.00    -0.237 OA
ATOM     66  O   UNL A   1      37.801  31.578  40.107  1.00  0.00    -0.237 OA
ATOM     67  O   UNL A   1      35.745  32.326  38.969  1.00  0.00    -0.744 OA
ENDBRANCH  60  64
ENDBRANCH  43  57
BRANCH  44  68
ATOM     68  C   UNL A   1      42.385  26.220  27.788  1.00  0.00     0.023 A 
ATOM     69  C   UNL A   1      41.957  24.917  27.481  1.00  0.00     0.031 A 
ATOM     70  C   UNL A   1      43.446  26.752  27.032  1.00  0.00     0.131 A 
ATOM     71  C   UNL A   1      42.633  24.168  26.503  1.00  0.00     0.055 A 
ATOM     72  C   UNL A   1      44.064  26.031  26.009  1.00  0.00     0.041 A 
ATOM     73  F   UNL A   1      43.906  27.989  27.282  1.00  0.00    -0.206 F 
ATOM     74  C   UNL A   1      43.672  24.722  25.754  1.00  0.00     0.022 A 
BRANCH  71  75
ATOM     75  S   UNL A   1      42.232  22.406  26.333  1.00  0.00     0.124 S 
ATOM     76  O   UNL A   1      43.032  22.033  25.171  1.00  0.00    -0.237 OA
ATOM     77  O   UNL A   1      42.674  21.869  27.616  1.00  0.00    -0.237 OA
ATOM     78  O   UNL A   1      40.786  22.405  26.122  1.00  0.00    -0.744 OA
ENDBRANCH  71  75
ENDBRANCH  44  68
BRANCH  56  79
ATOM     79  C   UNL A   1      44.597  27.294  34.315  1.00  0.00     0.023 A 
ATOM     80  C   UNL A   1      44.576  26.070  35.006  1.00  0.00     0.031 A 
ATOM     81  C   UNL A   1      45.785  28.048  34.344  1.00  0.00     0.131 A 
ATOM     82  C   UNL A   1      45.699  25.661  35.739  1.00  0.00     0.055 A 
ATOM     83  C   UNL A   1      46.923  27.602  35.017  1.00  0.00     0.041 A 
ATOM     84  F   UNL A   1      45.861  29.227  33.706  1.00  0.00    -0.206 F 
ATOM     85  C   UNL A   1      46.880  26.408  35.730  1.00  0.00     0.022 A 
BRANCH  82  86
ATOM     86  S   UNL A   1      45.568  24.181  36.778  1.00  0.00     0.124 S 
ATOM     87  O   UNL A   1      46.958  23.744  36.858  1.00  0.00    -0.237 OA
ATOM     88  O   UNL A   1      44.995  24.712  38.010  1.00  0.00    -0.237 OA
ATOM     89  O   UNL A   1      44.685  23.303  36.013  1.00  0.00    -0.744 OA
ENDBRANCH  82  86
ENDBRANCH  56  79
ENDBRANCH  30  31
ENDBRANCH  22  25
ENDBRANCH  20  21
ENDBRANCH  19  20
ENDBRANCH   1  19
TORSDOF 19
ENDMDL
