MODEL 1
REMARK VINA RESULT:     -12.0      0.000      0.000
REMARK SMILES C[C@H](NC(=O)OCc1ccccc1)C(=O)NCC(=O)N1CCC[C@H]1C(=O)NCCCCNC(=O)c1ccc(-c2c3nc(c(-c4cc(S(=O)(=O)[O-])ccc4F)c4ccc([nH]4)c(-c4cc(S(=O)(=O)[O-])ccc4F)c4nc(c(-c5cc(S(=O)(=O)[O-])ccc5F)c5ccc2[nH]5)C=C4)C=C3)cc1
REMARK SMILES IDX 25 1 26 2 27 3 24 5 20 6 21 7 22 8 23 9 18 10 19 11 17 12
REMARK SMILES IDX 16 13 14 14 15 15 2 17 1 18 3 19 4 20 5 22 6 23 7 24 8 25
REMARK SMILES IDX 9 26 13 27 10 28 12 29 11 30 28 31 29 32 30 33 31 34 32 35
REMARK SMILES IDX 33 36 34 38 35 39 36 40 97 41 37 42 96 43 38 44 39 45 40 46
REMARK SMILES IDX 90 47 41 48 95 49 89 50 91 51 42 52 94 53 88 54 87 55 43 57
REMARK SMILES IDX 75 58 55 59 74 60 56 61 59 62 73 63 92 64 57 65 58 66 72 68
REMARK SMILES IDX 93 69 60 70 44 71 45 72 53 73 46 74 52 75 54 76 51 77 47 78
REMARK SMILES IDX 48 79 49 80 50 81 76 82 77 83 85 84 78 85 84 86 86 87 83 88
REMARK SMILES IDX 79 89 80 90 81 91 82 92 61 93 62 94 70 95 63 96 69 97 71 98
REMARK SMILES IDX 68 99 64 100 65 101 66 102 67 103
REMARK H PARENT 27 4 16 16 3 21 32 37 91 56 59 67
REMARK Flexibility Score: inf
ROOT
ATOM      1  C   UNL A   1      30.970  23.532  26.668  1.00  0.00     0.242 C 
ATOM      2  O   UNL A   1      29.899  23.004  26.982  1.00  0.00    -0.273 OA
ATOM      3  N   UNL A   1      31.004  24.893  26.533  1.00  0.00    -0.354 N 
ATOM      4  H   UNL A   1      30.129  25.337  26.448  1.00  0.00     0.163 HD
ENDROOT
BRANCH   1   5
ATOM      5  C   UNL A   1      32.259  22.701  26.473  1.00  0.00     0.174 C 
ATOM      6  N   UNL A   1      32.964  23.011  25.214  1.00  0.00    -0.329 N 
ATOM      7  C   UNL A   1      34.150  23.799  25.495  1.00  0.00     0.120 C 
ATOM      8  C   UNL A   1      34.583  23.315  26.865  1.00  0.00     0.024 C 
ATOM      9  C   UNL A   1      33.267  23.057  27.587  1.00  0.00     0.037 C 
BRANCH   6  10
ATOM     10  C   UNL A   1      32.408  22.652  24.009  1.00  0.00     0.242 C 
ATOM     11  O   UNL A   1      32.654  21.553  23.501  1.00  0.00    -0.273 OA
BRANCH  10  12
ATOM     12  C   UNL A   1      31.707  23.665  23.096  1.00  0.00     0.216 C 
BRANCH  12  13
ATOM     13  N   UNL A   1      32.298  24.121  21.859  1.00  0.00    -0.345 N 
ATOM     14  C   UNL A   1      32.544  25.393  21.425  1.00  0.00     0.242 C 
ATOM     15  O   UNL A   1      33.232  25.523  20.408  1.00  0.00    -0.273 OA
ATOM     16  H   UNL A   1      32.562  23.408  21.234  1.00  0.00     0.164 HD
BRANCH  14  17
ATOM     17  C   UNL A   1      32.090  26.625  22.239  1.00  0.00     0.171 C 
ATOM     18  C   UNL A   1      33.291  27.271  22.927  1.00  0.00     0.042 C 
BRANCH  17  19
ATOM     19  N   UNL A   1      31.015  26.265  23.158  1.00  0.00    -0.310 N 
ATOM     20  C   UNL A   1      29.879  26.955  23.433  1.00  0.00     0.408 C 
ATOM     21  H   UNL A   1      31.129  25.414  23.641  1.00  0.00     0.167 HD
ATOM     22  O   UNL A   1      29.075  26.531  24.253  1.00  0.00    -0.225 OA
BRANCH  20  23
ATOM     23  O   UNL A   1      29.782  28.114  22.748  1.00  0.00    -0.445 OA
BRANCH  23  24
ATOM     24  C   UNL A   1      29.719  29.293  23.561  1.00  0.00     0.270 C 
BRANCH  24  25
ATOM     25  C   UNL A   1      29.149  30.486  22.834  1.00  0.00    -0.011 A 
ATOM     26  C   UNL A   1      29.151  31.766  23.406  1.00  0.00     0.007 A 
ATOM     27  C   UNL A   1      28.563  30.310  21.572  1.00  0.00     0.007 A 
ATOM     28  C   UNL A   1      28.606  32.850  22.716  1.00  0.00     0.000 A 
ATOM     29  C   UNL A   1      28.014  31.394  20.886  1.00  0.00     0.000 A 
ATOM     30  C   UNL A   1      28.039  32.664  21.457  1.00  0.00     0.000 A 
ENDBRANCH  24  25
ENDBRANCH  23  24
ENDBRANCH  20  23
ENDBRANCH  17  19
ENDBRANCH  14  17
ENDBRANCH  12  13
ENDBRANCH  10  12
ENDBRANCH   6  10
ENDBRANCH   1   5
BRANCH   3  31
ATOM     31  C   UNL A   1      32.164  25.768  26.498  1.00  0.00     0.116 C 
BRANCH  31  32
ATOM     32  C   UNL A   1      31.806  27.244  26.583  1.00  0.00     0.023 C 
BRANCH  32  33
ATOM     33  C   UNL A   1      32.914  28.139  27.131  1.00  0.00     0.023 C 
BRANCH  33  34
ATOM     34  C   UNL A   1      33.542  29.098  26.124  1.00  0.00     0.116 C 
BRANCH  34  35
ATOM     35  N   UNL A   1      33.556  30.480  26.583  1.00  0.00    -0.352 N 
ATOM     36  C   UNL A   1      34.421  31.092  27.460  1.00  0.00     0.251 C 
ATOM     37  H   UNL A   1      32.848  31.054  26.214  1.00  0.00     0.163 HD
ATOM     38  O   UNL A   1      34.192  32.233  27.849  1.00  0.00    -0.269 OA
BRANCH  36  39
ATOM     39  C   UNL A   1      35.604  30.354  27.956  1.00  0.00     0.039 A 
ATOM     40  C   UNL A   1      36.784  30.382  27.209  1.00  0.00     0.014 A 
ATOM     41  C   UNL A   1      35.557  29.663  29.171  1.00  0.00     0.014 A 
ATOM     42  C   UNL A   1      37.938  29.779  27.716  1.00  0.00     0.010 A 
ATOM     43  C   UNL A   1      36.727  29.136  29.711  1.00  0.00     0.010 A 
ATOM     44  C   UNL A   1      37.930  29.187  28.990  1.00  0.00    -0.014 A 
BRANCH  44  45
ATOM     45  C   UNL A   1      39.168  28.613  29.584  1.00  0.00     0.031 A 
ATOM     46  C   UNL A   1      39.736  29.196  30.851  1.00  0.00     0.074 A 
ATOM     47  C   UNL A   1      39.813  27.610  28.954  1.00  0.00     0.049 A 
ATOM     48  N   UNL A   1      40.841  28.890  31.482  1.00  0.00    -0.248 NA
ATOM     49  C   UNL A   1      38.974  30.290  31.472  1.00  0.00     0.031 C 
ATOM     50  C   UNL A   1      39.383  26.986  27.701  1.00  0.00     0.029 A 
ATOM     51  N   UNL A   1      40.970  26.944  29.275  1.00  0.00    -0.354 N 
ATOM     52  C   UNL A   1      40.913  29.759  32.565  1.00  0.00     0.074 A 
ATOM     53  C   UNL A   1      39.774  30.647  32.463  1.00  0.00     0.031 C 
ATOM     54  C   UNL A   1      40.249  26.012  27.375  1.00  0.00     0.029 A 
ATOM     55  C   UNL A   1      41.322  25.973  28.364  1.00  0.00     0.049 A 
ATOM     56  H   UNL A   1      41.499  27.142  30.081  1.00  0.00     0.167 HD
ATOM     57  C   UNL A   1      41.829  29.798  33.565  1.00  0.00     0.034 A 
ATOM     58  C   UNL A   1      42.392  25.155  28.321  1.00  0.00     0.034 A 
ATOM     59  C   UNL A   1      42.954  28.900  33.655  1.00  0.00     0.049 A 
ATOM     60  C   UNL A   1      43.418  25.239  29.426  1.00  0.00     0.074 A 
ATOM     61  C   UNL A   1      43.914  28.818  34.649  1.00  0.00     0.029 A 
ATOM     62  N   UNL A   1      43.281  27.932  32.712  1.00  0.00    -0.354 N 
ATOM     63  N   UNL A   1      43.444  26.035  30.470  1.00  0.00    -0.248 NA
ATOM     64  C   UNL A   1      44.550  24.306  29.351  1.00  0.00     0.031 C 
ATOM     65  C   UNL A   1      44.858  27.857  34.272  1.00  0.00     0.029 A 
ATOM     66  C   UNL A   1      44.442  27.274  33.085  1.00  0.00     0.049 A 
ATOM     67  H   UNL A   1      42.761  27.741  31.897  1.00  0.00     0.167 HD
ATOM     68  C   UNL A   1      44.577  25.671  31.195  1.00  0.00     0.074 A 
ATOM     69  C   UNL A   1      45.196  24.578  30.474  1.00  0.00     0.031 C 
ATOM     70  C   UNL A   1      45.057  26.189  32.354  1.00  0.00     0.034 A 
BRANCH  57  71
ATOM     71  C   UNL A   1      41.660  30.866  34.622  1.00  0.00     0.023 A 
ATOM     72  C   UNL A   1      40.531  30.904  35.459  1.00  0.00     0.031 A 
ATOM     73  C   UNL A   1      42.626  31.875  34.777  1.00  0.00     0.131 A 
ATOM     74  C   UNL A   1      40.356  31.973  36.353  1.00  0.00     0.055 A 
ATOM     75  C   UNL A   1      42.489  32.886  35.730  1.00  0.00     0.041 A 
ATOM     76  F   UNL A   1      43.715  31.906  33.992  1.00  0.00    -0.206 F 
ATOM     77  C   UNL A   1      41.341  32.949  36.513  1.00  0.00     0.022 A 
BRANCH  74  78
ATOM     78  S   UNL A   1      38.756  32.149  37.187  1.00  0.00     0.124 S 
ATOM     79  O   UNL A   1      38.204  30.802  37.055  1.00  0.00    -0.237 OA
ATOM     80  O   UNL A   1      39.143  32.552  38.534  1.00  0.00    -0.237 OA
ATOM     81  O   UNL A   1      38.071  33.174  36.401  1.00  0.00    -0.744 OA
ENDBRANCH  74  78
ENDBRANCH  57  71
BRANCH  58  82
ATOM     82  C   UNL A   1      42.566  24.192  27.195  1.00  0.00     0.023 A 
ATOM     83  C   UNL A   1      42.020  22.900  27.256  1.00  0.00     0.031 A 
ATOM     84  C   UNL A   1      43.323  24.533  26.059  1.00  0.00     0.131 A 
ATOM     85  C   UNL A   1      42.280  21.980  26.227  1.00  0.00     0.055 A 
ATOM     86  C   UNL A   1      43.530  23.634  25.012  1.00  0.00     0.041 A 
ATOM     87  F   UNL A   1      43.866  25.756  25.948  1.00  0.00    -0.206 F 
ATOM     88  C   UNL A   1      43.018  22.343  25.099  1.00  0.00     0.022 A 
BRANCH  85  89
ATOM     89  S   UNL A   1      41.717  20.267  26.430  1.00  0.00     0.124 S 
ATOM     90  O   UNL A   1      40.271  20.416  26.325  1.00  0.00    -0.237 OA
ATOM     91  O   UNL A   1      42.378  19.598  25.314  1.00  0.00    -0.237 OA
ATOM     92  O   UNL A   1      42.213  19.901  27.755  1.00  0.00    -0.744 OA
ENDBRANCH  85  89
ENDBRANCH  58  82
BRANCH  70  93
ATOM     93  C   UNL A   1      46.285  25.537  32.945  1.00  0.00     0.023 A 
ATOM     94  C   UNL A   1      47.577  25.803  32.457  1.00  0.00     0.031 A 
ATOM     95  C   UNL A   1      46.157  24.627  34.009  1.00  0.00     0.131 A 
ATOM     96  C   UNL A   1      48.681  25.123  32.994  1.00  0.00     0.055 A 
ATOM     97  C   UNL A   1      47.264  24.004  34.584  1.00  0.00     0.041 A 
ATOM     98  F   UNL A   1      44.948  24.332  34.514  1.00  0.00    -0.206 F 
ATOM     99  C   UNL A   1      48.534  24.239  34.067  1.00  0.00     0.022 A 
BRANCH  96 100
ATOM    100  S   UNL A   1      50.302  25.331  32.206  1.00  0.00     0.124 S 
ATOM    101  O   UNL A   1      50.011  26.314  31.169  1.00  0.00    -0.237 OA
ATOM    102  O   UNL A   1      51.130  25.797  33.314  1.00  0.00    -0.237 OA
ATOM    103  O   UNL A   1      50.620  23.990  31.717  1.00  0.00    -0.744 OA
ENDBRANCH  96 100
ENDBRANCH  70  93
ENDBRANCH  44  45
ENDBRANCH  36  39
ENDBRANCH  34  35
ENDBRANCH  33  34
ENDBRANCH  32  33
ENDBRANCH  31  32
ENDBRANCH   3  31
TORSDOF 22
ENDMDL
MODEL 2
REMARK VINA RESULT:     -12.0      1.862      2.133
REMARK SMILES C[C@H](NC(=O)OCc1ccccc1)C(=O)NCC(=O)N1CCC[C@H]1C(=O)NCCCCNC(=O)c1ccc(-c2c3nc(c(-c4cc(S(=O)(=O)[O-])ccc4F)c4ccc([nH]4)c(-c4cc(S(=O)(=O)[O-])ccc4F)c4nc(c(-c5cc(S(=O)(=O)[O-])ccc5F)c5ccc2[nH]5)C=C4)C=C3)cc1
REMARK SMILES IDX 25 1 26 2 27 3 24 5 20 6 21 7 22 8 23 9 18 10 19 11 17 12
REMARK SMILES IDX 16 13 14 14 15 15 2 17 1 18 3 19 4 20 5 22 6 23 7 24 8 25
REMARK SMILES IDX 9 26 13 27 10 28 12 29 11 30 28 31 29 32 30 33 31 34 32 35
REMARK SMILES IDX 33 36 34 38 35 39 36 40 97 41 37 42 96 43 38 44 39 45 40 46
REMARK SMILES IDX 90 47 41 48 95 49 89 50 91 51 42 52 94 53 88 54 87 55 43 57
REMARK SMILES IDX 75 58 55 59 74 60 56 61 59 62 73 63 92 64 57 65 58 66 72 68
REMARK SMILES IDX 93 69 60 70 44 71 45 72 53 73 46 74 52 75 54 76 51 77 47 78
REMARK SMILES IDX 48 79 49 80 50 81 76 82 77 83 85 84 78 85 84 86 86 87 83 88
REMARK SMILES IDX 79 89 80 90 81 91 82 92 61 93 62 94 70 95 63 96 69 97 71 98
REMARK SMILES IDX 68 99 64 100 65 101 66 102 67 103
REMARK H PARENT 27 4 16 16 3 21 32 37 91 56 59 67
REMARK Flexibility Score: inf
ROOT
ATOM      1  C   UNL A   1      31.249  23.589  26.892  1.00  0.00     0.242 C 
ATOM      2  O   UNL A   1      30.257  23.069  27.413  1.00  0.00    -0.273 OA
ATOM      3  N   UNL A   1      31.251  24.946  26.721  1.00  0.00    -0.354 N 
ATOM      4  H   UNL A   1      30.373  25.387  26.791  1.00  0.00     0.163 HD
ENDROOT
BRANCH   1   5
ATOM      5  C   UNL A   1      32.482  22.753  26.480  1.00  0.00     0.174 C 
ATOM      6  N   UNL A   1      32.937  23.032  25.104  1.00  0.00    -0.329 N 
ATOM      7  C   UNL A   1      34.151  23.827  25.139  1.00  0.00     0.120 C 
ATOM      8  C   UNL A   1      34.835  23.376  26.416  1.00  0.00     0.024 C 
ATOM      9  C   UNL A   1      33.678  23.135  27.376  1.00  0.00     0.037 C 
BRANCH   6  10
ATOM     10  C   UNL A   1      32.168  22.643  24.033  1.00  0.00     0.242 C 
ATOM     11  O   UNL A   1      32.166  21.470  23.647  1.00  0.00    -0.273 OA
BRANCH  10  12
ATOM     12  C   UNL A   1      31.510  23.657  23.088  1.00  0.00     0.216 C 
BRANCH  12  13
ATOM     13  N   UNL A   1      32.168  24.130  21.892  1.00  0.00    -0.345 N 
ATOM     14  C   UNL A   1      32.424  25.408  21.484  1.00  0.00     0.242 C 
ATOM     15  O   UNL A   1      33.170  25.556  20.511  1.00  0.00    -0.273 OA
ATOM     16  H   UNL A   1      32.479  23.425  21.278  1.00  0.00     0.164 HD
BRANCH  14  17
ATOM     17  C   UNL A   1      31.906  26.627  22.278  1.00  0.00     0.171 C 
ATOM     18  C   UNL A   1      33.082  27.435  22.825  1.00  0.00     0.042 C 
BRANCH  17  19
ATOM     19  N   UNL A   1      30.960  26.207  23.306  1.00  0.00    -0.310 N 
ATOM     20  C   UNL A   1      29.792  26.797  23.664  1.00  0.00     0.408 C 
ATOM     21  H   UNL A   1      31.199  25.391  23.803  1.00  0.00     0.167 HD
ATOM     22  O   UNL A   1      29.110  26.333  24.569  1.00  0.00    -0.225 OA
BRANCH  20  23
ATOM     23  O   UNL A   1      29.520  27.913  22.954  1.00  0.00    -0.445 OA
BRANCH  23  24
ATOM     24  C   UNL A   1      29.850  29.143  23.612  1.00  0.00     0.270 C 
BRANCH  24  25
ATOM     25  C   UNL A   1      29.258  30.355  22.936  1.00  0.00    -0.011 A 
ATOM     26  C   UNL A   1      28.971  31.528  23.649  1.00  0.00     0.007 A 
ATOM     27  C   UNL A   1      28.943  30.299  21.571  1.00  0.00     0.007 A 
ATOM     28  C   UNL A   1      28.411  32.630  23.002  1.00  0.00     0.000 A 
ATOM     29  C   UNL A   1      28.379  31.400  20.926  1.00  0.00     0.000 A 
ATOM     30  C   UNL A   1      28.116  32.566  21.641  1.00  0.00     0.000 A 
ENDBRANCH  24  25
ENDBRANCH  23  24
ENDBRANCH  20  23
ENDBRANCH  17  19
ENDBRANCH  14  17
ENDBRANCH  12  13
ENDBRANCH  10  12
ENDBRANCH   6  10
ENDBRANCH   1   5
BRANCH   3  31
ATOM     31  C   UNL A   1      32.380  25.820  26.449  1.00  0.00     0.116 C 
BRANCH  31  32
ATOM     32  C   UNL A   1      32.028  27.298  26.523  1.00  0.00     0.023 C 
BRANCH  32  33
ATOM     33  C   UNL A   1      33.104  28.179  27.152  1.00  0.00     0.023 C 
BRANCH  33  34
ATOM     34  C   UNL A   1      33.741  29.204  26.217  1.00  0.00     0.116 C 
BRANCH  34  35
ATOM     35  N   UNL A   1      33.721  30.557  26.754  1.00  0.00    -0.352 N 
ATOM     36  C   UNL A   1      34.567  31.136  27.671  1.00  0.00     0.251 C 
ATOM     37  H   UNL A   1      33.003  31.136  26.414  1.00  0.00     0.163 HD
ATOM     38  O   UNL A   1      34.310  32.248  28.124  1.00  0.00    -0.269 OA
BRANCH  36  39
ATOM     39  C   UNL A   1      35.763  30.397  28.133  1.00  0.00     0.039 A 
ATOM     40  C   UNL A   1      36.922  30.428  27.356  1.00  0.00     0.014 A 
ATOM     41  C   UNL A   1      35.748  29.701  29.346  1.00  0.00     0.014 A 
ATOM     42  C   UNL A   1      38.089  29.824  27.830  1.00  0.00     0.010 A 
ATOM     43  C   UNL A   1      36.931  29.172  29.854  1.00  0.00     0.010 A 
ATOM     44  C   UNL A   1      38.116  29.227  29.102  1.00  0.00    -0.014 A 
BRANCH  44  45
ATOM     45  C   UNL A   1      39.369  28.651  29.660  1.00  0.00     0.031 A 
ATOM     46  C   UNL A   1      40.016  29.282  30.864  1.00  0.00     0.074 A 
ATOM     47  C   UNL A   1      39.955  27.601  29.051  1.00  0.00     0.049 A 
ATOM     48  N   UNL A   1      41.145  28.979  31.453  1.00  0.00    -0.248 NA
ATOM     49  C   UNL A   1      39.314  30.425  31.466  1.00  0.00     0.031 C 
ATOM     50  C   UNL A   1      39.446  26.926  27.855  1.00  0.00     0.029 A 
ATOM     51  N   UNL A   1      41.112  26.921  29.346  1.00  0.00    -0.354 N 
ATOM     52  C   UNL A   1      41.294  29.899  32.485  1.00  0.00     0.074 A 
ATOM     53  C   UNL A   1      40.173  30.811  32.396  1.00  0.00     0.031 C 
ATOM     54  C   UNL A   1      40.271  25.914  27.537  1.00  0.00     0.029 A 
ATOM     55  C   UNL A   1      41.392  25.897  28.470  1.00  0.00     0.049 A 
ATOM     56  H   UNL A   1      41.687  27.145  30.114  1.00  0.00     0.167 HD
ATOM     57  C   UNL A   1      42.261  29.965  33.434  1.00  0.00     0.034 A 
ATOM     58  C   UNL A   1      42.439  25.050  28.415  1.00  0.00     0.034 A 
ATOM     59  C   UNL A   1      43.368  29.042  33.513  1.00  0.00     0.049 A 
ATOM     60  C   UNL A   1      43.523  25.162  29.460  1.00  0.00     0.074 A 
ATOM     61  C   UNL A   1      44.377  28.986  34.460  1.00  0.00     0.029 A 
ATOM     62  N   UNL A   1      43.622  28.020  32.605  1.00  0.00    -0.354 N 
ATOM     63  N   UNL A   1      43.623  26.009  30.459  1.00  0.00    -0.248 NA
ATOM     64  C   UNL A   1      44.627  24.197  29.376  1.00  0.00     0.031 C 
ATOM     65  C   UNL A   1      45.277  27.982  34.084  1.00  0.00     0.029 A 
ATOM     66  C   UNL A   1      44.785  27.351  32.952  1.00  0.00     0.049 A 
ATOM     67  H   UNL A   1      43.056  27.802  31.829  1.00  0.00     0.167 HD
ATOM     68  C   UNL A   1      44.783  25.652  31.143  1.00  0.00     0.074 A 
ATOM     69  C   UNL A   1      45.337  24.508  30.449  1.00  0.00     0.031 C 
ATOM     70  C   UNL A   1      45.335  26.215  32.248  1.00  0.00     0.034 A 
BRANCH  57  71
ATOM     71  C   UNL A   1      42.173  31.088  34.441  1.00  0.00     0.023 A 
ATOM     72  C   UNL A   1      42.886  32.289  34.274  1.00  0.00     0.031 A 
ATOM     73  C   UNL A   1      41.389  30.947  35.599  1.00  0.00     0.131 A 
ATOM     74  C   UNL A   1      42.865  33.263  35.284  1.00  0.00     0.055 A 
ATOM     75  C   UNL A   1      41.302  31.957  36.559  1.00  0.00     0.041 A 
ATOM     76  F   UNL A   1      40.703  29.815  35.828  1.00  0.00    -0.206 F 
ATOM     77  C   UNL A   1      42.057  33.118  36.412  1.00  0.00     0.022 A 
BRANCH  74  78
ATOM     78  S   UNL A   1      44.030  34.649  35.171  1.00  0.00     0.124 S 
ATOM     79  O   UNL A   1      45.154  34.033  34.470  1.00  0.00    -0.237 OA
ATOM     80  O   UNL A   1      43.272  35.640  34.417  1.00  0.00    -0.237 OA
ATOM     81  O   UNL A   1      44.290  34.992  36.568  1.00  0.00    -0.744 OA
ENDBRANCH  74  78
ENDBRANCH  57  71
BRANCH  58  82
ATOM     82  C   UNL A   1      42.531  24.027  27.333  1.00  0.00     0.023 A 
ATOM     83  C   UNL A   1      41.789  22.837  27.396  1.00  0.00     0.031 A 
ATOM     84  C   UNL A   1      43.400  24.202  26.241  1.00  0.00     0.131 A 
ATOM     85  C   UNL A   1      41.966  21.847  26.415  1.00  0.00     0.055 A 
ATOM     86  C   UNL A   1      43.530  23.241  25.237  1.00  0.00     0.041 A 
ATOM     87  F   UNL A   1      44.132  25.322  26.129  1.00  0.00    -0.206 F 
ATOM     88  C   UNL A   1      42.820  22.048  25.329  1.00  0.00     0.022 A 
BRANCH  85  89
ATOM     89  S   UNL A   1      41.133  20.250  26.632  1.00  0.00     0.124 S 
ATOM     90  O   UNL A   1      42.076  19.336  25.999  1.00  0.00    -0.237 OA
ATOM     91  O   UNL A   1      41.026  20.160  28.085  1.00  0.00    -0.237 OA
ATOM     92  O   UNL A   1      39.866  20.429  25.926  1.00  0.00    -0.744 OA
ENDBRANCH  85  89
ENDBRANCH  58  82
BRANCH  70  93
ATOM     93  C   UNL A   1      46.577  25.561  32.808  1.00  0.00     0.023 A 
ATOM     94  C   UNL A   1      46.512  24.560  33.793  1.00  0.00     0.031 A 
ATOM     95  C   UNL A   1      47.847  25.957  32.352  1.00  0.00     0.131 A 
ATOM     96  C   UNL A   1      47.696  24.030  34.330  1.00  0.00     0.055 A 
ATOM     97  C   UNL A   1      49.019  25.379  32.841  1.00  0.00     0.041 A 
ATOM     98  F   UNL A   1      47.971  26.911  31.415  1.00  0.00    -0.206 F 
ATOM     99  C   UNL A   1      48.948  24.420  33.847  1.00  0.00     0.022 A 
BRANCH  96 100
ATOM    100  S   UNL A   1      47.583  22.896  35.741  1.00  0.00     0.124 S 
ATOM    101  O   UNL A   1      48.952  22.901  36.244  1.00  0.00    -0.237 OA
ATOM    102  O   UNL A   1      46.590  23.548  36.588  1.00  0.00    -0.237 OA
ATOM    103  O   UNL A   1      47.149  21.637  35.136  1.00  0.00    -0.744 OA
ENDBRANCH  96 100
ENDBRANCH  70  93
ENDBRANCH  44  45
ENDBRANCH  36  39
ENDBRANCH  34  35
ENDBRANCH  33  34
ENDBRANCH  32  33
ENDBRANCH  31  32
ENDBRANCH   3  31
TORSDOF 22
ENDMDL
MODEL 3
REMARK VINA RESULT:     -11.5      2.179      7.561
REMARK SMILES C[C@H](NC(=O)OCc1ccccc1)C(=O)NCC(=O)N1CCC[C@H]1C(=O)NCCCCNC(=O)c1ccc(-c2c3nc(c(-c4cc(S(=O)(=O)[O-])ccc4F)c4ccc([nH]4)c(-c4cc(S(=O)(=O)[O-])ccc4F)c4nc(c(-c5cc(S(=O)(=O)[O-])ccc5F)c5ccc2[nH]5)C=C4)C=C3)cc1
REMARK SMILES IDX 25 1 26 2 27 3 24 5 20 6 21 7 22 8 23 9 18 10 19 11 17 12
REMARK SMILES IDX 16 13 14 14 15 15 2 17 1 18 3 19 4 20 5 22 6 23 7 24 8 25
REMARK SMILES IDX 9 26 13 27 10 28 12 29 11 30 28 31 29 32 30 33 31 34 32 35
REMARK SMILES IDX 33 36 34 38 35 39 36 40 97 41 37 42 96 43 38 44 39 45 40 46
REMARK SMILES IDX 90 47 41 48 95 49 89 50 91 51 42 52 94 53 88 54 87 55 43 57
REMARK SMILES IDX 75 58 55 59 74 60 56 61 59 62 73 63 92 64 57 65 58 66 72 68
REMARK SMILES IDX 93 69 60 70 44 71 45 72 53 73 46 74 52 75 54 76 51 77 47 78
REMARK SMILES IDX 48 79 49 80 50 81 76 82 77 83 85 84 78 85 84 86 86 87 83 88
REMARK SMILES IDX 79 89 80 90 81 91 82 92 61 93 62 94 70 95 63 96 69 97 71 98
REMARK SMILES IDX 68 99 64 100 65 101 66 102 67 103
REMARK H PARENT 27 4 16 16 3 21 32 37 91 56 59 67
REMARK Flexibility Score: inf
ROOT
ATOM      1  C   UNL A   1      30.671  23.344  26.508  1.00  0.00     0.242 C 
ATOM      2  O   UNL A   1      29.675  22.689  26.831  1.00  0.00    -0.273 OA
ATOM      3  N   UNL A   1      30.577  24.709  26.516  1.00  0.00    -0.354 N 
ATOM      4  H   UNL A   1      29.662  25.074  26.534  1.00  0.00     0.163 HD
ENDROOT
BRANCH   1   5
ATOM      5  C   UNL A   1      32.010  22.661  26.145  1.00  0.00     0.174 C 
ATOM      6  N   UNL A   1      32.705  23.312  25.017  1.00  0.00    -0.329 N 
ATOM      7  C   UNL A   1      33.838  24.073  25.510  1.00  0.00     0.120 C 
ATOM      8  C   UNL A   1      34.288  23.292  26.730  1.00  0.00     0.024 C 
ATOM      9  C   UNL A   1      32.984  22.790  27.335  1.00  0.00     0.037 C 
BRANCH   6  10
ATOM     10  C   UNL A   1      32.183  23.229  23.748  1.00  0.00     0.242 C 
ATOM     11  O   UNL A   1      32.241  22.174  23.107  1.00  0.00    -0.273 OA
BRANCH  10  12
ATOM     12  C   UNL A   1      31.773  24.472  22.949  1.00  0.00     0.216 C 
BRANCH  12  13
ATOM     13  N   UNL A   1      32.747  25.361  22.360  1.00  0.00    -0.345 N 
ATOM     14  C   UNL A   1      32.659  26.697  22.090  1.00  0.00     0.242 C 
ATOM     15  O   UNL A   1      33.696  27.279  21.755  1.00  0.00    -0.273 OA
ATOM     16  H   UNL A   1      33.603  24.940  22.115  1.00  0.00     0.164 HD
BRANCH  14  17
ATOM     17  C   UNL A   1      31.347  27.480  22.313  1.00  0.00     0.171 C 
ATOM     18  C   UNL A   1      31.656  28.951  22.591  1.00  0.00     0.042 C 
BRANCH  17  19
ATOM     19  N   UNL A   1      30.541  26.848  23.351  1.00  0.00    -0.310 N 
ATOM     20  C   UNL A   1      29.197  26.909  23.525  1.00  0.00     0.408 C 
ATOM     21  H   UNL A   1      31.035  26.307  24.010  1.00  0.00     0.167 HD
ATOM     22  O   UNL A   1      28.662  26.336  24.466  1.00  0.00    -0.225 OA
BRANCH  20  23
ATOM     23  O   UNL A   1      28.574  27.668  22.597  1.00  0.00    -0.445 OA
BRANCH  23  24
ATOM     24  C   UNL A   1      27.677  28.654  23.126  1.00  0.00     0.270 C 
BRANCH  24  25
ATOM     25  C   UNL A   1      28.068  30.065  22.765  1.00  0.00    -0.011 A 
ATOM     26  C   UNL A   1      28.429  31.002  23.744  1.00  0.00     0.007 A 
ATOM     27  C   UNL A   1      28.028  30.471  21.423  1.00  0.00     0.007 A 
ATOM     28  C   UNL A   1      28.773  32.305  23.383  1.00  0.00     0.000 A 
ATOM     29  C   UNL A   1      28.367  31.776  21.065  1.00  0.00     0.000 A 
ATOM     30  C   UNL A   1      28.743  32.691  22.044  1.00  0.00     0.000 A 
ENDBRANCH  24  25
ENDBRANCH  23  24
ENDBRANCH  20  23
ENDBRANCH  17  19
ENDBRANCH  14  17
ENDBRANCH  12  13
ENDBRANCH  10  12
ENDBRANCH   6  10
ENDBRANCH   1   5
BRANCH   3  31
ATOM     31  C   UNL A   1      31.651  25.688  26.501  1.00  0.00     0.116 C 
BRANCH  31  32
ATOM     32  C   UNL A   1      31.160  27.120  26.659  1.00  0.00     0.023 C 
BRANCH  32  33
ATOM     33  C   UNL A   1      32.213  28.103  27.166  1.00  0.00     0.023 C 
BRANCH  33  34
ATOM     34  C   UNL A   1      32.812  29.025  26.108  1.00  0.00     0.116 C 
BRANCH  34  35
ATOM     35  N   UNL A   1      32.477  30.426  26.316  1.00  0.00    -0.352 N 
ATOM     36  C   UNL A   1      33.136  31.371  27.069  1.00  0.00     0.251 C 
ATOM     37  H   UNL A   1      31.667  30.740  25.855  1.00  0.00     0.163 HD
ATOM     38  O   UNL A   1      32.626  32.472  27.252  1.00  0.00    -0.269 OA
BRANCH  36  39
ATOM     39  C   UNL A   1      34.441  31.038  27.682  1.00  0.00     0.039 A 
ATOM     40  C   UNL A   1      35.342  32.068  27.961  1.00  0.00     0.014 A 
ATOM     41  C   UNL A   1      34.759  29.717  28.011  1.00  0.00     0.014 A 
ATOM     42  C   UNL A   1      36.532  31.782  28.635  1.00  0.00     0.010 A 
ATOM     43  C   UNL A   1      35.904  29.447  28.755  1.00  0.00     0.010 A 
ATOM     44  C   UNL A   1      36.804  30.476  29.075  1.00  0.00    -0.014 A 
BRANCH  44  45
ATOM     45  C   UNL A   1      38.025  30.166  29.867  1.00  0.00     0.031 A 
ATOM     46  C   UNL A   1      39.064  29.228  29.312  1.00  0.00     0.074 A 
ATOM     47  C   UNL A   1      38.172  30.678  31.106  1.00  0.00     0.049 A 
ATOM     48  N   UNL A   1      40.155  28.772  29.873  1.00  0.00    -0.248 NA
ATOM     49  C   UNL A   1      38.827  28.710  27.956  1.00  0.00     0.031 C 
ATOM     50  C   UNL A   1      37.217  31.568  31.769  1.00  0.00     0.029 A 
ATOM     51  N   UNL A   1      39.173  30.518  32.032  1.00  0.00    -0.354 N 
ATOM     52  C   UNL A   1      40.727  27.908  28.946  1.00  0.00     0.074 A 
ATOM     53  C   UNL A   1      39.825  27.852  27.816  1.00  0.00     0.031 C 
ATOM     54  C   UNL A   1      37.691  31.897  32.983  1.00  0.00     0.029 A 
ATOM     55  C   UNL A   1      38.956  31.204  33.206  1.00  0.00     0.049 A 
ATOM     56  H   UNL A   1      39.972  29.966  31.871  1.00  0.00     0.167 HD
ATOM     57  C   UNL A   1      41.906  27.240  29.020  1.00  0.00     0.034 A 
ATOM     58  C   UNL A   1      39.684  31.257  34.339  1.00  0.00     0.034 A 
ATOM     59  C   UNL A   1      42.798  27.313  30.152  1.00  0.00     0.049 A 
ATOM     60  C   UNL A   1      40.976  30.479  34.413  1.00  0.00     0.074 A 
ATOM     61  C   UNL A   1      44.038  26.719  30.311  1.00  0.00     0.029 A 
ATOM     62  N   UNL A   1      42.542  28.013  31.325  1.00  0.00    -0.354 N 
ATOM     63  N   UNL A   1      41.526  29.704  33.507  1.00  0.00    -0.248 NA
ATOM     64  C   UNL A   1      41.748  30.594  35.657  1.00  0.00     0.031 C 
ATOM     65  C   UNL A   1      44.496  26.997  31.603  1.00  0.00     0.029 A 
ATOM     66  C   UNL A   1      43.585  27.839  32.221  1.00  0.00     0.049 A 
ATOM     67  H   UNL A   1      41.738  28.556  31.494  1.00  0.00     0.167 HD
ATOM     68  C   UNL A   1      42.728  29.269  34.061  1.00  0.00     0.074 A 
ATOM     69  C   UNL A   1      42.826  29.879  35.370  1.00  0.00     0.031 C 
ATOM     70  C   UNL A   1      43.669  28.446  33.530  1.00  0.00     0.034 A 
BRANCH  57  71
ATOM     71  C   UNL A   1      42.278  26.356  27.852  1.00  0.00     0.023 A 
ATOM     72  C   UNL A   1      41.943  24.991  27.822  1.00  0.00     0.031 A 
ATOM     73  C   UNL A   1      43.003  26.877  26.766  1.00  0.00     0.131 A 
ATOM     74  C   UNL A   1      42.401  24.178  26.773  1.00  0.00     0.055 A 
ATOM     75  C   UNL A   1      43.380  26.082  25.682  1.00  0.00     0.041 A 
ATOM     76  F   UNL A   1      43.373  28.167  26.746  1.00  0.00    -0.206 F 
ATOM     77  C   UNL A   1      43.094  24.720  25.689  1.00  0.00     0.022 A 
BRANCH  74  78
ATOM     78  S   UNL A   1      42.213  22.381  26.925  1.00  0.00     0.124 S 
ATOM     79  O   UNL A   1      42.249  22.203  28.376  1.00  0.00    -0.237 OA
ATOM     80  O   UNL A   1      40.925  22.142  26.285  1.00  0.00    -0.237 OA
ATOM     81  O   UNL A   1      43.374  21.852  26.212  1.00  0.00    -0.744 OA
ENDBRANCH  74  78
ENDBRANCH  57  71
BRANCH  58  82
ATOM     82  C   UNL A   1      39.215  32.062  35.505  1.00  0.00     0.023 A 
ATOM     83  C   UNL A   1      38.553  31.455  36.585  1.00  0.00     0.031 A 
ATOM     84  C   UNL A   1      39.377  33.458  35.535  1.00  0.00     0.131 A 
ATOM     85  C   UNL A   1      38.035  32.246  37.623  1.00  0.00     0.055 A 
ATOM     86  C   UNL A   1      38.911  34.235  36.597  1.00  0.00     0.041 A 
ATOM     87  F   UNL A   1      40.003  34.090  34.529  1.00  0.00    -0.206 F 
ATOM     88  C   UNL A   1      38.222  33.629  37.644  1.00  0.00     0.022 A 
BRANCH  85  89
ATOM     89  S   UNL A   1      37.026  31.448  38.903  1.00  0.00     0.124 S 
ATOM     90  O   UNL A   1      35.816  32.261  38.877  1.00  0.00    -0.237 OA
ATOM     91  O   UNL A   1      36.898  30.089  38.383  1.00  0.00    -0.237 OA
ATOM     92  O   UNL A   1      37.841  31.578  40.109  1.00  0.00    -0.744 OA
ENDBRANCH  85  89
ENDBRANCH  58  82
BRANCH  70  93
ATOM     93  C   UNL A   1      44.915  28.205  34.350  1.00  0.00     0.023 A 
ATOM     94  C   UNL A   1      45.016  27.133  35.255  1.00  0.00     0.031 A 
ATOM     95  C   UNL A   1      46.017  29.070  34.228  1.00  0.00     0.131 A 
ATOM     96  C   UNL A   1      46.168  26.989  36.043  1.00  0.00     0.055 A 
ATOM     97  C   UNL A   1      47.186  28.883  34.965  1.00  0.00     0.041 A 
ATOM     98  F   UNL A   1      45.977  30.113  33.382  1.00  0.00    -0.206 F 
ATOM     99  C   UNL A   1      47.261  27.847  35.889  1.00  0.00     0.022 A 
BRANCH  96 100
ATOM    100  S   UNL A   1      46.183  25.726  37.344  1.00  0.00     0.124 S 
ATOM    101  O   UNL A   1      47.255  24.843  36.897  1.00  0.00    -0.237 OA
ATOM    102  O   UNL A   1      46.463  26.513  38.540  1.00  0.00    -0.237 OA
ATOM    103  O   UNL A   1      44.840  25.151  37.280  1.00  0.00    -0.744 OA
ENDBRANCH  96 100
ENDBRANCH  70  93
ENDBRANCH  44  45
ENDBRANCH  36  39
ENDBRANCH  34  35
ENDBRANCH  33  34
ENDBRANCH  32  33
ENDBRANCH  31  32
ENDBRANCH   3  31
TORSDOF 22
ENDMDL
