MODEL 1
REMARK VINA RESULT:     -10.8      0.000      0.000
REMARK SMILES COC[C@@H](C)N(C)c1nc(C(C)C)c(C(=O)NCCCCNC(=O)c2ccc(-c3c4nc(c(-c5cc(S(=O)(=O)[O-])ccc5F)c5ccc([nH]5)c(-c5cc(S(=O)(=O)[O-])ccc5F)c5nc(c(-c6cc(S(=O)(=O)[O-])ccc6F)c6ccc3[nH]6)C=C5)C=C4)cc2)s1
REMARK SMILES IDX 19 1 18 2 17 3 15 4 16 5 14 7 8 8 9 9 88 10 10 11 6 12 7 13
REMARK SMILES IDX 4 14 5 15 3 16 2 17 1 18 11 19 12 20 13 21 20 22 21 23 22 24
REMARK SMILES IDX 23 25 24 27 25 28 26 29 87 30 27 31 86 32 28 33 29 34 30 35
REMARK SMILES IDX 80 36 31 37 85 38 79 39 81 40 32 41 84 42 78 43 77 44 33 46
REMARK SMILES IDX 65 47 45 48 64 49 46 50 49 51 63 52 82 53 47 54 48 55 62 57
REMARK SMILES IDX 83 58 50 59 34 60 35 61 43 62 36 63 42 64 44 65 41 66 37 67
REMARK SMILES IDX 38 68 39 69 40 70 66 71 67 72 75 73 68 74 74 75 76 76 73 77
REMARK SMILES IDX 69 78 70 79 71 80 72 81 51 82 52 83 60 84 53 85 59 86 61 87
REMARK SMILES IDX 58 88 54 89 55 90 56 91 57 92
REMARK H PARENT 17 6 22 26 81 45 49 56
REMARK Flexibility Score: inf
ROOT
ATOM      1  C   UNL A   1      31.585  30.510  26.213  1.00  0.00     0.023 C 
ENDROOT
BRANCH   1   2
ATOM      2  C   UNL A   1      32.977  29.927  26.447  1.00  0.00     0.116 C 
BRANCH   2   3
ATOM      3  N   UNL A   1      33.595  29.497  25.221  1.00  0.00    -0.351 N 
ATOM      4  C   UNL A   1      33.477  28.437  24.368  1.00  0.00     0.263 C 
ATOM      5  O   UNL A   1      34.272  28.553  23.421  1.00  0.00    -0.268 OA
ATOM      6  H   UNL A   1      34.283  30.134  24.919  1.00  0.00     0.163 HD
BRANCH   4   7
ATOM      7  C   UNL A   1      32.560  27.295  24.463  1.00  0.00     0.117 A 
ATOM      8  C   UNL A   1      31.936  24.931  24.995  1.00  0.00     0.186 A 
ATOM      9  N   UNL A   1      30.974  25.573  24.395  1.00  0.00    -0.224 NA
ATOM     10  S   UNL A   1      33.331  25.886  25.200  1.00  0.00    -0.091 S 
ATOM     11  C   UNL A   1      31.236  26.926  24.209  1.00  0.00     0.069 A 
BRANCH   8  12
ATOM     12  N   UNL A   1      31.811  23.633  25.389  1.00  0.00    -0.346 N 
ATOM     13  C   UNL A   1      30.855  23.255  26.412  1.00  0.00     0.146 C 
BRANCH  12  14
ATOM     14  C   UNL A   1      32.695  22.596  24.817  1.00  0.00     0.107 C 
ATOM     15  C   UNL A   1      32.652  22.675  23.287  1.00  0.00     0.033 C 
BRANCH  14  16
ATOM     16  C   UNL A   1      32.406  21.180  25.376  1.00  0.00     0.184 C 
BRANCH  16  17
ATOM     17  O   UNL A   1      33.525  20.602  26.065  1.00  0.00    -0.383 OA
ATOM     18  C   UNL A   1      34.224  21.533  26.885  1.00  0.00     0.194 C 
ENDBRANCH  16  17
ENDBRANCH  14  16
ENDBRANCH  12  14
ENDBRANCH   8  12
BRANCH  11  19
ATOM     19  C   UNL A   1      29.970  27.643  23.818  1.00  0.00     0.034 C 
ATOM     20  C   UNL A   1      30.166  28.538  22.594  1.00  0.00     0.014 C 
ATOM     21  C   UNL A   1      28.707  26.784  23.883  1.00  0.00     0.014 C 
ENDBRANCH  11  19
ENDBRANCH   4   7
ENDBRANCH   2   3
ENDBRANCH   1   2
BRANCH   1  22
ATOM     22  C   UNL A   1      31.397  31.926  26.742  1.00  0.00     0.023 C 
BRANCH  22  23
ATOM     23  C   UNL A   1      32.682  32.728  26.918  1.00  0.00     0.116 C 
BRANCH  23  24
ATOM     24  N   UNL A   1      32.523  33.976  27.653  1.00  0.00    -0.352 N 
ATOM     25  C   UNL A   1      33.350  34.486  28.633  1.00  0.00     0.251 C 
ATOM     26  H   UNL A   1      31.734  34.519  27.423  1.00  0.00     0.163 HD
ATOM     27  O   UNL A   1      33.070  35.534  29.206  1.00  0.00    -0.269 OA
BRANCH  25  28
ATOM     28  C   UNL A   1      34.543  33.703  29.015  1.00  0.00     0.039 A 
ATOM     29  C   UNL A   1      35.808  34.261  28.819  1.00  0.00     0.014 A 
ATOM     30  C   UNL A   1      34.393  32.496  29.702  1.00  0.00     0.014 A 
ATOM     31  C   UNL A   1      36.919  33.657  29.412  1.00  0.00     0.010 A 
ATOM     32  C   UNL A   1      35.485  31.950  30.363  1.00  0.00     0.010 A 
ATOM     33  C   UNL A   1      36.758  32.532  30.238  1.00  0.00    -0.014 A 
BRANCH  33  34
ATOM     34  C   UNL A   1      37.898  31.957  31.001  1.00  0.00     0.031 A 
ATOM     35  C   UNL A   1      38.743  30.878  30.380  1.00  0.00     0.074 A 
ATOM     36  C   UNL A   1      38.107  32.329  32.279  1.00  0.00     0.049 A 
ATOM     37  N   UNL A   1      39.695  30.159  30.915  1.00  0.00    -0.248 NA
ATOM     38  C   UNL A   1      38.441  30.533  28.983  1.00  0.00     0.031 C 
ATOM     39  C   UNL A   1      37.311  33.313  33.019  1.00  0.00     0.029 A 
ATOM     40  N   UNL A   1      39.043  31.912  33.193  1.00  0.00    -0.354 N 
ATOM     41  C   UNL A   1      40.081  29.254  29.932  1.00  0.00     0.074 A 
ATOM     42  C   UNL A   1      39.216  29.477  28.794  1.00  0.00     0.031 C 
ATOM     43  C   UNL A   1      37.809  33.441  34.261  1.00  0.00     0.029 A 
ATOM     44  C   UNL A   1      38.930  32.522  34.422  1.00  0.00     0.049 A 
ATOM     45  H   UNL A   1      39.732  31.239  32.989  1.00  0.00     0.167 HD
ATOM     46  C   UNL A   1      41.082  28.338  29.967  1.00  0.00     0.034 A 
ATOM     47  C   UNL A   1      39.645  32.354  35.553  1.00  0.00     0.034 A 
ATOM     48  C   UNL A   1      41.961  28.157  31.096  1.00  0.00     0.049 A 
ATOM     49  C   UNL A   1      40.779  31.363  35.556  1.00  0.00     0.074 A 
ATOM     50  C   UNL A   1      43.053  27.315  31.213  1.00  0.00     0.029 A 
ATOM     51  N   UNL A   1      41.849  28.831  32.305  1.00  0.00    -0.354 N 
ATOM     52  N   UNL A   1      41.170  30.553  34.598  1.00  0.00    -0.248 NA
ATOM     53  C   UNL A   1      41.578  31.272  36.785  1.00  0.00     0.031 C 
ATOM     54  C   UNL A   1      43.571  27.445  32.507  1.00  0.00     0.029 A 
ATOM     55  C   UNL A   1      42.841  28.413  33.178  1.00  0.00     0.049 A 
ATOM     56  H   UNL A   1      41.166  29.509  32.512  1.00  0.00     0.167 HD
ATOM     57  C   UNL A   1      42.277  29.877  35.103  1.00  0.00     0.074 A 
ATOM     58  C   UNL A   1      42.499  30.383  36.441  1.00  0.00     0.031 C 
ATOM     59  C   UNL A   1      43.043  28.925  34.512  1.00  0.00     0.034 A 
BRANCH  46  60
ATOM     60  C   UNL A   1      41.257  27.461  28.751  1.00  0.00     0.023 A 
ATOM     61  C   UNL A   1      42.308  27.664  27.841  1.00  0.00     0.031 A 
ATOM     62  C   UNL A   1      40.332  26.440  28.471  1.00  0.00     0.131 A 
ATOM     63  C   UNL A   1      42.358  26.923  26.651  1.00  0.00     0.055 A 
ATOM     64  C   UNL A   1      40.439  25.645  27.327  1.00  0.00     0.041 A 
ATOM     65  F   UNL A   1      39.296  26.209  29.292  1.00  0.00    -0.206 F 
ATOM     66  C   UNL A   1      41.446  25.897  26.400  1.00  0.00     0.022 A 
BRANCH  63  67
ATOM     67  S   UNL A   1      43.537  27.429  25.370  1.00  0.00     0.124 S 
ATOM     68  O   UNL A   1      44.314  26.205  25.185  1.00  0.00    -0.237 OA
ATOM     69  O   UNL A   1      42.663  27.803  24.264  1.00  0.00    -0.237 OA
ATOM     70  O   UNL A   1      44.266  28.533  25.991  1.00  0.00    -0.744 OA
ENDBRANCH  63  67
ENDBRANCH  46  60
BRANCH  47  71
ATOM     71  C   UNL A   1      39.317  33.137  36.777  1.00  0.00     0.023 A 
ATOM     72  C   UNL A   1      38.521  32.587  37.794  1.00  0.00     0.031 A 
ATOM     73  C   UNL A   1      39.763  34.461  36.932  1.00  0.00     0.131 A 
ATOM     74  C   UNL A   1      38.158  33.369  38.901  1.00  0.00     0.055 A 
ATOM     75  C   UNL A   1      39.437  35.222  38.056  1.00  0.00     0.041 A 
ATOM     76  F   UNL A   1      40.537  35.031  35.994  1.00  0.00    -0.206 F 
ATOM     77  C   UNL A   1      38.618  34.680  39.043  1.00  0.00     0.022 A 
BRANCH  74  78
ATOM     78  S   UNL A   1      37.013  32.670  40.122  1.00  0.00     0.124 S 
ATOM     79  O   UNL A   1      37.622  31.373  40.393  1.00  0.00    -0.237 OA
ATOM     80  O   UNL A   1      37.085  33.651  41.199  1.00  0.00    -0.237 OA
ATOM     81  O   UNL A   1      35.740  32.625  39.407  1.00  0.00    -0.744 OA
ENDBRANCH  74  78
ENDBRANCH  47  71
BRANCH  59  82
ATOM     82  C   UNL A   1      44.219  28.410  35.301  1.00  0.00     0.023 A 
ATOM     83  C   UNL A   1      44.073  27.411  36.278  1.00  0.00     0.031 A 
ATOM     84  C   UNL A   1      45.503  28.934  35.073  1.00  0.00     0.131 A 
ATOM     85  C   UNL A   1      45.185  27.002  37.029  1.00  0.00     0.055 A 
ATOM     86  C   UNL A   1      46.616  28.487  35.787  1.00  0.00     0.041 A 
ATOM     87  F   UNL A   1      45.697  29.890  34.151  1.00  0.00    -0.206 F 
ATOM     88  C   UNL A   1      46.457  27.523  36.779  1.00  0.00     0.022 A 
BRANCH  85  89
ATOM     89  S   UNL A   1      44.933  25.833  38.394  1.00  0.00     0.124 S 
ATOM     90  O   UNL A   1      46.163  25.994  39.161  1.00  0.00    -0.237 OA
ATOM     91  O   UNL A   1      43.718  26.343  39.020  1.00  0.00    -0.237 OA
ATOM     92  O   UNL A   1      44.787  24.544  37.719  1.00  0.00    -0.744 OA
ENDBRANCH  85  89
ENDBRANCH  59  82
ENDBRANCH  33  34
ENDBRANCH  25  28
ENDBRANCH  23  24
ENDBRANCH  22  23
ENDBRANCH   1  22
TORSDOF 19
ENDMDL
MODEL 2
REMARK VINA RESULT:     -10.7      2.112      7.993
REMARK SMILES COC[C@@H](C)N(C)c1nc(C(C)C)c(C(=O)NCCCCNC(=O)c2ccc(-c3c4nc(c(-c5cc(S(=O)(=O)[O-])ccc5F)c5ccc([nH]5)c(-c5cc(S(=O)(=O)[O-])ccc5F)c5nc(c(-c6cc(S(=O)(=O)[O-])ccc6F)c6ccc3[nH]6)C=C5)C=C4)cc2)s1
REMARK SMILES IDX 19 1 18 2 17 3 15 4 16 5 14 7 8 8 9 9 88 10 10 11 6 12 7 13
REMARK SMILES IDX 4 14 5 15 3 16 2 17 1 18 11 19 12 20 13 21 20 22 21 23 22 24
REMARK SMILES IDX 23 25 24 27 25 28 26 29 87 30 27 31 86 32 28 33 29 34 30 35
REMARK SMILES IDX 80 36 31 37 85 38 79 39 81 40 32 41 84 42 78 43 77 44 33 46
REMARK SMILES IDX 65 47 45 48 64 49 46 50 49 51 63 52 82 53 47 54 48 55 62 57
REMARK SMILES IDX 83 58 50 59 34 60 35 61 43 62 36 63 42 64 44 65 41 66 37 67
REMARK SMILES IDX 38 68 39 69 40 70 66 71 67 72 75 73 68 74 74 75 76 76 73 77
REMARK SMILES IDX 69 78 70 79 71 80 72 81 51 82 52 83 60 84 53 85 59 86 61 87
REMARK SMILES IDX 58 88 54 89 55 90 56 91 57 92
REMARK H PARENT 17 6 22 26 81 45 49 56
REMARK Flexibility Score: inf
ROOT
ATOM      1  C   UNL A   1      32.105  29.521  23.973  1.00  0.00     0.023 C 
ENDROOT
BRANCH   1   2
ATOM      2  C   UNL A   1      33.490  28.893  23.830  1.00  0.00     0.116 C 
BRANCH   2   3
ATOM      3  N   UNL A   1      33.570  28.017  22.692  1.00  0.00    -0.351 N 
ATOM      4  C   UNL A   1      33.508  26.670  22.470  1.00  0.00     0.263 C 
ATOM      5  O   UNL A   1      33.635  26.426  21.259  1.00  0.00    -0.268 OA
ATOM      6  H   UNL A   1      33.705  28.519  21.856  1.00  0.00     0.163 HD
BRANCH   4   7
ATOM      7  C   UNL A   1      33.301  25.598  23.450  1.00  0.00     0.117 A 
ATOM      8  C   UNL A   1      33.760  23.375  24.504  1.00  0.00     0.186 A 
ATOM      9  N   UNL A   1      32.712  23.957  25.013  1.00  0.00    -0.224 NA
ATOM     10  S   UNL A   1      34.474  24.289  23.257  1.00  0.00    -0.091 S 
ATOM     11  C   UNL A   1      32.509  25.251  24.548  1.00  0.00     0.069 A 
BRANCH   8  12
ATOM     12  N   UNL A   1      34.203  22.161  24.936  1.00  0.00    -0.346 N 
ATOM     13  C   UNL A   1      35.581  21.757  24.735  1.00  0.00     0.146 C 
BRANCH  12  14
ATOM     14  C   UNL A   1      33.263  21.210  25.566  1.00  0.00     0.107 C 
ATOM     15  C   UNL A   1      33.640  21.018  27.038  1.00  0.00     0.033 C 
BRANCH  14  16
ATOM     16  C   UNL A   1      33.128  19.883  24.778  1.00  0.00     0.184 C 
BRANCH  16  17
ATOM     17  O   UNL A   1      32.152  18.989  25.333  1.00  0.00    -0.383 OA
ATOM     18  C   UNL A   1      32.652  17.674  25.555  1.00  0.00     0.194 C 
ENDBRANCH  16  17
ENDBRANCH  14  16
ENDBRANCH  12  14
ENDBRANCH   8  12
BRANCH  11  19
ATOM     19  C   UNL A   1      31.494  25.953  25.413  1.00  0.00     0.034 C 
ATOM     20  C   UNL A   1      30.097  25.351  25.270  1.00  0.00     0.014 C 
ATOM     21  C   UNL A   1      31.987  26.295  26.820  1.00  0.00     0.014 C 
ENDBRANCH  11  19
ENDBRANCH   4   7
ENDBRANCH   2   3
ENDBRANCH   1   2
BRANCH   1  22
ATOM     22  C   UNL A   1      31.621  29.659  25.411  1.00  0.00     0.023 C 
BRANCH  22  23
ATOM     23  C   UNL A   1      32.677  30.122  26.408  1.00  0.00     0.116 C 
BRANCH  23  24
ATOM     24  N   UNL A   1      32.525  31.499  26.861  1.00  0.00    -0.352 N 
ATOM     25  C   UNL A   1      33.439  32.261  27.558  1.00  0.00     0.251 C 
ATOM     26  H   UNL A   1      31.669  31.936  26.643  1.00  0.00     0.163 HD
ATOM     27  O   UNL A   1      33.160  33.400  27.919  1.00  0.00    -0.269 OA
BRANCH  25  28
ATOM     28  C   UNL A   1      34.735  31.646  27.911  1.00  0.00     0.039 A 
ATOM     29  C   UNL A   1      35.839  32.472  28.128  1.00  0.00     0.014 A 
ATOM     30  C   UNL A   1      34.806  30.276  28.174  1.00  0.00     0.014 A 
ATOM     31  C   UNL A   1      36.987  31.937  28.715  1.00  0.00     0.010 A 
ATOM     32  C   UNL A   1      35.914  29.768  28.839  1.00  0.00     0.010 A 
ATOM     33  C   UNL A   1      37.011  30.595  29.131  1.00  0.00    -0.014 A 
BRANCH  33  34
ATOM     34  C   UNL A   1      38.160  30.036  29.892  1.00  0.00     0.031 A 
ATOM     35  C   UNL A   1      38.415  30.492  31.302  1.00  0.00     0.074 A 
ATOM     36  C   UNL A   1      39.027  29.202  29.283  1.00  0.00     0.049 A 
ATOM     37  N   UNL A   1      39.426  30.230  32.089  1.00  0.00    -0.248 NA
ATOM     38  C   UNL A   1      37.421  31.406  31.884  1.00  0.00     0.031 C 
ATOM     39  C   UNL A   1      38.930  28.740  27.895  1.00  0.00     0.029 A 
ATOM     40  N   UNL A   1      40.172  28.604  29.746  1.00  0.00    -0.354 N 
ATOM     41  C   UNL A   1      39.206  30.971  33.245  1.00  0.00     0.074 A 
ATOM     42  C   UNL A   1      38.000  31.741  33.026  1.00  0.00     0.031 C 
ATOM     43  C   UNL A   1      39.956  27.914  27.631  1.00  0.00     0.029 A 
ATOM     44  C   UNL A   1      40.806  27.817  28.812  1.00  0.00     0.049 A 
ATOM     45  H   UNL A   1      40.509  28.726  30.663  1.00  0.00     0.167 HD
ATOM     46  C   UNL A   1      39.930  30.990  34.393  1.00  0.00     0.034 A 
ATOM     47  C   UNL A   1      41.948  27.104  28.895  1.00  0.00     0.034 A 
ATOM     48  C   UNL A   1      41.108  30.187  34.608  1.00  0.00     0.049 A 
ATOM     49  C   UNL A   1      42.713  27.106  30.193  1.00  0.00     0.074 A 
ATOM     50  C   UNL A   1      41.874  30.069  35.754  1.00  0.00     0.029 A 
ATOM     51  N   UNL A   1      41.690  29.360  33.656  1.00  0.00    -0.354 N 
ATOM     52  N   UNL A   1      42.461  27.769  31.298  1.00  0.00    -0.248 NA
ATOM     53  C   UNL A   1      43.906  26.253  30.259  1.00  0.00     0.031 C 
ATOM     54  C   UNL A   1      42.946  29.210  35.480  1.00  0.00     0.029 A 
ATOM     55  C   UNL A   1      42.814  28.743  34.182  1.00  0.00     0.049 A 
ATOM     56  H   UNL A   1      41.353  29.231  32.739  1.00  0.00     0.167 HD
ATOM     57  C   UNL A   1      43.452  27.391  32.200  1.00  0.00     0.074 A 
ATOM     58  C   UNL A   1      44.294  26.433  31.514  1.00  0.00     0.031 C 
ATOM     59  C   UNL A   1      43.646  27.796  33.481  1.00  0.00     0.034 A 
BRANCH  46  60
ATOM     60  C   UNL A   1      39.467  31.924  35.485  1.00  0.00     0.023 A 
ATOM     61  C   UNL A   1      38.782  31.450  36.617  1.00  0.00     0.031 A 
ATOM     62  C   UNL A   1      39.669  33.310  35.370  1.00  0.00     0.131 A 
ATOM     63  C   UNL A   1      38.244  32.358  37.541  1.00  0.00     0.055 A 
ATOM     64  C   UNL A   1      39.207  34.203  36.340  1.00  0.00     0.041 A 
ATOM     65  F   UNL A   1      40.300  33.825  34.303  1.00  0.00    -0.206 F 
ATOM     66  C   UNL A   1      38.473  33.730  37.425  1.00  0.00     0.022 A 
BRANCH  63  67
ATOM     67  S   UNL A   1      37.107  31.728  38.806  1.00  0.00     0.124 S 
ATOM     68  O   UNL A   1      37.885  31.929  40.026  1.00  0.00    -0.237 OA
ATOM     69  O   UNL A   1      35.942  32.590  38.642  1.00  0.00    -0.237 OA
ATOM     70  O   UNL A   1      36.909  30.331  38.424  1.00  0.00    -0.744 OA
ENDBRANCH  63  67
ENDBRANCH  46  60
BRANCH  47  71
ATOM     71  C   UNL A   1      42.442  26.330  27.722  1.00  0.00     0.023 A 
ATOM     72  C   UNL A   1      42.039  25.001  27.514  1.00  0.00     0.031 A 
ATOM     73  C   UNL A   1      43.354  26.893  26.813  1.00  0.00     0.131 A 
ATOM     74  C   UNL A   1      42.578  24.265  26.448  1.00  0.00     0.055 A 
ATOM     75  C   UNL A   1      43.854  26.171  25.728  1.00  0.00     0.041 A 
ATOM     76  F   UNL A   1      43.763  28.163  26.961  1.00  0.00    -0.206 F 
ATOM     77  C   UNL A   1      43.476  24.844  25.548  1.00  0.00     0.022 A 
BRANCH  74  78
ATOM     78  S   UNL A   1      42.142  22.510  26.295  1.00  0.00     0.124 S 
ATOM     79  O   UNL A   1      42.793  21.938  27.468  1.00  0.00    -0.237 OA
ATOM     80  O   UNL A   1      40.684  22.558  26.329  1.00  0.00    -0.237 OA
ATOM     81  O   UNL A   1      42.721  22.126  25.010  1.00  0.00    -0.744 OA
ENDBRANCH  74  78
ENDBRANCH  47  71
BRANCH  59  82
ATOM     82  C   UNL A   1      44.790  27.162  34.230  1.00  0.00     0.023 A 
ATOM     83  C   UNL A   1      44.626  25.975  34.963  1.00  0.00     0.031 A 
ATOM     84  C   UNL A   1      46.060  27.763  34.214  1.00  0.00     0.131 A 
ATOM     85  C   UNL A   1      45.703  25.451  35.692  1.00  0.00     0.055 A 
ATOM     86  C   UNL A   1      47.143  27.209  34.899  1.00  0.00     0.041 A 
ATOM     87  F   UNL A   1      46.270  28.899  33.530  1.00  0.00    -0.206 F 
ATOM     88  C   UNL A   1      46.964  26.053  35.652  1.00  0.00     0.022 A 
BRANCH  85  89
ATOM     89  S   UNL A   1      45.416  24.011  36.758  1.00  0.00     0.124 S 
ATOM     90  O   UNL A   1      46.776  23.568  37.043  1.00  0.00    -0.237 OA
ATOM     91  O   UNL A   1      44.687  24.595  37.879  1.00  0.00    -0.237 OA
ATOM     92  O   UNL A   1      44.634  23.110  35.914  1.00  0.00    -0.744 OA
ENDBRANCH  85  89
ENDBRANCH  59  82
ENDBRANCH  33  34
ENDBRANCH  25  28
ENDBRANCH  23  24
ENDBRANCH  22  23
ENDBRANCH   1  22
TORSDOF 19
ENDMDL
MODEL 3
REMARK VINA RESULT:     -10.6      3.086      8.333
REMARK SMILES COC[C@@H](C)N(C)c1nc(C(C)C)c(C(=O)NCCCCNC(=O)c2ccc(-c3c4nc(c(-c5cc(S(=O)(=O)[O-])ccc5F)c5ccc([nH]5)c(-c5cc(S(=O)(=O)[O-])ccc5F)c5nc(c(-c6cc(S(=O)(=O)[O-])ccc6F)c6ccc3[nH]6)C=C5)C=C4)cc2)s1
REMARK SMILES IDX 19 1 18 2 17 3 15 4 16 5 14 7 8 8 9 9 88 10 10 11 6 12 7 13
REMARK SMILES IDX 4 14 5 15 3 16 2 17 1 18 11 19 12 20 13 21 20 22 21 23 22 24
REMARK SMILES IDX 23 25 24 27 25 28 26 29 87 30 27 31 86 32 28 33 29 34 30 35
REMARK SMILES IDX 80 36 31 37 85 38 79 39 81 40 32 41 84 42 78 43 77 44 33 46
REMARK SMILES IDX 65 47 45 48 64 49 46 50 49 51 63 52 82 53 47 54 48 55 62 57
REMARK SMILES IDX 83 58 50 59 34 60 35 61 43 62 36 63 42 64 44 65 41 66 37 67
REMARK SMILES IDX 38 68 39 69 40 70 66 71 67 72 75 73 68 74 74 75 76 76 73 77
REMARK SMILES IDX 69 78 70 79 71 80 72 81 51 82 52 83 60 84 53 85 59 86 61 87
REMARK SMILES IDX 58 88 54 89 55 90 56 91 57 92
REMARK H PARENT 17 6 22 26 81 45 49 56
REMARK Flexibility Score: inf
ROOT
ATOM      1  C   UNL A   1      33.718  27.319  24.973  1.00  0.00     0.023 C 
ENDROOT
BRANCH   1   2
ATOM      2  C   UNL A   1      33.054  28.066  23.818  1.00  0.00     0.116 C 
BRANCH   2   3
ATOM      3  N   UNL A   1      33.222  27.382  22.565  1.00  0.00    -0.351 N 
ATOM      4  C   UNL A   1      32.959  26.135  22.071  1.00  0.00     0.263 C 
ATOM      5  O   UNL A   1      33.307  26.060  20.881  1.00  0.00    -0.268 OA
ATOM      6  H   UNL A   1      33.633  27.964  21.886  1.00  0.00     0.163 HD
BRANCH   4   7
ATOM      7  C   UNL A   1      32.340  24.998  22.761  1.00  0.00     0.117 A 
ATOM      8  C   UNL A   1      32.133  22.596  23.430  1.00  0.00     0.186 A 
ATOM      9  N   UNL A   1      31.116  23.308  23.823  1.00  0.00    -0.224 NA
ATOM     10  S   UNL A   1      33.272  23.511  22.554  1.00  0.00    -0.091 S 
ATOM     11  C   UNL A   1      31.263  24.670  23.589  1.00  0.00     0.069 A 
BRANCH   8  12
ATOM     12  N   UNL A   1      32.238  21.264  23.695  1.00  0.00    -0.346 N 
ATOM     13  C   UNL A   1      32.148  20.284  22.630  1.00  0.00     0.146 C 
BRANCH  12  14
ATOM     14  C   UNL A   1      32.386  20.794  25.089  1.00  0.00     0.107 C 
ATOM     15  C   UNL A   1      33.066  21.883  25.926  1.00  0.00     0.033 C 
BRANCH  14  16
ATOM     16  C   UNL A   1      33.075  19.410  25.189  1.00  0.00     0.184 C 
BRANCH  16  17
ATOM     17  O   UNL A   1      32.209  18.380  25.688  1.00  0.00    -0.383 OA
ATOM     18  C   UNL A   1      32.528  17.084  25.189  1.00  0.00     0.194 C 
ENDBRANCH  16  17
ENDBRANCH  14  16
ENDBRANCH  12  14
ENDBRANCH   8  12
BRANCH  11  19
ATOM     19  C   UNL A   1      30.215  25.437  24.353  1.00  0.00     0.034 C 
ATOM     20  C   UNL A   1      30.556  25.562  25.837  1.00  0.00     0.014 C 
ATOM     21  C   UNL A   1      29.682  26.676  23.633  1.00  0.00     0.014 C 
ENDBRANCH  11  19
ENDBRANCH   4   7
ENDBRANCH   2   3
ENDBRANCH   1   2
BRANCH   1  22
ATOM     22  C   UNL A   1      33.568  27.994  26.330  1.00  0.00     0.023 C 
BRANCH  22  23
ATOM     23  C   UNL A   1      34.623  29.047  26.651  1.00  0.00     0.116 C 
BRANCH  23  24
ATOM     24  N   UNL A   1      34.093  30.380  26.908  1.00  0.00    -0.352 N 
ATOM     25  C   UNL A   1      34.581  31.325  27.786  1.00  0.00     0.251 C 
ATOM     26  H   UNL A   1      33.293  30.636  26.393  1.00  0.00     0.163 HD
ATOM     27  O   UNL A   1      34.006  32.398  27.936  1.00  0.00    -0.269 OA
BRANCH  25  28
ATOM     28  C   UNL A   1      35.777  30.983  28.583  1.00  0.00     0.039 A 
ATOM     29  C   UNL A   1      35.686  29.968  29.537  1.00  0.00     0.014 A 
ATOM     30  C   UNL A   1      37.010  31.560  28.270  1.00  0.00     0.014 A 
ATOM     31  C   UNL A   1      36.856  29.456  30.103  1.00  0.00     0.010 A 
ATOM     32  C   UNL A   1      38.174  30.989  28.767  1.00  0.00     0.010 A 
ATOM     33  C   UNL A   1      38.112  29.920  29.677  1.00  0.00    -0.014 A 
BRANCH  33  34
ATOM     34  C   UNL A   1      39.374  29.293  30.150  1.00  0.00     0.031 A 
ATOM     35  C   UNL A   1      40.110  29.887  31.320  1.00  0.00     0.074 A 
ATOM     36  C   UNL A   1      39.908  28.261  29.468  1.00  0.00     0.049 A 
ATOM     37  N   UNL A   1      41.283  29.576  31.807  1.00  0.00    -0.248 NA
ATOM     38  C   UNL A   1      39.456  31.014  32.001  1.00  0.00     0.031 C 
ATOM     39  C   UNL A   1      39.328  27.640  28.273  1.00  0.00     0.029 A 
ATOM     40  N   UNL A   1      41.069  27.557  29.669  1.00  0.00    -0.354 N 
ATOM     41  C   UNL A   1      41.522  30.489  32.828  1.00  0.00     0.074 A 
ATOM     42  C   UNL A   1      40.399  31.402  32.845  1.00  0.00     0.031 C 
ATOM     43  C   UNL A   1      40.122  26.635  27.867  1.00  0.00     0.029 A 
ATOM     44  C   UNL A   1      41.286  26.564  28.742  1.00  0.00     0.049 A 
ATOM     45  H   UNL A   1      41.691  27.744  30.410  1.00  0.00     0.167 HD
ATOM     46  C   UNL A   1      42.569  30.546  33.689  1.00  0.00     0.034 A 
ATOM     47  C   UNL A   1      42.312  25.698  28.607  1.00  0.00     0.034 A 
ATOM     48  C   UNL A   1      43.660  29.603  33.685  1.00  0.00     0.049 A 
ATOM     49  C   UNL A   1      43.443  25.751  29.600  1.00  0.00     0.074 A 
ATOM     50  C   UNL A   1      44.732  29.519  34.556  1.00  0.00     0.029 A 
ATOM     51  N   UNL A   1      43.818  28.577  32.762  1.00  0.00    -0.354 N 
ATOM     52  N   UNL A   1      43.627  26.586  30.597  1.00  0.00    -0.248 NA
ATOM     53  C   UNL A   1      44.496  24.738  29.460  1.00  0.00     0.031 C 
ATOM     54  C   UNL A   1      45.562  28.475  34.131  1.00  0.00     0.029 A 
ATOM     55  C   UNL A   1      44.977  27.866  33.033  1.00  0.00     0.049 A 
ATOM     56  H   UNL A   1      43.197  28.382  32.023  1.00  0.00     0.167 HD
ATOM     57  C   UNL A   1      44.805  26.180  31.218  1.00  0.00     0.074 A 
ATOM     58  C   UNL A   1      45.278  25.019  30.492  1.00  0.00     0.031 C 
ATOM     59  C   UNL A   1      45.437  26.716  32.294  1.00  0.00     0.034 A 
BRANCH  46  60
ATOM     60  C   UNL A   1      42.579  31.676  34.689  1.00  0.00     0.023 A 
ATOM     61  C   UNL A   1      41.756  31.660  35.829  1.00  0.00     0.031 A 
ATOM     62  C   UNL A   1      43.384  32.809  34.476  1.00  0.00     0.131 A 
ATOM     63  C   UNL A   1      41.687  32.788  36.660  1.00  0.00     0.055 A 
ATOM     64  C   UNL A   1      43.377  33.893  35.358  1.00  0.00     0.041 A 
ATOM     65  F   UNL A   1      44.178  32.892  33.397  1.00  0.00    -0.206 F 
ATOM     66  C   UNL A   1      42.511  33.894  36.447  1.00  0.00     0.022 A 
BRANCH  63  67
ATOM     67  S   UNL A   1      40.391  32.846  37.927  1.00  0.00     0.124 S 
ATOM     68  O   UNL A   1      41.119  32.398  39.112  1.00  0.00    -0.237 OA
ATOM     69  O   UNL A   1      39.996  34.250  37.912  1.00  0.00    -0.237 OA
ATOM     70  O   UNL A   1      39.384  31.909  37.431  1.00  0.00    -0.744 OA
ENDBRANCH  63  67
ENDBRANCH  46  60
BRANCH  47  71
ATOM     71  C   UNL A   1      42.322  24.707  27.495  1.00  0.00     0.023 A 
ATOM     72  C   UNL A   1      41.715  23.450  27.643  1.00  0.00     0.031 A 
ATOM     73  C   UNL A   1      42.973  24.986  26.281  1.00  0.00     0.131 A 
ATOM     74  C   UNL A   1      41.806  22.503  26.612  1.00  0.00     0.055 A 
ATOM     75  C   UNL A   1      43.024  24.058  25.240  1.00  0.00     0.041 A 
ATOM     76  F   UNL A   1      43.561  26.178  26.085  1.00  0.00    -0.206 F 
ATOM     77  C   UNL A   1      42.449  22.801  25.408  1.00  0.00     0.022 A 
BRANCH  74  78
ATOM     78  S   UNL A   1      41.131  20.842  26.895  1.00  0.00     0.124 S 
ATOM     79  O   UNL A   1      40.788  20.898  28.311  1.00  0.00    -0.237 OA
ATOM     80  O   UNL A   1      40.009  20.810  25.964  1.00  0.00    -0.237 OA
ATOM     81  O   UNL A   1      42.245  19.960  26.556  1.00  0.00    -0.744 OA
ENDBRANCH  74  78
ENDBRANCH  47  71
BRANCH  59  82
ATOM     82  C   UNL A   1      46.683  26.015  32.771  1.00  0.00     0.023 A 
ATOM     83  C   UNL A   1      46.632  24.977  33.716  1.00  0.00     0.031 A 
ATOM     84  C   UNL A   1      47.941  26.401  32.275  1.00  0.00     0.131 A 
ATOM     85  C   UNL A   1      47.821  24.392  34.174  1.00  0.00     0.055 A 
ATOM     86  C   UNL A   1      49.117  25.780  32.695  1.00  0.00     0.041 A 
ATOM     87  F   UNL A   1      48.045  27.388  31.370  1.00  0.00    -0.206 F 
ATOM     88  C   UNL A   1      49.062  24.777  33.659  1.00  0.00     0.022 A 
BRANCH  85  89
ATOM     89  S   UNL A   1      47.732  23.172  35.514  1.00  0.00     0.124 S 
ATOM     90  O   UNL A   1      48.088  23.974  36.679  1.00  0.00    -0.237 OA
ATOM     91  O   UNL A   1      46.343  22.731  35.442  1.00  0.00    -0.237 OA
ATOM     92  O   UNL A   1      48.720  22.166  35.128  1.00  0.00    -0.744 OA
ENDBRANCH  85  89
ENDBRANCH  59  82
ENDBRANCH  33  34
ENDBRANCH  25  28
ENDBRANCH  23  24
ENDBRANCH  22  23
ENDBRANCH   1  22
TORSDOF 19
ENDMDL
