MODEL 1
REMARK VINA RESULT:     -10.8      0.000      0.000
REMARK SMILES O=C(COc1ccc(S(=O)(=O)NC[C@@H]2CCCO2)cc1)NCCCCNC(=O)c1ccc(-c2c3nc(c(-c4cc(S(=O)(=O)[O-])ccc4F)c4ccc([nH]4)c(-c4cc(S(=O)(=O)[O-])ccc4F)c4nc(c(-c5cc(S(=O)(=O)[O-])ccc5F)c5ccc2[nH]5)C=C4)C=C3)cc1
REMARK SMILES IDX 22 1 21 2 1 3 2 4 3 6 4 7 5 8 6 9 20 10 7 11 19 12 8 13 9 14
REMARK SMILES IDX 10 15 11 16 12 17 13 19 14 20 15 21 18 22 16 23 17 24 23 25
REMARK SMILES IDX 24 26 25 27 26 28 27 29 28 31 29 32 30 33 91 34 31 35 90 36
REMARK SMILES IDX 32 37 33 38 34 39 84 40 35 41 89 42 83 43 85 44 36 45 88 46
REMARK SMILES IDX 82 47 81 48 37 50 69 51 49 52 68 53 50 54 53 55 67 56 86 57
REMARK SMILES IDX 51 58 52 59 66 61 87 62 54 63 38 64 39 65 47 66 40 67 46 68
REMARK SMILES IDX 48 69 45 70 41 71 42 72 43 73 44 74 70 75 71 76 79 77 72 78
REMARK SMILES IDX 78 79 80 80 77 81 73 82 74 83 75 84 76 85 55 86 56 87 64 88
REMARK SMILES IDX 57 89 63 90 65 91 62 92 58 93 59 94 60 95 61 96
REMARK H PARENT 21 5 12 18 26 30 85 49 53 60
REMARK Flexibility Score: inf
ROOT
ATOM      1  C   UNL A   1      35.056  30.111  27.834  1.00  0.00     0.116 C 
ENDROOT
BRANCH   1   2
ATOM      2  N   UNL A   1      34.657  29.605  26.539  1.00  0.00    -0.353 N 
ATOM      3  O   UNL A   1      32.520  29.006  27.148  1.00  0.00    -0.271 OA
ATOM      4  C   UNL A   1      33.373  29.171  26.279  1.00  0.00     0.257 C 
ATOM      5  H   UNL A   1      35.325  29.568  25.817  1.00  0.00     0.163 HD
BRANCH   4   6
ATOM      6  C   UNL A   1      33.073  28.960  24.792  1.00  0.00     0.329 C 
BRANCH   6   7
ATOM      7  O   UNL A   1      33.608  27.768  24.219  1.00  0.00    -0.484 OA
BRANCH   7   8
ATOM      8  C   UNL A   1      33.205  26.591  24.792  1.00  0.00     0.120 A 
ATOM      9  C   UNL A   1      31.828  26.354  24.787  1.00  0.00     0.048 A 
ATOM     10  C   UNL A   1      34.054  25.691  25.445  1.00  0.00     0.048 A 
ATOM     11  C   UNL A   1      31.303  25.232  25.434  1.00  0.00     0.025 A 
ATOM     12  C   UNL A   1      33.537  24.561  26.084  1.00  0.00     0.025 A 
ATOM     13  C   UNL A   1      32.159  24.345  26.095  1.00  0.00     0.082 A 
BRANCH  13  14
ATOM     14  S   UNL A   1      31.473  22.996  27.025  1.00  0.00     0.240 S 
ATOM     15  O   UNL A   1      32.395  22.682  28.103  1.00  0.00    -0.207 OA
ATOM     16  O   UNL A   1      30.099  23.320  27.304  1.00  0.00    -0.207 OA
BRANCH  14  17
ATOM     17  N   UNL A   1      31.436  21.673  26.000  1.00  0.00    -0.209 NA
ATOM     18  H   UNL A   1      30.450  21.438  25.892  1.00  0.00     0.141 HD
BRANCH  17  19
ATOM     19  C   UNL A   1      31.996  21.650  24.647  1.00  0.00     0.130 C 
BRANCH  19  20
ATOM     20  C   UNL A   1      32.872  20.448  24.315  1.00  0.00     0.133 C 
ATOM     21  C   UNL A   1      32.304  19.501  23.273  1.00  0.00     0.036 C 
ATOM     22  O   UNL A   1      33.019  19.666  25.528  1.00  0.00    -0.377 OA
ATOM     23  C   UNL A   1      32.779  18.155  23.752  1.00  0.00     0.031 C 
ATOM     24  C   UNL A   1      32.622  18.316  25.245  1.00  0.00     0.160 C 
ENDBRANCH  19  20
ENDBRANCH  17  19
ENDBRANCH  14  17
ENDBRANCH  13  14
ENDBRANCH   7   8
ENDBRANCH   6   7
ENDBRANCH   4   6
ENDBRANCH   1   2
BRANCH   1  25
ATOM     25  C   UNL A   1      35.169  31.630  27.883  1.00  0.00     0.023 C 
BRANCH  25  26
ATOM     26  C   UNL A   1      33.838  32.371  28.017  1.00  0.00     0.023 C 
BRANCH  26  27
ATOM     27  C   UNL A   1      33.890  33.875  27.761  1.00  0.00     0.116 C 
BRANCH  27  28
ATOM     28  N   UNL A   1      33.179  34.649  28.763  1.00  0.00    -0.352 N 
ATOM     29  C   UNL A   1      33.397  34.737  30.119  1.00  0.00     0.251 C 
ATOM     30  H   UNL A   1      32.430  35.191  28.423  1.00  0.00     0.163 HD
ATOM     31  O   UNL A   1      32.588  35.335  30.823  1.00  0.00    -0.269 OA
BRANCH  29  32
ATOM     32  C   UNL A   1      34.579  34.085  30.732  1.00  0.00     0.039 A 
ATOM     33  C   UNL A   1      34.379  33.009  31.601  1.00  0.00     0.014 A 
ATOM     34  C   UNL A   1      35.876  34.521  30.453  1.00  0.00     0.014 A 
ATOM     35  C   UNL A   1      35.480  32.325  32.128  1.00  0.00     0.010 A 
ATOM     36  C   UNL A   1      36.971  33.792  30.917  1.00  0.00     0.010 A 
ATOM     37  C   UNL A   1      36.786  32.682  31.755  1.00  0.00    -0.014 A 
BRANCH  37  38
ATOM     38  C   UNL A   1      37.964  31.901  32.225  1.00  0.00     0.031 A 
ATOM     39  C   UNL A   1      38.629  32.241  33.531  1.00  0.00     0.074 A 
ATOM     40  C   UNL A   1      38.473  30.924  31.447  1.00  0.00     0.049 A 
ATOM     41  N   UNL A   1      39.710  31.733  34.068  1.00  0.00    -0.248 NA
ATOM     42  C   UNL A   1      38.013  33.316  34.323  1.00  0.00     0.031 C 
ATOM     43  C   UNL A   1      37.942  30.522  30.142  1.00  0.00     0.029 A 
ATOM     44  N   UNL A   1      39.554  30.098  31.630  1.00  0.00    -0.354 N 
ATOM     45  C   UNL A   1      39.907  32.428  35.257  1.00  0.00     0.074 A 
ATOM     46  C   UNL A   1      38.872  33.439  35.323  1.00  0.00     0.031 C 
ATOM     47  C   UNL A   1      38.683  29.514  29.656  1.00  0.00     0.029 A 
ATOM     48  C   UNL A   1      39.774  29.229  30.584  1.00  0.00     0.049 A 
ATOM     49  H   UNL A   1      40.120  30.124  32.436  1.00  0.00     0.167 HD
ATOM     50  C   UNL A   1      40.847  32.227  36.215  1.00  0.00     0.034 A 
ATOM     51  C   UNL A   1      40.749  28.320  30.385  1.00  0.00     0.034 A 
ATOM     52  C   UNL A   1      41.871  31.213  36.136  1.00  0.00     0.049 A 
ATOM     53  C   UNL A   1      41.809  28.141  31.444  1.00  0.00     0.074 A 
ATOM     54  C   UNL A   1      42.844  30.896  37.068  1.00  0.00     0.029 A 
ATOM     55  N   UNL A   1      42.065  30.357  35.058  1.00  0.00    -0.354 N 
ATOM     56  N   UNL A   1      41.954  28.778  32.583  1.00  0.00    -0.248 NA
ATOM     57  C   UNL A   1      42.828  27.115  31.194  1.00  0.00     0.031 C 
ATOM     58  C   UNL A   1      43.669  29.906  36.525  1.00  0.00     0.029 A 
ATOM     59  C   UNL A   1      43.161  29.538  35.289  1.00  0.00     0.049 A 
ATOM     60  H   UNL A   1      41.505  30.334  34.248  1.00  0.00     0.167 HD
ATOM     61  C   UNL A   1      43.064  28.204  33.200  1.00  0.00     0.074 A 
ATOM     62  C   UNL A   1      43.537  27.162  32.312  1.00  0.00     0.031 C 
ATOM     63  C   UNL A   1      43.635  28.509  34.393  1.00  0.00     0.034 A 
BRANCH  50  64
ATOM     64  C   UNL A   1      40.820  33.143  37.418  1.00  0.00     0.023 A 
ATOM     65  C   UNL A   1      39.987  32.887  38.522  1.00  0.00     0.031 A 
ATOM     66  C   UNL A   1      41.616  34.301  37.453  1.00  0.00     0.131 A 
ATOM     67  C   UNL A   1      39.905  33.815  39.570  1.00  0.00     0.055 A 
ATOM     68  C   UNL A   1      41.598  35.176  38.542  1.00  0.00     0.041 A 
ATOM     69  F   UNL A   1      42.417  34.614  36.422  1.00  0.00    -0.206 F 
ATOM     70  C   UNL A   1      40.726  34.944  39.602  1.00  0.00     0.022 A 
BRANCH  67  71
ATOM     71  S   UNL A   1      38.597  33.608  40.809  1.00  0.00     0.124 S 
ATOM     72  O   UNL A   1      38.457  34.970  41.319  1.00  0.00    -0.237 OA
ATOM     73  O   UNL A   1      37.483  33.106  40.011  1.00  0.00    -0.237 OA
ATOM     74  O   UNL A   1      39.169  32.653  41.755  1.00  0.00    -0.744 OA
ENDBRANCH  67  71
ENDBRANCH  50  64
BRANCH  51  75
ATOM     75  C   UNL A   1      40.788  27.519  29.126  1.00  0.00     0.023 A 
ATOM     76  C   UNL A   1      41.701  27.818  28.102  1.00  0.00     0.031 A 
ATOM     77  C   UNL A   1      39.879  26.467  28.910  1.00  0.00     0.131 A 
ATOM     78  C   UNL A   1      41.655  27.107  26.894  1.00  0.00     0.055 A 
ATOM     79  C   UNL A   1      39.877  25.723  27.729  1.00  0.00     0.041 A 
ATOM     80  F   UNL A   1      38.985  26.137  29.856  1.00  0.00    -0.206 F 
ATOM     81  C   UNL A   1      40.760  26.051  26.706  1.00  0.00     0.022 A 
BRANCH  78  82
ATOM     82  S   UNL A   1      42.725  27.641  25.529  1.00  0.00     0.124 S 
ATOM     83  O   UNL A   1      42.004  28.805  25.026  1.00  0.00    -0.237 OA
ATOM     84  O   UNL A   1      43.982  27.913  26.219  1.00  0.00    -0.237 OA
ATOM     85  O   UNL A   1      42.743  26.483  24.638  1.00  0.00    -0.744 OA
ENDBRANCH  78  82
ENDBRANCH  51  75
BRANCH  63  86
ATOM     86  C   UNL A   1      44.811  27.667  34.829  1.00  0.00     0.023 A 
ATOM     87  C   UNL A   1      44.643  26.466  35.542  1.00  0.00     0.031 A 
ATOM     88  C   UNL A   1      46.123  28.078  34.532  1.00  0.00     0.131 A 
ATOM     89  C   UNL A   1      45.766  25.751  35.984  1.00  0.00     0.055 A 
ATOM     90  C   UNL A   1      47.236  27.328  34.917  1.00  0.00     0.041 A 
ATOM     91  F   UNL A   1      46.346  29.218  33.858  1.00  0.00    -0.206 F 
ATOM     92  C   UNL A   1      47.061  26.165  35.659  1.00  0.00     0.022 A 
BRANCH  89  93
ATOM     93  S   UNL A   1      45.517  24.325  37.076  1.00  0.00     0.124 S 
ATOM     94  O   UNL A   1      44.503  24.822  37.999  1.00  0.00    -0.237 OA
ATOM     95  O   UNL A   1      45.078  23.291  36.144  1.00  0.00    -0.237 OA
ATOM     96  O   UNL A   1      46.838  24.108  37.664  1.00  0.00    -0.744 OA
ENDBRANCH  89  93
ENDBRANCH  63  86
ENDBRANCH  37  38
ENDBRANCH  29  32
ENDBRANCH  27  28
ENDBRANCH  26  27
ENDBRANCH  25  26
ENDBRANCH   1  25
TORSDOF 20
ENDMDL
MODEL 2
REMARK VINA RESULT:     -10.6      6.197     10.351
REMARK SMILES O=C(COc1ccc(S(=O)(=O)NC[C@@H]2CCCO2)cc1)NCCCCNC(=O)c1ccc(-c2c3nc(c(-c4cc(S(=O)(=O)[O-])ccc4F)c4ccc([nH]4)c(-c4cc(S(=O)(=O)[O-])ccc4F)c4nc(c(-c5cc(S(=O)(=O)[O-])ccc5F)c5ccc2[nH]5)C=C4)C=C3)cc1
REMARK SMILES IDX 22 1 21 2 1 3 2 4 3 6 4 7 5 8 6 9 20 10 7 11 19 12 8 13 9 14
REMARK SMILES IDX 10 15 11 16 12 17 13 19 14 20 15 21 18 22 16 23 17 24 23 25
REMARK SMILES IDX 24 26 25 27 26 28 27 29 28 31 29 32 30 33 91 34 31 35 90 36
REMARK SMILES IDX 32 37 33 38 34 39 84 40 35 41 89 42 83 43 85 44 36 45 88 46
REMARK SMILES IDX 82 47 81 48 37 50 69 51 49 52 68 53 50 54 53 55 67 56 86 57
REMARK SMILES IDX 51 58 52 59 66 61 87 62 54 63 38 64 39 65 47 66 40 67 46 68
REMARK SMILES IDX 48 69 45 70 41 71 42 72 43 73 44 74 70 75 71 76 79 77 72 78
REMARK SMILES IDX 78 79 80 80 77 81 73 82 74 83 75 84 76 85 55 86 56 87 64 88
REMARK SMILES IDX 57 89 63 90 65 91 62 92 58 93 59 94 60 95 61 96
REMARK H PARENT 21 5 12 18 26 30 85 49 53 60
REMARK Flexibility Score: inf
ROOT
ATOM      1  C   UNL A   1      35.100  20.303  24.996  1.00  0.00     0.116 C 
ENDROOT
BRANCH   1   2
ATOM      2  N   UNL A   1      34.025  21.227  24.708  1.00  0.00    -0.353 N 
ATOM      3  O   UNL A   1      32.308  19.797  25.255  1.00  0.00    -0.271 OA
ATOM      4  C   UNL A   1      32.702  20.920  24.951  1.00  0.00     0.257 C 
ATOM      5  H   UNL A   1      34.245  22.106  24.323  1.00  0.00     0.163 HD
BRANCH   4   6
ATOM      6  C   UNL A   1      31.755  22.120  24.864  1.00  0.00     0.329 C 
BRANCH   6   7
ATOM      7  O   UNL A   1      32.141  23.266  25.619  1.00  0.00    -0.484 OA
BRANCH   7   8
ATOM      8  C   UNL A   1      32.515  24.367  24.895  1.00  0.00     0.120 A 
ATOM      9  C   UNL A   1      32.858  25.497  25.642  1.00  0.00     0.048 A 
ATOM     10  C   UNL A   1      32.482  24.452  23.499  1.00  0.00     0.048 A 
ATOM     11  C   UNL A   1      33.158  26.702  25.002  1.00  0.00     0.025 A 
ATOM     12  C   UNL A   1      32.793  25.650  22.852  1.00  0.00     0.025 A 
ATOM     13  C   UNL A   1      33.110  26.780  23.606  1.00  0.00     0.082 A 
BRANCH  13  14
ATOM     14  S   UNL A   1      33.363  28.346  22.808  1.00  0.00     0.240 S 
ATOM     15  O   UNL A   1      33.593  29.341  23.841  1.00  0.00    -0.207 OA
ATOM     16  O   UNL A   1      34.322  28.142  21.755  1.00  0.00    -0.207 OA
BRANCH  14  17
ATOM     17  N   UNL A   1      31.922  28.739  22.050  1.00  0.00    -0.209 NA
ATOM     18  H   UNL A   1      31.827  28.075  21.283  1.00  0.00     0.141 HD
BRANCH  17  19
ATOM     19  C   UNL A   1      30.615  28.770  22.708  1.00  0.00     0.130 C 
BRANCH  19  20
ATOM     20  C   UNL A   1      29.849  30.083  22.592  1.00  0.00     0.133 C 
ATOM     21  C   UNL A   1      28.584  30.169  23.428  1.00  0.00     0.036 C 
ATOM     22  O   UNL A   1      29.427  30.223  21.212  1.00  0.00    -0.377 OA
ATOM     23  C   UNL A   1      27.665  30.986  22.558  1.00  0.00     0.031 C 
ATOM     24  C   UNL A   1      28.007  30.436  21.194  1.00  0.00     0.160 C 
ENDBRANCH  19  20
ENDBRANCH  17  19
ENDBRANCH  14  17
ENDBRANCH  13  14
ENDBRANCH   7   8
ENDBRANCH   6   7
ENDBRANCH   4   6
ENDBRANCH   1   2
BRANCH   1  25
ATOM     25  C   UNL A   1      36.478  20.954  24.983  1.00  0.00     0.023 C 
BRANCH  25  26
ATOM     26  C   UNL A   1      37.654  19.975  24.978  1.00  0.00     0.023 C 
BRANCH  26  27
ATOM     27  C   UNL A   1      38.906  20.443  25.714  1.00  0.00     0.116 C 
BRANCH  27  28
ATOM     28  N   UNL A   1      39.902  19.395  25.867  1.00  0.00    -0.352 N 
ATOM     29  C   UNL A   1      41.249  19.499  26.130  1.00  0.00     0.251 C 
ATOM     30  H   UNL A   1      39.563  18.476  25.769  1.00  0.00     0.163 HD
ATOM     31  O   UNL A   1      41.953  18.495  26.074  1.00  0.00    -0.269 OA
BRANCH  29  32
ATOM     32  C   UNL A   1      41.853  20.817  26.440  1.00  0.00     0.039 A 
ATOM     33  C   UNL A   1      42.116  21.701  25.391  1.00  0.00     0.014 A 
ATOM     34  C   UNL A   1      42.156  21.185  27.753  1.00  0.00     0.014 A 
ATOM     35  C   UNL A   1      42.610  22.981  25.666  1.00  0.00     0.010 A 
ATOM     36  C   UNL A   1      42.575  22.486  28.032  1.00  0.00     0.010 A 
ATOM     37  C   UNL A   1      42.801  23.401  26.992  1.00  0.00    -0.014 A 
BRANCH  37  38
ATOM     38  C   UNL A   1      43.228  24.793  27.308  1.00  0.00     0.031 A 
ATOM     39  C   UNL A   1      42.266  25.756  27.950  1.00  0.00     0.074 A 
ATOM     40  C   UNL A   1      44.463  25.209  26.962  1.00  0.00     0.049 A 
ATOM     41  N   UNL A   1      42.424  27.026  28.226  1.00  0.00    -0.248 NA
ATOM     42  C   UNL A   1      40.940  25.226  28.300  1.00  0.00     0.031 C 
ATOM     43  C   UNL A   1      45.478  24.384  26.301  1.00  0.00     0.029 A 
ATOM     44  N   UNL A   1      45.076  26.430  27.105  1.00  0.00    -0.354 N 
ATOM     45  C   UNL A   1      41.218  27.449  28.777  1.00  0.00     0.074 A 
ATOM     46  C   UNL A   1      40.319  26.314  28.729  1.00  0.00     0.031 C 
ATOM     47  C   UNL A   1      46.590  25.114  26.120  1.00  0.00     0.029 A 
ATOM     48  C   UNL A   1      46.356  26.472  26.599  1.00  0.00     0.049 A 
ATOM     49  H   UNL A   1      44.640  27.204  27.531  1.00  0.00     0.167 HD
ATOM     50  C   UNL A   1      40.899  28.661  29.296  1.00  0.00     0.034 A 
ATOM     51  C   UNL A   1      47.236  27.490  26.514  1.00  0.00     0.034 A 
ATOM     52  C   UNL A   1      41.806  29.782  29.339  1.00  0.00     0.049 A 
ATOM     53  C   UNL A   1      46.844  28.842  27.060  1.00  0.00     0.074 A 
ATOM     54  C   UNL A   1      41.599  31.039  29.881  1.00  0.00     0.029 A 
ATOM     55  N   UNL A   1      43.092  29.788  28.811  1.00  0.00    -0.354 N 
ATOM     56  N   UNL A   1      45.714  29.211  27.618  1.00  0.00    -0.248 NA
ATOM     57  C   UNL A   1      47.850  29.908  26.974  1.00  0.00     0.031 C 
ATOM     58  C   UNL A   1      42.725  31.825  29.614  1.00  0.00     0.029 A 
ATOM     59  C   UNL A   1      43.674  31.036  28.984  1.00  0.00     0.049 A 
ATOM     60  H   UNL A   1      43.528  29.019  28.377  1.00  0.00     0.167 HD
ATOM     61  C   UNL A   1      45.888  30.546  27.978  1.00  0.00     0.074 A 
ATOM     62  C   UNL A   1      47.236  30.908  27.588  1.00  0.00     0.031 C 
ATOM     63  C   UNL A   1      45.015  31.393  28.580  1.00  0.00     0.034 A 
BRANCH  50  64
ATOM     64  C   UNL A   1      39.497  28.838  29.835  1.00  0.00     0.023 A 
ATOM     65  C   UNL A   1      38.449  29.315  29.027  1.00  0.00     0.031 A 
ATOM     66  C   UNL A   1      39.206  28.553  31.181  1.00  0.00     0.131 A 
ATOM     67  C   UNL A   1      37.190  29.571  29.587  1.00  0.00     0.055 A 
ATOM     68  C   UNL A   1      37.927  28.724  31.712  1.00  0.00     0.041 A 
ATOM     69  F   UNL A   1      40.167  28.115  32.011  1.00  0.00    -0.206 F 
ATOM     70  C   UNL A   1      36.912  29.253  30.918  1.00  0.00     0.022 A 
BRANCH  67  71
ATOM     71  S   UNL A   1      35.970  30.476  28.596  1.00  0.00     0.124 S 
ATOM     72  O   UNL A   1      35.115  29.390  28.122  1.00  0.00    -0.237 OA
ATOM     73  O   UNL A   1      35.375  31.378  29.575  1.00  0.00    -0.237 OA
ATOM     74  O   UNL A   1      36.778  31.119  27.562  1.00  0.00    -0.744 OA
ENDBRANCH  67  71
ENDBRANCH  50  64
BRANCH  51  75
ATOM     75  C   UNL A   1      48.567  27.286  25.871  1.00  0.00     0.023 A 
ATOM     76  C   UNL A   1      48.774  27.590  24.517  1.00  0.00     0.031 A 
ATOM     77  C   UNL A   1      49.642  26.739  26.595  1.00  0.00     0.131 A 
ATOM     78  C   UNL A   1      50.010  27.304  23.916  1.00  0.00     0.055 A 
ATOM     79  C   UNL A   1      50.888  26.510  26.008  1.00  0.00     0.041 A 
ATOM     80  F   UNL A   1      49.500  26.429  27.894  1.00  0.00    -0.206 F 
ATOM     81  C   UNL A   1      51.073  26.781  24.656  1.00  0.00     0.022 A 
BRANCH  78  82
ATOM     82  S   UNL A   1      50.181  27.541  22.125  1.00  0.00     0.124 S 
ATOM     83  O   UNL A   1      51.631  27.593  21.970  1.00  0.00    -0.237 OA
ATOM     84  O   UNL A   1      49.521  26.351  21.599  1.00  0.00    -0.237 OA
ATOM     85  O   UNL A   1      49.481  28.800  21.881  1.00  0.00    -0.744 OA
ENDBRANCH  78  82
ENDBRANCH  51  75
BRANCH  63  86
ATOM     86  C   UNL A   1      45.512  32.784  28.899  1.00  0.00     0.023 A 
ATOM     87  C   UNL A   1      45.432  33.834  27.967  1.00  0.00     0.031 A 
ATOM     88  C   UNL A   1      46.082  33.059  30.154  1.00  0.00     0.131 A 
ATOM     89  C   UNL A   1      45.967  35.092  28.283  1.00  0.00     0.055 A 
ATOM     90  C   UNL A   1      46.553  34.330  30.488  1.00  0.00     0.041 A 
ATOM     91  F   UNL A   1      46.189  32.095  31.084  1.00  0.00    -0.206 F 
ATOM     92  C   UNL A   1      46.509  35.351  29.544  1.00  0.00     0.022 A 
BRANCH  89  93
ATOM     93  S   UNL A   1      46.037  36.360  26.988  1.00  0.00     0.124 S 
ATOM     94  O   UNL A   1      44.806  37.107  27.228  1.00  0.00    -0.237 OA
ATOM     95  O   UNL A   1      47.278  37.059  27.303  1.00  0.00    -0.237 OA
ATOM     96  O   UNL A   1      46.060  35.584  25.749  1.00  0.00    -0.744 OA
ENDBRANCH  89  93
ENDBRANCH  63  86
ENDBRANCH  37  38
ENDBRANCH  29  32
ENDBRANCH  27  28
ENDBRANCH  26  27
ENDBRANCH  25  26
ENDBRANCH   1  25
TORSDOF 20
ENDMDL
MODEL 3
REMARK VINA RESULT:     -10.5      5.263      7.873
REMARK SMILES O=C(COc1ccc(S(=O)(=O)NC[C@@H]2CCCO2)cc1)NCCCCNC(=O)c1ccc(-c2c3nc(c(-c4cc(S(=O)(=O)[O-])ccc4F)c4ccc([nH]4)c(-c4cc(S(=O)(=O)[O-])ccc4F)c4nc(c(-c5cc(S(=O)(=O)[O-])ccc5F)c5ccc2[nH]5)C=C4)C=C3)cc1
REMARK SMILES IDX 22 1 21 2 1 3 2 4 3 6 4 7 5 8 6 9 20 10 7 11 19 12 8 13 9 14
REMARK SMILES IDX 10 15 11 16 12 17 13 19 14 20 15 21 18 22 16 23 17 24 23 25
REMARK SMILES IDX 24 26 25 27 26 28 27 29 28 31 29 32 30 33 91 34 31 35 90 36
REMARK SMILES IDX 32 37 33 38 34 39 84 40 35 41 89 42 83 43 85 44 36 45 88 46
REMARK SMILES IDX 82 47 81 48 37 50 69 51 49 52 68 53 50 54 53 55 67 56 86 57
REMARK SMILES IDX 51 58 52 59 66 61 87 62 54 63 38 64 39 65 47 66 40 67 46 68
REMARK SMILES IDX 48 69 45 70 41 71 42 72 43 73 44 74 70 75 71 76 79 77 72 78
REMARK SMILES IDX 78 79 80 80 77 81 73 82 74 83 75 84 76 85 55 86 56 87 64 88
REMARK SMILES IDX 57 89 63 90 65 91 62 92 58 93 59 94 60 95 61 96
REMARK H PARENT 21 5 12 18 26 30 85 49 53 60
REMARK Flexibility Score: inf
ROOT
ATOM      1  C   UNL A   1      34.267  26.064  24.769  1.00  0.00     0.116 C 
ENDROOT
BRANCH   1   2
ATOM      2  N   UNL A   1      33.037  26.108  24.006  1.00  0.00    -0.353 N 
ATOM      3  O   UNL A   1      33.978  25.563  21.978  1.00  0.00    -0.271 OA
ATOM      4  C   UNL A   1      32.984  25.761  22.672  1.00  0.00     0.257 C 
ATOM      5  H   UNL A   1      32.211  26.398  24.455  1.00  0.00     0.163 HD
BRANCH   4   6
ATOM      6  C   UNL A   1      31.562  25.587  22.129  1.00  0.00     0.329 C 
BRANCH   6   7
ATOM      7  O   UNL A   1      30.695  24.777  22.919  1.00  0.00    -0.484 OA
BRANCH   7   8
ATOM      8  C   UNL A   1      31.257  23.659  23.477  1.00  0.00     0.120 A 
ATOM      9  C   UNL A   1      30.993  23.460  24.834  1.00  0.00     0.048 A 
ATOM     10  C   UNL A   1      32.129  22.790  22.813  1.00  0.00     0.048 A 
ATOM     11  C   UNL A   1      31.598  22.406  25.525  1.00  0.00     0.025 A 
ATOM     12  C   UNL A   1      32.728  21.726  23.493  1.00  0.00     0.025 A 
ATOM     13  C   UNL A   1      32.478  21.550  24.854  1.00  0.00     0.082 A 
BRANCH  13  14
ATOM     14  S   UNL A   1      33.344  20.297  25.767  1.00  0.00     0.240 S 
ATOM     15  O   UNL A   1      34.499  19.892  24.984  1.00  0.00    -0.207 OA
ATOM     16  O   UNL A   1      33.501  20.777  27.115  1.00  0.00    -0.207 OA
BRANCH  14  17
ATOM     17  N   UNL A   1      32.320  18.976  25.865  1.00  0.00    -0.209 NA
ATOM     18  H   UNL A   1      31.761  19.000  25.013  1.00  0.00     0.141 HD
BRANCH  17  19
ATOM     19  C   UNL A   1      32.760  17.588  26.008  1.00  0.00     0.130 C 
BRANCH  19  20
ATOM     20  C   UNL A   1      32.894  16.800  24.709  1.00  0.00     0.133 C 
ATOM     21  C   UNL A   1      34.317  16.588  24.225  1.00  0.00     0.036 C 
ATOM     22  O   UNL A   1      32.226  17.557  23.669  1.00  0.00    -0.377 OA
ATOM     23  C   UNL A   1      34.171  16.651  22.727  1.00  0.00     0.031 C 
ATOM     24  C   UNL A   1      33.152  17.755  22.590  1.00  0.00     0.160 C 
ENDBRANCH  19  20
ENDBRANCH  17  19
ENDBRANCH  14  17
ENDBRANCH  13  14
ENDBRANCH   7   8
ENDBRANCH   6   7
ENDBRANCH   4   6
ENDBRANCH   1   2
BRANCH   1  25
ATOM     25  C   UNL A   1      34.373  24.843  25.676  1.00  0.00     0.023 C 
BRANCH  25  26
ATOM     26  C   UNL A   1      35.395  23.796  25.230  1.00  0.00     0.023 C 
BRANCH  26  27
ATOM     27  C   UNL A   1      35.951  22.903  26.336  1.00  0.00     0.116 C 
BRANCH  27  28
ATOM     28  N   UNL A   1      36.881  21.900  25.846  1.00  0.00    -0.352 N 
ATOM     29  C   UNL A   1      38.257  21.914  25.833  1.00  0.00     0.251 C 
ATOM     30  H   UNL A   1      36.465  21.092  25.467  1.00  0.00     0.163 HD
ATOM     31  O   UNL A   1      38.863  21.028  25.235  1.00  0.00    -0.269 OA
BRANCH  29  32
ATOM     32  C   UNL A   1      39.002  23.006  26.502  1.00  0.00     0.039 A 
ATOM     33  C   UNL A   1      40.054  22.677  27.361  1.00  0.00     0.014 A 
ATOM     34  C   UNL A   1      38.676  24.347  26.284  1.00  0.00     0.014 A 
ATOM     35  C   UNL A   1      40.824  23.691  27.940  1.00  0.00     0.010 A 
ATOM     36  C   UNL A   1      39.492  25.354  26.799  1.00  0.00     0.010 A 
ATOM     37  C   UNL A   1      40.579  25.038  27.629  1.00  0.00    -0.014 A 
BRANCH  37  38
ATOM     38  C   UNL A   1      41.453  26.124  28.154  1.00  0.00     0.031 A 
ATOM     39  C   UNL A   1      40.892  27.171  29.077  1.00  0.00     0.074 A 
ATOM     40  C   UNL A   1      42.738  26.202  27.752  1.00  0.00     0.049 A 
ATOM     41  N   UNL A   1      41.470  28.236  29.572  1.00  0.00    -0.248 NA
ATOM     42  C   UNL A   1      39.484  27.014  29.472  1.00  0.00     0.031 C 
ATOM     43  C   UNL A   1      43.393  25.270  26.831  1.00  0.00     0.029 A 
ATOM     44  N   UNL A   1      43.723  27.110  28.055  1.00  0.00    -0.354 N 
ATOM     45  C   UNL A   1      40.498  28.880  30.331  1.00  0.00     0.074 A 
ATOM     46  C   UNL A   1      39.276  28.119  30.171  1.00  0.00     0.031 C 
ATOM     47  C   UNL A   1      44.672  25.640  26.665  1.00  0.00     0.029 A 
ATOM     48  C   UNL A   1      44.919  26.864  27.421  1.00  0.00     0.049 A 
ATOM     49  H   UNL A   1      43.585  27.867  28.670  1.00  0.00     0.167 HD
ATOM     50  C   UNL A   1      40.619  29.986  31.108  1.00  0.00     0.034 A 
ATOM     51  C   UNL A   1      46.079  27.552  27.431  1.00  0.00     0.034 A 
ATOM     52  C   UNL A   1      41.844  30.733  31.259  1.00  0.00     0.049 A 
ATOM     53  C   UNL A   1      46.179  28.803  28.268  1.00  0.00     0.074 A 
ATOM     54  C   UNL A   1      42.087  31.841  32.053  1.00  0.00     0.029 A 
ATOM     55  N   UNL A   1      43.034  30.456  30.595  1.00  0.00    -0.354 N 
ATOM     56  N   UNL A   1      45.261  29.373  29.015  1.00  0.00    -0.248 NA
ATOM     57  C   UNL A   1      47.473  29.497  28.272  1.00  0.00     0.031 C 
ATOM     58  C   UNL A   1      43.393  32.278  31.812  1.00  0.00     0.029 A 
ATOM     59  C   UNL A   1      44.000  31.392  30.935  1.00  0.00     0.049 A 
ATOM     60  H   UNL A   1      43.172  29.705  29.974  1.00  0.00     0.167 HD
ATOM     61  C   UNL A   1      45.880  30.474  29.602  1.00  0.00     0.074 A 
ATOM     62  C   UNL A   1      47.251  30.477  29.134  1.00  0.00     0.031 C 
ATOM     63  C   UNL A   1      45.362  31.396  30.454  1.00  0.00     0.034 A 
BRANCH  50  64
ATOM     64  C   UNL A   1      39.380  30.465  31.831  1.00  0.00     0.023 A 
ATOM     65  C   UNL A   1      38.442  31.310  31.210  1.00  0.00     0.031 A 
ATOM     66  C   UNL A   1      39.145  30.098  33.168  1.00  0.00     0.131 A 
ATOM     67  C   UNL A   1      37.364  31.824  31.945  1.00  0.00     0.055 A 
ATOM     68  C   UNL A   1      38.020  30.540  33.868  1.00  0.00     0.041 A 
ATOM     69  F   UNL A   1      40.012  29.312  33.825  1.00  0.00    -0.206 F 
ATOM     70  C   UNL A   1      37.130  31.423  33.262  1.00  0.00     0.022 A 
BRANCH  67  71
ATOM     71  S   UNL A   1      36.366  33.146  31.206  1.00  0.00     0.124 S 
ATOM     72  O   UNL A   1      36.533  34.219  32.184  1.00  0.00    -0.237 OA
ATOM     73  O   UNL A   1      37.017  33.349  29.917  1.00  0.00    -0.237 OA
ATOM     74  O   UNL A   1      35.025  32.571  31.147  1.00  0.00    -0.744 OA
ENDBRANCH  67  71
ENDBRANCH  50  64
BRANCH  51  75
ATOM     75  C   UNL A   1      47.237  27.091  26.609  1.00  0.00     0.023 A 
ATOM     76  C   UNL A   1      47.401  27.517  25.282  1.00  0.00     0.031 A 
ATOM     77  C   UNL A   1      48.175  26.181  27.129  1.00  0.00     0.131 A 
ATOM     78  C   UNL A   1      48.448  26.999  24.504  1.00  0.00     0.055 A 
ATOM     79  C   UNL A   1      49.250  25.713  26.370  1.00  0.00     0.041 A 
ATOM     80  F   UNL A   1      48.068  25.742  28.393  1.00  0.00    -0.206 F 
ATOM     81  C   UNL A   1      49.383  26.112  25.044  1.00  0.00     0.022 A 
BRANCH  78  82
ATOM     82  S   UNL A   1      48.520  27.430  22.743  1.00  0.00     0.124 S 
ATOM     83  O   UNL A   1      48.492  26.114  22.114  1.00  0.00    -0.237 OA
ATOM     84  O   UNL A   1      47.320  28.245  22.583  1.00  0.00    -0.237 OA
ATOM     85  O   UNL A   1      49.783  28.153  22.622  1.00  0.00    -0.744 OA
ENDBRANCH  78  82
ENDBRANCH  51  75
BRANCH  63  86
ATOM     86  C   UNL A   1      46.302  32.458  30.974  1.00  0.00     0.023 A 
ATOM     87  C   UNL A   1      46.435  33.708  30.342  1.00  0.00     0.031 A 
ATOM     88  C   UNL A   1      47.084  32.212  32.116  1.00  0.00     0.131 A 
ATOM     89  C   UNL A   1      47.369  34.639  30.822  1.00  0.00     0.055 A 
ATOM     90  C   UNL A   1      47.964  33.167  32.628  1.00  0.00     0.041 A 
ATOM     91  F   UNL A   1      47.004  31.035  32.759  1.00  0.00    -0.206 F 
ATOM     92  C   UNL A   1      48.120  34.383  31.972  1.00  0.00     0.022 A 
BRANCH  89  93
ATOM     93  S   UNL A   1      47.664  36.151  29.864  1.00  0.00     0.124 S 
ATOM     94  O   UNL A   1      48.759  36.769  30.602  1.00  0.00    -0.237 OA
ATOM     95  O   UNL A   1      48.001  35.624  28.546  1.00  0.00    -0.237 OA
ATOM     96  O   UNL A   1      46.387  36.859  29.940  1.00  0.00    -0.744 OA
ENDBRANCH  89  93
ENDBRANCH  63  86
ENDBRANCH  37  38
ENDBRANCH  29  32
ENDBRANCH  27  28
ENDBRANCH  26  27
ENDBRANCH  25  26
ENDBRANCH   1  25
TORSDOF 20
ENDMDL
