MODEL 1
REMARK VINA RESULT:     -12.0      0.000      0.000
REMARK SMILES CCc1n[nH]c2cc(CCC(=O)NCCCCNC(=O)c3ccc(-c4c5nc(c(-c6cc(S(=O)(=O)[O-])ccc6F)c6ccc([nH]6)c(-c6cc(S(=O)(=O)[O-])ccc6F)c6nc(c(-c7cc(S(=O)(=O)[O-])ccc7F)c7ccc4[nH]7)C=C6)C=C5)cc3)ccc12
REMARK SMILES IDX 15 1 14 2 13 3 11 4 12 5 10 7 9 8 8 9 3 10 4 11 86 12 5 13
REMARK SMILES IDX 6 14 85 15 7 17 84 18 2 19 1 20 16 21 17 22 18 23 19 24
REMARK SMILES IDX 20 26 21 27 22 28 83 29 23 30 82 31 24 32 25 33 26 34 76 35
REMARK SMILES IDX 27 36 81 37 75 38 77 39 28 40 80 41 74 42 73 43 29 45 61 46
REMARK SMILES IDX 41 47 60 48 42 49 45 50 59 51 78 52 43 53 44 54 58 56 79 57
REMARK SMILES IDX 46 58 30 59 31 60 39 61 32 62 38 63 40 64 37 65 33 66 34 67
REMARK SMILES IDX 35 68 36 69 62 70 63 71 71 72 64 73 70 74 72 75 69 76 65 77
REMARK SMILES IDX 66 78 67 79 68 80 47 81 48 82 56 83 49 84 55 85 57 86 54 87
REMARK SMILES IDX 50 88 51 89 52 90 53 91
REMARK H PARENT 13 6 5 16 18 25 77 44 45 55
REMARK Flexibility Score: inf
ROOT
ATOM      1  C   UNL A   1      35.735  23.523  23.846  1.00  0.00     0.023 C 
ENDROOT
BRANCH   1   2
ATOM      2  C   UNL A   1      35.332  24.153  25.170  1.00  0.00     0.116 C 
BRANCH   2   3
ATOM      3  N   UNL A   1      34.701  25.438  24.933  1.00  0.00    -0.356 N 
ATOM      4  C   UNL A   1      33.410  25.812  25.174  1.00  0.00     0.220 C 
ATOM      5  O   UNL A   1      33.001  26.864  24.680  1.00  0.00    -0.275 OA
ATOM      6  H   UNL A   1      35.281  26.133  24.545  1.00  0.00     0.163 HD
BRANCH   4   7
ATOM      7  C   UNL A   1      32.511  24.974  26.066  1.00  0.00     0.105 C 
BRANCH   7   8
ATOM      8  C   UNL A   1      31.503  24.113  25.288  1.00  0.00     0.045 C 
BRANCH   8   9
ATOM      9  C   UNL A   1      32.042  22.751  24.894  1.00  0.00    -0.045 A 
ATOM     10  C   UNL A   1      32.868  18.696  24.185  1.00  0.00     0.070 A 
ATOM     11  N   UNL A   1      33.038  18.266  25.444  1.00  0.00    -0.180 NA
ATOM     12  C   UNL A   1      32.667  20.107  24.141  1.00  0.00     0.023 A 
ATOM     13  N   UNL A   1      32.901  19.370  26.192  1.00  0.00    -0.278 N 
ATOM     14  C   UNL A   1      32.679  20.511  25.473  1.00  0.00     0.066 A 
ATOM     15  C   UNL A   1      32.441  21.081  23.152  1.00  0.00     0.012 A 
ATOM     16  H   UNL A   1      32.956  19.358  27.175  1.00  0.00     0.190 HD
ATOM     17  C   UNL A   1      32.421  21.827  25.883  1.00  0.00     0.032 A 
ATOM     18  C   UNL A   1      32.115  22.388  23.542  1.00  0.00     0.004 A 
BRANCH  10  19
ATOM     19  C   UNL A   1      32.907  17.690  23.074  1.00  0.00     0.055 C 
ATOM     20  C   UNL A   1      34.081  16.722  23.118  1.00  0.00     0.011 C 
ENDBRANCH  10  19
ENDBRANCH   8   9
ENDBRANCH   7   8
ENDBRANCH   4   7
ENDBRANCH   2   3
ENDBRANCH   1   2
BRANCH   1  21
ATOM     21  C   UNL A   1      36.472  22.197  23.929  1.00  0.00     0.023 C 
BRANCH  21  22
ATOM     22  C   UNL A   1      36.828  21.764  25.341  1.00  0.00     0.116 C 
BRANCH  22  23
ATOM     23  N   UNL A   1      37.826  20.702  25.408  1.00  0.00    -0.352 N 
ATOM     24  C   UNL A   1      39.108  20.715  25.919  1.00  0.00     0.251 C 
ATOM     25  H   UNL A   1      37.538  19.839  25.031  1.00  0.00     0.163 HD
ATOM     26  O   UNL A   1      39.800  19.711  25.881  1.00  0.00    -0.269 OA
BRANCH  24  27
ATOM     27  C   UNL A   1      39.656  21.970  26.475  1.00  0.00     0.039 A 
ATOM     28  C   UNL A   1      40.707  21.899  27.394  1.00  0.00     0.014 A 
ATOM     29  C   UNL A   1      39.174  23.206  26.052  1.00  0.00     0.014 A 
ATOM     30  C   UNL A   1      41.337  23.074  27.811  1.00  0.00     0.010 A 
ATOM     31  C   UNL A   1      39.880  24.357  26.368  1.00  0.00     0.010 A 
ATOM     32  C   UNL A   1      40.965  24.307  27.257  1.00  0.00    -0.014 A 
BRANCH  32  33
ATOM     33  C   UNL A   1      41.658  25.577  27.597  1.00  0.00     0.031 A 
ATOM     34  C   UNL A   1      40.923  26.613  28.406  1.00  0.00     0.074 A 
ATOM     35  C   UNL A   1      42.876  25.845  27.085  1.00  0.00     0.049 A 
ATOM     36  N   UNL A   1      41.218  27.868  28.617  1.00  0.00    -0.248 NA
ATOM     37  C   UNL A   1      39.644  26.189  29.001  1.00  0.00     0.031 C 
ATOM     38  C   UNL A   1      43.668  24.937  26.251  1.00  0.00     0.029 A 
ATOM     39  N   UNL A   1      43.657  26.969  27.177  1.00  0.00    -0.354 N 
ATOM     40  C   UNL A   1      40.138  28.396  29.317  1.00  0.00     0.074 A 
ATOM     41  C   UNL A   1      39.158  27.339  29.439  1.00  0.00     0.031 C 
ATOM     42  C   UNL A   1      44.829  25.530  25.931  1.00  0.00     0.029 A 
ATOM     43  C   UNL A   1      44.843  26.878  26.486  1.00  0.00     0.049 A 
ATOM     44  H   UNL A   1      43.392  27.768  27.689  1.00  0.00     0.167 HD
ATOM     45  C   UNL A   1      39.989  29.641  29.832  1.00  0.00     0.034 A 
ATOM     46  C   UNL A   1      45.822  27.788  26.308  1.00  0.00     0.034 A 
ATOM     47  C   UNL A   1      41.013  30.655  29.756  1.00  0.00     0.049 A 
ATOM     48  C   UNL A   1      45.658  29.150  26.932  1.00  0.00     0.074 A 
ATOM     49  C   UNL A   1      41.013  31.924  30.303  1.00  0.00     0.029 A 
ATOM     50  N   UNL A   1      42.228  30.502  29.101  1.00  0.00    -0.354 N 
ATOM     51  N   UNL A   1      44.641  29.630  27.613  1.00  0.00    -0.248 NA
ATOM     52  C   UNL A   1      46.773  30.091  26.772  1.00  0.00     0.031 C 
ATOM     53  C   UNL A   1      42.208  32.556  29.941  1.00  0.00     0.029 A 
ATOM     54  C   UNL A   1      42.981  31.658  29.222  1.00  0.00     0.049 A 
ATOM     55  H   UNL A   1      42.514  29.690  28.621  1.00  0.00     0.167 HD
ATOM     56  C   UNL A   1      45.011  30.918  27.988  1.00  0.00     0.074 A 
ATOM     57  C   UNL A   1      46.347  31.132  27.471  1.00  0.00     0.031 C 
ATOM     58  C   UNL A   1      44.313  31.842  28.697  1.00  0.00     0.034 A 
BRANCH  45  59
ATOM     59  C   UNL A   1      38.674  29.968  30.500  1.00  0.00     0.023 A 
ATOM     60  C   UNL A   1      37.670  30.701  29.842  1.00  0.00     0.031 A 
ATOM     61  C   UNL A   1      38.436  29.579  31.830  1.00  0.00     0.131 A 
ATOM     62  C   UNL A   1      36.523  31.102  30.540  1.00  0.00     0.055 A 
ATOM     63  C   UNL A   1      37.249  29.904  32.492  1.00  0.00     0.041 A 
ATOM     64  F   UNL A   1      39.362  28.894  32.519  1.00  0.00    -0.206 F 
ATOM     65  C   UNL A   1      36.292  30.686  31.853  1.00  0.00     0.022 A 
BRANCH  62  66
ATOM     66  S   UNL A   1      35.412  32.305  29.758  1.00  0.00     0.124 S 
ATOM     67  O   UNL A   1      34.471  32.582  30.842  1.00  0.00    -0.237 OA
ATOM     68  O   UNL A   1      36.319  33.390  29.407  1.00  0.00    -0.237 OA
ATOM     69  O   UNL A   1      34.850  31.568  28.628  1.00  0.00    -0.744 OA
ENDBRANCH  62  66
ENDBRANCH  45  59
BRANCH  46  70
ATOM     70  C   UNL A   1      47.037  27.455  25.510  1.00  0.00     0.023 A 
ATOM     71  C   UNL A   1      47.142  27.849  24.165  1.00  0.00     0.031 A 
ATOM     72  C   UNL A   1      48.090  26.705  26.061  1.00  0.00     0.131 A 
ATOM     73  C   UNL A   1      48.250  27.450  23.402  1.00  0.00     0.055 A 
ATOM     74  C   UNL A   1      49.216  26.354  25.310  1.00  0.00     0.041 A 
ATOM     75  F   UNL A   1      48.047  26.311  27.342  1.00  0.00    -0.206 F 
ATOM     76  C   UNL A   1      49.293  26.714  23.969  1.00  0.00     0.022 A 
BRANCH  73  77
ATOM     77  S   UNL A   1      48.264  27.830  21.629  1.00  0.00     0.124 S 
ATOM     78  O   UNL A   1      46.965  28.469  21.451  1.00  0.00    -0.237 OA
ATOM     79  O   UNL A   1      49.429  28.703  21.518  1.00  0.00    -0.237 OA
ATOM     80  O   UNL A   1      48.407  26.520  21.001  1.00  0.00    -0.744 OA
ENDBRANCH  73  77
ENDBRANCH  46  70
BRANCH  58  81
ATOM     81  C   UNL A   1      45.016  33.141  28.995  1.00  0.00     0.023 A 
ATOM     82  C   UNL A   1      44.898  34.255  28.148  1.00  0.00     0.031 A 
ATOM     83  C   UNL A   1      45.821  33.257  30.142  1.00  0.00     0.131 A 
ATOM     84  C   UNL A   1      45.619  35.424  28.432  1.00  0.00     0.055 A 
ATOM     85  C   UNL A   1      46.491  34.442  30.449  1.00  0.00     0.041 A 
ATOM     86  F   UNL A   1      45.965  32.221  30.984  1.00  0.00    -0.206 F 
ATOM     87  C   UNL A   1      46.402  35.529  29.585  1.00  0.00     0.022 A 
BRANCH  84  88
ATOM     88  S   UNL A   1      45.587  36.779  27.228  1.00  0.00     0.124 S 
ATOM     89  O   UNL A   1      46.205  37.867  27.978  1.00  0.00    -0.237 OA
ATOM     90  O   UNL A   1      46.375  36.236  26.127  1.00  0.00    -0.237 OA
ATOM     91  O   UNL A   1      44.164  36.952  26.943  1.00  0.00    -0.744 OA
ENDBRANCH  84  88
ENDBRANCH  58  81
ENDBRANCH  32  33
ENDBRANCH  24  27
ENDBRANCH  22  23
ENDBRANCH  21  22
ENDBRANCH   1  21
TORSDOF 17
ENDMDL
MODEL 2
REMARK VINA RESULT:     -11.8      5.622     10.820
REMARK SMILES CCc1n[nH]c2cc(CCC(=O)NCCCCNC(=O)c3ccc(-c4c5nc(c(-c6cc(S(=O)(=O)[O-])ccc6F)c6ccc([nH]6)c(-c6cc(S(=O)(=O)[O-])ccc6F)c6nc(c(-c7cc(S(=O)(=O)[O-])ccc7F)c7ccc4[nH]7)C=C6)C=C5)cc3)ccc12
REMARK SMILES IDX 15 1 14 2 13 3 11 4 12 5 10 7 9 8 8 9 3 10 4 11 86 12 5 13
REMARK SMILES IDX 6 14 85 15 7 17 84 18 2 19 1 20 16 21 17 22 18 23 19 24
REMARK SMILES IDX 20 26 21 27 22 28 83 29 23 30 82 31 24 32 25 33 26 34 76 35
REMARK SMILES IDX 27 36 81 37 75 38 77 39 28 40 80 41 74 42 73 43 29 45 61 46
REMARK SMILES IDX 41 47 60 48 42 49 45 50 59 51 78 52 43 53 44 54 58 56 79 57
REMARK SMILES IDX 46 58 30 59 31 60 39 61 32 62 38 63 40 64 37 65 33 66 34 67
REMARK SMILES IDX 35 68 36 69 62 70 63 71 71 72 64 73 70 74 72 75 69 76 65 77
REMARK SMILES IDX 66 78 67 79 68 80 47 81 48 82 56 83 49 84 55 85 57 86 54 87
REMARK SMILES IDX 50 88 51 89 52 90 53 91
REMARK H PARENT 13 6 5 16 18 25 77 44 45 55
REMARK Flexibility Score: inf
ROOT
ATOM      1  C   UNL A   1      32.423  27.582  26.817  1.00  0.00     0.023 C 
ENDROOT
BRANCH   1   2
ATOM      2  C   UNL A   1      33.504  27.040  25.894  1.00  0.00     0.116 C 
BRANCH   2   3
ATOM      3  N   UNL A   1      33.623  25.603  26.066  1.00  0.00    -0.356 N 
ATOM      4  C   UNL A   1      32.939  24.609  25.428  1.00  0.00     0.220 C 
ATOM      5  O   UNL A   1      33.004  23.466  25.883  1.00  0.00    -0.275 OA
ATOM      6  H   UNL A   1      34.285  25.306  26.731  1.00  0.00     0.163 HD
BRANCH   4   7
ATOM      7  C   UNL A   1      32.150  24.896  24.162  1.00  0.00     0.105 C 
BRANCH   7   8
ATOM      8  C   UNL A   1      30.635  25.012  24.394  1.00  0.00     0.045 C 
BRANCH   8   9
ATOM      9  C   UNL A   1      30.017  26.251  23.775  1.00  0.00    -0.045 A 
ATOM     10  C   UNL A   1      28.061  29.842  22.826  1.00  0.00     0.070 A 
ATOM     11  N   UNL A   1      26.798  29.511  23.134  1.00  0.00    -0.180 NA
ATOM     12  C   UNL A   1      28.939  28.728  22.971  1.00  0.00     0.023 A 
ATOM     13  N   UNL A   1      26.874  28.228  23.512  1.00  0.00    -0.278 N 
ATOM     14  C   UNL A   1      28.131  27.695  23.436  1.00  0.00     0.066 A 
ATOM     15  C   UNL A   1      30.312  28.475  22.802  1.00  0.00     0.012 A 
ATOM     16  H   UNL A   1      26.092  27.714  23.818  1.00  0.00     0.190 HD
ATOM     17  C   UNL A   1      28.624  26.433  23.799  1.00  0.00     0.032 A 
ATOM     18  C   UNL A   1      30.837  27.245  23.222  1.00  0.00     0.004 A 
BRANCH  10  19
ATOM     19  C   UNL A   1      28.348  31.252  22.405  1.00  0.00     0.055 C 
ATOM     20  C   UNL A   1      28.154  31.538  20.924  1.00  0.00     0.011 C 
ENDBRANCH  10  19
ENDBRANCH   8   9
ENDBRANCH   7   8
ENDBRANCH   4   7
ENDBRANCH   2   3
ENDBRANCH   1   2
BRANCH   1  21
ATOM     21  C   UNL A   1      31.688  28.822  26.336  1.00  0.00     0.023 C 
BRANCH  21  22
ATOM     22  C   UNL A   1      32.595  29.959  25.898  1.00  0.00     0.116 C 
BRANCH  22  23
ATOM     23  N   UNL A   1      32.205  31.268  26.410  1.00  0.00    -0.352 N 
ATOM     24  C   UNL A   1      32.887  32.144  27.230  1.00  0.00     0.251 C 
ATOM     25  H   UNL A   1      31.314  31.575  26.124  1.00  0.00     0.163 HD
ATOM     26  O   UNL A   1      32.385  33.207  27.554  1.00  0.00    -0.269 OA
BRANCH  24  27
ATOM     27  C   UNL A   1      34.217  31.765  27.750  1.00  0.00     0.039 A 
ATOM     28  C   UNL A   1      35.179  32.763  27.936  1.00  0.00     0.014 A 
ATOM     29  C   UNL A   1      34.495  30.447  28.103  1.00  0.00     0.014 A 
ATOM     30  C   UNL A   1      36.384  32.449  28.568  1.00  0.00     0.010 A 
ATOM     31  C   UNL A   1      35.635  30.165  28.841  1.00  0.00     0.010 A 
ATOM     32  C   UNL A   1      36.597  31.159  29.077  1.00  0.00    -0.014 A 
BRANCH  32  33
ATOM     33  C   UNL A   1      37.821  30.791  29.835  1.00  0.00     0.031 A 
ATOM     34  C   UNL A   1      38.809  29.846  29.206  1.00  0.00     0.074 A 
ATOM     35  C   UNL A   1      37.980  31.202  31.109  1.00  0.00     0.049 A 
ATOM     36  N   UNL A   1      39.806  29.199  29.750  1.00  0.00    -0.248 NA
ATOM     37  C   UNL A   1      38.599  29.535  27.782  1.00  0.00     0.031 C 
ATOM     38  C   UNL A   1      37.067  32.084  31.840  1.00  0.00     0.029 A 
ATOM     39  N   UNL A   1      38.961  30.915  32.024  1.00  0.00    -0.354 N 
ATOM     40  C   UNL A   1      40.303  28.366  28.753  1.00  0.00     0.074 A 
ATOM     41  C   UNL A   1      39.458  28.547  27.593  1.00  0.00     0.031 C 
ATOM     42  C   UNL A   1      37.544  32.286  33.079  1.00  0.00     0.029 A 
ATOM     43  C   UNL A   1      38.764  31.505  33.251  1.00  0.00     0.049 A 
ATOM     44  H   UNL A   1      39.734  30.339  31.822  1.00  0.00     0.167 HD
ATOM     45  C   UNL A   1      41.381  27.544  28.796  1.00  0.00     0.034 A 
ATOM     46  C   UNL A   1      39.479  31.411  34.390  1.00  0.00     0.034 A 
ATOM     47  C   UNL A   1      42.247  27.436  29.944  1.00  0.00     0.049 A 
ATOM     48  C   UNL A   1      40.702  30.531  34.399  1.00  0.00     0.074 A 
ATOM     49  C   UNL A   1      43.409  26.701  30.083  1.00  0.00     0.029 A 
ATOM     50  N   UNL A   1      42.048  28.100  31.148  1.00  0.00    -0.354 N 
ATOM     51  N   UNL A   1      41.176  29.765  33.442  1.00  0.00    -0.248 NA
ATOM     52  C   UNL A   1      41.491  30.506  35.638  1.00  0.00     0.031 C 
ATOM     53  C   UNL A   1      43.889  26.883  31.385  1.00  0.00     0.029 A 
ATOM     54  C   UNL A   1      43.061  27.782  32.038  1.00  0.00     0.049 A 
ATOM     55  H   UNL A   1      41.298  28.708  31.341  1.00  0.00     0.167 HD
ATOM     56  C   UNL A   1      42.337  29.194  33.955  1.00  0.00     0.074 A 
ATOM     57  C   UNL A   1      42.497  29.714  35.297  1.00  0.00     0.031 C 
ATOM     58  C   UNL A   1      43.196  28.319  33.371  1.00  0.00     0.034 A 
BRANCH  45  59
ATOM     59  C   UNL A   1      41.661  26.698  27.577  1.00  0.00     0.023 A 
ATOM     60  C   UNL A   1      41.290  25.343  27.513  1.00  0.00     0.031 A 
ATOM     61  C   UNL A   1      42.350  27.240  26.477  1.00  0.00     0.131 A 
ATOM     62  C   UNL A   1      41.689  24.556  26.423  1.00  0.00     0.055 A 
ATOM     63  C   UNL A   1      42.665  26.473  25.353  1.00  0.00     0.041 A 
ATOM     64  F   UNL A   1      42.749  28.522  26.484  1.00  0.00    -0.206 F 
ATOM     65  C   UNL A   1      42.351  25.117  25.329  1.00  0.00     0.022 A 
BRANCH  62  66
ATOM     66  S   UNL A   1      41.468  22.759  26.528  1.00  0.00     0.124 S 
ATOM     67  O   UNL A   1      42.295  22.297  25.415  1.00  0.00    -0.237 OA
ATOM     68  O   UNL A   1      41.968  22.457  27.864  1.00  0.00    -0.237 OA
ATOM     69  O   UNL A   1      40.030  22.579  26.343  1.00  0.00    -0.744 OA
ENDBRANCH  62  66
ENDBRANCH  45  59
BRANCH  46  70
ATOM     70  C   UNL A   1      39.067  32.160  35.613  1.00  0.00     0.023 A 
ATOM     71  C   UNL A   1      38.399  31.505  36.663  1.00  0.00     0.031 A 
ATOM     72  C   UNL A   1      39.293  33.541  35.736  1.00  0.00     0.131 A 
ATOM     73  C   UNL A   1      37.938  32.240  37.766  1.00  0.00     0.055 A 
ATOM     74  C   UNL A   1      38.876  34.258  36.862  1.00  0.00     0.041 A 
ATOM     75  F   UNL A   1      39.934  34.214  34.769  1.00  0.00    -0.206 F 
ATOM     76  C   UNL A   1      38.182  33.611  37.877  1.00  0.00     0.022 A 
BRANCH  73  77
ATOM     77  S   UNL A   1      36.932  31.391  39.014  1.00  0.00     0.124 S 
ATOM     78  O   UNL A   1      35.727  32.212  39.034  1.00  0.00    -0.237 OA
ATOM     79  O   UNL A   1      36.792  30.059  38.432  1.00  0.00    -0.237 OA
ATOM     80  O   UNL A   1      37.756  31.459  40.218  1.00  0.00    -0.744 OA
ENDBRANCH  73  77
ENDBRANCH  46  70
BRANCH  58  81
ATOM     81  C   UNL A   1      44.410  27.924  34.172  1.00  0.00     0.023 A 
ATOM     82  C   UNL A   1      44.406  26.797  35.009  1.00  0.00     0.031 A 
ATOM     83  C   UNL A   1      45.583  28.696  34.096  1.00  0.00     0.131 A 
ATOM     84  C   UNL A   1      45.538  26.502  35.783  1.00  0.00     0.055 A 
ATOM     85  C   UNL A   1      46.725  28.364  34.826  1.00  0.00     0.041 A 
ATOM     86  F   UNL A   1      45.638  29.782  33.309  1.00  0.00    -0.206 F 
ATOM     87  C   UNL A   1      46.702  27.269  35.684  1.00  0.00     0.022 A 
BRANCH  84  88
ATOM     88  S   UNL A   1      45.440  25.148  36.986  1.00  0.00     0.124 S 
ATOM     89  O   UNL A   1      44.690  24.139  36.246  1.00  0.00    -0.237 OA
ATOM     90  O   UNL A   1      46.846  24.846  37.230  1.00  0.00    -0.237 OA
ATOM     91  O   UNL A   1      44.730  25.745  38.116  1.00  0.00    -0.744 OA
ENDBRANCH  84  88
ENDBRANCH  58  81
ENDBRANCH  32  33
ENDBRANCH  24  27
ENDBRANCH  22  23
ENDBRANCH  21  22
ENDBRANCH   1  21
TORSDOF 17
ENDMDL
MODEL 3
REMARK VINA RESULT:     -11.6      1.091      7.709
REMARK SMILES CCc1n[nH]c2cc(CCC(=O)NCCCCNC(=O)c3ccc(-c4c5nc(c(-c6cc(S(=O)(=O)[O-])ccc6F)c6ccc([nH]6)c(-c6cc(S(=O)(=O)[O-])ccc6F)c6nc(c(-c7cc(S(=O)(=O)[O-])ccc7F)c7ccc4[nH]7)C=C6)C=C5)cc3)ccc12
REMARK SMILES IDX 15 1 14 2 13 3 11 4 12 5 10 7 9 8 8 9 3 10 4 11 86 12 5 13
REMARK SMILES IDX 6 14 85 15 7 17 84 18 2 19 1 20 16 21 17 22 18 23 19 24
REMARK SMILES IDX 20 26 21 27 22 28 83 29 23 30 82 31 24 32 25 33 26 34 76 35
REMARK SMILES IDX 27 36 81 37 75 38 77 39 28 40 80 41 74 42 73 43 29 45 61 46
REMARK SMILES IDX 41 47 60 48 42 49 45 50 59 51 78 52 43 53 44 54 58 56 79 57
REMARK SMILES IDX 46 58 30 59 31 60 39 61 32 62 38 63 40 64 37 65 33 66 34 67
REMARK SMILES IDX 35 68 36 69 62 70 63 71 71 72 64 73 70 74 72 75 69 76 65 77
REMARK SMILES IDX 66 78 67 79 68 80 47 81 48 82 56 83 49 84 55 85 57 86 54 87
REMARK SMILES IDX 50 88 51 89 52 90 53 91
REMARK H PARENT 13 6 5 16 18 25 77 44 45 55
REMARK Flexibility Score: inf
ROOT
ATOM      1  C   UNL A   1      35.422  23.420  26.100  1.00  0.00     0.023 C 
ENDROOT
BRANCH   1   2
ATOM      2  C   UNL A   1      34.871  24.449  25.125  1.00  0.00     0.116 C 
BRANCH   2   3
ATOM      3  N   UNL A   1      34.044  25.408  25.835  1.00  0.00    -0.356 N 
ATOM      4  C   UNL A   1      32.812  25.886  25.496  1.00  0.00     0.220 C 
ATOM      5  O   UNL A   1      32.379  26.873  26.095  1.00  0.00    -0.275 OA
ATOM      6  H   UNL A   1      34.423  25.760  26.673  1.00  0.00     0.163 HD
BRANCH   4   7
ATOM      7  C   UNL A   1      31.972  25.194  24.437  1.00  0.00     0.105 C 
BRANCH   7   8
ATOM      8  C   UNL A   1      31.172  23.995  24.971  1.00  0.00     0.045 C 
BRANCH   8   9
ATOM      9  C   UNL A   1      31.795  22.652  24.644  1.00  0.00    -0.045 A 
ATOM     10  C   UNL A   1      32.854  18.626  24.104  1.00  0.00     0.070 A 
ATOM     11  N   UNL A   1      32.996  18.245  25.383  1.00  0.00    -0.180 NA
ATOM     12  C   UNL A   1      32.583  20.022  24.005  1.00  0.00     0.023 A 
ATOM     13  N   UNL A   1      32.773  19.363  26.087  1.00  0.00    -0.278 N 
ATOM     14  C   UNL A   1      32.521  20.468  25.322  1.00  0.00     0.066 A 
ATOM     15  C   UNL A   1      32.348  20.951  22.976  1.00  0.00     0.012 A 
ATOM     16  H   UNL A   1      32.789  19.386  27.071  1.00  0.00     0.190 HD
ATOM     17  C   UNL A   1      32.181  21.781  25.677  1.00  0.00     0.032 A 
ATOM     18  C   UNL A   1      31.941  22.251  23.309  1.00  0.00     0.004 A 
BRANCH  10  19
ATOM     19  C   UNL A   1      32.990  17.588  23.031  1.00  0.00     0.055 C 
ATOM     20  C   UNL A   1      34.101  16.571  23.248  1.00  0.00     0.011 C 
ENDBRANCH  10  19
ENDBRANCH   8   9
ENDBRANCH   7   8
ENDBRANCH   4   7
ENDBRANCH   2   3
ENDBRANCH   1   2
BRANCH   1  21
ATOM     21  C   UNL A   1      35.969  22.141  25.490  1.00  0.00     0.023 C 
BRANCH  21  22
ATOM     22  C   UNL A   1      37.368  22.269  24.910  1.00  0.00     0.116 C 
BRANCH  22  23
ATOM     23  N   UNL A   1      38.318  21.286  25.417  1.00  0.00    -0.352 N 
ATOM     24  C   UNL A   1      39.392  21.442  26.269  1.00  0.00     0.251 C 
ATOM     25  H   UNL A   1      38.168  20.364  25.103  1.00  0.00     0.163 HD
ATOM     26  O   UNL A   1      40.081  20.484  26.580  1.00  0.00    -0.269 OA
BRANCH  24  27
ATOM     27  C   UNL A   1      39.732  22.790  26.770  1.00  0.00     0.039 A 
ATOM     28  C   UNL A   1      40.724  22.917  27.748  1.00  0.00     0.014 A 
ATOM     29  C   UNL A   1      39.118  23.922  26.241  1.00  0.00     0.014 A 
ATOM     30  C   UNL A   1      41.165  24.189  28.121  1.00  0.00     0.010 A 
ATOM     31  C   UNL A   1      39.643  25.175  26.519  1.00  0.00     0.010 A 
ATOM     32  C   UNL A   1      40.667  25.326  27.467  1.00  0.00    -0.014 A 
BRANCH  32  33
ATOM     33  C   UNL A   1      41.162  26.696  27.759  1.00  0.00     0.031 A 
ATOM     34  C   UNL A   1      42.575  27.055  27.386  1.00  0.00     0.074 A 
ATOM     35  C   UNL A   1      40.396  27.560  28.456  1.00  0.00     0.049 A 
ATOM     36  N   UNL A   1      43.297  28.083  27.749  1.00  0.00    -0.248 NA
ATOM     37  C   UNL A   1      43.294  26.085  26.543  1.00  0.00     0.031 C 
ATOM     38  C   UNL A   1      39.026  27.309  28.911  1.00  0.00     0.029 A 
ATOM     39  N   UNL A   1      40.669  28.822  28.921  1.00  0.00    -0.354 N 
ATOM     40  C   UNL A   1      44.567  27.853  27.227  1.00  0.00     0.074 A 
ATOM     41  C   UNL A   1      44.528  26.560  26.578  1.00  0.00     0.031 C 
ATOM     42  C   UNL A   1      38.572  28.390  29.564  1.00  0.00     0.029 A 
ATOM     43  C   UNL A   1      39.633  29.388  29.627  1.00  0.00     0.049 A 
ATOM     44  H   UNL A   1      41.527  29.279  28.764  1.00  0.00     0.167 HD
ATOM     45  C   UNL A   1      45.657  28.658  27.267  1.00  0.00     0.034 A 
ATOM     46  C   UNL A   1      39.557  30.573  30.266  1.00  0.00     0.034 A 
ATOM     47  C   UNL A   1      45.647  29.972  27.862  1.00  0.00     0.049 A 
ATOM     48  C   UNL A   1      40.765  31.474  30.254  1.00  0.00     0.074 A 
ATOM     49  C   UNL A   1      46.661  30.911  27.897  1.00  0.00     0.029 A 
ATOM     50  N   UNL A   1      44.557  30.536  28.512  1.00  0.00    -0.354 N 
ATOM     51  N   UNL A   1      41.953  31.256  29.736  1.00  0.00    -0.248 NA
ATOM     52  C   UNL A   1      40.622  32.783  30.904  1.00  0.00     0.031 C 
ATOM     53  C   UNL A   1      46.200  32.025  28.608  1.00  0.00     0.029 A 
ATOM     54  C   UNL A   1      44.878  31.807  28.962  1.00  0.00     0.049 A 
ATOM     55  H   UNL A   1      43.684  30.098  28.636  1.00  0.00     0.167 HD
ATOM     56  C   UNL A   1      42.688  32.415  29.972  1.00  0.00     0.074 A 
ATOM     57  C   UNL A   1      41.804  33.331  30.664  1.00  0.00     0.031 C 
ATOM     58  C   UNL A   1      43.974  32.700  29.646  1.00  0.00     0.034 A 
BRANCH  45  59
ATOM     59  C   UNL A   1      46.938  28.128  26.667  1.00  0.00     0.023 A 
ATOM     60  C   UNL A   1      47.206  28.219  25.289  1.00  0.00     0.031 A 
ATOM     61  C   UNL A   1      47.888  27.481  27.477  1.00  0.00     0.131 A 
ATOM     62  C   UNL A   1      48.340  27.594  24.752  1.00  0.00     0.055 A 
ATOM     63  C   UNL A   1      49.062  26.939  26.947  1.00  0.00     0.041 A 
ATOM     64  F   UNL A   1      47.683  27.343  28.797  1.00  0.00    -0.206 F 
ATOM     65  C   UNL A   1      49.284  26.977  25.574  1.00  0.00     0.022 A 
BRANCH  62  66
ATOM     66  S   UNL A   1      48.481  27.463  22.948  1.00  0.00     0.124 S 
ATOM     67  O   UNL A   1      47.314  28.226  22.508  1.00  0.00    -0.237 OA
ATOM     68  O   UNL A   1      49.779  28.074  22.688  1.00  0.00    -0.237 OA
ATOM     69  O   UNL A   1      48.405  26.025  22.702  1.00  0.00    -0.744 OA
ENDBRANCH  62  66
ENDBRANCH  45  59
BRANCH  46  70
ATOM     70  C   UNL A   1      38.307  30.981  30.970  1.00  0.00     0.023 A 
ATOM     71  C   UNL A   1      37.275  31.638  30.276  1.00  0.00     0.031 A 
ATOM     72  C   UNL A   1      38.138  30.761  32.347  1.00  0.00     0.131 A 
ATOM     73  C   UNL A   1      36.145  32.095  30.970  1.00  0.00     0.055 A 
ATOM     74  C   UNL A   1      36.987  31.175  33.024  1.00  0.00     0.041 A 
ATOM     75  F   UNL A   1      39.087  30.131  33.056  1.00  0.00    -0.206 F 
ATOM     76  C   UNL A   1      35.989  31.859  32.339  1.00  0.00     0.022 A 
BRANCH  73  77
ATOM     77  S   UNL A   1      34.920  33.088  30.074  1.00  0.00     0.124 S 
ATOM     78  O   UNL A   1      35.758  34.111  29.458  1.00  0.00    -0.237 OA
ATOM     79  O   UNL A   1      34.340  32.102  29.167  1.00  0.00    -0.237 OA
ATOM     80  O   UNL A   1      34.029  33.562  31.129  1.00  0.00    -0.744 OA
ENDBRANCH  73  77
ENDBRANCH  46  70
BRANCH  58  81
ATOM     81  C   UNL A   1      44.471  34.080  29.990  1.00  0.00     0.023 A 
ATOM     82  C   UNL A   1      44.410  35.137  29.068  1.00  0.00     0.031 A 
ATOM     83  C   UNL A   1      45.021  34.332  31.260  1.00  0.00     0.131 A 
ATOM     84  C   UNL A   1      44.940  36.390  29.410  1.00  0.00     0.055 A 
ATOM     85  C   UNL A   1      45.496  35.596  31.614  1.00  0.00     0.041 A 
ATOM     86  F   UNL A   1      45.101  33.355  32.177  1.00  0.00    -0.206 F 
ATOM     87  C   UNL A   1      45.468  36.629  30.682  1.00  0.00     0.022 A 
BRANCH  84  88
ATOM     88  S   UNL A   1      45.008  37.681  28.139  1.00  0.00     0.124 S 
ATOM     89  O   UNL A   1      43.611  37.782  27.734  1.00  0.00    -0.237 OA
ATOM     90  O   UNL A   1      45.541  38.819  28.880  1.00  0.00    -0.237 OA
ATOM     91  O   UNL A   1      45.908  37.123  27.131  1.00  0.00    -0.744 OA
ENDBRANCH  84  88
ENDBRANCH  58  81
ENDBRANCH  32  33
ENDBRANCH  24  27
ENDBRANCH  22  23
ENDBRANCH  21  22
ENDBRANCH   1  21
TORSDOF 17
ENDMDL
