MODEL 1
REMARK VINA RESULT:     -12.1      0.000      0.000
REMARK SMILES CC(C)CCc1cc2c(cc1Cl)C=C(C(=O)NCCCCNC(=O)c1ccc(-c3c4nc(c(-c5cc(S(=O)(=O)[O-])ccc5F)c5ccc([nH]5)c(-c5cc(S(=O)(=O)[O-])ccc5F)c5nc(c(-c6cc(S(=O)(=O)[O-])ccc6F)c6ccc3[nH]6)C=C5)C=C4)cc1)[C@@H](C(F)(F)F)O2
REMARK SMILES IDX 19 1 18 2 17 3 15 4 16 5 14 7 6 8 7 9 11 10 8 11 10 12 12 13
REMARK SMILES IDX 9 14 93 15 13 16 88 17 5 18 4 19 2 20 1 21 3 22 89 23 90 24
REMARK SMILES IDX 91 25 92 26 20 27 21 28 22 29 23 30 24 32 25 33 26 34 87 35
REMARK SMILES IDX 27 36 86 37 28 38 29 39 30 40 80 41 31 42 85 43 79 44 81 45
REMARK SMILES IDX 32 46 84 47 78 48 77 49 33 51 65 52 45 53 64 54 46 55 49 56
REMARK SMILES IDX 63 57 82 58 47 59 48 60 62 62 83 63 50 64 34 65 35 66 43 67
REMARK SMILES IDX 36 68 42 69 44 70 41 71 37 72 38 73 39 74 40 75 66 76 67 77
REMARK SMILES IDX 75 78 68 79 74 80 76 81 73 82 69 83 70 84 71 85 72 86 51 87
REMARK SMILES IDX 52 88 60 89 53 90 59 91 61 92 58 93 54 94 55 95 56 96 57 97
REMARK H PARENT 17 6 22 31 81 50 49 61
REMARK Flexibility Score: inf
ROOT
ATOM      1  C   UNL A   1      31.816  29.252  27.374  1.00  0.00     0.023 C 
ENDROOT
BRANCH   1   2
ATOM      2  C   UNL A   1      32.508  27.995  26.852  1.00  0.00     0.116 C 
BRANCH   2   3
ATOM      3  N   UNL A   1      33.236  28.240  25.618  1.00  0.00    -0.352 N 
ATOM      4  C   UNL A   1      33.719  27.501  24.592  1.00  0.00     0.251 C 
ATOM      5  O   UNL A   1      34.299  28.137  23.706  1.00  0.00    -0.270 OA
ATOM      6  H   UNL A   1      33.428  29.198  25.496  1.00  0.00     0.163 HD
BRANCH   4   7
ATOM      7  C   UNL A   1      33.605  26.017  24.470  1.00  0.00     0.067 C 
ATOM      8  C   UNL A   1      34.553  21.049  24.592  1.00  0.00    -0.026 A 
ATOM      9  C   UNL A   1      33.409  21.840  24.414  1.00  0.00     0.052 A 
ATOM     10  C   UNL A   1      35.786  21.700  24.763  1.00  0.00     0.045 A 
ATOM     11  C   UNL A   1      33.483  23.228  24.453  1.00  0.00     0.128 A 
ATOM     12  C   UNL A   1      35.861  23.100  24.774  1.00  0.00     0.032 A 
ATOM     13  Cl  UNL A   1      37.256  20.820  24.989  1.00  0.00    -0.084 Cl
ATOM     14  C   UNL A   1      34.703  23.870  24.634  1.00  0.00     0.019 A 
ATOM     15  O   UNL A   1      32.295  23.889  24.382  1.00  0.00    -0.475 OA
ATOM     16  C   UNL A   1      34.728  25.323  24.733  1.00  0.00     0.025 C 
ATOM     17  C   UNL A   1      32.352  25.301  24.048  1.00  0.00     0.314 C 
BRANCH   8  18
ATOM     18  C   UNL A   1      34.377  19.550  24.667  1.00  0.00     0.037 C 
BRANCH  18  19
ATOM     19  C   UNL A   1      32.934  19.094  24.386  1.00  0.00     0.008 C 
BRANCH  19  20
ATOM     20  C   UNL A   1      32.783  17.836  23.504  1.00  0.00    -0.017 C 
ATOM     21  C   UNL A   1      32.287  18.161  22.093  1.00  0.00     0.007 C 
ATOM     22  C   UNL A   1      34.119  17.094  23.414  1.00  0.00     0.007 C 
ENDBRANCH  19  20
ENDBRANCH  18  19
ENDBRANCH   8  18
BRANCH  17  23
ATOM     23  C   UNL A   1      32.051  25.454  22.547  1.00  0.00     0.429 C 
ATOM     24  F   UNL A   1      31.447  26.647  22.307  1.00  0.00    -0.167 F 
ATOM     25  F   UNL A   1      33.166  25.426  21.782  1.00  0.00    -0.167 F 
ATOM     26  F   UNL A   1      31.227  24.486  22.084  1.00  0.00    -0.167 F 
ENDBRANCH  17  23
ENDBRANCH   4   7
ENDBRANCH   2   3
ENDBRANCH   1   2
BRANCH   1  27
ATOM     27  C   UNL A   1      32.162  30.526  26.602  1.00  0.00     0.023 C 
BRANCH  27  28
ATOM     28  C   UNL A   1      33.125  31.480  27.306  1.00  0.00     0.116 C 
BRANCH  28  29
ATOM     29  N   UNL A   1      32.642  32.851  27.414  1.00  0.00    -0.352 N 
ATOM     30  C   UNL A   1      33.169  33.865  28.185  1.00  0.00     0.251 C 
ATOM     31  H   UNL A   1      31.852  33.079  26.874  1.00  0.00     0.163 HD
ATOM     32  O   UNL A   1      32.627  34.964  28.233  1.00  0.00    -0.269 OA
BRANCH  30  33
ATOM     33  C   UNL A   1      34.364  33.569  28.999  1.00  0.00     0.039 A 
ATOM     34  C   UNL A   1      35.631  33.890  28.509  1.00  0.00     0.014 A 
ATOM     35  C   UNL A   1      34.217  32.837  30.179  1.00  0.00     0.014 A 
ATOM     36  C   UNL A   1      36.751  33.320  29.100  1.00  0.00     0.010 A 
ATOM     37  C   UNL A   1      35.352  32.332  30.816  1.00  0.00     0.010 A 
ATOM     38  C   UNL A   1      36.622  32.515  30.245  1.00  0.00    -0.014 A 
BRANCH  38  39
ATOM     39  C   UNL A   1      37.826  31.851  30.805  1.00  0.00     0.031 A 
ATOM     40  C   UNL A   1      38.268  32.122  32.219  1.00  0.00     0.074 A 
ATOM     41  C   UNL A   1      38.478  30.943  30.055  1.00  0.00     0.049 A 
ATOM     42  N   UNL A   1      39.263  31.594  32.884  1.00  0.00    -0.248 NA
ATOM     43  C   UNL A   1      37.496  33.112  32.988  1.00  0.00     0.031 C 
ATOM     44  C   UNL A   1      38.123  30.595  28.679  1.00  0.00     0.029 A 
ATOM     45  N   UNL A   1      39.544  30.129  30.343  1.00  0.00    -0.354 N 
ATOM     46  C   UNL A   1      39.249  32.197  34.137  1.00  0.00     0.074 A 
ATOM     47  C   UNL A   1      38.165  33.154  34.131  1.00  0.00     0.031 C 
ATOM     48  C   UNL A   1      38.914  29.597  28.264  1.00  0.00     0.029 A 
ATOM     49  C   UNL A   1      39.879  29.280  29.315  1.00  0.00     0.049 A 
ATOM     50  H   UNL A   1      40.023  30.152  31.203  1.00  0.00     0.167 HD
ATOM     51  C   UNL A   1      40.060  31.963  35.197  1.00  0.00     0.034 A 
ATOM     52  C   UNL A   1      40.854  28.354  29.222  1.00  0.00     0.034 A 
ATOM     53  C   UNL A   1      41.124  30.990  35.194  1.00  0.00     0.049 A 
ATOM     54  C   UNL A   1      41.754  28.126  30.408  1.00  0.00     0.074 A 
ATOM     55  C   UNL A   1      41.992  30.670  36.223  1.00  0.00     0.029 A 
ATOM     56  N   UNL A   1      41.459  30.177  34.122  1.00  0.00    -0.354 N 
ATOM     57  N   UNL A   1      41.712  28.690  31.592  1.00  0.00    -0.248 NA
ATOM     58  C   UNL A   1      42.835  27.144  30.248  1.00  0.00     0.031 C 
ATOM     59  C   UNL A   1      42.878  29.697  35.760  1.00  0.00     0.029 A 
ATOM     60  C   UNL A   1      42.532  29.368  34.459  1.00  0.00     0.049 A 
ATOM     61  H   UNL A   1      41.002  30.175  33.250  1.00  0.00     0.167 HD
ATOM     62  C   UNL A   1      42.753  28.126  32.322  1.00  0.00     0.074 A 
ATOM     63  C   UNL A   1      43.387  27.153  31.456  1.00  0.00     0.031 C 
ATOM     64  C   UNL A   1      43.151  28.397  33.590  1.00  0.00     0.034 A 
BRANCH  51  65
ATOM     65  C   UNL A   1      39.839  32.752  36.462  1.00  0.00     0.023 A 
ATOM     66  C   UNL A   1      38.906  32.308  37.418  1.00  0.00     0.031 A 
ATOM     67  C   UNL A   1      40.461  33.997  36.667  1.00  0.00     0.131 A 
ATOM     68  C   UNL A   1      38.602  33.114  38.522  1.00  0.00     0.055 A 
ATOM     69  C   UNL A   1      40.177  34.783  37.785  1.00  0.00     0.041 A 
ATOM     70  F   UNL A   1      41.362  34.461  35.786  1.00  0.00    -0.206 F 
ATOM     71  C   UNL A   1      39.235  34.347  38.712  1.00  0.00     0.022 A 
BRANCH  68  72
ATOM     72  S   UNL A   1      37.337  32.623  39.726  1.00  0.00     0.124 S 
ATOM     73  O   UNL A   1      37.473  33.664  40.742  1.00  0.00    -0.237 OA
ATOM     74  O   UNL A   1      36.116  32.686  38.929  1.00  0.00    -0.237 OA
ATOM     75  O   UNL A   1      37.750  31.288  40.143  1.00  0.00    -0.744 OA
ENDBRANCH  68  72
ENDBRANCH  51  65
BRANCH  52  76
ATOM     76  C   UNL A   1      40.971  27.554  27.969  1.00  0.00     0.023 A 
ATOM     77  C   UNL A   1      40.589  26.200  27.939  1.00  0.00     0.031 A 
ATOM     78  C   UNL A   1      41.589  28.092  26.829  1.00  0.00     0.131 A 
ATOM     79  C   UNL A   1      40.909  25.410  26.828  1.00  0.00     0.055 A 
ATOM     80  C   UNL A   1      41.839  27.320  25.694  1.00  0.00     0.041 A 
ATOM     81  F   UNL A   1      41.980  29.376  26.815  1.00  0.00    -0.206 F 
ATOM     82  C   UNL A   1      41.518  25.965  25.699  1.00  0.00     0.022 A 
BRANCH  79  83
ATOM     83  S   UNL A   1      40.691  23.609  26.878  1.00  0.00     0.124 S 
ATOM     84  O   UNL A   1      39.289  23.462  26.506  1.00  0.00    -0.237 OA
ATOM     85  O   UNL A   1      41.661  23.162  25.880  1.00  0.00    -0.237 OA
ATOM     86  O   UNL A   1      41.021  23.262  28.257  1.00  0.00    -0.744 OA
ENDBRANCH  79  83
ENDBRANCH  52  76
BRANCH  64  87
ATOM     87  C   UNL A   1      44.339  27.649  34.142  1.00  0.00     0.023 A 
ATOM     88  C   UNL A   1      44.165  26.385  34.735  1.00  0.00     0.031 A 
ATOM     89  C   UNL A   1      45.607  28.251  34.212  1.00  0.00     0.131 A 
ATOM     90  C   UNL A   1      45.234  25.777  35.404  1.00  0.00     0.055 A 
ATOM     91  C   UNL A   1      46.680  27.624  34.845  1.00  0.00     0.041 A 
ATOM     92  F   UNL A   1      45.817  29.460  33.668  1.00  0.00    -0.206 F 
ATOM     93  C   UNL A   1      46.492  26.388  35.457  1.00  0.00     0.022 A 
BRANCH  90  94
ATOM     94  S   UNL A   1      45.014  24.214  36.298  1.00  0.00     0.124 S 
ATOM     95  O   UNL A   1      44.945  24.668  37.685  1.00  0.00    -0.237 OA
ATOM     96  O   UNL A   1      43.759  23.716  35.742  1.00  0.00    -0.237 OA
ATOM     97  O   UNL A   1      46.203  23.440  35.954  1.00  0.00    -0.744 OA
ENDBRANCH  90  94
ENDBRANCH  64  87
ENDBRANCH  38  39
ENDBRANCH  30  33
ENDBRANCH  28  29
ENDBRANCH  27  28
ENDBRANCH   1  27
TORSDOF 18
ENDMDL
MODEL 2
REMARK VINA RESULT:     -11.6      6.349      9.860
REMARK SMILES CC(C)CCc1cc2c(cc1Cl)C=C(C(=O)NCCCCNC(=O)c1ccc(-c3c4nc(c(-c5cc(S(=O)(=O)[O-])ccc5F)c5ccc([nH]5)c(-c5cc(S(=O)(=O)[O-])ccc5F)c5nc(c(-c6cc(S(=O)(=O)[O-])ccc6F)c6ccc3[nH]6)C=C5)C=C4)cc1)[C@@H](C(F)(F)F)O2
REMARK SMILES IDX 19 1 18 2 17 3 15 4 16 5 14 7 6 8 7 9 11 10 8 11 10 12 12 13
REMARK SMILES IDX 9 14 93 15 13 16 88 17 5 18 4 19 2 20 1 21 3 22 89 23 90 24
REMARK SMILES IDX 91 25 92 26 20 27 21 28 22 29 23 30 24 32 25 33 26 34 87 35
REMARK SMILES IDX 27 36 86 37 28 38 29 39 30 40 80 41 31 42 85 43 79 44 81 45
REMARK SMILES IDX 32 46 84 47 78 48 77 49 33 51 65 52 45 53 64 54 46 55 49 56
REMARK SMILES IDX 63 57 82 58 47 59 48 60 62 62 83 63 50 64 34 65 35 66 43 67
REMARK SMILES IDX 36 68 42 69 44 70 41 71 37 72 38 73 39 74 40 75 66 76 67 77
REMARK SMILES IDX 75 78 68 79 74 80 76 81 73 82 69 83 70 84 71 85 72 86 51 87
REMARK SMILES IDX 52 88 60 89 53 90 59 91 61 92 58 93 54 94 55 95 56 96 57 97
REMARK H PARENT 17 6 22 31 81 50 49 61
REMARK Flexibility Score: inf
ROOT
ATOM      1  C   UNL A   1      39.196  23.219  26.266  1.00  0.00     0.023 C 
ENDROOT
BRANCH   1   2
ATOM      2  C   UNL A   1      37.791  23.801  26.142  1.00  0.00     0.116 C 
BRANCH   2   3
ATOM      3  N   UNL A   1      36.761  22.781  26.254  1.00  0.00    -0.352 N 
ATOM      4  C   UNL A   1      35.451  22.658  25.934  1.00  0.00     0.251 C 
ATOM      5  O   UNL A   1      34.935  21.572  26.214  1.00  0.00    -0.270 OA
ATOM      6  H   UNL A   1      37.109  21.961  26.674  1.00  0.00     0.163 HD
BRANCH   4   7
ATOM      7  C   UNL A   1      34.618  23.719  25.290  1.00  0.00     0.067 C 
ATOM      8  C   UNL A   1      32.098  28.001  24.342  1.00  0.00    -0.026 A 
ATOM      9  C   UNL A   1      32.503  26.895  23.581  1.00  0.00     0.052 A 
ATOM     10  C   UNL A   1      32.396  28.004  25.714  1.00  0.00     0.045 A 
ATOM     11  C   UNL A   1      33.223  25.854  24.156  1.00  0.00     0.128 A 
ATOM     12  C   UNL A   1      33.098  26.938  26.296  1.00  0.00     0.032 A 
ATOM     13  Cl  UNL A   1      31.940  29.317  26.742  1.00  0.00    -0.084 Cl
ATOM     14  C   UNL A   1      33.527  25.864  25.513  1.00  0.00     0.019 A 
ATOM     15  O   UNL A   1      33.661  24.890  23.300  1.00  0.00    -0.475 OA
ATOM     16  C   UNL A   1      34.337  24.785  26.063  1.00  0.00     0.025 C 
ATOM     17  C   UNL A   1      34.076  23.630  23.891  1.00  0.00     0.314 C 
BRANCH   8  18
ATOM     18  C   UNL A   1      31.434  29.153  23.623  1.00  0.00     0.037 C 
BRANCH  18  19
ATOM     19  C   UNL A   1      29.911  29.205  23.837  1.00  0.00     0.008 C 
BRANCH  19  20
ATOM     20  C   UNL A   1      29.048  29.163  22.556  1.00  0.00    -0.017 C 
ATOM     21  C   UNL A   1      27.561  29.383  22.840  1.00  0.00     0.007 C 
ATOM     22  C   UNL A   1      29.536  30.216  21.559  1.00  0.00     0.007 C 
ENDBRANCH  19  20
ENDBRANCH  18  19
ENDBRANCH   8  18
BRANCH  17  23
ATOM     23  C   UNL A   1      32.914  22.630  23.762  1.00  0.00     0.429 C 
ATOM     24  F   UNL A   1      32.136  22.949  22.695  1.00  0.00    -0.167 F 
ATOM     25  F   UNL A   1      33.334  21.359  23.566  1.00  0.00    -0.167 F 
ATOM     26  F   UNL A   1      32.116  22.621  24.854  1.00  0.00    -0.167 F 
ENDBRANCH  17  23
ENDBRANCH   4   7
ENDBRANCH   2   3
ENDBRANCH   1   2
BRANCH   1  27
ATOM     27  C   UNL A   1      39.277  21.713  26.015  1.00  0.00     0.023 C 
BRANCH  27  28
ATOM     28  C   UNL A   1      40.228  20.944  26.930  1.00  0.00     0.116 C 
BRANCH  28  29
ATOM     29  N   UNL A   1      40.987  19.893  26.263  1.00  0.00    -0.352 N 
ATOM     30  C   UNL A   1      42.282  19.964  25.797  1.00  0.00     0.251 C 
ATOM     31  H   UNL A   1      40.523  19.036  26.131  1.00  0.00     0.163 HD
ATOM     32  O   UNL A   1      42.786  19.022  25.195  1.00  0.00    -0.269 OA
BRANCH  30  33
ATOM     33  C   UNL A   1      43.021  21.228  25.988  1.00  0.00     0.039 A 
ATOM     34  C   UNL A   1      43.481  21.576  27.259  1.00  0.00     0.014 A 
ATOM     35  C   UNL A   1      43.117  22.125  24.922  1.00  0.00     0.014 A 
ATOM     36  C   UNL A   1      43.865  22.887  27.506  1.00  0.00     0.010 A 
ATOM     37  C   UNL A   1      43.580  23.421  25.158  1.00  0.00     0.010 A 
ATOM     38  C   UNL A   1      43.895  23.830  26.464  1.00  0.00    -0.014 A 
BRANCH  38  39
ATOM     39  C   UNL A   1      44.230  25.243  26.774  1.00  0.00     0.031 A 
ATOM     40  C   UNL A   1      43.205  26.162  27.385  1.00  0.00     0.074 A 
ATOM     41  C   UNL A   1      45.489  25.675  26.570  1.00  0.00     0.049 A 
ATOM     42  N   UNL A   1      43.340  27.406  27.765  1.00  0.00    -0.248 NA
ATOM     43  C   UNL A   1      41.854  25.617  27.598  1.00  0.00     0.031 C 
ATOM     44  C   UNL A   1      46.562  24.861  25.998  1.00  0.00     0.029 A 
ATOM     45  N   UNL A   1      46.089  26.877  26.844  1.00  0.00    -0.354 N 
ATOM     46  C   UNL A   1      42.095  27.798  28.243  1.00  0.00     0.074 A 
ATOM     47  C   UNL A   1      41.207  26.669  28.079  1.00  0.00     0.031 C 
ATOM     48  C   UNL A   1      47.702  25.565  26.021  1.00  0.00     0.029 A 
ATOM     49  C   UNL A   1      47.430  26.902  26.542  1.00  0.00     0.049 A 
ATOM     50  H   UNL A   1      45.605  27.647  27.220  1.00  0.00     0.167 HD
ATOM     51  C   UNL A   1      41.732  28.988  28.780  1.00  0.00     0.034 A 
ATOM     52  C   UNL A   1      48.340  27.889  26.665  1.00  0.00     0.034 A 
ATOM     53  C   UNL A   1      42.635  30.097  28.958  1.00  0.00     0.049 A 
ATOM     54  C   UNL A   1      47.907  29.208  27.248  1.00  0.00     0.074 A 
ATOM     55  C   UNL A   1      42.365  31.339  29.505  1.00  0.00     0.029 A 
ATOM     56  N   UNL A   1      43.976  30.100  28.603  1.00  0.00    -0.354 N 
ATOM     57  N   UNL A   1      46.731  29.553  27.715  1.00  0.00    -0.248 NA
ATOM     58  C   UNL A   1      48.917  30.272  27.319  1.00  0.00     0.031 C 
ATOM     59  C   UNL A   1      43.529  32.107  29.442  1.00  0.00     0.029 A 
ATOM     60  C   UNL A   1      44.542  31.328  28.905  1.00  0.00     0.049 A 
ATOM     61  H   UNL A   1      44.454  29.341  28.198  1.00  0.00     0.167 HD
ATOM     62  C   UNL A   1      46.860  30.870  28.143  1.00  0.00     0.074 A 
ATOM     63  C   UNL A   1      48.238  31.249  27.908  1.00  0.00     0.031 C 
ATOM     64  C   UNL A   1      45.919  31.692  28.673  1.00  0.00     0.034 A 
BRANCH  51  65
ATOM     65  C   UNL A   1      40.306  29.168  29.234  1.00  0.00     0.023 A 
ATOM     66  C   UNL A   1      39.965  28.980  30.587  1.00  0.00     0.031 A 
ATOM     67  C   UNL A   1      39.270  29.411  28.315  1.00  0.00     0.131 A 
ATOM     68  C   UNL A   1      38.621  29.010  30.978  1.00  0.00     0.055 A 
ATOM     69  C   UNL A   1      37.934  29.471  28.714  1.00  0.00     0.041 A 
ATOM     70  F   UNL A   1      39.545  29.602  27.015  1.00  0.00    -0.206 F 
ATOM     71  C   UNL A   1      37.604  29.259  30.050  1.00  0.00     0.022 A 
BRANCH  68  72
ATOM     72  S   UNL A   1      38.133  28.678  32.693  1.00  0.00     0.124 S 
ATOM     73  O   UNL A   1      38.232  27.221  32.754  1.00  0.00    -0.237 OA
ATOM     74  O   UNL A   1      39.150  29.404  33.447  1.00  0.00    -0.237 OA
ATOM     75  O   UNL A   1      36.779  29.213  32.782  1.00  0.00    -0.744 OA
ENDBRANCH  68  72
ENDBRANCH  51  65
BRANCH  52  76
ATOM     76  C   UNL A   1      49.752  27.620  26.267  1.00  0.00     0.023 A 
ATOM     77  C   UNL A   1      50.185  27.847  24.948  1.00  0.00     0.031 A 
ATOM     78  C   UNL A   1      50.644  27.006  27.160  1.00  0.00     0.131 A 
ATOM     79  C   UNL A   1      51.442  27.385  24.537  1.00  0.00     0.055 A 
ATOM     80  C   UNL A   1      51.924  26.613  26.766  1.00  0.00     0.041 A 
ATOM     81  F   UNL A   1      50.271  26.759  28.425  1.00  0.00    -0.206 F 
ATOM     82  C   UNL A   1      52.320  26.782  25.443  1.00  0.00     0.022 A 
BRANCH  79  83
ATOM     83  S   UNL A   1      51.909  27.404  22.784  1.00  0.00     0.124 S 
ATOM     84  O   UNL A   1      52.434  28.755  22.624  1.00  0.00    -0.237 OA
ATOM     85  O   UNL A   1      52.898  26.329  22.725  1.00  0.00    -0.237 OA
ATOM     86  O   UNL A   1      50.654  27.126  22.091  1.00  0.00    -0.744 OA
ENDBRANCH  79  83
ENDBRANCH  52  76
BRANCH  64  87
ATOM     87  C   UNL A   1      46.321  33.100  29.036  1.00  0.00     0.023 A 
ATOM     88  C   UNL A   1      46.233  34.129  28.080  1.00  0.00     0.031 A 
ATOM     89  C   UNL A   1      46.925  33.385  30.273  1.00  0.00     0.131 A 
ATOM     90  C   UNL A   1      46.774  35.389  28.364  1.00  0.00     0.055 A 
ATOM     91  C   UNL A   1      47.428  34.653  30.565  1.00  0.00     0.041 A 
ATOM     92  F   UNL A   1      47.038  32.431  31.211  1.00  0.00    -0.206 F 
ATOM     93  C   UNL A   1      47.365  35.657  29.602  1.00  0.00     0.022 A 
BRANCH  90  94
ATOM     94  S   UNL A   1      46.804  36.699  27.109  1.00  0.00     0.124 S 
ATOM     95  O   UNL A   1      45.569  36.438  26.373  1.00  0.00    -0.237 OA
ATOM     96  O   UNL A   1      46.799  37.908  27.928  1.00  0.00    -0.237 OA
ATOM     97  O   UNL A   1      48.036  36.449  26.368  1.00  0.00    -0.744 OA
ENDBRANCH  90  94
ENDBRANCH  64  87
ENDBRANCH  38  39
ENDBRANCH  30  33
ENDBRANCH  28  29
ENDBRANCH  27  28
ENDBRANCH   1  27
TORSDOF 18
ENDMDL
MODEL 3
REMARK VINA RESULT:     -11.6      2.822      3.637
REMARK SMILES CC(C)CCc1cc2c(cc1Cl)C=C(C(=O)NCCCCNC(=O)c1ccc(-c3c4nc(c(-c5cc(S(=O)(=O)[O-])ccc5F)c5ccc([nH]5)c(-c5cc(S(=O)(=O)[O-])ccc5F)c5nc(c(-c6cc(S(=O)(=O)[O-])ccc6F)c6ccc3[nH]6)C=C5)C=C4)cc1)[C@@H](C(F)(F)F)O2
REMARK SMILES IDX 19 1 18 2 17 3 15 4 16 5 14 7 6 8 7 9 11 10 8 11 10 12 12 13
REMARK SMILES IDX 9 14 93 15 13 16 88 17 5 18 4 19 2 20 1 21 3 22 89 23 90 24
REMARK SMILES IDX 91 25 92 26 20 27 21 28 22 29 23 30 24 32 25 33 26 34 87 35
REMARK SMILES IDX 27 36 86 37 28 38 29 39 30 40 80 41 31 42 85 43 79 44 81 45
REMARK SMILES IDX 32 46 84 47 78 48 77 49 33 51 65 52 45 53 64 54 46 55 49 56
REMARK SMILES IDX 63 57 82 58 47 59 48 60 62 62 83 63 50 64 34 65 35 66 43 67
REMARK SMILES IDX 36 68 42 69 44 70 41 71 37 72 38 73 39 74 40 75 66 76 67 77
REMARK SMILES IDX 75 78 68 79 74 80 76 81 73 82 69 83 70 84 71 85 72 86 51 87
REMARK SMILES IDX 52 88 60 89 53 90 59 91 61 92 58 93 54 94 55 95 56 96 57 97
REMARK H PARENT 17 6 22 31 81 50 49 61
REMARK Flexibility Score: inf
ROOT
ATOM      1  C   UNL A   1      31.627  30.528  26.216  1.00  0.00     0.023 C 
ENDROOT
BRANCH   1   2
ATOM      2  C   UNL A   1      31.172  29.737  24.992  1.00  0.00     0.116 C 
BRANCH   2   3
ATOM      3  N   UNL A   1      32.242  29.555  24.025  1.00  0.00    -0.352 N 
ATOM      4  C   UNL A   1      32.987  28.527  23.557  1.00  0.00     0.251 C 
ATOM      5  O   UNL A   1      33.824  28.824  22.699  1.00  0.00    -0.270 OA
ATOM      6  H   UNL A   1      32.491  30.406  23.598  1.00  0.00     0.163 HD
BRANCH   4   7
ATOM      7  C   UNL A   1      32.869  27.104  24.000  1.00  0.00     0.067 C 
ATOM      8  C   UNL A   1      33.906  22.354  25.394  1.00  0.00    -0.026 A 
ATOM      9  C   UNL A   1      32.774  23.179  25.439  1.00  0.00     0.052 A 
ATOM     10  C   UNL A   1      35.079  22.871  24.820  1.00  0.00     0.045 A 
ATOM     11  C   UNL A   1      32.823  24.490  24.975  1.00  0.00     0.128 A 
ATOM     12  C   UNL A   1      35.116  24.183  24.327  1.00  0.00     0.032 A 
ATOM     13  Cl  UNL A   1      36.529  21.936  24.713  1.00  0.00    -0.084 Cl
ATOM     14  C   UNL A   1      33.988  25.004  24.418  1.00  0.00     0.019 A 
ATOM     15  O   UNL A   1      31.699  25.233  25.173  1.00  0.00    -0.475 OA
ATOM     16  C   UNL A   1      34.016  26.399  24.002  1.00  0.00     0.025 C 
ATOM     17  C   UNL A   1      31.574  26.449  24.390  1.00  0.00     0.314 C 
BRANCH   8  18
ATOM     18  C   UNL A   1      33.815  20.987  26.034  1.00  0.00     0.037 C 
BRANCH  18  19
ATOM     19  C   UNL A   1      33.889  19.835  25.017  1.00  0.00     0.008 C 
BRANCH  19  20
ATOM     20  C   UNL A   1      32.536  19.327  24.473  1.00  0.00    -0.017 C 
ATOM     21  C   UNL A   1      32.260  19.800  23.044  1.00  0.00     0.007 C 
ATOM     22  C   UNL A   1      32.491  17.798  24.519  1.00  0.00     0.007 C 
ENDBRANCH  19  20
ENDBRANCH  18  19
ENDBRANCH   8  18
BRANCH  17  23
ATOM     23  C   UNL A   1      30.663  26.156  23.185  1.00  0.00     0.429 C 
ATOM     24  F   UNL A   1      29.703  25.259  23.528  1.00  0.00    -0.167 F 
ATOM     25  F   UNL A   1      30.019  27.256  22.734  1.00  0.00    -0.167 F 
ATOM     26  F   UNL A   1      31.344  25.636  22.138  1.00  0.00    -0.167 F 
ENDBRANCH  17  23
ENDBRANCH   4   7
ENDBRANCH   2   3
ENDBRANCH   1   2
BRANCH   1  27
ATOM     27  C   UNL A   1      32.713  29.836  27.042  1.00  0.00     0.023 C 
BRANCH  27  28
ATOM     28  C   UNL A   1      33.986  30.650  27.268  1.00  0.00     0.116 C 
BRANCH  28  29
ATOM     29  N   UNL A   1      33.889  31.632  28.342  1.00  0.00    -0.352 N 
ATOM     30  C   UNL A   1      34.817  31.888  29.328  1.00  0.00     0.251 C 
ATOM     31  H   UNL A   1      33.068  32.175  28.364  1.00  0.00     0.163 HD
ATOM     32  O   UNL A   1      34.584  32.704  30.213  1.00  0.00    -0.269 OA
BRANCH  30  33
ATOM     33  C   UNL A   1      36.070  31.107  29.322  1.00  0.00     0.039 A 
ATOM     34  C   UNL A   1      36.123  29.878  29.982  1.00  0.00     0.014 A 
ATOM     35  C   UNL A   1      37.223  31.680  28.782  1.00  0.00     0.014 A 
ATOM     36  C   UNL A   1      37.359  29.313  30.265  1.00  0.00     0.010 A 
ATOM     37  C   UNL A   1      38.458  31.066  29.000  1.00  0.00     0.010 A 
ATOM     38  C   UNL A   1      38.542  29.914  29.799  1.00  0.00    -0.014 A 
BRANCH  38  39
ATOM     39  C   UNL A   1      39.852  29.334  30.187  1.00  0.00     0.031 A 
ATOM     40  C   UNL A   1      40.560  29.795  31.433  1.00  0.00     0.074 A 
ATOM     41  C   UNL A   1      40.366  28.333  29.448  1.00  0.00     0.049 A 
ATOM     42  N   UNL A   1      41.683  29.363  31.948  1.00  0.00    -0.248 NA
ATOM     43  C   UNL A   1      39.930  30.880  32.203  1.00  0.00     0.031 C 
ATOM     44  C   UNL A   1      39.753  27.800  28.232  1.00  0.00     0.029 A 
ATOM     45  N   UNL A   1      41.491  27.567  29.621  1.00  0.00    -0.354 N 
ATOM     46  C   UNL A   1      41.904  30.131  33.086  1.00  0.00     0.074 A 
ATOM     47  C   UNL A   1      40.813  31.077  33.172  1.00  0.00     0.031 C 
ATOM     48  C   UNL A   1      40.473  26.756  27.802  1.00  0.00     0.029 A 
ATOM     49  C   UNL A   1      41.637  26.586  28.668  1.00  0.00     0.049 A 
ATOM     50  H   UNL A   1      42.131  27.707  30.355  1.00  0.00     0.167 HD
ATOM     51  C   UNL A   1      42.917  30.045  33.981  1.00  0.00     0.034 A 
ATOM     52  C   UNL A   1      42.600  25.656  28.504  1.00  0.00     0.034 A 
ATOM     53  C   UNL A   1      43.985  29.081  33.893  1.00  0.00     0.049 A 
ATOM     54  C   UNL A   1      43.725  25.593  29.502  1.00  0.00     0.074 A 
ATOM     55  C   UNL A   1      45.050  28.905  34.758  1.00  0.00     0.029 A 
ATOM     56  N   UNL A   1      44.122  28.130  32.893  1.00  0.00    -0.354 N 
ATOM     57  N   UNL A   1      43.905  26.312  30.585  1.00  0.00    -0.248 NA
ATOM     58  C   UNL A   1      44.779  24.599  29.260  1.00  0.00     0.031 C 
ATOM     59  C   UNL A   1      45.854  27.878  34.260  1.00  0.00     0.029 A 
ATOM     60  C   UNL A   1      45.263  27.376  33.111  1.00  0.00     0.049 A 
ATOM     61  H   UNL A   1      43.500  28.009  32.140  1.00  0.00     0.167 HD
ATOM     62  C   UNL A   1      45.086  25.854  31.158  1.00  0.00     0.074 A 
ATOM     63  C   UNL A   1      45.562  24.773  30.319  1.00  0.00     0.031 C 
ATOM     64  C   UNL A   1      45.723  26.295  32.272  1.00  0.00     0.034 A 
BRANCH  51  65
ATOM     65  C   UNL A   1      42.931  30.998  35.148  1.00  0.00     0.023 A 
ATOM     66  C   UNL A   1      43.533  32.264  35.018  1.00  0.00     0.031 A 
ATOM     67  C   UNL A   1      42.457  30.613  36.415  1.00  0.00     0.131 A 
ATOM     68  C   UNL A   1      43.668  33.090  36.142  1.00  0.00     0.055 A 
ATOM     69  C   UNL A   1      42.567  31.452  37.525  1.00  0.00     0.041 A 
ATOM     70  F   UNL A   1      41.871  29.418  36.587  1.00  0.00    -0.206 F 
ATOM     71  C   UNL A   1      43.186  32.692  37.393  1.00  0.00     0.022 A 
BRANCH  68  72
ATOM     72  S   UNL A   1      44.522  34.687  36.038  1.00  0.00     0.124 S 
ATOM     73  O   UNL A   1      43.803  35.338  34.945  1.00  0.00    -0.237 OA
ATOM     74  O   UNL A   1      44.282  35.249  37.364  1.00  0.00    -0.237 OA
ATOM     75  O   UNL A   1      45.905  34.328  35.745  1.00  0.00    -0.744 OA
ENDBRANCH  68  72
ENDBRANCH  51  65
BRANCH  52  76
ATOM     76  C   UNL A   1      42.486  24.694  27.371  1.00  0.00     0.023 A 
ATOM     77  C   UNL A   1      41.650  23.565  27.465  1.00  0.00     0.031 A 
ATOM     78  C   UNL A   1      43.309  24.815  26.241  1.00  0.00     0.131 A 
ATOM     79  C   UNL A   1      41.722  22.562  26.490  1.00  0.00     0.055 A 
ATOM     80  C   UNL A   1      43.323  23.848  25.234  1.00  0.00     0.041 A 
ATOM     81  F   UNL A   1      44.131  25.868  26.113  1.00  0.00    -0.206 F 
ATOM     82  C   UNL A   1      42.542  22.704  25.368  1.00  0.00     0.022 A 
BRANCH  79  83
ATOM     83  S   UNL A   1      40.877  20.974  26.732  1.00  0.00     0.124 S 
ATOM     84  O   UNL A   1      39.607  21.198  26.049  1.00  0.00    -0.237 OA
ATOM     85  O   UNL A   1      41.793  20.044  26.074  1.00  0.00    -0.237 OA
ATOM     86  O   UNL A   1      40.801  20.843  28.183  1.00  0.00    -0.744 OA
ENDBRANCH  79  83
ENDBRANCH  52  76
BRANCH  64  87
ATOM     87  C   UNL A   1      47.018  25.630  32.667  1.00  0.00     0.023 A 
ATOM     88  C   UNL A   1      47.027  24.635  33.661  1.00  0.00     0.031 A 
ATOM     89  C   UNL A   1      48.250  26.087  32.166  1.00  0.00     0.131 A 
ATOM     90  C   UNL A   1      48.246  24.151  34.150  1.00  0.00     0.055 A 
ATOM     91  C   UNL A   1      49.462  25.574  32.629  1.00  0.00     0.041 A 
ATOM     92  F   UNL A   1      48.290  27.042  31.224  1.00  0.00    -0.206 F 
ATOM     93  C   UNL A   1      49.463  24.611  33.635  1.00  0.00     0.022 A 
BRANCH  90  94
ATOM     94  S   UNL A   1      48.302  22.969  35.525  1.00  0.00     0.124 S 
ATOM     95  O   UNL A   1      49.524  23.370  36.217  1.00  0.00    -0.237 OA
ATOM     96  O   UNL A   1      47.059  23.262  36.233  1.00  0.00    -0.237 OA
ATOM     97  O   UNL A   1      48.357  21.666  34.869  1.00  0.00    -0.744 OA
ENDBRANCH  90  94
ENDBRANCH  64  87
ENDBRANCH  38  39
ENDBRANCH  30  33
ENDBRANCH  28  29
ENDBRANCH  27  28
ENDBRANCH   1  27
TORSDOF 18
ENDMDL
