MODEL 1
REMARK VINA RESULT:     -10.8      0.000      0.000
REMARK SMILES CC[C@H](C)[C@@H](C)NC(=O)c1ccncc1/C=C/C(=O)NCCCCNC(=O)c1ccc(-c2c3nc(c(-c4cc(S(=O)(=O)[O-])ccc4F)c4ccc([nH]4)c(-c4cc(S(=O)(=O)[O-])ccc4F)c4nc(c(-c5cc(S(=O)(=O)[O-])ccc5F)c5ccc2[nH]5)C=C4)C=C3)cc1
REMARK SMILES IDX 21 1 20 2 18 3 19 4 17 6 16 7 15 8 10 9 11 10 12 11 14 12
REMARK SMILES IDX 13 13 8 14 7 15 9 17 5 18 6 19 3 20 4 21 2 22 1 23 22 24
REMARK SMILES IDX 23 25 24 26 25 27 26 28 27 30 28 31 29 32 90 33 30 34 89 35
REMARK SMILES IDX 31 36 32 37 33 38 83 39 34 40 88 41 82 42 84 43 35 44 87 45
REMARK SMILES IDX 81 46 80 47 36 49 68 50 48 51 67 52 49 53 52 54 66 55 85 56
REMARK SMILES IDX 50 57 51 58 65 60 86 61 53 62 37 63 38 64 46 65 39 66 45 67
REMARK SMILES IDX 47 68 44 69 40 70 41 71 42 72 43 73 69 74 70 75 78 76 71 77
REMARK SMILES IDX 77 78 79 79 76 80 72 81 73 82 74 83 75 84 54 85 55 86 63 87
REMARK SMILES IDX 56 88 62 89 64 90 61 91 57 92 58 93 59 94 60 95
REMARK H PARENT 20 5 7 16 25 29 84 48 52 59
REMARK Flexibility Score: inf
ROOT
ATOM      1  C   UNL A   1      37.971  22.920  26.120  1.00  0.00     0.116 C 
ENDROOT
BRANCH   1   2
ATOM      2  N   UNL A   1      37.780  23.015  24.683  1.00  0.00    -0.353 N 
ATOM      3  C   UNL A   1      36.633  22.966  23.956  1.00  0.00     0.244 C 
ATOM      4  O   UNL A   1      36.656  23.160  22.743  1.00  0.00    -0.270 OA
ATOM      5  H   UNL A   1      38.605  23.131  24.158  1.00  0.00     0.163 HD
BRANCH   3   6
ATOM      6  C   UNL A   1      35.327  22.775  24.627  1.00  0.00     0.072 C 
ATOM      7  C   UNL A   1      34.347  23.693  24.658  1.00  0.00     0.016 C 
BRANCH   7   8
ATOM      8  C   UNL A   1      33.064  23.448  25.331  1.00  0.00     0.006 A 
ATOM      9  C   UNL A   1      32.031  22.674  24.778  1.00  0.00     0.050 A 
ATOM     10  C   UNL A   1      30.863  22.429  25.507  1.00  0.00     0.034 A 
ATOM     11  C   UNL A   1      30.722  23.037  26.738  1.00  0.00     0.112 A 
ATOM     12  C   UNL A   1      32.799  24.017  26.576  1.00  0.00     0.119 A 
ATOM     13  N   UNL A   1      31.655  23.841  27.282  1.00  0.00    -0.264 NA
BRANCH   9  14
ATOM     14  C   UNL A   1      32.181  22.029  23.454  1.00  0.00     0.252 C 
ATOM     15  N   UNL A   1      32.472  20.691  23.362  1.00  0.00    -0.349 N 
ATOM     16  H   UNL A   1      32.569  20.353  22.441  1.00  0.00     0.164 HD
ATOM     17  O   UNL A   1      32.043  22.693  22.432  1.00  0.00    -0.269 OA
BRANCH  15  18
ATOM     18  C   UNL A   1      32.660  19.683  24.407  1.00  0.00     0.082 C 
ATOM     19  C   UNL A   1      34.098  19.825  24.920  1.00  0.00     0.031 C 
BRANCH  18  20
ATOM     20  C   UNL A   1      32.353  18.249  23.888  1.00  0.00     0.008 C 
ATOM     21  C   UNL A   1      32.231  18.233  22.356  1.00  0.00     0.010 C 
BRANCH  20  22
ATOM     22  C   UNL A   1      33.430  17.238  24.355  1.00  0.00     0.002 C 
ATOM     23  C   UNL A   1      34.196  16.574  23.219  1.00  0.00     0.004 C 
ENDBRANCH  20  22
ENDBRANCH  18  20
ENDBRANCH  15  18
ENDBRANCH   9  14
ENDBRANCH   7   8
ENDBRANCH   3   6
ENDBRANCH   1   2
BRANCH   1  24
ATOM     24  C   UNL A   1      39.338  22.321  26.451  1.00  0.00     0.023 C 
BRANCH  24  25
ATOM     25  C   UNL A   1      39.605  20.968  25.785  1.00  0.00     0.023 C 
BRANCH  25  26
ATOM     26  C   UNL A   1      40.411  19.980  26.624  1.00  0.00     0.116 C 
BRANCH  26  27
ATOM     27  N   UNL A   1      41.672  19.599  26.006  1.00  0.00    -0.352 N 
ATOM     28  C   UNL A   1      42.767  20.387  25.736  1.00  0.00     0.251 C 
ATOM     29  H   UNL A   1      41.751  18.653  25.747  1.00  0.00     0.163 HD
ATOM     30  O   UNL A   1      43.704  19.935  25.092  1.00  0.00    -0.269 OA
BRANCH  28  31
ATOM     31  C   UNL A   1      42.777  21.793  26.196  1.00  0.00     0.039 A 
ATOM     32  C   UNL A   1      42.893  22.055  27.563  1.00  0.00     0.014 A 
ATOM     33  C   UNL A   1      42.700  22.848  25.281  1.00  0.00     0.014 A 
ATOM     34  C   UNL A   1      43.007  23.374  28.006  1.00  0.00     0.010 A 
ATOM     35  C   UNL A   1      42.878  24.157  25.718  1.00  0.00     0.010 A 
ATOM     36  C   UNL A   1      43.041  24.433  27.085  1.00  0.00    -0.014 A 
BRANCH  36  37
ATOM     37  C   UNL A   1      43.254  25.834  27.529  1.00  0.00     0.031 A 
ATOM     38  C   UNL A   1      44.631  26.437  27.491  1.00  0.00     0.074 A 
ATOM     39  C   UNL A   1      42.219  26.542  28.024  1.00  0.00     0.049 A 
ATOM     40  N   UNL A   1      45.035  27.608  27.910  1.00  0.00    -0.248 NA
ATOM     41  C   UNL A   1      45.700  25.598  26.930  1.00  0.00     0.031 C 
ATOM     42  C   UNL A   1      40.842  26.053  28.143  1.00  0.00     0.029 A 
ATOM     43  N   UNL A   1      42.160  27.818  28.523  1.00  0.00    -0.354 N 
ATOM     44  C   UNL A   1      46.404  27.645  27.675  1.00  0.00     0.074 A 
ATOM     45  C   UNL A   1      46.769  26.353  27.130  1.00  0.00     0.031 C 
ATOM     46  C   UNL A   1      40.073  27.028  28.652  1.00  0.00     0.029 A 
ATOM     47  C   UNL A   1      40.903  28.193  28.939  1.00  0.00     0.049 A 
ATOM     48  H   UNL A   1      42.944  28.410  28.580  1.00  0.00     0.167 HD
ATOM     49  C   UNL A   1      47.274  28.668  27.873  1.00  0.00     0.034 A 
ATOM     50  C   UNL A   1      40.471  29.342  29.495  1.00  0.00     0.034 A 
ATOM     51  C   UNL A   1      46.893  29.952  28.409  1.00  0.00     0.049 A 
ATOM     52  C   UNL A   1      41.460  30.455  29.729  1.00  0.00     0.074 A 
ATOM     53  C   UNL A   1      47.684  31.068  28.618  1.00  0.00     0.029 A 
ATOM     54  N   UNL A   1      45.611  30.294  28.822  1.00  0.00    -0.354 N 
ATOM     55  N   UNL A   1      42.748  30.482  29.479  1.00  0.00    -0.248 NA
ATOM     56  C   UNL A   1      40.932  31.695  30.312  1.00  0.00     0.031 C 
ATOM     57  C   UNL A   1      46.897  32.062  29.210  1.00  0.00     0.029 A 
ATOM     58  C   UNL A   1      45.596  31.594  29.305  1.00  0.00     0.049 A 
ATOM     59  H   UNL A   1      44.828  29.699  28.779  1.00  0.00     0.167 HD
ATOM     60  C   UNL A   1      43.179  31.754  29.846  1.00  0.00     0.074 A 
ATOM     61  C   UNL A   1      42.011  32.465  30.324  1.00  0.00     0.031 C 
ATOM     62  C   UNL A   1      44.426  32.287  29.789  1.00  0.00     0.034 A 
BRANCH  49  63
ATOM     63  C   UNL A   1      48.722  28.420  27.527  1.00  0.00     0.023 A 
ATOM     64  C   UNL A   1      49.180  28.474  26.199  1.00  0.00     0.031 A 
ATOM     65  C   UNL A   1      49.653  28.102  28.531  1.00  0.00     0.131 A 
ATOM     66  C   UNL A   1      50.510  28.142  25.902  1.00  0.00     0.055 A 
ATOM     67  C   UNL A   1      50.995  27.851  28.238  1.00  0.00     0.041 A 
ATOM     68  F   UNL A   1      49.271  28.017  29.816  1.00  0.00    -0.206 F 
ATOM     69  C   UNL A   1      51.428  27.854  26.916  1.00  0.00     0.022 A 
BRANCH  66  70
ATOM     70  S   UNL A   1      50.990  27.956  24.162  1.00  0.00     0.124 S 
ATOM     71  O   UNL A   1      51.497  26.587  24.142  1.00  0.00    -0.237 OA
ATOM     72  O   UNL A   1      49.730  28.182  23.462  1.00  0.00    -0.237 OA
ATOM     73  O   UNL A   1      52.003  28.993  23.974  1.00  0.00    -0.744 OA
ENDBRANCH  66  70
ENDBRANCH  49  63
BRANCH  50  74
ATOM     74  C   UNL A   1      39.039  29.508  29.868  1.00  0.00     0.023 A 
ATOM     75  C   UNL A   1      38.167  30.257  29.062  1.00  0.00     0.031 A 
ATOM     76  C   UNL A   1      38.527  28.951  31.053  1.00  0.00     0.131 A 
ATOM     77  C   UNL A   1      36.841  30.466  29.470  1.00  0.00     0.055 A 
ATOM     78  C   UNL A   1      37.194  29.122  31.431  1.00  0.00     0.041 A 
ATOM     79  F   UNL A   1      39.316  28.219  31.855  1.00  0.00    -0.206 F 
ATOM     80  C   UNL A   1      36.345  29.893  30.644  1.00  0.00     0.022 A 
BRANCH  77  81
ATOM     81  S   UNL A   1      35.788  31.558  28.476  1.00  0.00     0.124 S 
ATOM     82  O   UNL A   1      36.736  32.586  28.059  1.00  0.00    -0.237 OA
ATOM     83  O   UNL A   1      35.317  30.656  27.430  1.00  0.00    -0.237 OA
ATOM     84  O   UNL A   1      34.766  31.999  29.422  1.00  0.00    -0.744 OA
ENDBRANCH  77  81
ENDBRANCH  50  74
BRANCH  62  85
ATOM     85  C   UNL A   1      44.573  33.728  30.211  1.00  0.00     0.023 A 
ATOM     86  C   UNL A   1      44.535  34.780  29.280  1.00  0.00     0.031 A 
ATOM     87  C   UNL A   1      44.765  34.048  31.566  1.00  0.00     0.131 A 
ATOM     88  C   UNL A   1      44.741  36.100  29.710  1.00  0.00     0.055 A 
ATOM     89  C   UNL A   1      44.913  35.367  31.995  1.00  0.00     0.041 A 
ATOM     90  F   UNL A   1      44.812  33.081  32.497  1.00  0.00    -0.206 F 
ATOM     91  C   UNL A   1      44.913  36.401  31.064  1.00  0.00     0.022 A 
BRANCH  88  92
ATOM     92  S   UNL A   1      44.865  37.412  28.464  1.00  0.00     0.124 S 
ATOM     93  O   UNL A   1      46.079  37.038  27.747  1.00  0.00    -0.237 OA
ATOM     94  O   UNL A   1      43.615  37.261  27.725  1.00  0.00    -0.237 OA
ATOM     95  O   UNL A   1      44.967  38.634  29.261  1.00  0.00    -0.744 OA
ENDBRANCH  88  92
ENDBRANCH  62  85
ENDBRANCH  36  37
ENDBRANCH  28  31
ENDBRANCH  26  27
ENDBRANCH  25  26
ENDBRANCH  24  25
ENDBRANCH   1  24
TORSDOF 19
ENDMDL
MODEL 2
REMARK VINA RESULT:     -10.8      5.749     10.656
REMARK SMILES CC[C@H](C)[C@@H](C)NC(=O)c1ccncc1/C=C/C(=O)NCCCCNC(=O)c1ccc(-c2c3nc(c(-c4cc(S(=O)(=O)[O-])ccc4F)c4ccc([nH]4)c(-c4cc(S(=O)(=O)[O-])ccc4F)c4nc(c(-c5cc(S(=O)(=O)[O-])ccc5F)c5ccc2[nH]5)C=C4)C=C3)cc1
REMARK SMILES IDX 21 1 20 2 18 3 19 4 17 6 16 7 15 8 10 9 11 10 12 11 14 12
REMARK SMILES IDX 13 13 8 14 7 15 9 17 5 18 6 19 3 20 4 21 2 22 1 23 22 24
REMARK SMILES IDX 23 25 24 26 25 27 26 28 27 30 28 31 29 32 90 33 30 34 89 35
REMARK SMILES IDX 31 36 32 37 33 38 83 39 34 40 88 41 82 42 84 43 35 44 87 45
REMARK SMILES IDX 81 46 80 47 36 49 68 50 48 51 67 52 49 53 52 54 66 55 85 56
REMARK SMILES IDX 50 57 51 58 65 60 86 61 53 62 37 63 38 64 46 65 39 66 45 67
REMARK SMILES IDX 47 68 44 69 40 70 41 71 42 72 43 73 69 74 70 75 78 76 71 77
REMARK SMILES IDX 77 78 79 79 76 80 72 81 73 82 74 83 75 84 54 85 55 86 63 87
REMARK SMILES IDX 56 88 62 89 64 90 61 91 57 92 58 93 59 94 60 95
REMARK H PARENT 20 5 7 16 25 29 84 48 52 59
REMARK Flexibility Score: inf
ROOT
ATOM      1  C   UNL A   1      32.757  29.897  26.250  1.00  0.00     0.116 C 
ENDROOT
BRANCH   1   2
ATOM      2  N   UNL A   1      32.806  29.607  24.827  1.00  0.00    -0.353 N 
ATOM      3  C   UNL A   1      32.471  28.469  24.163  1.00  0.00     0.244 C 
ATOM      4  O   UNL A   1      32.490  28.438  22.935  1.00  0.00    -0.270 OA
ATOM      5  H   UNL A   1      33.132  30.343  24.260  1.00  0.00     0.163 HD
BRANCH   3   6
ATOM      6  C   UNL A   1      31.986  27.283  24.904  1.00  0.00     0.072 C 
ATOM      7  C   UNL A   1      31.497  26.174  24.326  1.00  0.00     0.016 C 
BRANCH   7   8
ATOM      8  C   UNL A   1      31.038  25.018  25.110  1.00  0.00     0.006 A 
ATOM      9  C   UNL A   1      31.363  23.689  24.799  1.00  0.00     0.050 A 
ATOM     10  C   UNL A   1      30.945  22.645  25.631  1.00  0.00     0.034 A 
ATOM     11  C   UNL A   1      30.137  22.952  26.708  1.00  0.00     0.112 A 
ATOM     12  C   UNL A   1      30.207  25.200  26.216  1.00  0.00     0.119 A 
ATOM     13  N   UNL A   1      29.743  24.204  27.009  1.00  0.00    -0.264 NA
BRANCH   9  14
ATOM     14  C   UNL A   1      32.223  23.361  23.640  1.00  0.00     0.252 C 
ATOM     15  N   UNL A   1      33.567  23.138  23.812  1.00  0.00    -0.349 N 
ATOM     16  H   UNL A   1      34.061  22.943  22.983  1.00  0.00     0.164 HD
ATOM     17  O   UNL A   1      31.734  23.285  22.518  1.00  0.00    -0.269 OA
BRANCH  15  18
ATOM     18  C   UNL A   1      34.385  23.143  25.027  1.00  0.00     0.082 C 
ATOM     19  C   UNL A   1      35.587  24.057  24.760  1.00  0.00     0.031 C 
BRANCH  18  20
ATOM     20  C   UNL A   1      34.812  21.705  25.441  1.00  0.00     0.008 C 
ATOM     21  C   UNL A   1      36.308  21.655  25.789  1.00  0.00     0.010 C 
BRANCH  20  22
ATOM     22  C   UNL A   1      33.964  21.186  26.628  1.00  0.00     0.002 C 
ATOM     23  C   UNL A   1      33.891  22.143  27.809  1.00  0.00     0.004 C 
ENDBRANCH  20  22
ENDBRANCH  18  20
ENDBRANCH  15  18
ENDBRANCH   9  14
ENDBRANCH   7   8
ENDBRANCH   3   6
ENDBRANCH   1   2
BRANCH   1  24
ATOM     24  C   UNL A   1      31.468  30.633  26.612  1.00  0.00     0.023 C 
BRANCH  24  25
ATOM     25  C   UNL A   1      31.573  32.159  26.525  1.00  0.00     0.023 C 
BRANCH  25  26
ATOM     26  C   UNL A   1      32.773  32.768  27.247  1.00  0.00     0.116 C 
BRANCH  26  27
ATOM     27  N   UNL A   1      32.540  34.134  27.690  1.00  0.00    -0.352 N 
ATOM     28  C   UNL A   1      33.179  34.831  28.690  1.00  0.00     0.251 C 
ATOM     29  H   UNL A   1      31.833  34.623  27.213  1.00  0.00     0.163 HD
ATOM     30  O   UNL A   1      32.774  35.936  29.024  1.00  0.00    -0.269 OA
BRANCH  28  31
ATOM     31  C   UNL A   1      34.332  34.211  29.381  1.00  0.00     0.039 A 
ATOM     32  C   UNL A   1      34.089  33.282  30.395  1.00  0.00     0.014 A 
ATOM     33  C   UNL A   1      35.643  34.523  29.010  1.00  0.00     0.014 A 
ATOM     34  C   UNL A   1      35.161  32.610  30.987  1.00  0.00     0.010 A 
ATOM     35  C   UNL A   1      36.705  33.807  29.556  1.00  0.00     0.010 A 
ATOM     36  C   UNL A   1      36.474  32.839  30.545  1.00  0.00    -0.014 A 
BRANCH  36  37
ATOM     37  C   UNL A   1      37.617  32.068  31.097  1.00  0.00     0.031 A 
ATOM     38  C   UNL A   1      38.125  32.358  32.483  1.00  0.00     0.074 A 
ATOM     39  C   UNL A   1      38.236  31.150  30.328  1.00  0.00     0.049 A 
ATOM     40  N   UNL A   1      39.156  31.856  33.110  1.00  0.00    -0.248 NA
ATOM     41  C   UNL A   1      37.386  33.369  33.254  1.00  0.00     0.031 C 
ATOM     42  C   UNL A   1      37.857  30.803  28.956  1.00  0.00     0.029 A 
ATOM     43  N   UNL A   1      39.315  30.343  30.585  1.00  0.00    -0.354 N 
ATOM     44  C   UNL A   1      39.199  32.495  34.344  1.00  0.00     0.074 A 
ATOM     45  C   UNL A   1      38.123  33.464  34.350  1.00  0.00     0.031 C 
ATOM     46  C   UNL A   1      38.672  29.836  28.505  1.00  0.00     0.029 A 
ATOM     47  C   UNL A   1      39.658  29.524  29.534  1.00  0.00     0.049 A 
ATOM     48  H   UNL A   1      39.801  30.351  31.441  1.00  0.00     0.167 HD
ATOM     49  C   UNL A   1      40.043  32.278  35.384  1.00  0.00     0.034 A 
ATOM     50  C   UNL A   1      40.658  28.628  29.411  1.00  0.00     0.034 A 
ATOM     51  C   UNL A   1      41.106  31.302  35.365  1.00  0.00     0.049 A 
ATOM     52  C   UNL A   1      41.598  28.423  30.571  1.00  0.00     0.074 A 
ATOM     53  C   UNL A   1      41.997  30.977  36.374  1.00  0.00     0.029 A 
ATOM     54  N   UNL A   1      41.425  30.493  34.281  1.00  0.00    -0.354 N 
ATOM     55  N   UNL A   1      41.612  29.020  31.740  1.00  0.00    -0.248 NA
ATOM     56  C   UNL A   1      42.654  27.417  30.394  1.00  0.00     0.031 C 
ATOM     57  C   UNL A   1      42.887  30.016  35.882  1.00  0.00     0.029 A 
ATOM     58  C   UNL A   1      42.510  29.687  34.590  1.00  0.00     0.049 A 
ATOM     59  H   UNL A   1      40.950  30.492  33.419  1.00  0.00     0.167 HD
ATOM     60  C   UNL A   1      42.658  28.437  32.451  1.00  0.00     0.074 A 
ATOM     61  C   UNL A   1      43.243  27.437  31.581  1.00  0.00     0.031 C 
ATOM     62  C   UNL A   1      43.090  28.702  33.709  1.00  0.00     0.034 A 
BRANCH  49  63
ATOM     63  C   UNL A   1      39.858  33.132  36.614  1.00  0.00     0.023 A 
ATOM     64  C   UNL A   1      39.130  32.673  37.725  1.00  0.00     0.031 A 
ATOM     65  C   UNL A   1      40.392  34.432  36.669  1.00  0.00     0.131 A 
ATOM     66  C   UNL A   1      38.893  33.529  38.811  1.00  0.00     0.055 A 
ATOM     67  C   UNL A   1      40.220  35.251  37.787  1.00  0.00     0.041 A 
ATOM     68  F   UNL A   1      41.080  34.933  35.631  1.00  0.00    -0.206 F 
ATOM     69  C   UNL A   1      39.454  34.807  38.860  1.00  0.00     0.022 A 
BRANCH  66  70
ATOM     70  S   UNL A   1      37.726  32.997  40.094  1.00  0.00     0.124 S 
ATOM     71  O   UNL A   1      36.547  32.664  39.300  1.00  0.00    -0.237 OA
ATOM     72  O   UNL A   1      38.423  31.872  40.708  1.00  0.00    -0.237 OA
ATOM     73  O   UNL A   1      37.586  34.181  40.941  1.00  0.00    -0.744 OA
ENDBRANCH  66  70
ENDBRANCH  49  63
BRANCH  50  74
ATOM     74  C   UNL A   1      40.826  27.854  28.150  1.00  0.00     0.023 A 
ATOM     75  C   UNL A   1      40.331  26.545  28.039  1.00  0.00     0.031 A 
ATOM     76  C   UNL A   1      41.514  28.396  27.050  1.00  0.00     0.131 A 
ATOM     77  C   UNL A   1      40.568  25.804  26.870  1.00  0.00     0.055 A 
ATOM     78  C   UNL A   1      41.705  27.672  25.872  1.00  0.00     0.041 A 
ATOM     79  F   UNL A   1      41.999  29.646  27.103  1.00  0.00    -0.206 F 
ATOM     80  C   UNL A   1      41.241  26.364  25.781  1.00  0.00     0.022 A 
BRANCH  77  81
ATOM     81  S   UNL A   1      40.040  24.070  26.820  1.00  0.00     0.124 S 
ATOM     82  O   UNL A   1      38.827  24.151  26.014  1.00  0.00    -0.237 OA
ATOM     83  O   UNL A   1      41.187  23.423  26.191  1.00  0.00    -0.237 OA
ATOM     84  O   UNL A   1      39.834  23.736  28.227  1.00  0.00    -0.744 OA
ENDBRANCH  77  81
ENDBRANCH  50  74
BRANCH  62  85
ATOM     85  C   UNL A   1      44.226  27.857  34.233  1.00  0.00     0.023 A 
ATOM     86  C   UNL A   1      43.999  26.632  34.885  1.00  0.00     0.031 A 
ATOM     87  C   UNL A   1      45.555  28.292  34.084  1.00  0.00     0.131 A 
ATOM     88  C   UNL A   1      45.081  25.911  35.412  1.00  0.00     0.055 A 
ATOM     89  C   UNL A   1      46.630  27.543  34.560  1.00  0.00     0.041 A 
ATOM     90  F   UNL A   1      45.827  29.455  33.471  1.00  0.00    -0.206 F 
ATOM     91  C   UNL A   1      46.396  26.352  35.239  1.00  0.00     0.022 A 
BRANCH  88  92
ATOM     92  S   UNL A   1      44.741  24.430  36.402  1.00  0.00     0.124 S 
ATOM     93  O   UNL A   1      43.682  23.786  35.631  1.00  0.00    -0.237 OA
ATOM     94  O   UNL A   1      46.033  23.751  36.403  1.00  0.00    -0.237 OA
ATOM     95  O   UNL A   1      44.325  24.970  37.695  1.00  0.00    -0.744 OA
ENDBRANCH  88  92
ENDBRANCH  62  85
ENDBRANCH  36  37
ENDBRANCH  28  31
ENDBRANCH  26  27
ENDBRANCH  25  26
ENDBRANCH  24  25
ENDBRANCH   1  24
TORSDOF 19
ENDMDL
MODEL 3
REMARK VINA RESULT:     -10.5      2.252      3.176
REMARK SMILES CC[C@H](C)[C@@H](C)NC(=O)c1ccncc1/C=C/C(=O)NCCCCNC(=O)c1ccc(-c2c3nc(c(-c4cc(S(=O)(=O)[O-])ccc4F)c4ccc([nH]4)c(-c4cc(S(=O)(=O)[O-])ccc4F)c4nc(c(-c5cc(S(=O)(=O)[O-])ccc5F)c5ccc2[nH]5)C=C4)C=C3)cc1
REMARK SMILES IDX 21 1 20 2 18 3 19 4 17 6 16 7 15 8 10 9 11 10 12 11 14 12
REMARK SMILES IDX 13 13 8 14 7 15 9 17 5 18 6 19 3 20 4 21 2 22 1 23 22 24
REMARK SMILES IDX 23 25 24 26 25 27 26 28 27 30 28 31 29 32 90 33 30 34 89 35
REMARK SMILES IDX 31 36 32 37 33 38 83 39 34 40 88 41 82 42 84 43 35 44 87 45
REMARK SMILES IDX 81 46 80 47 36 49 68 50 48 51 67 52 49 53 52 54 66 55 85 56
REMARK SMILES IDX 50 57 51 58 65 60 86 61 53 62 37 63 38 64 46 65 39 66 45 67
REMARK SMILES IDX 47 68 44 69 40 70 41 71 42 72 43 73 69 74 70 75 78 76 71 77
REMARK SMILES IDX 77 78 79 79 76 80 72 81 73 82 74 83 75 84 54 85 55 86 63 87
REMARK SMILES IDX 56 88 62 89 64 90 61 91 57 92 58 93 59 94 60 95
REMARK H PARENT 20 5 7 16 25 29 84 48 52 59
REMARK Flexibility Score: inf
ROOT
ATOM      1  C   UNL A   1      37.430  23.810  26.168  1.00  0.00     0.116 C 
ENDROOT
BRANCH   1   2
ATOM      2  N   UNL A   1      36.554  23.370  25.096  1.00  0.00    -0.353 N 
ATOM      3  C   UNL A   1      35.302  23.790  24.772  1.00  0.00     0.244 C 
ATOM      4  O   UNL A   1      34.745  23.365  23.764  1.00  0.00    -0.270 OA
ATOM      5  H   UNL A   1      36.921  22.663  24.518  1.00  0.00     0.163 HD
BRANCH   3   6
ATOM      6  C   UNL A   1      34.631  24.837  25.576  1.00  0.00     0.072 C 
ATOM      7  C   UNL A   1      33.860  25.809  25.064  1.00  0.00     0.016 C 
BRANCH   7   8
ATOM      8  C   UNL A   1      33.207  26.819  25.910  1.00  0.00     0.006 A 
ATOM      9  C   UNL A   1      31.843  26.793  26.239  1.00  0.00     0.050 A 
ATOM     10  C   UNL A   1      31.306  27.751  27.105  1.00  0.00     0.034 A 
ATOM     11  C   UNL A   1      32.131  28.765  27.551  1.00  0.00     0.112 A 
ATOM     12  C   UNL A   1      33.935  27.897  26.412  1.00  0.00     0.119 A 
ATOM     13  N   UNL A   1      33.430  28.870  27.210  1.00  0.00    -0.264 NA
BRANCH   9  14
ATOM     14  C   UNL A   1      30.957  25.711  25.754  1.00  0.00     0.252 C 
ATOM     15  N   UNL A   1      30.114  25.926  24.692  1.00  0.00    -0.349 N 
ATOM     16  H   UNL A   1      29.551  25.154  24.451  1.00  0.00     0.164 HD
ATOM     17  O   UNL A   1      30.977  24.614  26.302  1.00  0.00    -0.269 OA
BRANCH  15  18
ATOM     18  C   UNL A   1      29.915  27.114  23.859  1.00  0.00     0.082 C 
ATOM     19  C   UNL A   1      28.420  27.187  23.525  1.00  0.00     0.031 C 
BRANCH  18  20
ATOM     20  C   UNL A   1      30.808  27.083  22.586  1.00  0.00     0.008 C 
ATOM     21  C   UNL A   1      31.956  28.099  22.694  1.00  0.00     0.010 C 
BRANCH  20  22
ATOM     22  C   UNL A   1      31.367  25.662  22.324  1.00  0.00     0.002 C 
ATOM     23  C   UNL A   1      32.669  25.640  21.536  1.00  0.00     0.004 C 
ENDBRANCH  20  22
ENDBRANCH  18  20
ENDBRANCH  15  18
ENDBRANCH   9  14
ENDBRANCH   7   8
ENDBRANCH   3   6
ENDBRANCH   1   2
BRANCH   1  24
ATOM     24  C   UNL A   1      38.769  23.075  26.115  1.00  0.00     0.023 C 
BRANCH  24  25
ATOM     25  C   UNL A   1      38.670  21.573  26.399  1.00  0.00     0.023 C 
BRANCH  25  26
ATOM     26  C   UNL A   1      39.234  20.669  25.307  1.00  0.00     0.116 C 
BRANCH  26  27
ATOM     27  N   UNL A   1      40.122  19.637  25.820  1.00  0.00    -0.352 N 
ATOM     28  C   UNL A   1      41.356  19.783  26.411  1.00  0.00     0.251 C 
ATOM     29  H   UNL A   1      39.796  18.712  25.734  1.00  0.00     0.163 HD
ATOM     30  O   UNL A   1      42.032  18.798  26.673  1.00  0.00    -0.269 OA
BRANCH  28  31
ATOM     31  C   UNL A   1      41.869  21.144  26.684  1.00  0.00     0.039 A 
ATOM     32  C   UNL A   1      42.200  21.968  25.606  1.00  0.00     0.014 A 
ATOM     33  C   UNL A   1      41.995  21.614  27.995  1.00  0.00     0.014 A 
ATOM     34  C   UNL A   1      42.588  23.289  25.841  1.00  0.00     0.010 A 
ATOM     35  C   UNL A   1      42.320  22.948  28.224  1.00  0.00     0.010 A 
ATOM     36  C   UNL A   1      42.612  23.801  27.148  1.00  0.00    -0.014 A 
BRANCH  36  37
ATOM     37  C   UNL A   1      42.932  25.228  27.411  1.00  0.00     0.031 A 
ATOM     38  C   UNL A   1      44.274  25.785  27.021  1.00  0.00     0.074 A 
ATOM     39  C   UNL A   1      42.038  26.004  28.056  1.00  0.00     0.049 A 
ATOM     40  N   UNL A   1      44.771  26.975  27.238  1.00  0.00    -0.248 NA
ATOM     41  C   UNL A   1      45.184  24.871  26.316  1.00  0.00     0.031 C 
ATOM     42  C   UNL A   1      40.716  25.568  28.514  1.00  0.00     0.029 A 
ATOM     43  N   UNL A   1      42.103  27.318  28.441  1.00  0.00    -0.354 N 
ATOM     44  C   UNL A   1      46.056  26.952  26.707  1.00  0.00     0.074 A 
ATOM     45  C   UNL A   1      46.279  25.609  26.211  1.00  0.00     0.031 C 
ATOM     46  C   UNL A   1      40.087  26.603  29.092  1.00  0.00     0.029 A 
ATOM     47  C   UNL A   1      40.973  27.763  29.087  1.00  0.00     0.049 A 
ATOM     48  H   UNL A   1      42.887  27.890  28.274  1.00  0.00     0.167 HD
ATOM     49  C   UNL A   1      46.958  27.962  26.620  1.00  0.00     0.034 A 
ATOM     50  C   UNL A   1      40.684  28.967  29.620  1.00  0.00     0.034 A 
ATOM     51  C   UNL A   1      46.717  29.297  27.112  1.00  0.00     0.049 A 
ATOM     52  C   UNL A   1      41.712  30.066  29.535  1.00  0.00     0.074 A 
ATOM     53  C   UNL A   1      47.547  30.403  27.045  1.00  0.00     0.029 A 
ATOM     54  N   UNL A   1      45.561  29.709  27.763  1.00  0.00    -0.354 N 
ATOM     55  N   UNL A   1      42.914  30.035  29.009  1.00  0.00    -0.248 NA
ATOM     56  C   UNL A   1      41.338  31.366  30.108  1.00  0.00     0.031 C 
ATOM     57  C   UNL A   1      46.918  31.465  27.705  1.00  0.00     0.029 A 
ATOM     58  C   UNL A   1      45.666  31.045  28.121  1.00  0.00     0.049 A 
ATOM     59  H   UNL A   1      44.781  29.136  27.944  1.00  0.00     0.167 HD
ATOM     60  C   UNL A   1      43.428  31.320  29.160  1.00  0.00     0.074 A 
ATOM     61  C   UNL A   1      42.401  32.102  29.817  1.00  0.00     0.031 C 
ATOM     62  C   UNL A   1      44.637  31.809  28.786  1.00  0.00     0.034 A 
BRANCH  49  63
ATOM     63  C   UNL A   1      48.292  27.644  25.991  1.00  0.00     0.023 A 
ATOM     64  C   UNL A   1      48.501  27.775  24.606  1.00  0.00     0.031 A 
ATOM     65  C   UNL A   1      49.362  27.182  26.776  1.00  0.00     0.131 A 
ATOM     66  C   UNL A   1      49.722  27.377  24.041  1.00  0.00     0.055 A 
ATOM     67  C   UNL A   1      50.602  26.863  26.218  1.00  0.00     0.041 A 
ATOM     68  F   UNL A   1      49.217  27.018  28.101  1.00  0.00    -0.206 F 
ATOM     69  C   UNL A   1      50.783  26.945  24.841  1.00  0.00     0.022 A 
BRANCH  66  70
ATOM     70  S   UNL A   1      49.856  27.302  22.234  1.00  0.00     0.124 S 
ATOM     71  O   UNL A   1      51.230  26.840  22.060  1.00  0.00    -0.237 OA
ATOM     72  O   UNL A   1      48.811  26.348  21.879  1.00  0.00    -0.237 OA
ATOM     73  O   UNL A   1      49.611  28.681  21.815  1.00  0.00    -0.744 OA
ENDBRANCH  66  70
ENDBRANCH  49  63
BRANCH  50  74
ATOM     74  C   UNL A   1      39.371  29.205  30.281  1.00  0.00     0.023 A 
ATOM     75  C   UNL A   1      38.413  30.048  29.694  1.00  0.00     0.031 A 
ATOM     76  C   UNL A   1      39.066  28.623  31.523  1.00  0.00     0.131 A 
ATOM     77  C   UNL A   1      37.214  30.321  30.369  1.00  0.00     0.055 A 
ATOM     78  C   UNL A   1      37.851  28.859  32.169  1.00  0.00     0.041 A 
ATOM     79  F   UNL A   1      39.943  27.803  32.122  1.00  0.00    -0.206 F 
ATOM     80  C   UNL A   1      36.921  29.722  31.597  1.00  0.00     0.022 A 
BRANCH  77  81
ATOM     81  S   UNL A   1      36.066  31.526  29.649  1.00  0.00     0.124 S 
ATOM     82  O   UNL A   1      36.983  32.540  29.137  1.00  0.00    -0.237 OA
ATOM     83  O   UNL A   1      35.373  30.723  28.646  1.00  0.00    -0.237 OA
ATOM     84  O   UNL A   1      35.249  31.940  30.786  1.00  0.00    -0.744 OA
ENDBRANCH  77  81
ENDBRANCH  50  74
BRANCH  62  85
ATOM     85  C   UNL A   1      44.888  33.276  29.038  1.00  0.00     0.023 A 
ATOM     86  C   UNL A   1      44.358  34.272  28.201  1.00  0.00     0.031 A 
ATOM     87  C   UNL A   1      45.680  33.677  30.128  1.00  0.00     0.131 A 
ATOM     88  C   UNL A   1      44.671  35.620  28.436  1.00  0.00     0.055 A 
ATOM     89  C   UNL A   1      45.941  35.022  30.390  1.00  0.00     0.041 A 
ATOM     90  F   UNL A   1      46.213  32.766  30.958  1.00  0.00    -0.206 F 
ATOM     91  C   UNL A   1      45.446  36.002  29.535  1.00  0.00     0.022 A 
BRANCH  88  92
ATOM     92  S   UNL A   1      44.121  36.864  27.236  1.00  0.00     0.124 S 
ATOM     93  O   UNL A   1      45.388  37.350  26.699  1.00  0.00    -0.237 OA
ATOM     94  O   UNL A   1      43.300  36.076  26.322  1.00  0.00    -0.237 OA
ATOM     95  O   UNL A   1      43.384  37.827  28.053  1.00  0.00    -0.744 OA
ENDBRANCH  88  92
ENDBRANCH  62  85
ENDBRANCH  36  37
ENDBRANCH  28  31
ENDBRANCH  26  27
ENDBRANCH  25  26
ENDBRANCH  24  25
ENDBRANCH   1  24
TORSDOF 19
ENDMDL
