MODEL 1
REMARK VINA RESULT:     -13.2      0.000      0.000
REMARK SMILES Cc1cccc(-n2ncc(C(=O)Nc3cccc(C(=O)NCCCCNC(=O)c4ccc(-c5c6nc(c(-c7cc(S(=O)(=O)[O-])ccc7F)c7ccc([nH]7)c(-c7cc(S(=O)(=O)[O-])ccc7F)c7nc(c(-c8cc(S(=O)(=O)[O-])ccc8F)c8ccc5[nH]8)C=C7)C=C6)cc4)c3C)c2C)c1
REMARK SMILES IDX 23 1 22 2 21 3 19 4 20 5 18 7 14 8 15 9 92 10 16 11 93 12
REMARK SMILES IDX 17 13 13 14 11 15 12 16 10 18 7 19 8 20 94 21 9 22 95 23
REMARK SMILES IDX 6 24 1 25 2 26 3 27 96 28 4 29 5 30 24 31 25 32 26 33 27 34
REMARK SMILES IDX 28 36 29 37 30 38 91 39 31 40 90 41 32 42 33 43 34 44 84 45
REMARK SMILES IDX 35 46 89 47 83 48 85 49 36 50 88 51 82 52 81 53 37 55 69 56
REMARK SMILES IDX 49 57 68 58 50 59 53 60 67 61 86 62 51 63 52 64 66 66 87 67
REMARK SMILES IDX 54 68 38 69 39 70 47 71 40 72 46 73 48 74 45 75 41 76 42 77
REMARK SMILES IDX 43 78 44 79 70 80 71 81 79 82 72 83 78 84 80 85 77 86 73 87
REMARK SMILES IDX 74 88 75 89 76 90 55 91 56 92 64 93 57 94 63 95 65 96 62 97
REMARK SMILES IDX 58 98 59 99 60 100 61 101
REMARK H PARENT 21 6 13 17 26 35 85 54 53 65
REMARK Flexibility Score: inf
ROOT
ATOM      1  C   UNL A   1      36.475  21.544  25.389  1.00  0.00     0.023 C 
ENDROOT
BRANCH   1   2
ATOM      2  C   UNL A   1      35.292  21.952  26.264  1.00  0.00     0.116 C 
BRANCH   2   3
ATOM      3  N   UNL A   1      34.079  21.161  26.044  1.00  0.00    -0.352 N 
ATOM      4  C   UNL A   1      32.973  21.281  25.232  1.00  0.00     0.251 C 
ATOM      5  O   UNL A   1      32.176  20.340  25.258  1.00  0.00    -0.269 OA
ATOM      6  H   UNL A   1      34.047  20.356  26.609  1.00  0.00     0.163 HD
BRANCH   4   7
ATOM      7  C   UNL A   1      32.684  22.468  24.356  1.00  0.00     0.044 A 
ATOM      8  C   UNL A   1      31.261  24.297  23.612  1.00  0.00     0.045 A 
ATOM      9  C   UNL A   1      32.183  24.620  22.611  1.00  0.00     0.026 A 
ATOM     10  C   UNL A   1      31.564  23.320  24.590  1.00  0.00    -0.015 A 
ATOM     11  C   UNL A   1      33.269  23.797  22.392  1.00  0.00     0.003 A 
ATOM     12  C   UNL A   1      30.605  23.090  25.735  1.00  0.00     0.047 C 
ATOM     13  C   UNL A   1      33.438  22.673  23.192  1.00  0.00     0.014 A 
BRANCH   8  14
ATOM     14  N   UNL A   1      29.978  24.875  23.543  1.00  0.00    -0.322 N 
ATOM     15  C   UNL A   1      29.590  26.118  24.021  1.00  0.00     0.259 C 
ATOM     16  O   UNL A   1      28.385  26.340  24.153  1.00  0.00    -0.269 OA
ATOM     17  H   UNL A   1      29.280  24.336  23.108  1.00  0.00     0.170 HD
BRANCH  15  18
ATOM     18  C   UNL A   1      30.595  27.164  24.253  1.00  0.00     0.081 A 
ATOM     19  N   UNL A   1      32.121  28.512  25.186  1.00  0.00    -0.237 N 
ATOM     20  N   UNL A   1      31.925  29.004  23.943  1.00  0.00    -0.175 NA
ATOM     21  C   UNL A   1      31.212  27.492  25.461  1.00  0.00     0.054 A 
ATOM     22  C   UNL A   1      31.048  28.181  23.382  1.00  0.00     0.149 A 
ATOM     23  C   UNL A   1      30.899  26.987  26.825  1.00  0.00     0.068 C 
BRANCH  19  24
ATOM     24  C   UNL A   1      33.123  29.104  26.007  1.00  0.00     0.065 A 
ATOM     25  C   UNL A   1      33.580  32.381  27.905  1.00  0.00     0.044 C 
ATOM     26  C   UNL A   1      33.842  31.015  27.341  1.00  0.00    -0.049 A 
ATOM     27  C   UNL A   1      34.995  30.309  27.703  1.00  0.00     0.003 A 
ATOM     28  C   UNL A   1      32.924  30.416  26.471  1.00  0.00     0.031 A 
ATOM     29  C   UNL A   1      35.229  29.029  27.196  1.00  0.00     0.002 A 
ATOM     30  C   UNL A   1      34.295  28.424  26.350  1.00  0.00     0.028 A 
ENDBRANCH  19  24
ENDBRANCH  15  18
ENDBRANCH   8  14
ENDBRANCH   4   7
ENDBRANCH   2   3
ENDBRANCH   1   2
BRANCH   1  31
ATOM     31  C   UNL A   1      37.391  22.677  24.946  1.00  0.00     0.023 C 
BRANCH  31  32
ATOM     32  C   UNL A   1      37.974  23.519  26.074  1.00  0.00     0.116 C 
BRANCH  32  33
ATOM     33  N   UNL A   1      39.389  23.313  26.349  1.00  0.00    -0.352 N 
ATOM     34  C   UNL A   1      40.314  24.227  26.840  1.00  0.00     0.251 C 
ATOM     35  H   UNL A   1      39.735  22.410  26.164  1.00  0.00     0.163 HD
ATOM     36  O   UNL A   1      41.495  23.950  26.941  1.00  0.00    -0.269 OA
BRANCH  34  37
ATOM     37  C   UNL A   1      39.813  25.527  27.364  1.00  0.00     0.039 A 
ATOM     38  C   UNL A   1      40.103  26.674  26.615  1.00  0.00     0.014 A 
ATOM     39  C   UNL A   1      39.308  25.640  28.656  1.00  0.00     0.014 A 
ATOM     40  C   UNL A   1      40.131  27.913  27.251  1.00  0.00     0.010 A 
ATOM     41  C   UNL A   1      39.430  26.851  29.312  1.00  0.00     0.010 A 
ATOM     42  C   UNL A   1      39.916  27.971  28.626  1.00  0.00    -0.014 A 
BRANCH  42  43
ATOM     43  C   UNL A   1      40.328  29.104  29.448  1.00  0.00     0.031 A 
ATOM     44  C   UNL A   1      39.392  30.199  29.767  1.00  0.00     0.074 A 
ATOM     45  C   UNL A   1      41.575  29.136  29.973  1.00  0.00     0.049 A 
ATOM     46  N   UNL A   1      39.769  31.358  30.192  1.00  0.00    -0.248 NA
ATOM     47  C   UNL A   1      37.951  30.113  29.549  1.00  0.00     0.031 C 
ATOM     48  C   UNL A   1      42.084  30.019  31.019  1.00  0.00     0.029 A 
ATOM     49  N   UNL A   1      42.719  28.541  29.437  1.00  0.00    -0.354 N 
ATOM     50  C   UNL A   1      38.650  32.020  30.626  1.00  0.00     0.074 A 
ATOM     51  C   UNL A   1      37.552  31.289  30.047  1.00  0.00     0.031 C 
ATOM     52  C   UNL A   1      43.410  30.144  30.871  1.00  0.00     0.029 A 
ATOM     53  C   UNL A   1      43.778  29.450  29.652  1.00  0.00     0.049 A 
ATOM     54  H   UNL A   1      42.776  27.662  28.997  1.00  0.00     0.167 HD
ATOM     55  C   UNL A   1      38.794  33.013  31.547  1.00  0.00     0.034 A 
ATOM     56  C   UNL A   1      44.463  29.987  28.599  1.00  0.00     0.034 A 
ATOM     57  C   UNL A   1      40.186  33.478  31.629  1.00  0.00     0.049 A 
ATOM     58  C   UNL A   1      44.365  31.499  28.499  1.00  0.00     0.074 A 
ATOM     59  C   UNL A   1      41.182  33.480  32.591  1.00  0.00     0.029 A 
ATOM     60  N   UNL A   1      40.800  33.903  30.459  1.00  0.00    -0.354 N 
ATOM     61  N   UNL A   1      43.711  32.257  29.340  1.00  0.00    -0.248 NA
ATOM     62  C   UNL A   1      44.919  32.271  27.386  1.00  0.00     0.031 C 
ATOM     63  C   UNL A   1      42.409  33.866  31.959  1.00  0.00     0.029 A 
ATOM     64  C   UNL A   1      42.149  34.134  30.628  1.00  0.00     0.049 A 
ATOM     65  H   UNL A   1      40.326  34.025  29.606  1.00  0.00     0.167 HD
ATOM     66  C   UNL A   1      43.664  33.542  28.862  1.00  0.00     0.074 A 
ATOM     67  C   UNL A   1      44.451  33.505  27.642  1.00  0.00     0.031 C 
ATOM     68  C   UNL A   1      42.934  34.529  29.463  1.00  0.00     0.034 A 
BRANCH  55  69
ATOM     69  C   UNL A   1      37.701  33.479  32.495  1.00  0.00     0.023 A 
ATOM     70  C   UNL A   1      36.487  33.956  31.953  1.00  0.00     0.031 A 
ATOM     71  C   UNL A   1      37.819  33.613  33.898  1.00  0.00     0.131 A 
ATOM     72  C   UNL A   1      35.490  34.528  32.772  1.00  0.00     0.055 A 
ATOM     73  C   UNL A   1      36.800  34.117  34.716  1.00  0.00     0.041 A 
ATOM     74  F   UNL A   1      38.945  33.339  34.564  1.00  0.00    -0.206 F 
ATOM     75  C   UNL A   1      35.630  34.588  34.154  1.00  0.00     0.022 A 
BRANCH  72  76
ATOM     76  S   UNL A   1      34.034  35.288  32.002  1.00  0.00     0.124 S 
ATOM     77  O   UNL A   1      34.298  35.086  30.582  1.00  0.00    -0.237 OA
ATOM     78  O   UNL A   1      32.939  34.516  32.578  1.00  0.00    -0.237 OA
ATOM     79  O   UNL A   1      34.105  36.681  32.446  1.00  0.00    -0.744 OA
ENDBRANCH  72  76
ENDBRANCH  55  69
BRANCH  56  80
ATOM     80  C   UNL A   1      44.589  29.020  27.465  1.00  0.00     0.023 A 
ATOM     81  C   UNL A   1      45.508  27.956  27.638  1.00  0.00     0.031 A 
ATOM     82  C   UNL A   1      43.599  28.876  26.486  1.00  0.00     0.131 A 
ATOM     83  C   UNL A   1      45.298  26.729  26.995  1.00  0.00     0.055 A 
ATOM     84  C   UNL A   1      43.453  27.678  25.773  1.00  0.00     0.041 A 
ATOM     85  F   UNL A   1      42.674  29.829  26.297  1.00  0.00    -0.206 F 
ATOM     86  C   UNL A   1      44.268  26.583  26.063  1.00  0.00     0.022 A 
BRANCH  83  87
ATOM     87  S   UNL A   1      46.172  25.249  27.598  1.00  0.00     0.124 S 
ATOM     88  O   UNL A   1      45.080  24.431  28.110  1.00  0.00    -0.237 OA
ATOM     89  O   UNL A   1      46.842  24.735  26.405  1.00  0.00    -0.237 OA
ATOM     90  O   UNL A   1      47.088  25.785  28.602  1.00  0.00    -0.744 OA
ENDBRANCH  83  87
ENDBRANCH  56  80
BRANCH  68  91
ATOM     91  C   UNL A   1      42.861  35.948  28.945  1.00  0.00     0.023 A 
ATOM     92  C   UNL A   1      43.428  37.031  29.638  1.00  0.00     0.031 A 
ATOM     93  C   UNL A   1      42.145  36.271  27.768  1.00  0.00     0.131 A 
ATOM     94  C   UNL A   1      43.333  38.341  29.132  1.00  0.00     0.055 A 
ATOM     95  C   UNL A   1      41.981  37.583  27.314  1.00  0.00     0.041 A 
ATOM     96  F   UNL A   1      41.610  35.325  26.984  1.00  0.00    -0.206 F 
ATOM     97  C   UNL A   1      42.587  38.629  27.990  1.00  0.00     0.022 A 
BRANCH  94  98
ATOM     98  S   UNL A   1      44.260  39.664  29.954  1.00  0.00     0.124 S 
ATOM     99  O   UNL A   1      43.395  40.011  31.076  1.00  0.00    -0.237 OA
ATOM    100  O   UNL A   1      45.504  38.982  30.299  1.00  0.00    -0.237 OA
ATOM    101  O   UNL A   1      44.385  40.693  28.923  1.00  0.00    -0.744 OA
ENDBRANCH  94  98
ENDBRANCH  68  91
ENDBRANCH  42  43
ENDBRANCH  34  37
ENDBRANCH  32  33
ENDBRANCH  31  32
ENDBRANCH   1  31
TORSDOF 17
ENDMDL
MODEL 2
REMARK VINA RESULT:     -12.8      1.980      2.320
REMARK SMILES Cc1cccc(-n2ncc(C(=O)Nc3cccc(C(=O)NCCCCNC(=O)c4ccc(-c5c6nc(c(-c7cc(S(=O)(=O)[O-])ccc7F)c7ccc([nH]7)c(-c7cc(S(=O)(=O)[O-])ccc7F)c7nc(c(-c8cc(S(=O)(=O)[O-])ccc8F)c8ccc5[nH]8)C=C7)C=C6)cc4)c3C)c2C)c1
REMARK SMILES IDX 23 1 22 2 21 3 19 4 20 5 18 7 14 8 15 9 92 10 16 11 93 12
REMARK SMILES IDX 17 13 13 14 11 15 12 16 10 18 7 19 8 20 94 21 9 22 95 23
REMARK SMILES IDX 6 24 1 25 2 26 3 27 96 28 4 29 5 30 24 31 25 32 26 33 27 34
REMARK SMILES IDX 28 36 29 37 30 38 91 39 31 40 90 41 32 42 33 43 34 44 84 45
REMARK SMILES IDX 35 46 89 47 83 48 85 49 36 50 88 51 82 52 81 53 37 55 69 56
REMARK SMILES IDX 49 57 68 58 50 59 53 60 67 61 86 62 51 63 52 64 66 66 87 67
REMARK SMILES IDX 54 68 38 69 39 70 47 71 40 72 46 73 48 74 45 75 41 76 42 77
REMARK SMILES IDX 43 78 44 79 70 80 71 81 79 82 72 83 78 84 80 85 77 86 73 87
REMARK SMILES IDX 74 88 75 89 76 90 55 91 56 92 64 93 57 94 63 95 65 96 62 97
REMARK SMILES IDX 58 98 59 99 60 100 61 101
REMARK H PARENT 21 6 13 17 26 35 85 54 53 65
REMARK Flexibility Score: inf
ROOT
ATOM      1  C   UNL A   1      35.756  22.127  26.499  1.00  0.00     0.023 C 
ENDROOT
BRANCH   1   2
ATOM      2  C   UNL A   1      34.403  22.095  27.207  1.00  0.00     0.116 C 
BRANCH   2   3
ATOM      3  N   UNL A   1      33.426  21.192  26.596  1.00  0.00    -0.352 N 
ATOM      4  C   UNL A   1      32.603  21.249  25.493  1.00  0.00     0.251 C 
ATOM      5  O   UNL A   1      31.966  20.225  25.237  1.00  0.00    -0.269 OA
ATOM      6  H   UNL A   1      33.335  20.345  27.090  1.00  0.00     0.163 HD
BRANCH   4   7
ATOM      7  C   UNL A   1      32.430  22.462  24.622  1.00  0.00     0.044 A 
ATOM      8  C   UNL A   1      31.133  24.345  23.788  1.00  0.00     0.045 A 
ATOM      9  C   UNL A   1      32.155  24.663  22.888  1.00  0.00     0.026 A 
ATOM     10  C   UNL A   1      31.315  23.340  24.767  1.00  0.00    -0.015 A 
ATOM     11  C   UNL A   1      33.236  23.815  22.754  1.00  0.00     0.003 A 
ATOM     12  C   UNL A   1      30.244  23.112  25.809  1.00  0.00     0.047 C 
ATOM     13  C   UNL A   1      33.298  22.670  23.540  1.00  0.00     0.014 A 
BRANCH   8  14
ATOM     14  N   UNL A   1      29.878  24.959  23.610  1.00  0.00    -0.322 N 
ATOM     15  C   UNL A   1      29.500  26.231  24.017  1.00  0.00     0.259 C 
ATOM     16  O   UNL A   1      28.296  26.494  24.057  1.00  0.00    -0.269 OA
ATOM     17  H   UNL A   1      29.194  24.427  23.145  1.00  0.00     0.170 HD
BRANCH  15  18
ATOM     18  C   UNL A   1      30.521  27.253  24.283  1.00  0.00     0.081 A 
ATOM     19  N   UNL A   1      32.102  28.513  25.244  1.00  0.00    -0.237 N 
ATOM     20  N   UNL A   1      31.839  29.114  24.062  1.00  0.00    -0.175 NA
ATOM     21  C   UNL A   1      31.206  27.473  25.479  1.00  0.00     0.054 A 
ATOM     22  C   UNL A   1      30.928  28.342  23.482  1.00  0.00     0.149 A 
ATOM     23  C   UNL A   1      30.967  26.849  26.808  1.00  0.00     0.068 C 
BRANCH  19  24
ATOM     24  C   UNL A   1      33.152  29.031  26.056  1.00  0.00     0.065 A 
ATOM     25  C   UNL A   1      33.875  32.278  27.922  1.00  0.00     0.044 C 
ATOM     26  C   UNL A   1      34.026  30.891  27.370  1.00  0.00    -0.049 A 
ATOM     27  C   UNL A   1      35.120  30.099  27.735  1.00  0.00     0.003 A 
ATOM     28  C   UNL A   1      33.060  30.359  26.509  1.00  0.00     0.031 A 
ATOM     29  C   UNL A   1      35.250  28.801  27.239  1.00  0.00     0.002 A 
ATOM     30  C   UNL A   1      34.268  28.264  26.401  1.00  0.00     0.028 A 
ENDBRANCH  19  24
ENDBRANCH  15  18
ENDBRANCH   8  14
ENDBRANCH   4   7
ENDBRANCH   2   3
ENDBRANCH   1   2
BRANCH   1  31
ATOM     31  C   UNL A   1      36.191  23.485  25.966  1.00  0.00     0.023 C 
BRANCH  31  32
ATOM     32  C   UNL A   1      37.532  23.499  25.242  1.00  0.00     0.116 C 
BRANCH  32  33
ATOM     33  N   UNL A   1      38.620  22.806  25.916  1.00  0.00    -0.352 N 
ATOM     34  C   UNL A   1      39.620  23.345  26.718  1.00  0.00     0.251 C 
ATOM     35  H   UNL A   1      38.653  21.830  25.788  1.00  0.00     0.163 HD
ATOM     36  O   UNL A   1      40.529  22.662  27.152  1.00  0.00    -0.269 OA
BRANCH  34  37
ATOM     37  C   UNL A   1      39.493  24.765  27.147  1.00  0.00     0.039 A 
ATOM     38  C   UNL A   1      40.111  25.733  26.347  1.00  0.00     0.014 A 
ATOM     39  C   UNL A   1      39.009  25.100  28.408  1.00  0.00     0.014 A 
ATOM     40  C   UNL A   1      40.472  26.955  26.912  1.00  0.00     0.010 A 
ATOM     41  C   UNL A   1      39.452  26.269  28.999  1.00  0.00     0.010 A 
ATOM     42  C   UNL A   1      40.249  27.161  28.272  1.00  0.00    -0.014 A 
BRANCH  42  43
ATOM     43  C   UNL A   1      40.944  28.185  29.045  1.00  0.00     0.031 A 
ATOM     44  C   UNL A   1      40.251  29.408  29.492  1.00  0.00     0.074 A 
ATOM     45  C   UNL A   1      42.235  27.996  29.404  1.00  0.00     0.049 A 
ATOM     46  N   UNL A   1      40.865  30.476  29.876  1.00  0.00    -0.248 NA
ATOM     47  C   UNL A   1      38.800  29.566  29.460  1.00  0.00     0.031 C 
ATOM     48  C   UNL A   1      43.010  28.752  30.385  1.00  0.00     0.029 A 
ATOM     49  N   UNL A   1      43.187  27.239  28.720  1.00  0.00    -0.354 N 
ATOM     50  C   UNL A   1      39.935  31.298  30.456  1.00  0.00     0.074 A 
ATOM     51  C   UNL A   1      38.667  30.775  30.017  1.00  0.00     0.031 C 
ATOM     52  C   UNL A   1      44.310  28.662  30.069  1.00  0.00     0.029 A 
ATOM     53  C   UNL A   1      44.401  27.956  28.806  1.00  0.00     0.049 A 
ATOM     54  H   UNL A   1      43.042  26.376  28.268  1.00  0.00     0.167 HD
ATOM     55  C   UNL A   1      40.357  32.225  31.361  1.00  0.00     0.034 A 
ATOM     56  C   UNL A   1      45.028  28.405  27.679  1.00  0.00     0.034 A 
ATOM     57  C   UNL A   1      41.806  32.454  31.268  1.00  0.00     0.049 A 
ATOM     58  C   UNL A   1      45.171  29.915  27.607  1.00  0.00     0.074 A 
ATOM     59  C   UNL A   1      42.901  32.264  32.093  1.00  0.00     0.029 A 
ATOM     60  N   UNL A   1      42.330  32.809  30.032  1.00  0.00    -0.354 N 
ATOM     61  N   UNL A   1      44.764  30.743  28.531  1.00  0.00    -0.248 NA
ATOM     62  C   UNL A   1      45.702  30.620  26.438  1.00  0.00     0.031 C 
ATOM     63  C   UNL A   1      44.085  32.463  31.312  1.00  0.00     0.029 A 
ATOM     64  C   UNL A   1      43.709  32.810  30.028  1.00  0.00     0.049 A 
ATOM     65  H   UNL A   1      41.779  33.033  29.248  1.00  0.00     0.167 HD
ATOM     66  C   UNL A   1      44.871  32.033  28.076  1.00  0.00     0.074 A 
ATOM     67  C   UNL A   1      45.482  31.905  26.765  1.00  0.00     0.031 C 
ATOM     68  C   UNL A   1      44.396  33.107  28.775  1.00  0.00     0.034 A 
BRANCH  55  69
ATOM     69  C   UNL A   1      39.484  32.835  32.446  1.00  0.00     0.023 A 
ATOM     70  C   UNL A   1      39.410  32.194  33.702  1.00  0.00     0.031 A 
ATOM     71  C   UNL A   1      38.611  33.937  32.288  1.00  0.00     0.131 A 
ATOM     72  C   UNL A   1      38.514  32.634  34.701  1.00  0.00     0.055 A 
ATOM     73  C   UNL A   1      37.775  34.414  33.305  1.00  0.00     0.041 A 
ATOM     74  F   UNL A   1      38.451  34.579  31.127  1.00  0.00    -0.206 F 
ATOM     75  C   UNL A   1      37.715  33.757  34.518  1.00  0.00     0.022 A 
BRANCH  72  76
ATOM     76  S   UNL A   1      38.331  31.663  36.222  1.00  0.00     0.124 S 
ATOM     77  O   UNL A   1      39.593  31.924  36.906  1.00  0.00    -0.237 OA
ATOM     78  O   UNL A   1      37.134  32.243  36.819  1.00  0.00    -0.237 OA
ATOM     79  O   UNL A   1      38.172  30.293  35.731  1.00  0.00    -0.744 OA
ENDBRANCH  72  76
ENDBRANCH  55  69
BRANCH  56  80
ATOM     80  C   UNL A   1      44.849  27.466  26.529  1.00  0.00     0.023 A 
ATOM     81  C   UNL A   1      45.612  26.273  26.558  1.00  0.00     0.031 A 
ATOM     82  C   UNL A   1      43.721  27.500  25.698  1.00  0.00     0.131 A 
ATOM     83  C   UNL A   1      45.133  25.111  25.940  1.00  0.00     0.055 A 
ATOM     84  C   UNL A   1      43.299  26.360  25.001  1.00  0.00     0.041 A 
ATOM     85  F   UNL A   1      42.934  28.584  25.653  1.00  0.00    -0.206 F 
ATOM     86  C   UNL A   1      43.973  25.147  25.163  1.00  0.00     0.022 A 
BRANCH  83  87
ATOM     87  S   UNL A   1      45.850  23.501  26.397  1.00  0.00     0.124 S 
ATOM     88  O   UNL A   1      46.062  22.876  25.097  1.00  0.00    -0.237 OA
ATOM     89  O   UNL A   1      47.061  23.859  27.133  1.00  0.00    -0.237 OA
ATOM     90  O   UNL A   1      44.814  22.896  27.231  1.00  0.00    -0.744 OA
ENDBRANCH  83  87
ENDBRANCH  56  80
BRANCH  68  91
ATOM     91  C   UNL A   1      44.495  34.534  28.285  1.00  0.00     0.023 A 
ATOM     92  C   UNL A   1      45.163  35.534  29.013  1.00  0.00     0.031 A 
ATOM     93  C   UNL A   1      43.850  34.957  27.099  1.00  0.00     0.131 A 
ATOM     94  C   UNL A   1      45.229  36.856  28.531  1.00  0.00     0.055 A 
ATOM     95  C   UNL A   1      43.846  36.287  26.668  1.00  0.00     0.041 A 
ATOM     96  F   UNL A   1      43.233  34.091  26.284  1.00  0.00    -0.206 F 
ATOM     97  C   UNL A   1      44.548  37.246  27.379  1.00  0.00     0.022 A 
BRANCH  94  98
ATOM     98  S   UNL A   1      46.276  38.051  29.401  1.00  0.00     0.124 S 
ATOM     99  O   UNL A   1      45.772  37.983  30.769  1.00  0.00    -0.237 OA
ATOM    100  O   UNL A   1      47.607  37.488  29.187  1.00  0.00    -0.237 OA
ATOM    101  O   UNL A   1      46.019  39.310  28.704  1.00  0.00    -0.744 OA
ENDBRANCH  94  98
ENDBRANCH  68  91
ENDBRANCH  42  43
ENDBRANCH  34  37
ENDBRANCH  32  33
ENDBRANCH  31  32
ENDBRANCH   1  31
TORSDOF 17
ENDMDL
MODEL 3
REMARK VINA RESULT:     -12.5      4.965      8.744
REMARK SMILES Cc1cccc(-n2ncc(C(=O)Nc3cccc(C(=O)NCCCCNC(=O)c4ccc(-c5c6nc(c(-c7cc(S(=O)(=O)[O-])ccc7F)c7ccc([nH]7)c(-c7cc(S(=O)(=O)[O-])ccc7F)c7nc(c(-c8cc(S(=O)(=O)[O-])ccc8F)c8ccc5[nH]8)C=C7)C=C6)cc4)c3C)c2C)c1
REMARK SMILES IDX 23 1 22 2 21 3 19 4 20 5 18 7 14 8 15 9 92 10 16 11 93 12
REMARK SMILES IDX 17 13 13 14 11 15 12 16 10 18 7 19 8 20 94 21 9 22 95 23
REMARK SMILES IDX 6 24 1 25 2 26 3 27 96 28 4 29 5 30 24 31 25 32 26 33 27 34
REMARK SMILES IDX 28 36 29 37 30 38 91 39 31 40 90 41 32 42 33 43 34 44 84 45
REMARK SMILES IDX 35 46 89 47 83 48 85 49 36 50 88 51 82 52 81 53 37 55 69 56
REMARK SMILES IDX 49 57 68 58 50 59 53 60 67 61 86 62 51 63 52 64 66 66 87 67
REMARK SMILES IDX 54 68 38 69 39 70 47 71 40 72 46 73 48 74 45 75 41 76 42 77
REMARK SMILES IDX 43 78 44 79 70 80 71 81 79 82 72 83 78 84 80 85 77 86 73 87
REMARK SMILES IDX 74 88 75 89 76 90 55 91 56 92 64 93 57 94 63 95 65 96 62 97
REMARK SMILES IDX 58 98 59 99 60 100 61 101
REMARK H PARENT 21 6 13 17 26 35 85 54 53 65
REMARK Flexibility Score: inf
ROOT
ATOM      1  C   UNL A   1      36.592  31.587  33.142  1.00  0.00     0.023 C 
ENDROOT
BRANCH   1   2
ATOM      2  C   UNL A   1      37.957  30.903  33.144  1.00  0.00     0.116 C 
BRANCH   2   3
ATOM      3  N   UNL A   1      37.900  29.443  33.243  1.00  0.00    -0.352 N 
ATOM      4  C   UNL A   1      38.152  28.398  32.382  1.00  0.00     0.251 C 
ATOM      5  O   UNL A   1      38.081  27.267  32.866  1.00  0.00    -0.269 OA
ATOM      6  H   UNL A   1      37.613  29.137  34.133  1.00  0.00     0.163 HD
BRANCH   4   7
ATOM      7  C   UNL A   1      38.483  28.557  30.924  1.00  0.00     0.044 A 
ATOM      8  C   UNL A   1      40.052  28.949  29.104  1.00  0.00     0.045 A 
ATOM      9  C   UNL A   1      39.000  28.937  28.183  1.00  0.00     0.026 A 
ATOM     10  C   UNL A   1      39.832  28.611  30.461  1.00  0.00    -0.015 A 
ATOM     11  C   UNL A   1      37.697  28.880  28.634  1.00  0.00     0.003 A 
ATOM     12  C   UNL A   1      41.009  28.502  31.402  1.00  0.00     0.047 C 
ATOM     13  C   UNL A   1      37.458  28.807  30.001  1.00  0.00     0.014 A 
BRANCH   8  14
ATOM     14  N   UNL A   1      41.304  29.430  28.675  1.00  0.00    -0.322 N 
ATOM     15  C   UNL A   1      42.276  28.733  27.972  1.00  0.00     0.259 C 
ATOM     16  O   UNL A   1      43.418  29.196  27.944  1.00  0.00    -0.269 OA
ATOM     17  H   UNL A   1      41.512  30.365  28.899  1.00  0.00     0.170 HD
BRANCH  15  18
ATOM     18  C   UNL A   1      41.911  27.537  27.200  1.00  0.00     0.081 A 
ATOM     19  N   UNL A   1      41.506  25.430  26.564  1.00  0.00    -0.237 N 
ATOM     20  N   UNL A   1      41.343  26.175  25.448  1.00  0.00    -0.175 NA
ATOM     21  C   UNL A   1      42.007  26.206  27.607  1.00  0.00     0.054 A 
ATOM     22  C   UNL A   1      41.548  27.426  25.839  1.00  0.00     0.149 A 
ATOM     23  C   UNL A   1      42.640  25.659  28.837  1.00  0.00     0.068 C 
BRANCH  19  24
ATOM     24  C   UNL A   1      41.217  24.036  26.504  1.00  0.00     0.065 A 
ATOM     25  C   UNL A   1      43.159  20.825  25.820  1.00  0.00     0.044 C 
ATOM     26  C   UNL A   1      42.034  21.768  26.130  1.00  0.00    -0.049 A 
ATOM     27  C   UNL A   1      40.765  21.274  26.454  1.00  0.00     0.003 A 
ATOM     28  C   UNL A   1      42.244  23.151  26.132  1.00  0.00     0.031 A 
ATOM     29  C   UNL A   1      39.724  22.151  26.765  1.00  0.00     0.002 A 
ATOM     30  C   UNL A   1      39.946  23.530  26.792  1.00  0.00     0.028 A 
ENDBRANCH  19  24
ENDBRANCH  15  18
ENDBRANCH   8  14
ENDBRANCH   4   7
ENDBRANCH   2   3
ENDBRANCH   1   2
BRANCH   1  31
ATOM     31  C   UNL A   1      35.805  31.489  31.842  1.00  0.00     0.023 C 
BRANCH  31  32
ATOM     32  C   UNL A   1      35.553  32.815  31.135  1.00  0.00     0.116 C 
BRANCH  32  33
ATOM     33  N   UNL A   1      35.319  32.731  29.701  1.00  0.00    -0.352 N 
ATOM     34  C   UNL A   1      36.188  33.055  28.665  1.00  0.00     0.251 C 
ATOM     35  H   UNL A   1      34.431  32.403  29.430  1.00  0.00     0.163 HD
ATOM     36  O   UNL A   1      35.834  33.023  27.501  1.00  0.00    -0.269 OA
BRANCH  34  37
ATOM     37  C   UNL A   1      37.613  33.325  28.997  1.00  0.00     0.039 A 
ATOM     38  C   UNL A   1      38.395  32.234  29.394  1.00  0.00     0.014 A 
ATOM     39  C   UNL A   1      38.086  34.624  29.156  1.00  0.00     0.014 A 
ATOM     40  C   UNL A   1      39.524  32.455  30.180  1.00  0.00     0.010 A 
ATOM     41  C   UNL A   1      39.147  34.842  30.016  1.00  0.00     0.010 A 
ATOM     42  C   UNL A   1      39.817  33.754  30.589  1.00  0.00    -0.014 A 
BRANCH  42  43
ATOM     43  C   UNL A   1      40.687  34.055  31.721  1.00  0.00     0.031 A 
ATOM     44  C   UNL A   1      40.136  34.525  33.006  1.00  0.00     0.074 A 
ATOM     45  C   UNL A   1      42.022  33.856  31.615  1.00  0.00     0.049 A 
ATOM     46  N   UNL A   1      40.842  35.111  33.913  1.00  0.00    -0.248 NA
ATOM     47  C   UNL A   1      38.718  34.455  33.346  1.00  0.00     0.031 C 
ATOM     48  C   UNL A   1      43.011  33.833  32.689  1.00  0.00     0.029 A 
ATOM     49  N   UNL A   1      42.783  33.918  30.447  1.00  0.00    -0.354 N 
ATOM     50  C   UNL A   1      40.082  35.170  35.051  1.00  0.00     0.074 A 
ATOM     51  C   UNL A   1      38.737  34.918  34.600  1.00  0.00     0.031 C 
ATOM     52  C   UNL A   1      44.206  34.170  32.183  1.00  0.00     0.029 A 
ATOM     53  C   UNL A   1      44.000  34.542  30.797  1.00  0.00     0.049 A 
ATOM     54  H   UNL A   1      42.522  33.590  29.555  1.00  0.00     0.167 HD
ATOM     55  C   UNL A   1      40.714  35.273  36.254  1.00  0.00     0.034 A 
ATOM     56  C   UNL A   1      44.370  35.724  30.220  1.00  0.00     0.034 A 
ATOM     57  C   UNL A   1      42.110  35.704  36.099  1.00  0.00     0.049 A 
ATOM     58  C   UNL A   1      44.524  36.873  31.202  1.00  0.00     0.074 A 
ATOM     59  C   UNL A   1      43.357  35.158  36.349  1.00  0.00     0.029 A 
ATOM     60  N   UNL A   1      42.353  36.878  35.399  1.00  0.00    -0.354 N 
ATOM     61  N   UNL A   1      44.349  36.774  32.493  1.00  0.00    -0.248 NA
ATOM     62  C   UNL A   1      44.796  38.252  30.792  1.00  0.00     0.031 C 
ATOM     63  C   UNL A   1      44.342  36.002  35.741  1.00  0.00     0.029 A 
ATOM     64  C   UNL A   1      43.696  37.077  35.159  1.00  0.00     0.049 A 
ATOM     65  H   UNL A   1      41.647  37.498  35.107  1.00  0.00     0.167 HD
ATOM     66  C   UNL A   1      44.380  38.023  33.060  1.00  0.00     0.074 A 
ATOM     67  C   UNL A   1      44.680  38.916  31.955  1.00  0.00     0.031 C 
ATOM     68  C   UNL A   1      44.094  38.244  34.378  1.00  0.00     0.034 A 
BRANCH  55  69
ATOM     69  C   UNL A   1      40.116  34.842  37.584  1.00  0.00     0.023 A 
ATOM     70  C   UNL A   1      39.264  33.717  37.617  1.00  0.00     0.031 A 
ATOM     71  C   UNL A   1      40.221  35.544  38.808  1.00  0.00     0.131 A 
ATOM     72  C   UNL A   1      38.573  33.350  38.792  1.00  0.00     0.055 A 
ATOM     73  C   UNL A   1      39.590  35.137  39.990  1.00  0.00     0.041 A 
ATOM     74  F   UNL A   1      40.875  36.703  38.930  1.00  0.00    -0.206 F 
ATOM     75  C   UNL A   1      38.752  34.040  39.986  1.00  0.00     0.022 A 
BRANCH  72  76
ATOM     76  S   UNL A   1      37.354  32.009  38.726  1.00  0.00     0.124 S 
ATOM     77  O   UNL A   1      36.093  32.742  38.717  1.00  0.00    -0.237 OA
ATOM     78  O   UNL A   1      37.716  31.321  37.492  1.00  0.00    -0.237 OA
ATOM     79  O   UNL A   1      37.615  31.254  39.951  1.00  0.00    -0.744 OA
ENDBRANCH  72  76
ENDBRANCH  55  69
BRANCH  56  80
ATOM     80  C   UNL A   1      43.920  35.816  28.797  1.00  0.00     0.023 A 
ATOM     81  C   UNL A   1      44.708  35.136  27.837  1.00  0.00     0.031 A 
ATOM     82  C   UNL A   1      42.607  36.155  28.443  1.00  0.00     0.131 A 
ATOM     83  C   UNL A   1      44.125  34.642  26.664  1.00  0.00     0.055 A 
ATOM     84  C   UNL A   1      42.057  35.743  27.222  1.00  0.00     0.041 A 
ATOM     85  F   UNL A   1      41.795  36.765  29.318  1.00  0.00    -0.206 F 
ATOM     86  C   UNL A   1      42.796  34.939  26.352  1.00  0.00     0.022 A 
BRANCH  83  87
ATOM     87  S   UNL A   1      45.003  33.369  25.702  1.00  0.00     0.124 S 
ATOM     88  O   UNL A   1      43.917  32.736  24.963  1.00  0.00    -0.237 OA
ATOM     89  O   UNL A   1      45.952  34.138  24.897  1.00  0.00    -0.237 OA
ATOM     90  O   UNL A   1      45.635  32.547  26.730  1.00  0.00    -0.744 OA
ENDBRANCH  83  87
ENDBRANCH  56  80
BRANCH  68  91
ATOM     91  C   UNL A   1      44.111  39.614  35.019  1.00  0.00     0.023 A 
ATOM     92  C   UNL A   1      43.584  40.749  34.379  1.00  0.00     0.031 A 
ATOM     93  C   UNL A   1      44.733  39.840  36.269  1.00  0.00     0.131 A 
ATOM     94  C   UNL A   1      43.624  42.012  35.000  1.00  0.00     0.055 A 
ATOM     95  C   UNL A   1      44.847  41.110  36.844  1.00  0.00     0.041 A 
ATOM     96  F   UNL A   1      45.220  38.834  37.008  1.00  0.00    -0.206 F 
ATOM     97  C   UNL A   1      44.280  42.206  36.215  1.00  0.00     0.022 A 
BRANCH  94  98
ATOM     98  S   UNL A   1      42.745  43.394  34.226  1.00  0.00     0.124 S 
ATOM     99  O   UNL A   1      43.752  44.450  34.216  1.00  0.00    -0.237 OA
ATOM    100  O   UNL A   1      42.402  42.833  32.922  1.00  0.00    -0.237 OA
ATOM    101  O   UNL A   1      41.609  43.626  35.117  1.00  0.00    -0.744 OA
ENDBRANCH  94  98
ENDBRANCH  68  91
ENDBRANCH  42  43
ENDBRANCH  34  37
ENDBRANCH  32  33
ENDBRANCH  31  32
ENDBRANCH   1  31
TORSDOF 17
ENDMDL
