MODEL 1
REMARK VINA RESULT:     -11.3      0.000      0.000
REMARK SMILES [NH3+]C1(CC(=O)N[C@@H]2CCCC[C@H]2C(=O)NCCCCNC(=O)c2ccc(-c3c4nc(c(-c5cc(S(=O)(=O)[O-])ccc5F)c5ccc([nH]5)c(-c5cc(S(=O)(=O)[O-])ccc5F)c5nc(c(-c6cc(S(=O)(=O)[O-])ccc6F)c6ccc3[nH]6)C=C5)C=C4)cc2)CCC1
REMARK SMILES IDX 17 1 16 2 15 3 13 4 14 5 12 7 7 8 8 9 9 10 11 11 10 12 6 13
REMARK SMILES IDX 4 14 5 15 3 17 2 18 86 19 88 20 87 21 1 22 18 26 19 27 20 28
REMARK SMILES IDX 21 29 22 31 23 32 24 33 85 34 25 35 84 36 26 37 27 38 28 39
REMARK SMILES IDX 78 40 29 41 83 42 77 43 79 44 30 45 82 46 76 47 75 48 31 50
REMARK SMILES IDX 63 51 43 52 62 53 44 54 47 55 61 56 80 57 45 58 46 59 60 61
REMARK SMILES IDX 81 62 48 63 32 64 33 65 41 66 34 67 40 68 42 69 39 70 35 71
REMARK SMILES IDX 36 72 37 73 38 74 64 75 65 76 73 77 66 78 72 79 74 80 71 81
REMARK SMILES IDX 67 82 68 83 69 84 70 85 49 86 50 87 58 88 51 89 57 90 59 91
REMARK SMILES IDX 56 92 52 93 53 94 54 95 55 96
REMARK H PARENT 15 6 6 16 1 23 1 24 1 25 20 30 79 49 47 60
REMARK Flexibility Score: inf
ROOT
ATOM      1  C   UNL A   1      32.607  26.910  25.976  1.00  0.00     0.023 C 
ENDROOT
BRANCH   1   2
ATOM      2  C   UNL A   1      33.862  26.064  25.796  1.00  0.00     0.116 C 
BRANCH   2   3
ATOM      3  N   UNL A   1      33.979  25.551  24.450  1.00  0.00    -0.356 N 
ATOM      4  C   UNL A   1      34.556  24.422  23.977  1.00  0.00     0.225 C 
ATOM      5  O   UNL A   1      34.362  24.151  22.789  1.00  0.00    -0.275 OA
ATOM      6  H   UNL A   1      33.569  26.121  23.759  1.00  0.00     0.163 HD
BRANCH   4   7
ATOM      7  C   UNL A   1      35.331  23.471  24.874  1.00  0.00     0.101 C 
ATOM      8  C   UNL A   1      34.904  21.994  24.798  1.00  0.00     0.094 C 
ATOM      9  C   UNL A   1      35.927  21.044  25.450  1.00  0.00     0.026 C 
ATOM     10  C   UNL A   1      37.364  21.346  25.052  1.00  0.00     0.002 C 
ATOM     11  C   UNL A   1      36.836  23.763  24.711  1.00  0.00     0.015 C 
ATOM     12  C   UNL A   1      37.727  22.768  25.437  1.00  0.00     0.001 C 
BRANCH   8  13
ATOM     13  N   UNL A   1      33.571  21.613  25.313  1.00  0.00    -0.352 N 
ATOM     14  C   UNL A   1      32.548  20.828  24.876  1.00  0.00     0.226 C 
ATOM     15  O   UNL A   1      31.410  21.174  25.209  1.00  0.00    -0.275 OA
ATOM     16  H   UNL A   1      33.376  22.029  26.185  1.00  0.00     0.163 HD
BRANCH  14  17
ATOM     17  C   UNL A   1      32.782  19.509  24.186  1.00  0.00     0.168 C 
BRANCH  17  18
ATOM     18  C   UNL A   1      32.973  18.255  25.030  1.00  0.00     0.103 C 
ATOM     19  C   UNL A   1      34.315  17.510  24.736  1.00  0.00     0.069 C 
ATOM     20  C   UNL A   1      32.258  16.898  24.760  1.00  0.00     0.069 C 
ATOM     21  C   UNL A   1      33.506  16.448  23.969  1.00  0.00     0.013 C 
BRANCH  18  22
ATOM     22  N   UNL A   1      32.912  18.494  26.477  1.00  0.00    -0.352 N 
ATOM     23  H   UNL A   1      33.364  19.381  26.694  1.00  0.00     0.344 HD
ATOM     24  H   UNL A   1      33.390  17.740  26.967  1.00  0.00     0.344 HD
ATOM     25  H   UNL A   1      31.936  18.528  26.774  1.00  0.00     0.344 HD
ENDBRANCH  18  22
ENDBRANCH  17  18
ENDBRANCH  14  17
ENDBRANCH   8  13
ENDBRANCH   4   7
ENDBRANCH   2   3
ENDBRANCH   1   2
BRANCH   1  26
ATOM     26  C   UNL A   1      32.724  28.350  25.482  1.00  0.00     0.023 C 
BRANCH  26  27
ATOM     27  C   UNL A   1      34.012  29.069  25.859  1.00  0.00     0.116 C 
BRANCH  27  28
ATOM     28  N   UNL A   1      33.794  30.316  26.575  1.00  0.00    -0.352 N 
ATOM     29  C   UNL A   1      34.579  30.886  27.548  1.00  0.00     0.251 C 
ATOM     30  H   UNL A   1      32.981  30.816  26.332  1.00  0.00     0.163 HD
ATOM     31  O   UNL A   1      34.249  31.937  28.078  1.00  0.00    -0.269 OA
BRANCH  29  32
ATOM     32  C   UNL A   1      35.785  30.157  27.978  1.00  0.00     0.039 A 
ATOM     33  C   UNL A   1      36.924  30.239  27.176  1.00  0.00     0.014 A 
ATOM     34  C   UNL A   1      35.817  29.507  29.214  1.00  0.00     0.014 A 
ATOM     35  C   UNL A   1      38.127  29.723  27.649  1.00  0.00     0.010 A 
ATOM     36  C   UNL A   1      37.034  29.059  29.714  1.00  0.00     0.010 A 
ATOM     37  C   UNL A   1      38.198  29.163  28.936  1.00  0.00    -0.014 A 
BRANCH  37  38
ATOM     38  C   UNL A   1      39.488  28.668  29.476  1.00  0.00     0.031 A 
ATOM     39  C   UNL A   1      40.148  29.408  30.604  1.00  0.00     0.074 A 
ATOM     40  C   UNL A   1      40.077  27.594  28.917  1.00  0.00     0.049 A 
ATOM     41  N   UNL A   1      41.299  29.182  31.180  1.00  0.00    -0.248 NA
ATOM     42  C   UNL A   1      39.431  30.581  31.128  1.00  0.00     0.031 C 
ATOM     43  C   UNL A   1      39.545  26.829  27.787  1.00  0.00     0.029 A 
ATOM     44  N   UNL A   1      41.256  26.962  29.218  1.00  0.00    -0.354 N 
ATOM     45  C   UNL A   1      41.451  30.190  32.125  1.00  0.00     0.074 A 
ATOM     46  C   UNL A   1      40.307  31.066  31.994  1.00  0.00     0.031 C 
ATOM     47  C   UNL A   1      40.381  25.817  27.508  1.00  0.00     0.029 A 
ATOM     48  C   UNL A   1      41.527  25.882  28.409  1.00  0.00     0.049 A 
ATOM     49  H   UNL A   1      41.854  27.252  29.944  1.00  0.00     0.167 HD
ATOM     50  C   UNL A   1      42.442  30.354  33.036  1.00  0.00     0.034 A 
ATOM     51  C   UNL A   1      42.584  25.046  28.396  1.00  0.00     0.034 A 
ATOM     52  C   UNL A   1      43.564  29.458  33.158  1.00  0.00     0.049 A 
ATOM     53  C   UNL A   1      43.679  25.251  29.413  1.00  0.00     0.074 A 
ATOM     54  C   UNL A   1      44.599  29.489  34.077  1.00  0.00     0.029 A 
ATOM     55  N   UNL A   1      43.802  28.368  32.329  1.00  0.00    -0.354 N 
ATOM     56  N   UNL A   1      43.782  26.178  30.338  1.00  0.00    -0.248 NA
ATOM     57  C   UNL A   1      44.790  24.292  29.392  1.00  0.00     0.031 C 
ATOM     58  C   UNL A   1      45.492  28.457  33.766  1.00  0.00     0.029 A 
ATOM     59  C   UNL A   1      44.980  27.736  32.699  1.00  0.00     0.049 A 
ATOM     60  H   UNL A   1      43.219  28.084  31.588  1.00  0.00     0.167 HD
ATOM     61  C   UNL A   1      44.957  25.894  31.029  1.00  0.00     0.074 A 
ATOM     62  C   UNL A   1      45.516  24.703  30.421  1.00  0.00     0.031 C 
ATOM     63  C   UNL A   1      45.523  26.554  32.071  1.00  0.00     0.034 A 
BRANCH  50  64
ATOM     64  C   UNL A   1      42.354  31.558  33.942  1.00  0.00     0.023 A 
ATOM     65  C   UNL A   1      41.667  31.511  35.168  1.00  0.00     0.031 A 
ATOM     66  C   UNL A   1      42.925  32.783  33.556  1.00  0.00     0.131 A 
ATOM     67  C   UNL A   1      41.493  32.681  35.920  1.00  0.00     0.055 A 
ATOM     68  C   UNL A   1      42.822  33.926  34.352  1.00  0.00     0.041 A 
ATOM     69  F   UNL A   1      43.575  32.898  32.388  1.00  0.00    -0.206 F 
ATOM     70  C   UNL A   1      42.088  33.884  35.534  1.00  0.00     0.022 A 
BRANCH  67  71
ATOM     71  S   UNL A   1      40.351  32.642  37.330  1.00  0.00     0.124 S 
ATOM     72  O   UNL A   1      41.231  32.201  38.410  1.00  0.00    -0.237 OA
ATOM     73  O   UNL A   1      39.892  34.023  37.403  1.00  0.00    -0.237 OA
ATOM     74  O   UNL A   1      39.340  31.668  36.923  1.00  0.00    -0.744 OA
ENDBRANCH  67  71
ENDBRANCH  50  64
BRANCH  51  75
ATOM     75  C   UNL A   1      42.667  23.945  27.395  1.00  0.00     0.023 A 
ATOM     76  C   UNL A   1      41.977  22.737  27.588  1.00  0.00     0.031 A 
ATOM     77  C   UNL A   1      43.469  24.069  26.246  1.00  0.00     0.131 A 
ATOM     78  C   UNL A   1      42.138  21.685  26.672  1.00  0.00     0.055 A 
ATOM     79  C   UNL A   1      43.586  23.037  25.313  1.00  0.00     0.041 A 
ATOM     80  F   UNL A   1      44.143  25.206  26.009  1.00  0.00    -0.206 F 
ATOM     81  C   UNL A   1      42.929  21.831  25.531  1.00  0.00     0.022 A 
BRANCH  78  82
ATOM     82  S   UNL A   1      41.355  20.089  27.038  1.00  0.00     0.124 S 
ATOM     83  O   UNL A   1      42.504  19.190  27.050  1.00  0.00    -0.237 OA
ATOM     84  O   UNL A   1      40.729  20.350  28.330  1.00  0.00    -0.237 OA
ATOM     85  O   UNL A   1      40.427  19.904  25.924  1.00  0.00    -0.744 OA
ENDBRANCH  78  82
ENDBRANCH  51  75
BRANCH  63  86
ATOM     86  C   UNL A   1      46.789  25.968  32.642  1.00  0.00     0.023 A 
ATOM     87  C   UNL A   1      46.762  25.003  33.663  1.00  0.00     0.031 A 
ATOM     88  C   UNL A   1      48.041  26.390  32.159  1.00  0.00     0.131 A 
ATOM     89  C   UNL A   1      47.965  24.529  34.206  1.00  0.00     0.055 A 
ATOM     90  C   UNL A   1      49.234  25.871  32.664  1.00  0.00     0.041 A 
ATOM     91  F   UNL A   1      48.123  27.311  31.186  1.00  0.00    -0.206 F 
ATOM     92  C   UNL A   1      49.201  24.945  33.702  1.00  0.00     0.022 A 
BRANCH  89  93
ATOM     93  S   UNL A   1      47.896  23.420  35.640  1.00  0.00     0.124 S 
ATOM     94  O   UNL A   1      49.272  23.469  36.126  1.00  0.00    -0.237 OA
ATOM     95  O   UNL A   1      46.898  24.066  36.487  1.00  0.00    -0.237 OA
ATOM     96  O   UNL A   1      47.486  22.140  35.065  1.00  0.00    -0.744 OA
ENDBRANCH  89  93
ENDBRANCH  63  86
ENDBRANCH  37  38
ENDBRANCH  29  32
ENDBRANCH  27  28
ENDBRANCH  26  27
ENDBRANCH   1  26
TORSDOF 18
ENDMDL
MODEL 2
REMARK VINA RESULT:     -11.2      2.110      7.799
REMARK SMILES [NH3+]C1(CC(=O)N[C@@H]2CCCC[C@H]2C(=O)NCCCCNC(=O)c2ccc(-c3c4nc(c(-c5cc(S(=O)(=O)[O-])ccc5F)c5ccc([nH]5)c(-c5cc(S(=O)(=O)[O-])ccc5F)c5nc(c(-c6cc(S(=O)(=O)[O-])ccc6F)c6ccc3[nH]6)C=C5)C=C4)cc2)CCC1
REMARK SMILES IDX 17 1 16 2 15 3 13 4 14 5 12 7 7 8 8 9 9 10 11 11 10 12 6 13
REMARK SMILES IDX 4 14 5 15 3 17 2 18 86 19 88 20 87 21 1 22 18 26 19 27 20 28
REMARK SMILES IDX 21 29 22 31 23 32 24 33 85 34 25 35 84 36 26 37 27 38 28 39
REMARK SMILES IDX 78 40 29 41 83 42 77 43 79 44 30 45 82 46 76 47 75 48 31 50
REMARK SMILES IDX 63 51 43 52 62 53 44 54 47 55 61 56 80 57 45 58 46 59 60 61
REMARK SMILES IDX 81 62 48 63 32 64 33 65 41 66 34 67 40 68 42 69 39 70 35 71
REMARK SMILES IDX 36 72 37 73 38 74 64 75 65 76 73 77 66 78 72 79 74 80 71 81
REMARK SMILES IDX 67 82 68 83 69 84 70 85 49 86 50 87 58 88 51 89 57 90 59 91
REMARK SMILES IDX 56 92 52 93 53 94 54 95 55 96
REMARK H PARENT 15 6 6 16 1 23 1 24 1 25 20 30 79 49 47 60
REMARK Flexibility Score: inf
ROOT
ATOM      1  C   UNL A   1      31.814  27.313  25.606  1.00  0.00     0.023 C 
ENDROOT
BRANCH   1   2
ATOM      2  C   UNL A   1      32.841  26.192  25.720  1.00  0.00     0.116 C 
BRANCH   2   3
ATOM      3  N   UNL A   1      33.143  25.602  24.435  1.00  0.00    -0.356 N 
ATOM      4  C   UNL A   1      33.906  24.536  24.106  1.00  0.00     0.225 C 
ATOM      5  O   UNL A   1      33.855  24.151  22.935  1.00  0.00    -0.275 OA
ATOM      6  H   UNL A   1      32.719  26.054  23.670  1.00  0.00     0.163 HD
BRANCH   4   7
ATOM      7  C   UNL A   1      34.725  23.775  25.137  1.00  0.00     0.101 C 
ATOM      8  C   UNL A   1      34.505  22.251  25.162  1.00  0.00     0.094 C 
ATOM      9  C   UNL A   1      35.588  21.507  25.968  1.00  0.00     0.026 C 
ATOM     10  C   UNL A   1      37.000  21.974  25.647  1.00  0.00     0.002 C 
ATOM     11  C   UNL A   1      36.186  24.259  25.055  1.00  0.00     0.015 C 
ATOM     12  C   UNL A   1      37.139  23.458  25.928  1.00  0.00     0.001 C 
BRANCH   8  13
ATOM     13  N   UNL A   1      33.197  21.731  25.614  1.00  0.00    -0.352 N 
ATOM     14  C   UNL A   1      32.224  20.944  25.074  1.00  0.00     0.226 C 
ATOM     15  O   UNL A   1      31.066  21.178  25.436  1.00  0.00    -0.275 OA
ATOM     16  H   UNL A   1      32.975  22.024  26.528  1.00  0.00     0.163 HD
BRANCH  14  17
ATOM     17  C   UNL A   1      32.541  19.736  24.231  1.00  0.00     0.168 C 
BRANCH  17  18
ATOM     18  C   UNL A   1      33.035  18.467  24.912  1.00  0.00     0.103 C 
ATOM     19  C   UNL A   1      34.524  18.128  24.584  1.00  0.00     0.069 C 
ATOM     20  C   UNL A   1      32.689  17.024  24.436  1.00  0.00     0.069 C 
ATOM     21  C   UNL A   1      34.018  17.013  23.649  1.00  0.00     0.013 C 
BRANCH  18  22
ATOM     22  N   UNL A   1      32.900  18.481  26.374  1.00  0.00    -0.352 N 
ATOM     23  H   UNL A   1      33.715  18.934  26.785  1.00  0.00     0.344 HD
ATOM     24  H   UNL A   1      32.833  17.525  26.719  1.00  0.00     0.344 HD
ATOM     25  H   UNL A   1      32.058  18.997  26.632  1.00  0.00     0.344 HD
ENDBRANCH  18  22
ENDBRANCH  17  18
ENDBRANCH  14  17
ENDBRANCH   8  13
ENDBRANCH   4   7
ENDBRANCH   2   3
ENDBRANCH   1   2
BRANCH   1  26
ATOM     26  C   UNL A   1      32.058  28.507  26.527  1.00  0.00     0.023 C 
BRANCH  26  27
ATOM     27  C   UNL A   1      32.910  29.624  25.938  1.00  0.00     0.116 C 
BRANCH  27  28
ATOM     28  N   UNL A   1      32.523  30.950  26.392  1.00  0.00    -0.352 N 
ATOM     29  C   UNL A   1      33.212  31.798  27.225  1.00  0.00     0.251 C 
ATOM     30  H   UNL A   1      31.657  31.284  26.060  1.00  0.00     0.163 HD
ATOM     31  O   UNL A   1      32.742  32.883  27.535  1.00  0.00    -0.269 OA
BRANCH  29  32
ATOM     32  C   UNL A   1      34.493  31.330  27.782  1.00  0.00     0.039 A 
ATOM     33  C   UNL A   1      35.507  32.268  27.977  1.00  0.00     0.014 A 
ATOM     34  C   UNL A   1      34.637  30.009  28.214  1.00  0.00     0.014 A 
ATOM     35  C   UNL A   1      36.653  31.894  28.674  1.00  0.00     0.010 A 
ATOM     36  C   UNL A   1      35.748  29.660  28.971  1.00  0.00     0.010 A 
ATOM     37  C   UNL A   1      36.765  30.599  29.209  1.00  0.00    -0.014 A 
BRANCH  37  38
ATOM     38  C   UNL A   1      37.951  30.210  30.008  1.00  0.00     0.031 A 
ATOM     39  C   UNL A   1      38.941  29.237  29.434  1.00  0.00     0.074 A 
ATOM     40  C   UNL A   1      38.102  30.691  31.257  1.00  0.00     0.049 A 
ATOM     41  N   UNL A   1      40.008  28.721  29.983  1.00  0.00    -0.248 NA
ATOM     42  C   UNL A   1      38.672  28.755  28.070  1.00  0.00     0.031 C 
ATOM     43  C   UNL A   1      37.176  31.606  31.929  1.00  0.00     0.029 A 
ATOM     44  N   UNL A   1      39.086  30.474  32.187  1.00  0.00    -0.354 N 
ATOM     45  C   UNL A   1      40.531  27.844  29.040  1.00  0.00     0.074 A 
ATOM     46  C   UNL A   1      39.623  27.849  27.913  1.00  0.00     0.031 C 
ATOM     47  C   UNL A   1      37.650  31.891  33.153  1.00  0.00     0.029 A 
ATOM     48  C   UNL A   1      38.889  31.151  33.368  1.00  0.00     0.049 A 
ATOM     49  H   UNL A   1      39.861  29.890  32.026  1.00  0.00     0.167 HD
ATOM     50  C   UNL A   1      41.676  27.121  29.098  1.00  0.00     0.034 A 
ATOM     51  C   UNL A   1      39.624  31.166  34.498  1.00  0.00     0.034 A 
ATOM     52  C   UNL A   1      42.573  27.146  30.227  1.00  0.00     0.049 A 
ATOM     53  C   UNL A   1      40.890  30.349  34.545  1.00  0.00     0.074 A 
ATOM     54  C   UNL A   1      43.788  26.501  30.379  1.00  0.00     0.029 A 
ATOM     55  N   UNL A   1      42.348  27.850  31.404  1.00  0.00    -0.354 N 
ATOM     56  N   UNL A   1      41.402  29.566  33.622  1.00  0.00    -0.248 NA
ATOM     57  C   UNL A   1      41.684  30.427  35.777  1.00  0.00     0.031 C 
ATOM     58  C   UNL A   1      44.268  26.767  31.666  1.00  0.00     0.029 A 
ATOM     59  C   UNL A   1      43.388  27.635  32.295  1.00  0.00     0.049 A 
ATOM     60  H   UNL A   1      41.565  28.420  31.579  1.00  0.00     0.167 HD
ATOM     61  C   UNL A   1      42.594  29.081  34.155  1.00  0.00     0.074 A 
ATOM     62  C   UNL A   1      42.729  29.673  35.471  1.00  0.00     0.031 C 
ATOM     63  C   UNL A   1      43.497  28.229  33.607  1.00  0.00     0.034 A 
BRANCH  50  64
ATOM     64  C   UNL A   1      41.995  26.236  27.919  1.00  0.00     0.023 A 
ATOM     65  C   UNL A   1      41.558  24.900  27.860  1.00  0.00     0.031 A 
ATOM     66  C   UNL A   1      42.785  26.716  26.860  1.00  0.00     0.131 A 
ATOM     67  C   UNL A   1      41.984  24.069  26.813  1.00  0.00     0.055 A 
ATOM     68  C   UNL A   1      43.133  25.907  25.777  1.00  0.00     0.041 A 
ATOM     69  F   UNL A   1      43.250  27.974  26.869  1.00  0.00    -0.206 F 
ATOM     70  C   UNL A   1      42.748  24.569  25.758  1.00  0.00     0.022 A 
BRANCH  67  71
ATOM     71  S   UNL A   1      41.652  22.289  26.934  1.00  0.00     0.124 S 
ATOM     72  O   UNL A   1      41.624  21.899  25.526  1.00  0.00    -0.237 OA
ATOM     73  O   UNL A   1      42.789  21.808  27.709  1.00  0.00    -0.237 OA
ATOM     74  O   UNL A   1      40.361  22.227  27.615  1.00  0.00    -0.744 OA
ENDBRANCH  67  71
ENDBRANCH  50  64
BRANCH  51  75
ATOM     75  C   UNL A   1      39.190  31.972  35.675  1.00  0.00     0.023 A 
ATOM     76  C   UNL A   1      38.453  31.388  36.718  1.00  0.00     0.031 A 
ATOM     77  C   UNL A   1      39.471  33.347  35.755  1.00  0.00     0.131 A 
ATOM     78  C   UNL A   1      37.984  32.186  37.774  1.00  0.00     0.055 A 
ATOM     79  C   UNL A   1      39.044  34.126  36.832  1.00  0.00     0.041 A 
ATOM     80  F   UNL A   1      40.179  33.953  34.788  1.00  0.00    -0.206 F 
ATOM     81  C   UNL A   1      38.283  33.548  37.844  1.00  0.00     0.022 A 
BRANCH  78  82
ATOM     82  S   UNL A   1      36.905  31.427  39.021  1.00  0.00     0.124 S 
ATOM     83  O   UNL A   1      35.740  32.303  38.980  1.00  0.00    -0.237 OA
ATOM     84  O   UNL A   1      36.720  30.084  38.482  1.00  0.00    -0.237 OA
ATOM     85  O   UNL A   1      37.700  31.500  40.247  1.00  0.00    -0.744 OA
ENDBRANCH  78  82
ENDBRANCH  51  75
BRANCH  63  86
ATOM     86  C   UNL A   1      44.729  27.926  34.421  1.00  0.00     0.023 A 
ATOM     87  C   UNL A   1      44.818  26.780  35.229  1.00  0.00     0.031 A 
ATOM     88  C   UNL A   1      45.827  28.805  34.392  1.00  0.00     0.131 A 
ATOM     89  C   UNL A   1      45.959  26.567  36.015  1.00  0.00     0.055 A 
ATOM     90  C   UNL A   1      46.983  28.558  35.133  1.00  0.00     0.041 A 
ATOM     91  F   UNL A   1      45.792  29.915  33.638  1.00  0.00    -0.206 F 
ATOM     92  C   UNL A   1      47.049  27.441  35.960  1.00  0.00     0.022 A 
BRANCH  89  93
ATOM     93  S   UNL A   1      45.969  25.176  37.178  1.00  0.00     0.124 S 
ATOM     94  O   UNL A   1      44.719  25.380  37.904  1.00  0.00    -0.237 OA
ATOM     95  O   UNL A   1      46.006  24.022  36.285  1.00  0.00    -0.237 OA
ATOM     96  O   UNL A   1      47.184  25.392  37.962  1.00  0.00    -0.744 OA
ENDBRANCH  89  93
ENDBRANCH  63  86
ENDBRANCH  37  38
ENDBRANCH  29  32
ENDBRANCH  27  28
ENDBRANCH  26  27
ENDBRANCH   1  26
TORSDOF 18
ENDMDL
MODEL 3
REMARK VINA RESULT:     -11.1      1.232      1.943
REMARK SMILES [NH3+]C1(CC(=O)N[C@@H]2CCCC[C@H]2C(=O)NCCCCNC(=O)c2ccc(-c3c4nc(c(-c5cc(S(=O)(=O)[O-])ccc5F)c5ccc([nH]5)c(-c5cc(S(=O)(=O)[O-])ccc5F)c5nc(c(-c6cc(S(=O)(=O)[O-])ccc6F)c6ccc3[nH]6)C=C5)C=C4)cc2)CCC1
REMARK SMILES IDX 17 1 16 2 15 3 13 4 14 5 12 7 7 8 8 9 9 10 11 11 10 12 6 13
REMARK SMILES IDX 4 14 5 15 3 17 2 18 86 19 88 20 87 21 1 22 18 26 19 27 20 28
REMARK SMILES IDX 21 29 22 31 23 32 24 33 85 34 25 35 84 36 26 37 27 38 28 39
REMARK SMILES IDX 78 40 29 41 83 42 77 43 79 44 30 45 82 46 76 47 75 48 31 50
REMARK SMILES IDX 63 51 43 52 62 53 44 54 47 55 61 56 80 57 45 58 46 59 60 61
REMARK SMILES IDX 81 62 48 63 32 64 33 65 41 66 34 67 40 68 42 69 39 70 35 71
REMARK SMILES IDX 36 72 37 73 38 74 64 75 65 76 73 77 66 78 72 79 74 80 71 81
REMARK SMILES IDX 67 82 68 83 69 84 70 85 49 86 50 87 58 88 51 89 57 90 59 91
REMARK SMILES IDX 56 92 52 93 53 94 54 95 55 96
REMARK H PARENT 15 6 6 16 1 23 1 24 1 25 20 30 79 49 47 60
REMARK Flexibility Score: inf
ROOT
ATOM      1  C   UNL A   1      32.253  27.713  26.697  1.00  0.00     0.023 C 
ENDROOT
BRANCH   1   2
ATOM      2  C   UNL A   1      31.009  27.145  26.023  1.00  0.00     0.116 C 
BRANCH   2   3
ATOM      3  N   UNL A   1      30.782  25.764  26.383  1.00  0.00    -0.356 N 
ATOM      4  C   UNL A   1      31.352  24.623  25.929  1.00  0.00     0.225 C 
ATOM      5  O   UNL A   1      31.083  23.584  26.536  1.00  0.00    -0.275 OA
ATOM      6  H   UNL A   1      30.097  25.630  27.076  1.00  0.00     0.163 HD
BRANCH   4   7
ATOM      7  C   UNL A   1      32.353  24.617  24.785  1.00  0.00     0.101 C 
ATOM      8  C   UNL A   1      33.041  23.265  24.517  1.00  0.00     0.094 C 
ATOM      9  C   UNL A   1      33.769  23.228  23.159  1.00  0.00     0.026 C 
ATOM     10  C   UNL A   1      32.939  23.794  22.018  1.00  0.00     0.002 C 
ATOM     11  C   UNL A   1      31.714  25.318  23.571  1.00  0.00     0.015 C 
ATOM     12  C   UNL A   1      32.557  25.233  22.309  1.00  0.00     0.001 C 
BRANCH   8  13
ATOM     13  N   UNL A   1      33.982  22.735  25.526  1.00  0.00    -0.352 N 
ATOM     14  C   UNL A   1      34.345  21.496  25.961  1.00  0.00     0.226 C 
ATOM     15  O   UNL A   1      34.675  21.406  27.148  1.00  0.00    -0.275 OA
ATOM     16  H   UNL A   1      34.464  23.452  25.999  1.00  0.00     0.163 HD
BRANCH  14  17
ATOM     17  C   UNL A   1      34.522  20.332  25.021  1.00  0.00     0.168 C 
BRANCH  17  18
ATOM     18  C   UNL A   1      33.525  19.181  25.070  1.00  0.00     0.103 C 
ATOM     19  C   UNL A   1      34.118  17.826  24.568  1.00  0.00     0.069 C 
ATOM     20  C   UNL A   1      32.380  18.967  24.037  1.00  0.00     0.069 C 
ATOM     21  C   UNL A   1      33.313  18.007  23.268  1.00  0.00     0.013 C 
BRANCH  18  22
ATOM     22  N   UNL A   1      32.954  18.943  26.402  1.00  0.00    -0.352 N 
ATOM     23  H   UNL A   1      32.584  19.818  26.774  1.00  0.00     0.344 HD
ATOM     24  H   UNL A   1      33.678  18.588  27.025  1.00  0.00     0.344 HD
ATOM     25  H   UNL A   1      32.200  18.259  26.331  1.00  0.00     0.344 HD
ENDBRANCH  18  22
ENDBRANCH  17  18
ENDBRANCH  14  17
ENDBRANCH   8  13
ENDBRANCH   4   7
ENDBRANCH   2   3
ENDBRANCH   1   2
BRANCH   1  26
ATOM     26  C   UNL A   1      33.456  27.902  25.776  1.00  0.00     0.023 C 
BRANCH  26  27
ATOM     27  C   UNL A   1      34.474  28.939  26.233  1.00  0.00     0.116 C 
BRANCH  27  28
ATOM     28  N   UNL A   1      33.872  30.163  26.736  1.00  0.00    -0.352 N 
ATOM     29  C   UNL A   1      34.362  31.020  27.692  1.00  0.00     0.251 C 
ATOM     30  H   UNL A   1      33.003  30.409  26.343  1.00  0.00     0.163 HD
ATOM     31  O   UNL A   1      33.723  32.007  28.029  1.00  0.00    -0.269 OA
BRANCH  29  32
ATOM     32  C   UNL A   1      35.638  30.674  28.342  1.00  0.00     0.039 A 
ATOM     33  C   UNL A   1      35.613  29.768  29.402  1.00  0.00     0.014 A 
ATOM     34  C   UNL A   1      36.847  31.149  27.826  1.00  0.00     0.014 A 
ATOM     35  C   UNL A   1      36.814  29.280  29.907  1.00  0.00     0.010 A 
ATOM     36  C   UNL A   1      38.040  30.605  28.283  1.00  0.00     0.010 A 
ATOM     37  C   UNL A   1      38.034  29.666  29.327  1.00  0.00    -0.014 A 
BRANCH  37  38
ATOM     38  C   UNL A   1      39.316  29.103  29.815  1.00  0.00     0.031 A 
ATOM     39  C   UNL A   1      40.006  29.742  30.986  1.00  0.00     0.074 A 
ATOM     40  C   UNL A   1      39.875  28.059  29.172  1.00  0.00     0.049 A 
ATOM     41  N   UNL A   1      41.155  29.447  31.531  1.00  0.00    -0.248 NA
ATOM     42  C   UNL A   1      39.322  30.890  31.602  1.00  0.00     0.031 C 
ATOM     43  C   UNL A   1      39.313  27.391  27.995  1.00  0.00     0.029 A 
ATOM     44  N   UNL A   1      41.041  27.378  29.413  1.00  0.00    -0.354 N 
ATOM     45  C   UNL A   1      41.341  30.380  32.546  1.00  0.00     0.074 A 
ATOM     46  C   UNL A   1      40.217  31.289  32.491  1.00  0.00     0.031 C 
ATOM     47  C   UNL A   1      40.122  26.382  27.634  1.00  0.00     0.029 A 
ATOM     48  C   UNL A   1      41.277  26.355  28.525  1.00  0.00     0.049 A 
ATOM     49  H   UNL A   1      41.652  27.601  30.152  1.00  0.00     0.167 HD
ATOM     50  C   UNL A   1      42.344  30.454  33.455  1.00  0.00     0.034 A 
ATOM     51  C   UNL A   1      42.313  25.497  28.439  1.00  0.00     0.034 A 
ATOM     52  C   UNL A   1      43.446  29.524  33.498  1.00  0.00     0.049 A 
ATOM     53  C   UNL A   1      43.422  25.602  29.455  1.00  0.00     0.074 A 
ATOM     54  C   UNL A   1      44.490  29.465  34.405  1.00  0.00     0.029 A 
ATOM     55  N   UNL A   1      43.649  28.493  32.590  1.00  0.00    -0.354 N 
ATOM     56  N   UNL A   1      43.557  26.456  30.444  1.00  0.00    -0.248 NA
ATOM     57  C   UNL A   1      44.510  24.621  29.352  1.00  0.00     0.031 C 
ATOM     58  C   UNL A   1      45.354  28.437  34.010  1.00  0.00     0.029 A 
ATOM     59  C   UNL A   1      44.815  27.808  32.899  1.00  0.00     0.049 A 
ATOM     60  H   UNL A   1      43.053  28.278  31.836  1.00  0.00     0.167 HD
ATOM     61  C   UNL A   1      44.732  26.095  31.099  1.00  0.00     0.074 A 
ATOM     62  C   UNL A   1      45.256  24.938  30.400  1.00  0.00     0.031 C 
ATOM     63  C   UNL A   1      45.323  26.662  32.181  1.00  0.00     0.034 A 
BRANCH  50  64
ATOM     64  C   UNL A   1      42.295  31.589  34.446  1.00  0.00     0.023 A 
ATOM     65  C   UNL A   1      41.439  31.558  35.563  1.00  0.00     0.031 A 
ATOM     66  C   UNL A   1      43.077  32.741  34.252  1.00  0.00     0.131 A 
ATOM     67  C   UNL A   1      41.322  32.685  36.389  1.00  0.00     0.055 A 
ATOM     68  C   UNL A   1      43.020  33.826  35.128  1.00  0.00     0.041 A 
ATOM     69  F   UNL A   1      43.897  32.840  33.194  1.00  0.00    -0.206 F 
ATOM     70  C   UNL A   1      42.125  33.810  36.195  1.00  0.00     0.022 A 
BRANCH  67  71
ATOM     71  S   UNL A   1      39.996  32.716  37.626  1.00  0.00     0.124 S 
ATOM     72  O   UNL A   1      39.106  31.669  37.129  1.00  0.00    -0.237 OA
ATOM     73  O   UNL A   1      40.709  32.415  38.861  1.00  0.00    -0.237 OA
ATOM     74  O   UNL A   1      39.465  34.074  37.526  1.00  0.00    -0.744 OA
ENDBRANCH  67  71
ENDBRANCH  50  64
BRANCH  51  75
ATOM     75  C   UNL A   1      42.360  24.471  27.359  1.00  0.00     0.023 A 
ATOM     76  C   UNL A   1      41.596  23.296  27.444  1.00  0.00     0.031 A 
ATOM     77  C   UNL A   1      43.200  24.632  26.242  1.00  0.00     0.131 A 
ATOM     78  C   UNL A   1      41.721  22.307  26.455  1.00  0.00     0.055 A 
ATOM     79  C   UNL A   1      43.283  23.667  25.236  1.00  0.00     0.041 A 
ATOM     80  F   UNL A   1      43.946  25.740  26.108  1.00  0.00    -0.206 F 
ATOM     81  C   UNL A   1      42.551  22.489  25.347  1.00  0.00     0.022 A 
BRANCH  78  82
ATOM     82  S   UNL A   1      40.836  20.738  26.680  1.00  0.00     0.124 S 
ATOM     83  O   UNL A   1      40.838  20.602  28.132  1.00  0.00    -0.237 OA
ATOM     84  O   UNL A   1      39.547  21.028  26.062  1.00  0.00    -0.237 OA
ATOM     85  O   UNL A   1      41.667  19.774  25.960  1.00  0.00    -0.744 OA
ENDBRANCH  78  82
ENDBRANCH  51  75
BRANCH  63  86
ATOM     86  C   UNL A   1      46.580  26.007  32.693  1.00  0.00     0.023 A 
ATOM     87  C   UNL A   1      46.539  24.961  33.630  1.00  0.00     0.031 A 
ATOM     88  C   UNL A   1      47.838  26.443  32.240  1.00  0.00     0.131 A 
ATOM     89  C   UNL A   1      47.734  24.420  34.124  1.00  0.00     0.055 A 
ATOM     90  C   UNL A   1      49.022  25.861  32.692  1.00  0.00     0.041 A 
ATOM     91  F   UNL A   1      47.933  27.440  31.345  1.00  0.00    -0.206 F 
ATOM     92  C   UNL A   1      48.975  24.853  33.649  1.00  0.00     0.022 A 
BRANCH  89  93
ATOM     93  S   UNL A   1      47.650  23.197  35.462  1.00  0.00     0.124 S 
ATOM     94  O   UNL A   1      46.256  23.307  35.884  1.00  0.00    -0.237 OA
ATOM     95  O   UNL A   1      48.012  21.960  34.778  1.00  0.00    -0.237 OA
ATOM     96  O   UNL A   1      48.631  23.681  36.431  1.00  0.00    -0.744 OA
ENDBRANCH  89  93
ENDBRANCH  63  86
ENDBRANCH  37  38
ENDBRANCH  29  32
ENDBRANCH  27  28
ENDBRANCH  26  27
ENDBRANCH   1  26
TORSDOF 18
ENDMDL
