MODEL 1
REMARK VINA RESULT:     -12.0      0.000      0.000
REMARK SMILES CC[C@](C)([NH3+])C(=O)Nc1ccc(C(F)(F)F)cc1C(=O)NCCCCNC(=O)c1ccc(-c2c3nc(c(-c4cc(S(=O)(=O)[O-])ccc4F)c4ccc([nH]4)c(-c4cc(S(=O)(=O)[O-])ccc4F)c4nc(c(-c5cc(S(=O)(=O)[O-])ccc5F)c5ccc2[nH]5)C=C4)C=C3)cc1
REMARK SMILES IDX 23 1 22 2 21 3 19 4 20 5 18 7 9 8 10 9 11 10 17 11 12 12
REMARK SMILES IDX 8 13 6 14 7 15 3 17 4 18 2 19 1 20 5 21 13 25 14 26 15 27
REMARK SMILES IDX 16 28 24 29 25 30 26 31 27 32 28 34 29 35 30 36 91 37 31 38
REMARK SMILES IDX 90 39 32 40 33 41 34 42 84 43 35 44 89 45 83 46 85 47 36 48
REMARK SMILES IDX 88 49 82 50 81 51 37 53 69 54 49 55 68 56 50 57 53 58 67 59
REMARK SMILES IDX 86 60 51 61 52 62 66 64 87 65 54 66 38 67 39 68 47 69 40 70
REMARK SMILES IDX 46 71 48 72 45 73 41 74 42 75 43 76 44 77 70 78 71 79 79 80
REMARK SMILES IDX 72 81 78 82 80 83 77 84 73 85 74 86 75 87 76 88 55 89 56 90
REMARK SMILES IDX 64 91 57 92 63 93 65 94 62 95 58 96 59 97 60 98 61 99
REMARK H PARENT 21 6 8 16 5 22 5 23 5 24 26 33 85 52 53 63
REMARK Flexibility Score: inf
ROOT
ATOM      1  C   UNL A   1      34.397  21.430  26.723  1.00  0.00     0.023 C 
ENDROOT
BRANCH   1   2
ATOM      2  C   UNL A   1      33.958  22.803  27.227  1.00  0.00     0.116 C 
BRANCH   2   3
ATOM      3  N   UNL A   1      32.542  23.072  27.122  1.00  0.00    -0.352 N 
ATOM      4  C   UNL A   1      31.861  24.176  26.656  1.00  0.00     0.253 C 
ATOM      5  O   UNL A   1      30.630  24.149  26.759  1.00  0.00    -0.269 OA
ATOM      6  H   UNL A   1      31.964  22.342  27.439  1.00  0.00     0.163 HD
BRANCH   4   7
ATOM      7  C   UNL A   1      32.504  25.441  26.145  1.00  0.00     0.063 A 
ATOM      8  C   UNL A   1      33.501  25.589  25.167  1.00  0.00     0.054 A 
ATOM      9  C   UNL A   1      34.181  26.819  25.062  1.00  0.00     0.027 A 
ATOM     10  C   UNL A   1      33.723  27.959  25.716  1.00  0.00     0.015 A 
ATOM     11  C   UNL A   1      32.022  26.626  26.763  1.00  0.00     0.029 A 
ATOM     12  C   UNL A   1      32.578  27.892  26.509  1.00  0.00     0.056 A 
BRANCH   8  13
ATOM     13  N   UNL A   1      33.930  24.657  24.215  1.00  0.00    -0.320 N 
ATOM     14  C   UNL A   1      33.556  24.367  22.933  1.00  0.00     0.285 C 
ATOM     15  O   UNL A   1      34.111  23.359  22.465  1.00  0.00    -0.267 OA
ATOM     16  H   UNL A   1      34.661  24.083  24.540  1.00  0.00     0.170 HD
BRANCH  14  17
ATOM     17  C   UNL A   1      32.703  25.286  22.003  1.00  0.00     0.171 C 
ATOM     18  C   UNL A   1      33.394  26.656  21.906  1.00  0.00     0.090 C 
BRANCH  17  19
ATOM     19  C   UNL A   1      31.269  25.367  22.584  1.00  0.00     0.075 C 
ATOM     20  C   UNL A   1      30.737  24.070  23.183  1.00  0.00     0.011 C 
ENDBRANCH  17  19
BRANCH  17  21
ATOM     21  N   UNL A   1      32.587  24.776  20.632  1.00  0.00    -0.345 N 
ATOM     22  H   UNL A   1      33.222  25.292  20.023  1.00  0.00     0.345 HD
ATOM     23  H   UNL A   1      31.629  24.896  20.305  1.00  0.00     0.345 HD
ATOM     24  H   UNL A   1      32.830  23.786  20.617  1.00  0.00     0.345 HD
ENDBRANCH  17  21
ENDBRANCH  14  17
ENDBRANCH   8  13
BRANCH  12  25
ATOM     25  C   UNL A   1      31.974  29.157  27.067  1.00  0.00     0.416 C 
ATOM     26  F   UNL A   1      31.353  29.908  26.119  1.00  0.00    -0.166 F 
ATOM     27  F   UNL A   1      31.025  28.897  28.014  1.00  0.00    -0.166 F 
ATOM     28  F   UNL A   1      32.878  29.974  27.673  1.00  0.00    -0.166 F 
ENDBRANCH  12  25
ENDBRANCH   4   7
ENDBRANCH   2   3
ENDBRANCH   1   2
BRANCH   1  29
ATOM     29  C   UNL A   1      35.054  21.405  25.335  1.00  0.00     0.023 C 
BRANCH  29  30
ATOM     30  C   UNL A   1      36.488  21.931  25.223  1.00  0.00     0.116 C 
BRANCH  30  31
ATOM     31  N   UNL A   1      37.518  20.906  25.306  1.00  0.00    -0.352 N 
ATOM     32  C   UNL A   1      38.804  20.972  25.793  1.00  0.00     0.251 C 
ATOM     33  H   UNL A   1      37.253  20.025  24.956  1.00  0.00     0.163 HD
ATOM     34  O   UNL A   1      39.541  19.990  25.706  1.00  0.00    -0.269 OA
BRANCH  32  35
ATOM     35  C   UNL A   1      39.325  22.230  26.377  1.00  0.00     0.039 A 
ATOM     36  C   UNL A   1      40.431  22.169  27.229  1.00  0.00     0.014 A 
ATOM     37  C   UNL A   1      38.744  23.466  26.081  1.00  0.00     0.014 A 
ATOM     38  C   UNL A   1      41.023  23.351  27.687  1.00  0.00     0.010 A 
ATOM     39  C   UNL A   1      39.376  24.645  26.481  1.00  0.00     0.010 A 
ATOM     40  C   UNL A   1      40.538  24.600  27.268  1.00  0.00    -0.014 A 
BRANCH  40  41
ATOM     41  C   UNL A   1      41.264  25.858  27.604  1.00  0.00     0.031 A 
ATOM     42  C   UNL A   1      40.599  26.935  28.419  1.00  0.00     0.074 A 
ATOM     43  C   UNL A   1      42.508  26.056  27.119  1.00  0.00     0.049 A 
ATOM     44  N   UNL A   1      41.051  28.117  28.752  1.00  0.00    -0.248 NA
ATOM     45  C   UNL A   1      39.240  26.653  28.901  1.00  0.00     0.031 C 
ATOM     46  C   UNL A   1      43.248  25.109  26.281  1.00  0.00     0.029 A 
ATOM     47  N   UNL A   1      43.369  27.118  27.251  1.00  0.00    -0.354 N 
ATOM     48  C   UNL A   1      40.032  28.725  29.477  1.00  0.00     0.074 A 
ATOM     49  C   UNL A   1      38.918  27.799  29.483  1.00  0.00     0.031 C 
ATOM     50  C   UNL A   1      44.457  25.621  25.999  1.00  0.00     0.029 A 
ATOM     51  C   UNL A   1      44.566  26.950  26.590  1.00  0.00     0.049 A 
ATOM     52  H   UNL A   1      43.152  27.926  27.772  1.00  0.00     0.167 HD
ATOM     53  C   UNL A   1      40.032  29.931  30.099  1.00  0.00     0.034 A 
ATOM     54  C   UNL A   1      45.625  27.775  26.463  1.00  0.00     0.034 A 
ATOM     55  C   UNL A   1      41.150  30.844  30.093  1.00  0.00     0.049 A 
ATOM     56  C   UNL A   1      45.588  29.123  27.139  1.00  0.00     0.074 A 
ATOM     57  C   UNL A   1      41.267  32.068  30.730  1.00  0.00     0.029 A 
ATOM     58  N   UNL A   1      42.343  30.639  29.413  1.00  0.00    -0.354 N 
ATOM     59  N   UNL A   1      44.632  29.658  27.862  1.00  0.00    -0.248 NA
ATOM     60  C   UNL A   1      46.777  29.973  26.991  1.00  0.00     0.031 C 
ATOM     61  C   UNL A   1      42.501  32.630  30.385  1.00  0.00     0.029 A 
ATOM     62  C   UNL A   1      43.188  31.724  29.592  1.00  0.00     0.049 A 
ATOM     63  H   UNL A   1      42.558  29.839  28.880  1.00  0.00     0.167 HD
ATOM     64  C   UNL A   1      45.121  30.893  28.282  1.00  0.00     0.074 A 
ATOM     65  C   UNL A   1      46.460  31.015  27.743  1.00  0.00     0.031 C 
ATOM     66  C   UNL A   1      44.520  31.839  29.046  1.00  0.00     0.034 A 
BRANCH  53  67
ATOM     67  C   UNL A   1      38.770  30.339  30.822  1.00  0.00     0.023 A 
ATOM     68  C   UNL A   1      37.741  31.041  30.171  1.00  0.00     0.031 A 
ATOM     69  C   UNL A   1      38.597  30.033  32.184  1.00  0.00     0.131 A 
ATOM     70  C   UNL A   1      36.620  31.474  30.894  1.00  0.00     0.055 A 
ATOM     71  C   UNL A   1      37.442  30.397  32.880  1.00  0.00     0.041 A 
ATOM     72  F   UNL A   1      39.552  29.380  32.865  1.00  0.00    -0.206 F 
ATOM     73  C   UNL A   1      36.451  31.135  32.238  1.00  0.00     0.022 A 
BRANCH  70  74
ATOM     74  S   UNL A   1      35.447  32.595  30.085  1.00  0.00     0.124 S 
ATOM     75  O   UNL A   1      35.240  31.928  28.802  1.00  0.00    -0.237 OA
ATOM     76  O   UNL A   1      34.313  32.582  31.002  1.00  0.00    -0.237 OA
ATOM     77  O   UNL A   1      36.176  33.860  30.011  1.00  0.00    -0.744 OA
ENDBRANCH  70  74
ENDBRANCH  53  67
BRANCH  54  78
ATOM     78  C   UNL A   1      46.813  27.370  25.655  1.00  0.00     0.023 A 
ATOM     79  C   UNL A   1      46.985  27.834  24.341  1.00  0.00     0.031 A 
ATOM     80  C   UNL A   1      47.761  26.463  26.163  1.00  0.00     0.131 A 
ATOM     81  C   UNL A   1      48.044  27.347  23.559  1.00  0.00     0.055 A 
ATOM     82  C   UNL A   1      48.845  26.026  25.400  1.00  0.00     0.041 A 
ATOM     83  F   UNL A   1      47.647  25.991  27.413  1.00  0.00    -0.206 F 
ATOM     84  C   UNL A   1      48.982  26.456  24.083  1.00  0.00     0.022 A 
BRANCH  81  85
ATOM     85  S   UNL A   1      48.117  27.817  21.808  1.00  0.00     0.124 S 
ATOM     86  O   UNL A   1      46.820  28.455  21.617  1.00  0.00    -0.237 OA
ATOM     87  O   UNL A   1      49.278  28.701  21.781  1.00  0.00    -0.237 OA
ATOM     88  O   UNL A   1      48.293  26.540  21.122  1.00  0.00    -0.744 OA
ENDBRANCH  81  85
ENDBRANCH  54  78
BRANCH  66  89
ATOM     89  C   UNL A   1      45.331  33.066  29.384  1.00  0.00     0.023 A 
ATOM     90  C   UNL A   1      45.301  34.220  28.582  1.00  0.00     0.031 A 
ATOM     91  C   UNL A   1      46.159  33.072  30.521  1.00  0.00     0.131 A 
ATOM     92  C   UNL A   1      46.127  35.311  28.895  1.00  0.00     0.055 A 
ATOM     93  C   UNL A   1      46.934  34.182  30.861  1.00  0.00     0.041 A 
ATOM     94  F   UNL A   1      46.228  31.996  31.322  1.00  0.00    -0.206 F 
ATOM     95  C   UNL A   1      46.931  35.305  30.038  1.00  0.00     0.022 A 
BRANCH  92  96
ATOM     96  S   UNL A   1      46.202  36.708  27.741  1.00  0.00     0.124 S 
ATOM     97  O   UNL A   1      45.109  36.404  26.824  1.00  0.00    -0.237 OA
ATOM     98  O   UNL A   1      45.996  37.853  28.622  1.00  0.00    -0.237 OA
ATOM     99  O   UNL A   1      47.542  36.605  27.163  1.00  0.00    -0.744 OA
ENDBRANCH  92  96
ENDBRANCH  66  89
ENDBRANCH  40  41
ENDBRANCH  32  35
ENDBRANCH  30  31
ENDBRANCH  29  30
ENDBRANCH   1  29
TORSDOF 19
ENDMDL
MODEL 2
REMARK VINA RESULT:     -12.0      5.295      8.206
REMARK SMILES CC[C@](C)([NH3+])C(=O)Nc1ccc(C(F)(F)F)cc1C(=O)NCCCCNC(=O)c1ccc(-c2c3nc(c(-c4cc(S(=O)(=O)[O-])ccc4F)c4ccc([nH]4)c(-c4cc(S(=O)(=O)[O-])ccc4F)c4nc(c(-c5cc(S(=O)(=O)[O-])ccc5F)c5ccc2[nH]5)C=C4)C=C3)cc1
REMARK SMILES IDX 23 1 22 2 21 3 19 4 20 5 18 7 9 8 10 9 11 10 17 11 12 12
REMARK SMILES IDX 8 13 6 14 7 15 3 17 4 18 2 19 1 20 5 21 13 25 14 26 15 27
REMARK SMILES IDX 16 28 24 29 25 30 26 31 27 32 28 34 29 35 30 36 91 37 31 38
REMARK SMILES IDX 90 39 32 40 33 41 34 42 84 43 35 44 89 45 83 46 85 47 36 48
REMARK SMILES IDX 88 49 82 50 81 51 37 53 69 54 49 55 68 56 50 57 53 58 67 59
REMARK SMILES IDX 86 60 51 61 52 62 66 64 87 65 54 66 38 67 39 68 47 69 40 70
REMARK SMILES IDX 46 71 48 72 45 73 41 74 42 75 43 76 44 77 70 78 71 79 79 80
REMARK SMILES IDX 72 81 78 82 80 83 77 84 73 85 74 86 75 87 76 88 55 89 56 90
REMARK SMILES IDX 64 91 57 92 63 93 65 94 62 95 58 96 59 97 60 98 61 99
REMARK H PARENT 21 6 8 16 5 22 5 23 5 24 26 33 85 52 53 63
REMARK Flexibility Score: inf
ROOT
ATOM      1  C   UNL A   1      31.415  30.736  26.335  1.00  0.00     0.023 C 
ENDROOT
BRANCH   1   2
ATOM      2  C   UNL A   1      32.807  30.114  26.239  1.00  0.00     0.116 C 
BRANCH   2   3
ATOM      3  N   UNL A   1      33.261  29.831  24.897  1.00  0.00    -0.352 N 
ATOM      4  C   UNL A   1      32.692  29.088  23.884  1.00  0.00     0.253 C 
ATOM      5  O   UNL A   1      33.359  28.960  22.852  1.00  0.00    -0.269 OA
ATOM      6  H   UNL A   1      34.127  30.237  24.666  1.00  0.00     0.163 HD
BRANCH   4   7
ATOM      7  C   UNL A   1      31.388  28.337  23.986  1.00  0.00     0.063 A 
ATOM      8  C   UNL A   1      31.142  27.072  24.544  1.00  0.00     0.054 A 
ATOM      9  C   UNL A   1      29.925  26.423  24.257  1.00  0.00     0.027 A 
ATOM     10  C   UNL A   1      28.866  27.097  23.657  1.00  0.00     0.015 A 
ATOM     11  C   UNL A   1      30.280  29.023  23.421  1.00  0.00     0.029 A 
ATOM     12  C   UNL A   1      29.005  28.440  23.311  1.00  0.00     0.056 A 
BRANCH   8  13
ATOM     13  N   UNL A   1      31.956  26.329  25.406  1.00  0.00    -0.320 N 
ATOM     14  C   UNL A   1      32.809  25.275  25.237  1.00  0.00     0.285 C 
ATOM     15  O   UNL A   1      33.253  24.814  26.301  1.00  0.00    -0.267 OA
ATOM     16  H   UNL A   1      31.902  26.632  26.342  1.00  0.00     0.170 HD
BRANCH  14  17
ATOM     17  C   UNL A   1      33.395  24.789  23.874  1.00  0.00     0.171 C 
ATOM     18  C   UNL A   1      32.382  23.834  23.221  1.00  0.00     0.090 C 
BRANCH  17  19
ATOM     19  C   UNL A   1      34.770  24.127  24.145  1.00  0.00     0.075 C 
ATOM     20  C   UNL A   1      35.155  23.012  23.182  1.00  0.00     0.011 C 
ENDBRANCH  17  19
BRANCH  17  21
ATOM     21  N   UNL A   1      33.621  25.880  22.919  1.00  0.00    -0.345 N 
ATOM     22  H   UNL A   1      34.407  26.449  23.232  1.00  0.00     0.345 HD
ATOM     23  H   UNL A   1      32.783  26.459  22.860  1.00  0.00     0.345 HD
ATOM     24  H   UNL A   1      33.829  25.489  22.000  1.00  0.00     0.345 HD
ENDBRANCH  17  21
ENDBRANCH  14  17
ENDBRANCH   8  13
BRANCH  12  25
ATOM     25  C   UNL A   1      27.807  29.222  22.833  1.00  0.00     0.416 C 
ATOM     26  F   UNL A   1      26.641  28.535  22.967  1.00  0.00    -0.166 F 
ATOM     27  F   UNL A   1      27.636  30.380  23.537  1.00  0.00    -0.166 F 
ATOM     28  F   UNL A   1      27.883  29.598  21.528  1.00  0.00    -0.166 F 
ENDBRANCH  12  25
ENDBRANCH   4   7
ENDBRANCH   2   3
ENDBRANCH   1   2
BRANCH   1  29
ATOM     29  C   UNL A   1      31.356  32.159  26.910  1.00  0.00     0.023 C 
BRANCH  29  30
ATOM     30  C   UNL A   1      32.621  33.016  26.802  1.00  0.00     0.116 C 
BRANCH  30  31
ATOM     31  N   UNL A   1      32.641  34.181  27.675  1.00  0.00    -0.352 N 
ATOM     32  C   UNL A   1      33.491  34.506  28.708  1.00  0.00     0.251 C 
ATOM     33  H   UNL A   1      31.932  34.842  27.499  1.00  0.00     0.163 HD
ATOM     34  O   UNL A   1      33.286  35.524  29.370  1.00  0.00    -0.269 OA
BRANCH  32  35
ATOM     35  C   UNL A   1      34.620  33.616  29.063  1.00  0.00     0.039 A 
ATOM     36  C   UNL A   1      35.925  34.054  28.819  1.00  0.00     0.014 A 
ATOM     37  C   UNL A   1      34.406  32.364  29.645  1.00  0.00     0.014 A 
ATOM     38  C   UNL A   1      37.010  33.292  29.264  1.00  0.00     0.010 A 
ATOM     39  C   UNL A   1      35.486  31.638  30.150  1.00  0.00     0.010 A 
ATOM     40  C   UNL A   1      36.800  32.107  29.988  1.00  0.00    -0.014 A 
BRANCH  40  41
ATOM     41  C   UNL A   1      37.938  31.380  30.619  1.00  0.00     0.031 A 
ATOM     42  C   UNL A   1      38.358  31.686  32.031  1.00  0.00     0.074 A 
ATOM     43  C   UNL A   1      38.636  30.482  29.892  1.00  0.00     0.049 A 
ATOM     44  N   UNL A   1      39.361  31.204  32.719  1.00  0.00    -0.248 NA
ATOM     45  C   UNL A   1      37.558  32.685  32.754  1.00  0.00     0.031 C 
ATOM     46  C   UNL A   1      38.359  30.124  28.498  1.00  0.00     0.029 A 
ATOM     47  N   UNL A   1      39.726  29.710  30.217  1.00  0.00    -0.354 N 
ATOM     48  C   UNL A   1      39.319  31.841  33.954  1.00  0.00     0.074 A 
ATOM     49  C   UNL A   1      38.224  32.788  33.895  1.00  0.00     0.031 C 
ATOM     50  C   UNL A   1      39.236  29.188  28.100  1.00  0.00     0.029 A 
ATOM     51  C   UNL A   1      40.168  28.910  29.187  1.00  0.00     0.049 A 
ATOM     52  H   UNL A   1      40.151  29.727  31.105  1.00  0.00     0.167 HD
ATOM     53  C   UNL A   1      40.104  31.641  35.043  1.00  0.00     0.034 A 
ATOM     54  C   UNL A   1      41.212  28.059  29.119  1.00  0.00     0.034 A 
ATOM     55  C   UNL A   1      41.188  30.689  35.093  1.00  0.00     0.049 A 
ATOM     56  C   UNL A   1      42.088  27.877  30.333  1.00  0.00     0.074 A 
ATOM     57  C   UNL A   1      42.013  30.378  36.162  1.00  0.00     0.029 A 
ATOM     58  N   UNL A   1      41.605  29.899  34.031  1.00  0.00    -0.354 N 
ATOM     59  N   UNL A   1      42.000  28.454  31.509  1.00  0.00    -0.248 NA
ATOM     60  C   UNL A   1      43.196  26.920  30.215  1.00  0.00     0.031 C 
ATOM     61  C   UNL A   1      42.965  29.449  35.730  1.00  0.00     0.029 A 
ATOM     62  C   UNL A   1      42.691  29.123  34.411  1.00  0.00     0.049 A 
ATOM     63  H   UNL A   1      41.192  29.890  33.138  1.00  0.00     0.167 HD
ATOM     64  C   UNL A   1      43.023  27.903  32.278  1.00  0.00     0.074 A 
ATOM     65  C   UNL A   1      43.701  26.939  31.438  1.00  0.00     0.031 C 
ATOM     66  C   UNL A   1      43.366  28.168  33.564  1.00  0.00     0.034 A 
BRANCH  53  67
ATOM     67  C   UNL A   1      39.827  32.486  36.263  1.00  0.00     0.023 A 
ATOM     68  C   UNL A   1      38.896  32.089  37.239  1.00  0.00     0.031 A 
ATOM     69  C   UNL A   1      40.494  33.710  36.451  1.00  0.00     0.131 A 
ATOM     70  C   UNL A   1      38.605  32.937  38.318  1.00  0.00     0.055 A 
ATOM     71  C   UNL A   1      40.258  34.513  37.569  1.00  0.00     0.041 A 
ATOM     72  F   UNL A   1      41.381  34.152  35.546  1.00  0.00    -0.206 F 
ATOM     73  C   UNL A   1      39.298  34.135  38.503  1.00  0.00     0.022 A 
BRANCH  70  74
ATOM     74  S   UNL A   1      37.218  32.511  39.405  1.00  0.00     0.124 S 
ATOM     75  O   UNL A   1      37.500  31.110  39.707  1.00  0.00    -0.237 OA
ATOM     76  O   UNL A   1      37.382  33.449  40.509  1.00  0.00    -0.237 OA
ATOM     77  O   UNL A   1      36.042  32.735  38.565  1.00  0.00    -0.744 OA
ENDBRANCH  70  74
ENDBRANCH  53  67
BRANCH  54  78
ATOM     78  C   UNL A   1      41.509  27.317  27.858  1.00  0.00     0.023 A 
ATOM     79  C   UNL A   1      41.293  25.933  27.766  1.00  0.00     0.031 A 
ATOM     80  C   UNL A   1      42.074  27.971  26.748  1.00  0.00     0.131 A 
ATOM     81  C   UNL A   1      41.691  25.236  26.614  1.00  0.00     0.055 A 
ATOM     82  C   UNL A   1      42.416  27.283  25.583  1.00  0.00     0.041 A 
ATOM     83  F   UNL A   1      42.299  29.293  26.781  1.00  0.00    -0.206 F 
ATOM     84  C   UNL A   1      42.239  25.904  25.517  1.00  0.00     0.022 A 
BRANCH  81  85
ATOM     85  S   UNL A   1      41.578  23.426  26.612  1.00  0.00     0.124 S 
ATOM     86  O   UNL A   1      42.185  23.088  27.894  1.00  0.00    -0.237 OA
ATOM     87  O   UNL A   1      40.138  23.214  26.508  1.00  0.00    -0.237 OA
ATOM     88  O   UNL A   1      42.349  23.039  25.433  1.00  0.00    -0.744 OA
ENDBRANCH  81  85
ENDBRANCH  54  78
BRANCH  66  89
ATOM     89  C   UNL A   1      44.499  27.361  34.152  1.00  0.00     0.023 A 
ATOM     90  C   UNL A   1      44.289  26.094  34.723  1.00  0.00     0.031 A 
ATOM     91  C   UNL A   1      45.806  27.881  34.153  1.00  0.00     0.131 A 
ATOM     92  C   UNL A   1      45.360  25.411  35.322  1.00  0.00     0.055 A 
ATOM     93  C   UNL A   1      46.877  27.172  34.698  1.00  0.00     0.041 A 
ATOM     94  F   UNL A   1      46.063  29.088  33.624  1.00  0.00    -0.206 F 
ATOM     95  C   UNL A   1      46.655  25.936  35.299  1.00  0.00     0.022 A 
BRANCH  92  96
ATOM     96  S   UNL A   1      45.022  23.866  36.209  1.00  0.00     0.124 S 
ATOM     97  O   UNL A   1      46.215  23.079  35.913  1.00  0.00    -0.237 OA
ATOM     98  O   UNL A   1      44.885  24.321  37.589  1.00  0.00    -0.237 OA
ATOM     99  O   UNL A   1      43.790  23.378  35.593  1.00  0.00    -0.744 OA
ENDBRANCH  92  96
ENDBRANCH  66  89
ENDBRANCH  40  41
ENDBRANCH  32  35
ENDBRANCH  30  31
ENDBRANCH  29  30
ENDBRANCH   1  29
TORSDOF 19
ENDMDL
MODEL 3
REMARK VINA RESULT:     -11.9      5.072      7.646
REMARK SMILES CC[C@](C)([NH3+])C(=O)Nc1ccc(C(F)(F)F)cc1C(=O)NCCCCNC(=O)c1ccc(-c2c3nc(c(-c4cc(S(=O)(=O)[O-])ccc4F)c4ccc([nH]4)c(-c4cc(S(=O)(=O)[O-])ccc4F)c4nc(c(-c5cc(S(=O)(=O)[O-])ccc5F)c5ccc2[nH]5)C=C4)C=C3)cc1
REMARK SMILES IDX 23 1 22 2 21 3 19 4 20 5 18 7 9 8 10 9 11 10 17 11 12 12
REMARK SMILES IDX 8 13 6 14 7 15 3 17 4 18 2 19 1 20 5 21 13 25 14 26 15 27
REMARK SMILES IDX 16 28 24 29 25 30 26 31 27 32 28 34 29 35 30 36 91 37 31 38
REMARK SMILES IDX 90 39 32 40 33 41 34 42 84 43 35 44 89 45 83 46 85 47 36 48
REMARK SMILES IDX 88 49 82 50 81 51 37 53 69 54 49 55 68 56 50 57 53 58 67 59
REMARK SMILES IDX 86 60 51 61 52 62 66 64 87 65 54 66 38 67 39 68 47 69 40 70
REMARK SMILES IDX 46 71 48 72 45 73 41 74 42 75 43 76 44 77 70 78 71 79 79 80
REMARK SMILES IDX 72 81 78 82 80 83 77 84 73 85 74 86 75 87 76 88 55 89 56 90
REMARK SMILES IDX 64 91 57 92 63 93 65 94 62 95 58 96 59 97 60 98 61 99
REMARK H PARENT 21 6 8 16 5 22 5 23 5 24 26 33 85 52 53 63
REMARK Flexibility Score: inf
ROOT
ATOM      1  C   UNL A   1      33.278  28.966  24.224  1.00  0.00     0.023 C 
ENDROOT
BRANCH   1   2
ATOM      2  C   UNL A   1      33.129  28.952  22.704  1.00  0.00     0.116 C 
BRANCH   2   3
ATOM      3  N   UNL A   1      32.925  27.647  22.119  1.00  0.00    -0.352 N 
ATOM      4  C   UNL A   1      31.815  26.830  22.089  1.00  0.00     0.253 C 
ATOM      5  O   UNL A   1      31.961  25.718  21.570  1.00  0.00    -0.269 OA
ATOM      6  H   UNL A   1      33.714  27.277  21.664  1.00  0.00     0.163 HD
BRANCH   4   7
ATOM      7  C   UNL A   1      30.488  27.143  22.735  1.00  0.00     0.063 A 
ATOM      8  C   UNL A   1      29.598  26.271  23.383  1.00  0.00     0.054 A 
ATOM      9  C   UNL A   1      28.281  26.702  23.637  1.00  0.00     0.027 A 
ATOM     10  C   UNL A   1      27.916  28.039  23.501  1.00  0.00     0.015 A 
ATOM     11  C   UNL A   1      30.111  28.509  22.651  1.00  0.00     0.029 A 
ATOM     12  C   UNL A   1      28.860  28.977  23.089  1.00  0.00     0.056 A 
BRANCH   8  13
ATOM     13  N   UNL A   1      29.840  24.977  23.860  1.00  0.00    -0.320 N 
ATOM     14  C   UNL A   1      30.727  24.443  24.751  1.00  0.00     0.285 C 
ATOM     15  O   UNL A   1      30.700  23.202  24.802  1.00  0.00    -0.267 OA
ATOM     16  H   UNL A   1      29.238  24.304  23.466  1.00  0.00     0.170 HD
BRANCH  14  17
ATOM     17  C   UNL A   1      31.558  25.246  25.800  1.00  0.00     0.171 C 
ATOM     18  C   UNL A   1      30.727  26.456  26.258  1.00  0.00     0.090 C 
BRANCH  17  19
ATOM     19  C   UNL A   1      32.907  25.644  25.148  1.00  0.00     0.075 C 
ATOM     20  C   UNL A   1      34.031  25.965  26.126  1.00  0.00     0.011 C 
ENDBRANCH  17  19
BRANCH  17  21
ATOM     21  N   UNL A   1      31.872  24.471  27.007  1.00  0.00    -0.345 N 
ATOM     22  H   UNL A   1      31.271  24.776  27.772  1.00  0.00     0.345 HD
ATOM     23  H   UNL A   1      32.848  24.618  27.261  1.00  0.00     0.345 HD
ATOM     24  H   UNL A   1      31.714  23.481  26.824  1.00  0.00     0.345 HD
ENDBRANCH  17  21
ENDBRANCH  14  17
ENDBRANCH   8  13
BRANCH  12  25
ATOM     25  C   UNL A   1      28.522  30.447  23.118  1.00  0.00     0.416 C 
ATOM     26  F   UNL A   1      29.390  31.173  23.873  1.00  0.00    -0.166 F 
ATOM     27  F   UNL A   1      28.557  31.006  21.873  1.00  0.00    -0.166 F 
ATOM     28  F   UNL A   1      27.278  30.714  23.601  1.00  0.00    -0.166 F 
ENDBRANCH  12  25
ENDBRANCH   4   7
ENDBRANCH   2   3
ENDBRANCH   1   2
BRANCH   1  29
ATOM     29  C   UNL A   1      32.122  29.607  25.004  1.00  0.00     0.023 C 
BRANCH  29  30
ATOM     30  C   UNL A   1      32.371  29.958  26.474  1.00  0.00     0.116 C 
BRANCH  30  31
ATOM     31  N   UNL A   1      32.349  31.382  26.770  1.00  0.00    -0.352 N 
ATOM     32  C   UNL A   1      33.270  32.172  27.421  1.00  0.00     0.251 C 
ATOM     33  H   UNL A   1      31.547  31.858  26.454  1.00  0.00     0.163 HD
ATOM     34  O   UNL A   1      33.020  33.360  27.626  1.00  0.00    -0.269 OA
BRANCH  32  35
ATOM     35  C   UNL A   1      34.537  31.593  27.923  1.00  0.00     0.039 A 
ATOM     36  C   UNL A   1      35.616  32.446  28.170  1.00  0.00     0.014 A 
ATOM     37  C   UNL A   1      34.667  30.223  28.167  1.00  0.00     0.014 A 
ATOM     38  C   UNL A   1      36.778  31.946  28.768  1.00  0.00     0.010 A 
ATOM     39  C   UNL A   1      35.797  29.737  28.826  1.00  0.00     0.010 A 
ATOM     40  C   UNL A   1      36.856  30.599  29.157  1.00  0.00    -0.014 A 
BRANCH  40  41
ATOM     41  C   UNL A   1      38.012  30.094  29.951  1.00  0.00     0.031 A 
ATOM     42  C   UNL A   1      38.260  30.592  31.349  1.00  0.00     0.074 A 
ATOM     43  C   UNL A   1      38.878  29.228  29.385  1.00  0.00     0.049 A 
ATOM     44  N   UNL A   1      39.247  30.316  32.163  1.00  0.00    -0.248 NA
ATOM     45  C   UNL A   1      37.281  31.542  31.894  1.00  0.00     0.031 C 
ATOM     46  C   UNL A   1      38.776  28.701  28.021  1.00  0.00     0.029 A 
ATOM     47  N   UNL A   1      40.020  28.643  29.876  1.00  0.00    -0.354 N 
ATOM     48  C   UNL A   1      39.015  31.061  33.313  1.00  0.00     0.074 A 
ATOM     49  C   UNL A   1      37.822  31.845  33.065  1.00  0.00     0.031 C 
ATOM     50  C   UNL A   1      39.794  27.854  27.798  1.00  0.00     0.029 A 
ATOM     51  C   UNL A   1      40.650  27.810  28.978  1.00  0.00     0.049 A 
ATOM     52  H   UNL A   1      40.357  28.803  30.787  1.00  0.00     0.167 HD
ATOM     53  C   UNL A   1      39.716  31.075  34.475  1.00  0.00     0.034 A 
ATOM     54  C   UNL A   1      41.792  27.101  29.085  1.00  0.00     0.034 A 
ATOM     55  C   UNL A   1      40.899  30.284  34.715  1.00  0.00     0.049 A 
ATOM     56  C   UNL A   1      42.569  27.158  30.378  1.00  0.00     0.074 A 
ATOM     57  C   UNL A   1      41.654  30.192  35.872  1.00  0.00     0.029 A 
ATOM     58  N   UNL A   1      41.506  29.455  33.782  1.00  0.00    -0.354 N 
ATOM     59  N   UNL A   1      42.304  27.832  31.472  1.00  0.00    -0.248 NA
ATOM     60  C   UNL A   1      43.793  26.348  30.452  1.00  0.00     0.031 C 
ATOM     61  C   UNL A   1      42.749  29.358  35.620  1.00  0.00     0.029 A 
ATOM     62  C   UNL A   1      42.639  28.870  34.328  1.00  0.00     0.049 A 
ATOM     63  H   UNL A   1      41.180  29.303  32.865  1.00  0.00     0.167 HD
ATOM     64  C   UNL A   1      43.312  27.499  32.375  1.00  0.00     0.074 A 
ATOM     65  C   UNL A   1      44.177  26.554  31.701  1.00  0.00     0.031 C 
ATOM     66  C   UNL A   1      43.501  27.932  33.647  1.00  0.00     0.034 A 
BRANCH  53  67
ATOM     67  C   UNL A   1      39.226  31.993  35.570  1.00  0.00     0.023 A 
ATOM     68  C   UNL A   1      39.660  33.327  35.662  1.00  0.00     0.031 A 
ATOM     69  C   UNL A   1      38.322  31.527  36.542  1.00  0.00     0.131 A 
ATOM     70  C   UNL A   1      39.248  34.127  36.739  1.00  0.00     0.055 A 
ATOM     71  C   UNL A   1      37.853  32.352  37.566  1.00  0.00     0.041 A 
ATOM     72  F   UNL A   1      37.885  30.258  36.517  1.00  0.00    -0.206 F 
ATOM     73  C   UNL A   1      38.327  33.656  37.677  1.00  0.00     0.022 A 
BRANCH  70  74
ATOM     74  S   UNL A   1      40.030  35.746  36.965  1.00  0.00     0.124 S 
ATOM     75  O   UNL A   1      41.440  35.378  37.081  1.00  0.00    -0.237 OA
ATOM     76  O   UNL A   1      39.653  36.453  35.747  1.00  0.00    -0.237 OA
ATOM     77  O   UNL A   1      39.422  36.252  38.195  1.00  0.00    -0.744 OA
ENDBRANCH  70  74
ENDBRANCH  53  67
BRANCH  54  78
ATOM     78  C   UNL A   1      42.292  26.284  27.941  1.00  0.00     0.023 A 
ATOM     79  C   UNL A   1      41.825  24.977  27.727  1.00  0.00     0.031 A 
ATOM     80  C   UNL A   1      43.292  26.775  27.082  1.00  0.00     0.131 A 
ATOM     81  C   UNL A   1      42.396  24.185  26.719  1.00  0.00     0.055 A 
ATOM     82  C   UNL A   1      43.816  26.002  26.044  1.00  0.00     0.041 A 
ATOM     83  F   UNL A   1      43.772  28.018  27.239  1.00  0.00    -0.206 F 
ATOM     84  C   UNL A   1      43.380  24.693  25.868  1.00  0.00     0.022 A 
BRANCH  81  85
ATOM     85  S   UNL A   1      41.907  22.442  26.603  1.00  0.00     0.124 S 
ATOM     86  O   UNL A   1      42.575  22.026  25.376  1.00  0.00    -0.237 OA
ATOM     87  O   UNL A   1      42.445  21.894  27.845  1.00  0.00    -0.237 OA
ATOM     88  O   UNL A   1      40.449  22.503  26.532  1.00  0.00    -0.744 OA
ENDBRANCH  81  85
ENDBRANCH  54  78
BRANCH  66  89
ATOM     89  C   UNL A   1      44.665  27.345  34.406  1.00  0.00     0.023 A 
ATOM     90  C   UNL A   1      44.539  26.167  35.163  1.00  0.00     0.031 A 
ATOM     91  C   UNL A   1      45.917  27.986  34.382  1.00  0.00     0.131 A 
ATOM     92  C   UNL A   1      45.630  25.696  35.911  1.00  0.00     0.055 A 
ATOM     93  C   UNL A   1      47.014  27.481  35.081  1.00  0.00     0.041 A 
ATOM     94  F   UNL A   1      46.093  29.115  33.678  1.00  0.00    -0.206 F 
ATOM     95  C   UNL A   1      46.871  26.337  35.862  1.00  0.00     0.022 A 
BRANCH  92  96
ATOM     96  S   UNL A   1      45.383  24.282  37.019  1.00  0.00     0.124 S 
ATOM     97  O   UNL A   1      44.421  24.813  37.979  1.00  0.00    -0.237 OA
ATOM     98  O   UNL A   1      44.878  23.258  36.110  1.00  0.00    -0.237 OA
ATOM     99  O   UNL A   1      46.719  24.029  37.556  1.00  0.00    -0.744 OA
ENDBRANCH  92  96
ENDBRANCH  66  89
ENDBRANCH  40  41
ENDBRANCH  32  35
ENDBRANCH  30  31
ENDBRANCH  29  30
ENDBRANCH   1  29
TORSDOF 19
ENDMDL
