MODEL 1
REMARK VINA RESULT:     -11.8      0.000      0.000
REMARK SMILES CC[N@@H+]1CCO[C@H](c2nc(C)c(C(=O)NCCCCNC(=O)c3ccc(-c4c5nc(c(-c6cc(S(=O)(=O)[O-])ccc6F)c6ccc([nH]6)c(-c6cc(S(=O)(=O)[O-])ccc6F)c6nc(c(-c7cc(S(=O)(=O)[O-])ccc7F)c7ccc4[nH]7)C=C6)C=C5)cc3)s2)C1
REMARK SMILES IDX 18 1 17 2 16 3 15 4 13 5 14 6 12 8 8 9 9 10 86 11 10 12
REMARK SMILES IDX 11 13 7 14 3 15 4 16 87 17 5 19 6 20 2 21 1 22 19 23 20 24
REMARK SMILES IDX 21 25 22 27 23 28 24 29 85 30 25 31 84 32 26 33 27 34 28 35
REMARK SMILES IDX 78 36 29 37 83 38 77 39 79 40 30 41 82 42 76 43 75 44 31 46
REMARK SMILES IDX 63 47 43 48 62 49 44 50 47 51 61 52 80 53 45 54 46 55 60 57
REMARK SMILES IDX 81 58 48 59 32 60 33 61 41 62 34 63 40 64 42 65 39 66 35 67
REMARK SMILES IDX 36 68 37 69 38 70 64 71 65 72 73 73 66 74 72 75 74 76 71 77
REMARK SMILES IDX 67 78 68 79 69 80 70 81 49 82 50 83 58 84 51 85 57 86 59 87
REMARK SMILES IDX 56 88 52 89 53 90 54 91 55 92
REMARK H PARENT 15 7 3 18 20 26 79 45 47 56
REMARK Flexibility Score: inf
ROOT
ATOM      1  C   UNL A   1      35.665  21.169  25.343  1.00  0.00     0.023 C 
ENDROOT
BRANCH   1   2
ATOM      2  C   UNL A   1      34.830  21.774  26.471  1.00  0.00     0.023 C 
BRANCH   2   3
ATOM      3  C   UNL A   1      33.440  21.155  26.611  1.00  0.00     0.116 C 
BRANCH   3   4
ATOM      4  N   UNL A   1      32.498  22.161  27.018  1.00  0.00    -0.351 N 
ATOM      5  C   UNL A   1      32.267  23.444  26.604  1.00  0.00     0.263 C 
ATOM      6  O   UNL A   1      31.481  24.046  27.348  1.00  0.00    -0.268 OA
ATOM      7  H   UNL A   1      31.895  21.866  27.739  1.00  0.00     0.163 HD
BRANCH   5   8
ATOM      8  C   UNL A   1      32.784  24.044  25.378  1.00  0.00     0.115 A 
ATOM      9  C   UNL A   1      33.450  25.994  24.078  1.00  0.00     0.128 A 
ATOM     10  N   UNL A   1      33.076  25.023  23.275  1.00  0.00    -0.243 NA
ATOM     11  S   UNL A   1      33.828  25.428  25.645  1.00  0.00    -0.110 S 
ATOM     12  C   UNL A   1      32.763  23.870  23.994  1.00  0.00     0.062 A 
ATOM     13  C   UNL A   1      32.399  22.725  23.123  1.00  0.00     0.068 C 
BRANCH   9  14
ATOM     14  C   UNL A   1      33.608  27.445  23.683  1.00  0.00     0.232 C 
ATOM     15  N   UNL A   1      31.959  28.790  25.191  1.00  0.00    -0.331 N 
ATOM     16  C   UNL A   1      31.159  28.950  23.960  1.00  0.00     0.291 C 
ATOM     17  C   UNL A   1      33.365  28.499  24.801  1.00  0.00     0.302 C 
ATOM     18  H   UNL A   1      31.923  29.660  25.722  1.00  0.00     0.348 HD
ATOM     19  C   UNL A   1      31.374  27.837  22.921  1.00  0.00     0.222 C 
ATOM     20  O   UNL A   1      32.754  27.728  22.547  1.00  0.00    -0.359 OA
BRANCH  15  21
ATOM     21  C   UNL A   1      31.410  27.782  26.111  1.00  0.00     0.258 C 
ATOM     22  C   UNL A   1      31.663  28.109  27.578  1.00  0.00     0.071 C 
ENDBRANCH  15  21
ENDBRANCH   9  14
ENDBRANCH   5   8
ENDBRANCH   3   4
ENDBRANCH   2   3
ENDBRANCH   1   2
BRANCH   1  23
ATOM     23  C   UNL A   1      37.114  21.646  25.316  1.00  0.00     0.116 C 
BRANCH  23  24
ATOM     24  N   UNL A   1      38.078  20.574  25.519  1.00  0.00    -0.352 N 
ATOM     25  C   UNL A   1      39.339  20.646  26.064  1.00  0.00     0.251 C 
ATOM     26  H   UNL A   1      37.788  19.679  25.226  1.00  0.00     0.163 HD
ATOM     27  O   UNL A   1      40.058  19.664  26.082  1.00  0.00    -0.269 OA
BRANCH  25  28
ATOM     28  C   UNL A   1      39.812  21.949  26.572  1.00  0.00     0.039 A 
ATOM     29  C   UNL A   1      40.838  21.964  27.517  1.00  0.00     0.014 A 
ATOM     30  C   UNL A   1      39.293  23.141  26.060  1.00  0.00     0.014 A 
ATOM     31  C   UNL A   1      41.400  23.184  27.896  1.00  0.00     0.010 A 
ATOM     32  C   UNL A   1      39.901  24.347  26.385  1.00  0.00     0.010 A 
ATOM     33  C   UNL A   1      40.964  24.378  27.301  1.00  0.00    -0.014 A 
BRANCH  33  34
ATOM     34  C   UNL A   1      41.609  25.675  27.620  1.00  0.00     0.031 A 
ATOM     35  C   UNL A   1      40.849  26.714  28.394  1.00  0.00     0.074 A 
ATOM     36  C   UNL A   1      42.842  25.939  27.145  1.00  0.00     0.049 A 
ATOM     37  N   UNL A   1      41.193  27.939  28.694  1.00  0.00    -0.248 NA
ATOM     38  C   UNL A   1      39.508  26.334  28.861  1.00  0.00     0.031 C 
ATOM     39  C   UNL A   1      43.652  25.025  26.337  1.00  0.00     0.029 A 
ATOM     40  N   UNL A   1      43.625  27.059  27.262  1.00  0.00    -0.354 N 
ATOM     41  C   UNL A   1      40.106  28.482  29.369  1.00  0.00     0.074 A 
ATOM     42  C   UNL A   1      39.069  27.471  29.377  1.00  0.00     0.031 C 
ATOM     43  C   UNL A   1      44.825  25.612  26.049  1.00  0.00     0.029 A 
ATOM     44  C   UNL A   1      44.835  26.957  26.616  1.00  0.00     0.049 A 
ATOM     45  H   UNL A   1      43.347  27.861  27.761  1.00  0.00     0.167 HD
ATOM     46  C   UNL A   1      39.992  29.702  29.949  1.00  0.00     0.034 A 
ATOM     47  C   UNL A   1      45.835  27.851  26.489  1.00  0.00     0.034 A 
ATOM     48  C   UNL A   1      41.045  30.688  29.948  1.00  0.00     0.049 A 
ATOM     49  C   UNL A   1      45.689  29.200  27.145  1.00  0.00     0.074 A 
ATOM     50  C   UNL A   1      41.064  31.933  30.554  1.00  0.00     0.029 A 
ATOM     51  N   UNL A   1      42.268  30.541  29.305  1.00  0.00    -0.354 N 
ATOM     52  N   UNL A   1      44.673  29.681  27.826  1.00  0.00    -0.248 NA
ATOM     53  C   UNL A   1      46.827  30.120  27.028  1.00  0.00     0.031 C 
ATOM     54  C   UNL A   1      42.273  32.559  30.231  1.00  0.00     0.029 A 
ATOM     55  C   UNL A   1      43.038  31.681  29.479  1.00  0.00     0.049 A 
ATOM     56  H   UNL A   1      42.547  29.745  28.799  1.00  0.00     0.167 HD
ATOM     57  C   UNL A   1      45.064  30.950  28.241  1.00  0.00     0.074 A 
ATOM     58  C   UNL A   1      46.410  31.152  27.746  1.00  0.00     0.031 C 
ATOM     59  C   UNL A   1      44.375  31.866  28.968  1.00  0.00     0.034 A 
BRANCH  46  60
ATOM     60  C   UNL A   1      38.675  30.033  30.609  1.00  0.00     0.023 A 
ATOM     61  C   UNL A   1      37.654  30.707  29.915  1.00  0.00     0.031 A 
ATOM     62  C   UNL A   1      38.452  29.711  31.958  1.00  0.00     0.131 A 
ATOM     63  C   UNL A   1      36.495  31.111  30.594  1.00  0.00     0.055 A 
ATOM     64  C   UNL A   1      37.259  30.042  32.606  1.00  0.00     0.041 A 
ATOM     65  F   UNL A   1      39.397  29.086  32.678  1.00  0.00    -0.206 F 
ATOM     66  C   UNL A   1      36.279  30.761  31.929  1.00  0.00     0.022 A 
BRANCH  63  67
ATOM     67  S   UNL A   1      35.345  32.230  29.749  1.00  0.00     0.124 S 
ATOM     68  O   UNL A   1      36.234  33.316  29.345  1.00  0.00    -0.237 OA
ATOM     69  O   UNL A   1      34.826  31.394  28.673  1.00  0.00    -0.237 OA
ATOM     70  O   UNL A   1      34.379  32.579  30.790  1.00  0.00    -0.744 OA
ENDBRANCH  63  67
ENDBRANCH  46  60
BRANCH  47  71
ATOM     71  C   UNL A   1      47.059  27.511  25.712  1.00  0.00     0.023 A 
ATOM     72  C   UNL A   1      47.163  27.836  24.350  1.00  0.00     0.031 A 
ATOM     73  C   UNL A   1      48.128  26.820  26.310  1.00  0.00     0.131 A 
ATOM     74  C   UNL A   1      48.290  27.432  23.618  1.00  0.00     0.055 A 
ATOM     75  C   UNL A   1      49.268  26.460  25.588  1.00  0.00     0.041 A 
ATOM     76  F   UNL A   1      48.084  26.494  27.611  1.00  0.00    -0.206 F 
ATOM     77  C   UNL A   1      49.347  26.755  24.230  1.00  0.00     0.022 A 
BRANCH  74  78
ATOM     78  S   UNL A   1      48.318  27.738  21.831  1.00  0.00     0.124 S 
ATOM     79  O   UNL A   1      49.432  28.670  21.707  1.00  0.00    -0.237 OA
ATOM     80  O   UNL A   1      48.539  26.398  21.298  1.00  0.00    -0.237 OA
ATOM     81  O   UNL A   1      46.997  28.304  21.563  1.00  0.00    -0.744 OA
ENDBRANCH  74  78
ENDBRANCH  47  71
BRANCH  59  82
ATOM     82  C   UNL A   1      45.093  33.148  29.303  1.00  0.00     0.023 A 
ATOM     83  C   UNL A   1      45.063  34.258  28.440  1.00  0.00     0.031 A 
ATOM     84  C   UNL A   1      45.828  33.253  30.497  1.00  0.00     0.131 A 
ATOM     85  C   UNL A   1      45.800  35.408  28.759  1.00  0.00     0.055 A 
ATOM     86  C   UNL A   1      46.514  34.421  30.834  1.00  0.00     0.041 A 
ATOM     87  F   UNL A   1      45.890  32.223  31.354  1.00  0.00    -0.206 F 
ATOM     88  C   UNL A   1      46.512  35.502  29.958  1.00  0.00     0.022 A 
BRANCH  85  89
ATOM     89  S   UNL A   1      45.880  36.754  27.546  1.00  0.00     0.124 S 
ATOM     90  O   UNL A   1      44.639  37.475  27.811  1.00  0.00    -0.237 OA
ATOM     91  O   UNL A   1      47.110  37.443  27.924  1.00  0.00    -0.237 OA
ATOM     92  O   UNL A   1      45.930  36.057  26.263  1.00  0.00    -0.744 OA
ENDBRANCH  85  89
ENDBRANCH  59  82
ENDBRANCH  33  34
ENDBRANCH  25  28
ENDBRANCH  23  24
ENDBRANCH   1  23
TORSDOF 16
ENDMDL
MODEL 2
REMARK VINA RESULT:     -11.6      4.990     10.168
REMARK SMILES CC[N@@H+]1CCO[C@H](c2nc(C)c(C(=O)NCCCCNC(=O)c3ccc(-c4c5nc(c(-c6cc(S(=O)(=O)[O-])ccc6F)c6ccc([nH]6)c(-c6cc(S(=O)(=O)[O-])ccc6F)c6nc(c(-c7cc(S(=O)(=O)[O-])ccc7F)c7ccc4[nH]7)C=C6)C=C5)cc3)s2)C1
REMARK SMILES IDX 18 1 17 2 16 3 15 4 13 5 14 6 12 8 8 9 9 10 86 11 10 12
REMARK SMILES IDX 11 13 7 14 3 15 4 16 87 17 5 19 6 20 2 21 1 22 19 23 20 24
REMARK SMILES IDX 21 25 22 27 23 28 24 29 85 30 25 31 84 32 26 33 27 34 28 35
REMARK SMILES IDX 78 36 29 37 83 38 77 39 79 40 30 41 82 42 76 43 75 44 31 46
REMARK SMILES IDX 63 47 43 48 62 49 44 50 47 51 61 52 80 53 45 54 46 55 60 57
REMARK SMILES IDX 81 58 48 59 32 60 33 61 41 62 34 63 40 64 42 65 39 66 35 67
REMARK SMILES IDX 36 68 37 69 38 70 64 71 65 72 73 73 66 74 72 75 74 76 71 77
REMARK SMILES IDX 67 78 68 79 69 80 70 81 49 82 50 83 58 84 51 85 57 86 59 87
REMARK SMILES IDX 56 88 52 89 53 90 54 91 55 92
REMARK H PARENT 15 7 3 18 20 26 79 45 47 56
REMARK Flexibility Score: inf
ROOT
ATOM      1  C   UNL A   1      31.668  29.198  25.120  1.00  0.00     0.023 C 
ENDROOT
BRANCH   1   2
ATOM      2  C   UNL A   1      31.798  29.046  23.605  1.00  0.00     0.023 C 
BRANCH   2   3
ATOM      3  C   UNL A   1      33.239  28.904  23.120  1.00  0.00     0.116 C 
BRANCH   3   4
ATOM      4  N   UNL A   1      33.363  27.733  22.294  1.00  0.00    -0.351 N 
ATOM      5  C   UNL A   1      33.283  26.394  22.560  1.00  0.00     0.263 C 
ATOM      6  O   UNL A   1      33.640  25.700  21.598  1.00  0.00    -0.268 OA
ATOM      7  H   UNL A   1      33.538  27.937  21.347  1.00  0.00     0.163 HD
BRANCH   5   8
ATOM      8  C   UNL A   1      32.747  25.804  23.782  1.00  0.00     0.115 A 
ATOM      9  C   UNL A   1      32.968  24.328  25.708  1.00  0.00     0.128 A 
ATOM     10  N   UNL A   1      31.700  24.470  25.393  1.00  0.00    -0.243 NA
ATOM     11  S   UNL A   1      33.943  25.563  25.043  1.00  0.00    -0.110 S 
ATOM     12  C   UNL A   1      31.543  25.372  24.339  1.00  0.00     0.062 A 
ATOM     13  C   UNL A   1      30.121  25.615  23.992  1.00  0.00     0.068 C 
BRANCH   9  14
ATOM     14  C   UNL A   1      33.529  23.252  26.610  1.00  0.00     0.232 C 
ATOM     15  N   UNL A   1      35.197  21.880  25.148  1.00  0.00    -0.331 N 
ATOM     16  C   UNL A   1      34.167  20.823  25.185  1.00  0.00     0.291 C 
ATOM     17  C   UNL A   1      34.982  22.784  26.309  1.00  0.00     0.302 C 
ATOM     18  H   UNL A   1      36.118  21.446  25.217  1.00  0.00     0.348 HD
ATOM     19  C   UNL A   1      32.737  21.345  25.402  1.00  0.00     0.222 C 
ATOM     20  O   UNL A   1      32.636  22.111  26.609  1.00  0.00    -0.359 OA
BRANCH  15  21
ATOM     21  C   UNL A   1      35.236  22.606  23.869  1.00  0.00     0.258 C 
ATOM     22  C   UNL A   1      36.651  22.828  23.349  1.00  0.00     0.071 C 
ENDBRANCH  15  21
ENDBRANCH   9  14
ENDBRANCH   5   8
ENDBRANCH   3   4
ENDBRANCH   2   3
ENDBRANCH   1   2
BRANCH   1  23
ATOM     23  C   UNL A   1      32.810  29.975  25.768  1.00  0.00     0.116 C 
BRANCH  23  24
ATOM     24  N   UNL A   1      32.398  31.265  26.305  1.00  0.00    -0.352 N 
ATOM     25  C   UNL A   1      33.031  32.044  27.246  1.00  0.00     0.251 C 
ATOM     26  H   UNL A   1      31.556  31.626  25.946  1.00  0.00     0.163 HD
ATOM     27  O   UNL A   1      32.505  33.063  27.654  1.00  0.00    -0.269 OA
BRANCH  25  28
ATOM     28  C   UNL A   1      34.327  31.584  27.784  1.00  0.00     0.039 A 
ATOM     29  C   UNL A   1      35.361  32.511  27.915  1.00  0.00     0.014 A 
ATOM     30  C   UNL A   1      34.487  30.267  28.220  1.00  0.00     0.014 A 
ATOM     31  C   UNL A   1      36.540  32.133  28.559  1.00  0.00     0.010 A 
ATOM     32  C   UNL A   1      35.631  29.914  28.923  1.00  0.00     0.010 A 
ATOM     33  C   UNL A   1      36.665  30.845  29.104  1.00  0.00    -0.014 A 
BRANCH  33  34
ATOM     34  C   UNL A   1      37.872  30.451  29.872  1.00  0.00     0.031 A 
ATOM     35  C   UNL A   1      38.839  29.463  29.284  1.00  0.00     0.074 A 
ATOM     36  C   UNL A   1      38.048  30.923  31.121  1.00  0.00     0.049 A 
ATOM     37  N   UNL A   1      39.897  28.918  29.824  1.00  0.00    -0.248 NA
ATOM     38  C   UNL A   1      38.554  29.000  27.918  1.00  0.00     0.031 C 
ATOM     39  C   UNL A   1      37.145  31.846  31.813  1.00  0.00     0.029 A 
ATOM     40  N   UNL A   1      39.040  30.681  32.037  1.00  0.00    -0.354 N 
ATOM     41  C   UNL A   1      40.395  28.036  28.873  1.00  0.00     0.074 A 
ATOM     42  C   UNL A   1      39.484  28.074  27.748  1.00  0.00     0.031 C 
ATOM     43  C   UNL A   1      37.636  32.109  33.036  1.00  0.00     0.029 A 
ATOM     44  C   UNL A   1      38.863  31.344  33.230  1.00  0.00     0.049 A 
ATOM     45  H   UNL A   1      39.805  30.090  31.859  1.00  0.00     0.167 HD
ATOM     46  C   UNL A   1      41.521  27.282  28.924  1.00  0.00     0.034 A 
ATOM     47  C   UNL A   1      39.605  31.328  34.355  1.00  0.00     0.034 A 
ATOM     48  C   UNL A   1      42.426  27.274  30.047  1.00  0.00     0.049 A 
ATOM     49  C   UNL A   1      40.854  30.486  34.388  1.00  0.00     0.074 A 
ATOM     50  C   UNL A   1      43.625  26.596  30.185  1.00  0.00     0.029 A 
ATOM     51  N   UNL A   1      42.229  27.976  31.229  1.00  0.00    -0.354 N 
ATOM     52  N   UNL A   1      41.341  29.695  33.459  1.00  0.00    -0.248 NA
ATOM     53  C   UNL A   1      41.659  30.544  35.614  1.00  0.00     0.031 C 
ATOM     54  C   UNL A   1      44.124  26.845  31.468  1.00  0.00     0.029 A 
ATOM     55  C   UNL A   1      43.271  27.730  32.110  1.00  0.00     0.049 A 
ATOM     56  H   UNL A   1      41.461  28.563  31.415  1.00  0.00     0.167 HD
ATOM     57  C   UNL A   1      42.525  29.184  33.981  1.00  0.00     0.074 A 
ATOM     58  C   UNL A   1      42.684  29.766  35.298  1.00  0.00     0.031 C 
ATOM     59  C   UNL A   1      43.404  28.314  33.423  1.00  0.00     0.034 A 
BRANCH  46  60
ATOM     60  C   UNL A   1      41.812  26.395  27.738  1.00  0.00     0.023 A 
ATOM     61  C   UNL A   1      41.372  25.059  27.693  1.00  0.00     0.031 A 
ATOM     62  C   UNL A   1      42.574  26.873  26.659  1.00  0.00     0.131 A 
ATOM     63  C   UNL A   1      41.768  24.227  26.636  1.00  0.00     0.055 A 
ATOM     64  C   UNL A   1      42.894  26.061  25.567  1.00  0.00     0.041 A 
ATOM     65  F   UNL A   1      43.039  28.131  26.654  1.00  0.00    -0.206 F 
ATOM     66  C   UNL A   1      42.505  24.725  25.560  1.00  0.00     0.022 A 
BRANCH  63  67
ATOM     67  S   UNL A   1      41.434  22.449  26.765  1.00  0.00     0.124 S 
ATOM     68  O   UNL A   1      42.125  22.109  28.006  1.00  0.00    -0.237 OA
ATOM     69  O   UNL A   1      39.977  22.405  26.812  1.00  0.00    -0.237 OA
ATOM     70  O   UNL A   1      42.036  21.898  25.553  1.00  0.00    -0.744 OA
ENDBRANCH  63  67
ENDBRANCH  46  60
BRANCH  47  71
ATOM     71  C   UNL A   1      39.193  32.127  35.543  1.00  0.00     0.023 A 
ATOM     72  C   UNL A   1      39.624  33.453  35.705  1.00  0.00     0.031 A 
ATOM     73  C   UNL A   1      38.392  31.565  36.552  1.00  0.00     0.131 A 
ATOM     74  C   UNL A   1      39.292  34.159  36.872  1.00  0.00     0.055 A 
ATOM     75  C   UNL A   1      38.027  32.287  37.690  1.00  0.00     0.041 A 
ATOM     76  F   UNL A   1      37.945  30.304  36.441  1.00  0.00    -0.206 F 
ATOM     77  C   UNL A   1      38.488  33.588  37.860  1.00  0.00     0.022 A 
BRANCH  74  78
ATOM     78  S   UNL A   1      39.994  35.814  37.112  1.00  0.00     0.124 S 
ATOM     79  O   UNL A   1      41.400  35.509  37.348  1.00  0.00    -0.237 OA
ATOM     80  O   UNL A   1      39.682  36.462  35.844  1.00  0.00    -0.237 OA
ATOM     81  O   UNL A   1      39.263  36.328  38.269  1.00  0.00    -0.744 OA
ENDBRANCH  74  78
ENDBRANCH  47  71
BRANCH  59  82
ATOM     82  C   UNL A   1      44.636  27.982  34.227  1.00  0.00     0.023 A 
ATOM     83  C   UNL A   1      44.678  26.871  35.087  1.00  0.00     0.031 A 
ATOM     84  C   UNL A   1      45.777  28.799  34.138  1.00  0.00     0.131 A 
ATOM     85  C   UNL A   1      45.821  26.637  35.867  1.00  0.00     0.055 A 
ATOM     86  C   UNL A   1      46.930  28.529  34.875  1.00  0.00     0.041 A 
ATOM     87  F   UNL A   1      45.788  29.872  33.333  1.00  0.00    -0.206 F 
ATOM     88  C   UNL A   1      46.952  27.450  35.755  1.00  0.00     0.022 A 
BRANCH  85  89
ATOM     89  S   UNL A   1      45.780  25.300  37.091  1.00  0.00     0.124 S 
ATOM     90  O   UNL A   1      44.348  25.042  37.209  1.00  0.00    -0.237 OA
ATOM     91  O   UNL A   1      46.564  24.256  36.440  1.00  0.00    -0.237 OA
ATOM     92  O   UNL A   1      46.401  25.897  38.272  1.00  0.00    -0.744 OA
ENDBRANCH  85  89
ENDBRANCH  59  82
ENDBRANCH  33  34
ENDBRANCH  25  28
ENDBRANCH  23  24
ENDBRANCH   1  23
TORSDOF 16
ENDMDL
MODEL 3
REMARK VINA RESULT:     -11.5      5.247     10.726
REMARK SMILES CC[N@@H+]1CCO[C@H](c2nc(C)c(C(=O)NCCCCNC(=O)c3ccc(-c4c5nc(c(-c6cc(S(=O)(=O)[O-])ccc6F)c6ccc([nH]6)c(-c6cc(S(=O)(=O)[O-])ccc6F)c6nc(c(-c7cc(S(=O)(=O)[O-])ccc7F)c7ccc4[nH]7)C=C6)C=C5)cc3)s2)C1
REMARK SMILES IDX 18 1 17 2 16 3 15 4 13 5 14 6 12 8 8 9 9 10 86 11 10 12
REMARK SMILES IDX 11 13 7 14 3 15 4 16 87 17 5 19 6 20 2 21 1 22 19 23 20 24
REMARK SMILES IDX 21 25 22 27 23 28 24 29 85 30 25 31 84 32 26 33 27 34 28 35
REMARK SMILES IDX 78 36 29 37 83 38 77 39 79 40 30 41 82 42 76 43 75 44 31 46
REMARK SMILES IDX 63 47 43 48 62 49 44 50 47 51 61 52 80 53 45 54 46 55 60 57
REMARK SMILES IDX 81 58 48 59 32 60 33 61 41 62 34 63 40 64 42 65 39 66 35 67
REMARK SMILES IDX 36 68 37 69 38 70 64 71 65 72 73 73 66 74 72 75 74 76 71 77
REMARK SMILES IDX 67 78 68 79 69 80 70 81 49 82 50 83 58 84 51 85 57 86 59 87
REMARK SMILES IDX 56 88 52 89 53 90 54 91 55 92
REMARK H PARENT 15 7 3 18 20 26 79 45 47 56
REMARK Flexibility Score: inf
ROOT
ATOM      1  C   UNL A   1      31.262  31.511  26.503  1.00  0.00     0.023 C 
ENDROOT
BRANCH   1   2
ATOM      2  C   UNL A   1      31.432  30.158  25.814  1.00  0.00     0.023 C 
BRANCH   2   3
ATOM      3  C   UNL A   1      32.875  29.660  25.777  1.00  0.00     0.116 C 
BRANCH   3   4
ATOM      4  N   UNL A   1      33.340  29.613  24.418  1.00  0.00    -0.351 N 
ATOM      5  C   UNL A   1      33.409  28.609  23.491  1.00  0.00     0.263 C 
ATOM      6  O   UNL A   1      34.057  28.937  22.487  1.00  0.00    -0.268 OA
ATOM      7  H   UNL A   1      33.675  30.478  24.086  1.00  0.00     0.163 HD
BRANCH   5   8
ATOM      8  C   UNL A   1      32.726  27.323  23.584  1.00  0.00     0.115 A 
ATOM      9  C   UNL A   1      32.619  24.931  23.129  1.00  0.00     0.128 A 
ATOM     10  N   UNL A   1      31.406  25.421  23.255  1.00  0.00    -0.243 NA
ATOM     11  S   UNL A   1      33.805  25.957  23.808  1.00  0.00    -0.110 S 
ATOM     12  C   UNL A   1      31.444  26.775  23.592  1.00  0.00     0.062 A 
ATOM     13  C   UNL A   1      30.096  27.355  23.810  1.00  0.00     0.068 C 
BRANCH   9  14
ATOM     14  C   UNL A   1      32.962  23.589  22.524  1.00  0.00     0.232 C 
ATOM     15  N   UNL A   1      32.824  21.861  24.473  1.00  0.00    -0.331 N 
ATOM     16  C   UNL A   1      34.298  21.835  24.388  1.00  0.00     0.291 C 
ATOM     17  C   UNL A   1      32.289  22.345  23.171  1.00  0.00     0.302 C 
ATOM     18  H   UNL A   1      32.487  20.915  24.651  1.00  0.00     0.348 HD
ATOM     19  C   UNL A   1      34.919  23.120  23.818  1.00  0.00     0.222 C 
ATOM     20  O   UNL A   1      34.402  23.420  22.515  1.00  0.00    -0.359 OA
BRANCH  15  21
ATOM     21  C   UNL A   1      32.324  22.644  25.613  1.00  0.00     0.258 C 
ATOM     22  C   UNL A   1      30.829  22.469  25.850  1.00  0.00     0.071 C 
ENDBRANCH  15  21
ENDBRANCH   9  14
ENDBRANCH   5   8
ENDBRANCH   3   4
ENDBRANCH   2   3
ENDBRANCH   1   2
BRANCH   1  23
ATOM     23  C   UNL A   1      32.568  32.271  26.714  1.00  0.00     0.116 C 
BRANCH  23  24
ATOM     24  N   UNL A   1      32.382  33.575  27.336  1.00  0.00    -0.352 N 
ATOM     25  C   UNL A   1      33.155  34.184  28.297  1.00  0.00     0.251 C 
ATOM     26  H   UNL A   1      31.600  34.087  27.028  1.00  0.00     0.163 HD
ATOM     27  O   UNL A   1      32.811  35.247  28.780  1.00  0.00    -0.269 OA
BRANCH  25  28
ATOM     28  C   UNL A   1      34.374  33.493  28.763  1.00  0.00     0.039 A 
ATOM     29  C   UNL A   1      35.579  34.196  28.771  1.00  0.00     0.014 A 
ATOM     30  C   UNL A   1      34.305  32.187  29.254  1.00  0.00     0.014 A 
ATOM     31  C   UNL A   1      36.707  33.612  29.347  1.00  0.00     0.010 A 
ATOM     32  C   UNL A   1      35.410  31.636  29.890  1.00  0.00     0.010 A 
ATOM     33  C   UNL A   1      36.619  32.346  29.947  1.00  0.00    -0.014 A 
BRANCH  33  34
ATOM     34  C   UNL A   1      37.781  31.744  30.645  1.00  0.00     0.031 A 
ATOM     35  C   UNL A   1      38.618  30.712  29.945  1.00  0.00     0.074 A 
ATOM     36  C   UNL A   1      38.029  32.073  31.928  1.00  0.00     0.049 A 
ATOM     37  N   UNL A   1      39.613  30.000  30.406  1.00  0.00    -0.248 NA
ATOM     38  C   UNL A   1      38.262  30.415  28.549  1.00  0.00     0.031 C 
ATOM     39  C   UNL A   1      37.250  33.024  32.725  1.00  0.00     0.029 A 
ATOM     40  N   UNL A   1      38.999  31.633  32.793  1.00  0.00    -0.354 N 
ATOM     41  C   UNL A   1      39.991  29.160  29.366  1.00  0.00     0.074 A 
ATOM     42  C   UNL A   1      39.075  29.409  28.272  1.00  0.00     0.031 C 
ATOM     43  C   UNL A   1      37.785  33.112  33.953  1.00  0.00     0.029 A 
ATOM     44  C   UNL A   1      38.917  32.196  34.046  1.00  0.00     0.049 A 
ATOM     45  H   UNL A   1      39.687  30.977  32.542  1.00  0.00     0.167 HD
ATOM     46  C   UNL A   1      41.021  28.280  29.319  1.00  0.00     0.034 A 
ATOM     47  C   UNL A   1      39.667  31.989  35.146  1.00  0.00     0.034 A 
ATOM     48  C   UNL A   1      41.935  28.061  30.414  1.00  0.00     0.049 A 
ATOM     49  C   UNL A   1      40.809  31.009  35.070  1.00  0.00     0.074 A 
ATOM     50  C   UNL A   1      43.048  27.240  30.459  1.00  0.00     0.029 A 
ATOM     51  N   UNL A   1      41.837  28.667  31.660  1.00  0.00    -0.354 N 
ATOM     52  N   UNL A   1      41.188  30.258  34.061  1.00  0.00    -0.248 NA
ATOM     53  C   UNL A   1      41.633  30.858  36.276  1.00  0.00     0.031 C 
ATOM     54  C   UNL A   1      43.590  27.308  31.747  1.00  0.00     0.029 A 
ATOM     55  C   UNL A   1      42.856  28.220  32.488  1.00  0.00     0.049 A 
ATOM     56  H   UNL A   1      41.146  29.318  31.919  1.00  0.00     0.167 HD
ATOM     57  C   UNL A   1      42.311  29.567  34.504  1.00  0.00     0.074 A 
ATOM     58  C   UNL A   1      42.555  30.000  35.864  1.00  0.00     0.031 C 
ATOM     59  C   UNL A   1      43.075  28.658  33.846  1.00  0.00     0.034 A 
BRANCH  46  60
ATOM     60  C   UNL A   1      41.190  27.481  28.049  1.00  0.00     0.023 A 
ATOM     61  C   UNL A   1      40.844  26.118  27.986  1.00  0.00     0.031 A 
ATOM     62  C   UNL A   1      41.742  28.073  26.901  1.00  0.00     0.131 A 
ATOM     63  C   UNL A   1      41.132  25.376  26.832  1.00  0.00     0.055 A 
ATOM     64  C   UNL A   1      41.949  27.347  25.726  1.00  0.00     0.041 A 
ATOM     65  F   UNL A   1      42.111  29.363  26.907  1.00  0.00    -0.206 F 
ATOM     66  C   UNL A   1      41.658  25.986  25.692  1.00  0.00     0.022 A 
BRANCH  63  67
ATOM     67  S   UNL A   1      40.947  23.573  26.897  1.00  0.00     0.124 S 
ATOM     68  O   UNL A   1      39.520  23.414  26.627  1.00  0.00    -0.237 OA
ATOM     69  O   UNL A   1      41.851  23.126  25.843  1.00  0.00    -0.237 OA
ATOM     70  O   UNL A   1      41.359  23.234  28.258  1.00  0.00    -0.744 OA
ENDBRANCH  63  67
ENDBRANCH  46  60
BRANCH  47  71
ATOM     71  C   UNL A   1      39.368  32.714  36.412  1.00  0.00     0.023 A 
ATOM     72  C   UNL A   1      38.490  32.171  37.364  1.00  0.00     0.031 A 
ATOM     73  C   UNL A   1      39.926  33.978  36.672  1.00  0.00     0.131 A 
ATOM     74  C   UNL A   1      38.159  32.910  38.510  1.00  0.00     0.055 A 
ATOM     75  C   UNL A   1      39.628  34.689  37.836  1.00  0.00     0.041 A 
ATOM     76  F   UNL A   1      40.778  34.537  35.799  1.00  0.00    -0.206 F 
ATOM     77  C   UNL A   1      38.729  34.160  38.757  1.00  0.00     0.022 A 
BRANCH  74  78
ATOM     78  S   UNL A   1      36.907  32.242  39.639  1.00  0.00     0.124 S 
ATOM     79  O   UNL A   1      37.193  30.813  39.589  1.00  0.00    -0.237 OA
ATOM     80  O   UNL A   1      37.234  32.918  40.889  1.00  0.00    -0.237 OA
ATOM     81  O   UNL A   1      35.644  32.648  39.024  1.00  0.00    -0.744 OA
ENDBRANCH  74  78
ENDBRANCH  47  71
BRANCH  59  82
ATOM     82  C   UNL A   1      44.270  28.113  34.585  1.00  0.00     0.023 A 
ATOM     83  C   UNL A   1      44.213  26.892  35.280  1.00  0.00     0.031 A 
ATOM     84  C   UNL A   1      45.477  28.833  34.603  1.00  0.00     0.131 A 
ATOM     85  C   UNL A   1      45.329  26.453  36.010  1.00  0.00     0.055 A 
ATOM     86  C   UNL A   1      46.600  28.364  35.285  1.00  0.00     0.041 A 
ATOM     87  F   UNL A   1      45.584  30.004  33.956  1.00  0.00    -0.206 F 
ATOM     88  C   UNL A   1      46.526  27.174  36.004  1.00  0.00     0.022 A 
BRANCH  85  89
ATOM     89  S   UNL A   1      45.168  24.966  37.034  1.00  0.00     0.124 S 
ATOM     90  O   UNL A   1      46.562  24.585  37.237  1.00  0.00    -0.237 OA
ATOM     91  O   UNL A   1      44.467  25.470  38.211  1.00  0.00    -0.237 OA
ATOM     92  O   UNL A   1      44.393  24.054  36.195  1.00  0.00    -0.744 OA
ENDBRANCH  85  89
ENDBRANCH  59  82
ENDBRANCH  33  34
ENDBRANCH  25  28
ENDBRANCH  23  24
ENDBRANCH   1  23
TORSDOF 16
ENDMDL
