MODEL 1
REMARK VINA RESULT:     -11.6      0.000      0.000
REMARK SMILES CC[C@@](C)(NS(=O)(=O)c1ccc(F)c(F)c1)C(=O)NCCCCNC(=O)c1ccc(-c2c3nc(c(-c4cc(S(=O)(=O)[O-])ccc4F)c4ccc([nH]4)c(-c4cc(S(=O)(=O)[O-])ccc4F)c4nc(c(-c5cc(S(=O)(=O)[O-])ccc5F)c5ccc2[nH]5)C=C4)C=C3)cc1
REMARK SMILES IDX 21 1 20 2 19 3 17 4 18 5 3 7 4 8 2 9 1 10 5 11 6 13 7 14
REMARK SMILES IDX 8 15 9 16 10 17 16 18 11 19 14 20 12 21 15 22 13 23 22 24
REMARK SMILES IDX 23 25 24 26 25 27 26 29 27 30 28 31 89 32 29 33 88 34 30 35
REMARK SMILES IDX 31 36 32 37 82 38 33 39 87 40 81 41 83 42 34 43 86 44 80 45
REMARK SMILES IDX 79 46 35 48 67 49 47 50 66 51 48 52 51 53 65 54 84 55 49 56
REMARK SMILES IDX 50 57 64 59 85 60 52 61 36 62 37 63 45 64 38 65 44 66 46 67
REMARK SMILES IDX 43 68 39 69 40 70 41 71 42 72 68 73 69 74 77 75 70 76 76 77
REMARK SMILES IDX 78 78 75 79 71 80 72 81 73 82 74 83 53 84 54 85 62 86 55 87
REMARK SMILES IDX 61 88 63 89 60 90 56 91 57 92 58 93 59 94
REMARK H PARENT 19 6 5 12 24 28 83 47 51 58
REMARK Flexibility Score: inf
ROOT
ATOM      1  C   UNL A   1      31.522  30.692  26.058  1.00  0.00     0.023 C 
ENDROOT
BRANCH   1   2
ATOM      2  C   UNL A   1      32.891  30.020  25.914  1.00  0.00     0.116 C 
BRANCH   2   3
ATOM      3  N   UNL A   1      33.298  29.645  24.565  1.00  0.00    -0.354 N 
ATOM      4  C   UNL A   1      32.894  28.724  23.644  1.00  0.00     0.241 C 
ATOM      5  O   UNL A   1      33.228  29.010  22.485  1.00  0.00    -0.273 OA
ATOM      6  H   UNL A   1      34.051  30.190  24.239  1.00  0.00     0.163 HD
BRANCH   4   7
ATOM      7  C   UNL A   1      32.209  27.362  23.937  1.00  0.00     0.108 C 
ATOM      8  C   UNL A   1      32.873  26.623  25.098  1.00  0.00     0.040 C 
BRANCH   7   9
ATOM      9  C   UNL A   1      30.682  27.576  24.330  1.00  0.00     0.030 C 
ATOM     10  C   UNL A   1      29.615  27.720  23.261  1.00  0.00     0.006 C 
ENDBRANCH   7   9
BRANCH   7  11
ATOM     11  N   UNL A   1      32.006  26.490  22.744  1.00  0.00    -0.196 NA
ATOM     12  H   UNL A   1      31.632  27.132  22.045  1.00  0.00     0.142 HD
BRANCH  11  13
ATOM     13  S   UNL A   1      33.013  25.526  21.870  1.00  0.00     0.241 S 
ATOM     14  O   UNL A   1      32.401  25.315  20.581  1.00  0.00    -0.207 OA
ATOM     15  O   UNL A   1      34.281  26.220  21.950  1.00  0.00    -0.207 OA
BRANCH  13  16
ATOM     16  C   UNL A   1      33.289  23.975  22.699  1.00  0.00     0.085 A 
ATOM     17  C   UNL A   1      32.211  23.075  22.755  1.00  0.00     0.025 A 
ATOM     18  C   UNL A   1      34.511  23.597  23.251  1.00  0.00     0.064 A 
ATOM     19  C   UNL A   1      32.339  21.852  23.427  1.00  0.00     0.044 A 
ATOM     20  C   UNL A   1      34.608  22.414  23.986  1.00  0.00     0.160 A 
ATOM     21  C   UNL A   1      33.531  21.545  24.073  1.00  0.00     0.158 A 
ATOM     22  F   UNL A   1      35.749  22.140  24.634  1.00  0.00    -0.204 F 
ATOM     23  F   UNL A   1      33.633  20.409  24.775  1.00  0.00    -0.204 F 
ENDBRANCH  13  16
ENDBRANCH  11  13
ENDBRANCH   7  11
ENDBRANCH   4   7
ENDBRANCH   2   3
ENDBRANCH   1   2
BRANCH   1  24
ATOM     24  C   UNL A   1      31.450  31.972  26.878  1.00  0.00     0.023 C 
BRANCH  24  25
ATOM     25  C   UNL A   1      32.799  32.571  27.214  1.00  0.00     0.116 C 
BRANCH  25  26
ATOM     26  N   UNL A   1      32.682  33.982  27.553  1.00  0.00    -0.352 N 
ATOM     27  C   UNL A   1      33.258  34.680  28.587  1.00  0.00     0.251 C 
ATOM     28  H   UNL A   1      32.108  34.513  26.954  1.00  0.00     0.163 HD
ATOM     29  O   UNL A   1      32.806  35.778  28.897  1.00  0.00    -0.269 OA
BRANCH  27  30
ATOM     30  C   UNL A   1      34.406  34.103  29.323  1.00  0.00     0.039 A 
ATOM     31  C   UNL A   1      35.709  34.390  28.903  1.00  0.00     0.014 A 
ATOM     32  C   UNL A   1      34.199  33.252  30.411  1.00  0.00     0.014 A 
ATOM     33  C   UNL A   1      36.793  33.847  29.596  1.00  0.00     0.010 A 
ATOM     34  C   UNL A   1      35.274  32.825  31.177  1.00  0.00     0.010 A 
ATOM     35  C   UNL A   1      36.583  33.076  30.752  1.00  0.00    -0.014 A 
BRANCH  35  36
ATOM     36  C   UNL A   1      37.709  32.443  31.484  1.00  0.00     0.031 A 
ATOM     37  C   UNL A   1      38.449  31.294  30.848  1.00  0.00     0.074 A 
ATOM     38  C   UNL A   1      38.026  32.862  32.724  1.00  0.00     0.049 A 
ATOM     39  N   UNL A   1      39.400  30.544  31.342  1.00  0.00    -0.248 NA
ATOM     40  C   UNL A   1      38.033  30.909  29.489  1.00  0.00     0.031 C 
ATOM     41  C   UNL A   1      37.347  33.934  33.454  1.00  0.00     0.029 A 
ATOM     42  N   UNL A   1      38.998  32.434  33.592  1.00  0.00    -0.354 N 
ATOM     43  C   UNL A   1      39.679  29.594  30.363  1.00  0.00     0.074 A 
ATOM     44  C   UNL A   1      38.736  29.807  29.288  1.00  0.00     0.031 C 
ATOM     45  C   UNL A   1      37.945  34.103  34.644  1.00  0.00     0.029 A 
ATOM     46  C   UNL A   1      39.013  33.121  34.785  1.00  0.00     0.049 A 
ATOM     47  H   UNL A   1      39.625  31.706  33.382  1.00  0.00     0.167 HD
ATOM     48  C   UNL A   1      40.655  28.654  30.346  1.00  0.00     0.034 A 
ATOM     49  C   UNL A   1      39.794  32.962  35.872  1.00  0.00     0.034 A 
ATOM     50  C   UNL A   1      41.596  28.473  31.423  1.00  0.00     0.049 A 
ATOM     51  C   UNL A   1      40.860  31.895  35.843  1.00  0.00     0.074 A 
ATOM     52  C   UNL A   1      42.656  27.589  31.502  1.00  0.00     0.029 A 
ATOM     53  N   UNL A   1      41.584  29.190  32.614  1.00  0.00    -0.354 N 
ATOM     54  N   UNL A   1      41.144  31.036  34.889  1.00  0.00    -0.248 NA
ATOM     55  C   UNL A   1      41.718  31.784  37.028  1.00  0.00     0.031 C 
ATOM     56  C   UNL A   1      43.238  27.719  32.768  1.00  0.00     0.029 A 
ATOM     57  C   UNL A   1      42.600  28.746  33.446  1.00  0.00     0.049 A 
ATOM     58  H   UNL A   1      40.947  29.908  32.834  1.00  0.00     0.167 HD
ATOM     59  C   UNL A   1      42.235  30.304  35.350  1.00  0.00     0.074 A 
ATOM     60  C   UNL A   1      42.565  30.836  36.657  1.00  0.00     0.031 C 
ATOM     61  C   UNL A   1      42.905  29.287  34.750  1.00  0.00     0.034 A 
BRANCH  48  62
ATOM     62  C   UNL A   1      40.732  27.750  29.136  1.00  0.00     0.023 A 
ATOM     63  C   UNL A   1      41.694  27.943  28.127  1.00  0.00     0.031 A 
ATOM     64  C   UNL A   1      39.807  26.705  28.966  1.00  0.00     0.131 A 
ATOM     65  C   UNL A   1      41.656  27.166  26.960  1.00  0.00     0.055 A 
ATOM     66  C   UNL A   1      39.833  25.873  27.843  1.00  0.00     0.041 A 
ATOM     67  F   UNL A   1      38.849  26.482  29.878  1.00  0.00    -0.206 F 
ATOM     68  C   UNL A   1      40.750  26.111  26.824  1.00  0.00     0.022 A 
BRANCH  65  69
ATOM     69  S   UNL A   1      42.696  27.656  25.558  1.00  0.00     0.124 S 
ATOM     70  O   UNL A   1      43.970  27.931  26.219  1.00  0.00    -0.237 OA
ATOM     71  O   UNL A   1      42.661  26.472  24.708  1.00  0.00    -0.237 OA
ATOM     72  O   UNL A   1      42.017  28.832  25.020  1.00  0.00    -0.744 OA
ENDBRANCH  65  69
ENDBRANCH  48  62
BRANCH  49  73
ATOM     73  C   UNL A   1      39.598  33.821  37.075  1.00  0.00     0.023 A 
ATOM     74  C   UNL A   1      39.037  33.304  38.254  1.00  0.00     0.031 A 
ATOM     75  C   UNL A   1      39.940  35.185  37.054  1.00  0.00     0.131 A 
ATOM     76  C   UNL A   1      38.790  34.154  39.344  1.00  0.00     0.055 A 
ATOM     77  C   UNL A   1      39.748  36.013  38.162  1.00  0.00     0.041 A 
ATOM     78  F   UNL A   1      40.482  35.733  35.954  1.00  0.00    -0.206 F 
ATOM     79  C   UNL A   1      39.156  35.501  39.311  1.00  0.00     0.022 A 
BRANCH  76  80
ATOM     80  S   UNL A   1      37.894  33.493  40.776  1.00  0.00     0.124 S 
ATOM     81  O   UNL A   1      38.620  32.255  41.035  1.00  0.00    -0.237 OA
ATOM     82  O   UNL A   1      38.069  34.556  41.760  1.00  0.00    -0.237 OA
ATOM     83  O   UNL A   1      36.532  33.325  40.278  1.00  0.00    -0.744 OA
ENDBRANCH  76  80
ENDBRANCH  49  73
BRANCH  61  84
ATOM     84  C   UNL A   1      44.094  28.720  35.488  1.00  0.00     0.023 A 
ATOM     85  C   UNL A   1      43.970  27.633  36.370  1.00  0.00     0.031 A 
ATOM     86  C   UNL A   1      45.371  29.281  35.305  1.00  0.00     0.131 A 
ATOM     87  C   UNL A   1      45.090  27.182  37.083  1.00  0.00     0.055 A 
ATOM     88  C   UNL A   1      46.494  28.782  35.964  1.00  0.00     0.041 A 
ATOM     89  F   UNL A   1      45.548  30.324  34.477  1.00  0.00    -0.206 F 
ATOM     90  C   UNL A   1      46.356  27.736  36.870  1.00  0.00     0.022 A 
BRANCH  87  91
ATOM     91  S   UNL A   1      44.853  25.929  38.372  1.00  0.00     0.124 S 
ATOM     92  O   UNL A   1      44.162  26.690  39.409  1.00  0.00    -0.237 OA
ATOM     93  O   UNL A   1      44.054  24.919  37.685  1.00  0.00    -0.237 OA
ATOM     94  O   UNL A   1      46.215  25.519  38.707  1.00  0.00    -0.744 OA
ENDBRANCH  87  91
ENDBRANCH  61  84
ENDBRANCH  35  36
ENDBRANCH  27  30
ENDBRANCH  25  26
ENDBRANCH  24  25
ENDBRANCH   1  24
TORSDOF 18
ENDMDL
MODEL 2
REMARK VINA RESULT:     -11.3      2.720      3.774
REMARK SMILES CC[C@@](C)(NS(=O)(=O)c1ccc(F)c(F)c1)C(=O)NCCCCNC(=O)c1ccc(-c2c3nc(c(-c4cc(S(=O)(=O)[O-])ccc4F)c4ccc([nH]4)c(-c4cc(S(=O)(=O)[O-])ccc4F)c4nc(c(-c5cc(S(=O)(=O)[O-])ccc5F)c5ccc2[nH]5)C=C4)C=C3)cc1
REMARK SMILES IDX 21 1 20 2 19 3 17 4 18 5 3 7 4 8 2 9 1 10 5 11 6 13 7 14
REMARK SMILES IDX 8 15 9 16 10 17 16 18 11 19 14 20 12 21 15 22 13 23 22 24
REMARK SMILES IDX 23 25 24 26 25 27 26 29 27 30 28 31 89 32 29 33 88 34 30 35
REMARK SMILES IDX 31 36 32 37 82 38 33 39 87 40 81 41 83 42 34 43 86 44 80 45
REMARK SMILES IDX 79 46 35 48 67 49 47 50 66 51 48 52 51 53 65 54 84 55 49 56
REMARK SMILES IDX 50 57 64 59 85 60 52 61 36 62 37 63 45 64 38 65 44 66 46 67
REMARK SMILES IDX 43 68 39 69 40 70 41 71 42 72 68 73 69 74 77 75 70 76 76 77
REMARK SMILES IDX 78 78 75 79 71 80 72 81 73 82 74 83 53 84 54 85 62 86 55 87
REMARK SMILES IDX 61 88 63 89 60 90 56 91 57 92 58 93 59 94
REMARK H PARENT 19 6 5 12 24 28 83 47 51 58
REMARK Flexibility Score: inf
ROOT
ATOM      1  C   UNL A   1      31.886  30.313  26.469  1.00  0.00     0.023 C 
ENDROOT
BRANCH   1   2
ATOM      2  C   UNL A   1      33.233  29.621  26.696  1.00  0.00     0.116 C 
BRANCH   2   3
ATOM      3  N   UNL A   1      33.931  29.140  25.509  1.00  0.00    -0.354 N 
ATOM      4  C   UNL A   1      33.593  28.417  24.404  1.00  0.00     0.241 C 
ATOM      5  O   UNL A   1      34.369  28.583  23.451  1.00  0.00    -0.273 OA
ATOM      6  H   UNL A   1      34.880  29.402  25.504  1.00  0.00     0.163 HD
BRANCH   4   7
ATOM      7  C   UNL A   1      32.457  27.363  24.300  1.00  0.00     0.108 C 
ATOM      8  C   UNL A   1      32.742  26.317  23.223  1.00  0.00     0.040 C 
BRANCH   7   9
ATOM      9  C   UNL A   1      32.288  26.585  25.677  1.00  0.00     0.030 C 
ATOM     10  C   UNL A   1      31.352  25.396  25.790  1.00  0.00     0.006 C 
ENDBRANCH   7   9
BRANCH   7  11
ATOM     11  N   UNL A   1      31.081  27.929  24.200  1.00  0.00    -0.196 NA
ATOM     12  H   UNL A   1      31.199  28.892  24.514  1.00  0.00     0.142 HD
BRANCH  11  13
ATOM     13  S   UNL A   1      30.007  28.065  22.960  1.00  0.00     0.241 S 
ATOM     14  O   UNL A   1      30.644  27.540  21.777  1.00  0.00    -0.207 OA
ATOM     15  O   UNL A   1      28.823  27.414  23.479  1.00  0.00    -0.207 OA
BRANCH  13  16
ATOM     16  C   UNL A   1      29.526  29.762  22.717  1.00  0.00     0.085 A 
ATOM     17  C   UNL A   1      29.440  30.576  23.859  1.00  0.00     0.025 A 
ATOM     18  C   UNL A   1      29.275  30.325  21.468  1.00  0.00     0.064 A 
ATOM     19  C   UNL A   1      29.027  31.911  23.752  1.00  0.00     0.044 A 
ATOM     20  C   UNL A   1      28.788  31.630  21.377  1.00  0.00     0.160 A 
ATOM     21  C   UNL A   1      28.666  32.420  22.510  1.00  0.00     0.158 A 
ATOM     22  F   UNL A   1      28.411  32.104  20.181  1.00  0.00    -0.204 F 
ATOM     23  F   UNL A   1      28.205  33.674  22.415  1.00  0.00    -0.204 F 
ENDBRANCH  13  16
ENDBRANCH  11  13
ENDBRANCH   7  11
ENDBRANCH   4   7
ENDBRANCH   2   3
ENDBRANCH   1   2
BRANCH   1  24
ATOM     24  C   UNL A   1      31.749  31.755  26.934  1.00  0.00     0.023 C 
BRANCH  24  25
ATOM     25  C   UNL A   1      33.064  32.434  27.249  1.00  0.00     0.116 C 
BRANCH  25  26
ATOM     26  N   UNL A   1      32.863  33.815  27.663  1.00  0.00    -0.352 N 
ATOM     27  C   UNL A   1      33.373  34.481  28.751  1.00  0.00     0.251 C 
ATOM     28  H   UNL A   1      32.276  34.348  27.080  1.00  0.00     0.163 HD
ATOM     29  O   UNL A   1      32.855  35.534  29.109  1.00  0.00    -0.269 OA
BRANCH  27  30
ATOM     30  C   UNL A   1      34.533  33.925  29.485  1.00  0.00     0.039 A 
ATOM     31  C   UNL A   1      35.811  34.439  29.248  1.00  0.00     0.014 A 
ATOM     32  C   UNL A   1      34.365  32.871  30.387  1.00  0.00     0.014 A 
ATOM     33  C   UNL A   1      36.905  33.915  29.940  1.00  0.00     0.010 A 
ATOM     34  C   UNL A   1      35.429  32.446  31.169  1.00  0.00     0.010 A 
ATOM     35  C   UNL A   1      36.719  32.928  30.921  1.00  0.00    -0.014 A 
BRANCH  35  36
ATOM     36  C   UNL A   1      37.864  32.315  31.641  1.00  0.00     0.031 A 
ATOM     37  C   UNL A   1      38.651  31.215  30.972  1.00  0.00     0.074 A 
ATOM     38  C   UNL A   1      38.158  32.704  32.896  1.00  0.00     0.049 A 
ATOM     39  N   UNL A   1      39.627  30.487  31.448  1.00  0.00    -0.248 NA
ATOM     40  C   UNL A   1      38.258  30.861  29.598  1.00  0.00     0.031 C 
ATOM     41  C   UNL A   1      37.434  33.724  33.656  1.00  0.00     0.029 A 
ATOM     42  N   UNL A   1      39.140  32.284  33.756  1.00  0.00    -0.354 N 
ATOM     43  C   UNL A   1      39.948  29.581  30.440  1.00  0.00     0.074 A 
ATOM     44  C   UNL A   1      39.004  29.794  29.366  1.00  0.00     0.031 C 
ATOM     45  C   UNL A   1      38.018  33.876  34.855  1.00  0.00     0.029 A 
ATOM     46  C   UNL A   1      39.122  32.931  34.970  1.00  0.00     0.049 A 
ATOM     47  H   UNL A   1      39.795  31.588  33.526  1.00  0.00     0.167 HD
ATOM     48  C   UNL A   1      40.960  28.680  30.399  1.00  0.00     0.034 A 
ATOM     49  C   UNL A   1      39.902  32.766  36.057  1.00  0.00     0.034 A 
ATOM     50  C   UNL A   1      41.900  28.500  31.475  1.00  0.00     0.049 A 
ATOM     51  C   UNL A   1      41.008  31.742  36.000  1.00  0.00     0.074 A 
ATOM     52  C   UNL A   1      42.993  27.655  31.533  1.00  0.00     0.029 A 
ATOM     53  N   UNL A   1      41.854  29.175  32.689  1.00  0.00    -0.354 N 
ATOM     54  N   UNL A   1      41.330  30.927  35.021  1.00  0.00    -0.248 NA
ATOM     55  C   UNL A   1      41.863  31.624  37.188  1.00  0.00     0.031 C 
ATOM     56  C   UNL A   1      43.562  27.764  32.806  1.00  0.00     0.029 A 
ATOM     57  C   UNL A   1      42.881  28.743  33.513  1.00  0.00     0.049 A 
ATOM     58  H   UNL A   1      41.189  29.861  32.928  1.00  0.00     0.167 HD
ATOM     59  C   UNL A   1      42.446  30.222  35.465  1.00  0.00     0.074 A 
ATOM     60  C   UNL A   1      42.748  30.723  36.791  1.00  0.00     0.031 C 
ATOM     61  C   UNL A   1      43.158  29.251  34.837  1.00  0.00     0.034 A 
BRANCH  48  62
ATOM     62  C   UNL A   1      41.078  27.820  29.160  1.00  0.00     0.023 A 
ATOM     63  C   UNL A   1      42.093  28.028  28.209  1.00  0.00     0.031 A 
ATOM     64  C   UNL A   1      40.141  26.804  28.904  1.00  0.00     0.131 A 
ATOM     65  C   UNL A   1      42.098  27.296  27.012  1.00  0.00     0.055 A 
ATOM     66  C   UNL A   1      40.205  26.014  27.753  1.00  0.00     0.041 A 
ATOM     67  F   UNL A   1      39.133  26.570  29.758  1.00  0.00    -0.206 F 
ATOM     68  C   UNL A   1      41.178  26.269  26.790  1.00  0.00     0.022 A 
BRANCH  65  69
ATOM     69  S   UNL A   1      43.219  27.814  25.683  1.00  0.00     0.124 S 
ATOM     70  O   UNL A   1      44.110  26.660  25.584  1.00  0.00    -0.237 OA
ATOM     71  O   UNL A   1      42.309  28.016  24.563  1.00  0.00    -0.237 OA
ATOM     72  O   UNL A   1      43.840  29.027  26.210  1.00  0.00    -0.744 OA
ENDBRANCH  65  69
ENDBRANCH  48  62
BRANCH  49  73
ATOM     73  C   UNL A   1      39.666  33.577  37.287  1.00  0.00     0.023 A 
ATOM     74  C   UNL A   1      40.430  34.722  37.560  1.00  0.00     0.031 A 
ATOM     75  C   UNL A   1      38.691  33.198  38.227  1.00  0.00     0.131 A 
ATOM     76  C   UNL A   1      40.240  35.421  38.763  1.00  0.00     0.055 A 
ATOM     77  C   UNL A   1      38.465  33.930  39.394  1.00  0.00     0.041 A 
ATOM     78  F   UNL A   1      37.929  32.112  38.017  1.00  0.00    -0.206 F 
ATOM     79  C   UNL A   1      39.252  35.041  39.675  1.00  0.00     0.022 A 
BRANCH  76  80
ATOM     80  S   UNL A   1      41.371  36.781  39.166  1.00  0.00     0.124 S 
ATOM     81  O   UNL A   1      41.886  37.139  37.850  1.00  0.00    -0.237 OA
ATOM     82  O   UNL A   1      40.471  37.748  39.787  1.00  0.00    -0.237 OA
ATOM     83  O   UNL A   1      42.338  36.163  40.070  1.00  0.00    -0.744 OA
ENDBRANCH  76  80
ENDBRANCH  49  73
BRANCH  61  84
ATOM     84  C   UNL A   1      44.364  28.706  35.564  1.00  0.00     0.023 A 
ATOM     85  C   UNL A   1      44.255  27.668  36.505  1.00  0.00     0.031 A 
ATOM     86  C   UNL A   1      45.641  29.238  35.310  1.00  0.00     0.131 A 
ATOM     87  C   UNL A   1      45.392  27.238  37.204  1.00  0.00     0.055 A 
ATOM     88  C   UNL A   1      46.779  28.758  35.957  1.00  0.00     0.041 A 
ATOM     89  F   UNL A   1      45.804  30.233  34.423  1.00  0.00    -0.206 F 
ATOM     90  C   UNL A   1      46.657  27.761  36.921  1.00  0.00     0.022 A 
BRANCH  87  91
ATOM     91  S   UNL A   1      45.182  26.058  38.564  1.00  0.00     0.124 S 
ATOM     92  O   UNL A   1      45.179  24.780  37.858  1.00  0.00    -0.237 OA
ATOM     93  O   UNL A   1      46.353  26.324  39.393  1.00  0.00    -0.237 OA
ATOM     94  O   UNL A   1      43.903  26.442  39.157  1.00  0.00    -0.744 OA
ENDBRANCH  87  91
ENDBRANCH  61  84
ENDBRANCH  35  36
ENDBRANCH  27  30
ENDBRANCH  25  26
ENDBRANCH  24  25
ENDBRANCH   1  24
TORSDOF 18
ENDMDL
MODEL 3
REMARK VINA RESULT:     -11.2      3.603      8.994
REMARK SMILES CC[C@@](C)(NS(=O)(=O)c1ccc(F)c(F)c1)C(=O)NCCCCNC(=O)c1ccc(-c2c3nc(c(-c4cc(S(=O)(=O)[O-])ccc4F)c4ccc([nH]4)c(-c4cc(S(=O)(=O)[O-])ccc4F)c4nc(c(-c5cc(S(=O)(=O)[O-])ccc5F)c5ccc2[nH]5)C=C4)C=C3)cc1
REMARK SMILES IDX 21 1 20 2 19 3 17 4 18 5 3 7 4 8 2 9 1 10 5 11 6 13 7 14
REMARK SMILES IDX 8 15 9 16 10 17 16 18 11 19 14 20 12 21 15 22 13 23 22 24
REMARK SMILES IDX 23 25 24 26 25 27 26 29 27 30 28 31 89 32 29 33 88 34 30 35
REMARK SMILES IDX 31 36 32 37 82 38 33 39 87 40 81 41 83 42 34 43 86 44 80 45
REMARK SMILES IDX 79 46 35 48 67 49 47 50 66 51 48 52 51 53 65 54 84 55 49 56
REMARK SMILES IDX 50 57 64 59 85 60 52 61 36 62 37 63 45 64 38 65 44 66 46 67
REMARK SMILES IDX 43 68 39 69 40 70 41 71 42 72 68 73 69 74 77 75 70 76 76 77
REMARK SMILES IDX 78 78 75 79 71 80 72 81 73 82 74 83 53 84 54 85 62 86 55 87
REMARK SMILES IDX 61 88 63 89 60 90 56 91 57 92 58 93 59 94
REMARK H PARENT 19 6 5 12 24 28 83 47 51 58
REMARK Flexibility Score: inf
ROOT
ATOM      1  C   UNL A   1      33.714  27.432  26.334  1.00  0.00     0.023 C 
ENDROOT
BRANCH   1   2
ATOM      2  C   UNL A   1      33.767  26.496  25.123  1.00  0.00     0.116 C 
BRANCH   2   3
ATOM      3  N   UNL A   1      32.502  25.914  24.688  1.00  0.00    -0.354 N 
ATOM      4  C   UNL A   1      31.838  25.796  23.503  1.00  0.00     0.241 C 
ATOM      5  O   UNL A   1      31.002  24.880  23.498  1.00  0.00    -0.273 OA
ATOM      6  H   UNL A   1      32.005  25.506  25.434  1.00  0.00     0.163 HD
BRANCH   4   7
ATOM      7  C   UNL A   1      31.948  26.748  22.282  1.00  0.00     0.108 C 
ATOM      8  C   UNL A   1      33.329  27.395  22.181  1.00  0.00     0.040 C 
BRANCH   7   9
ATOM      9  C   UNL A   1      31.704  25.951  20.927  1.00  0.00     0.030 C 
ATOM     10  C   UNL A   1      32.850  25.267  20.207  1.00  0.00     0.006 C 
ENDBRANCH   7   9
BRANCH   7  11
ATOM     11  N   UNL A   1      30.840  27.738  22.154  1.00  0.00    -0.196 NA
ATOM     12  H   UNL A   1      30.226  27.315  21.459  1.00  0.00     0.142 HD
BRANCH  11  13
ATOM     13  S   UNL A   1      29.790  28.397  23.236  1.00  0.00     0.241 S 
ATOM     14  O   UNL A   1      28.706  27.461  23.412  1.00  0.00    -0.207 OA
ATOM     15  O   UNL A   1      30.640  28.720  24.362  1.00  0.00    -0.207 OA
BRANCH  13  16
ATOM     16  C   UNL A   1      29.181  29.967  22.659  1.00  0.00     0.085 A 
ATOM     17  C   UNL A   1      29.212  31.041  23.565  1.00  0.00     0.025 A 
ATOM     18  C   UNL A   1      28.720  30.191  21.364  1.00  0.00     0.064 A 
ATOM     19  C   UNL A   1      28.711  32.297  23.196  1.00  0.00     0.044 A 
ATOM     20  C   UNL A   1      28.151  31.421  21.029  1.00  0.00     0.160 A 
ATOM     21  C   UNL A   1      28.146  32.469  21.938  1.00  0.00     0.158 A 
ATOM     22  F   UNL A   1      27.578  31.569  19.827  1.00  0.00    -0.204 F 
ATOM     23  F   UNL A   1      27.603  33.648  21.609  1.00  0.00    -0.204 F 
ENDBRANCH  13  16
ENDBRANCH  11  13
ENDBRANCH   7  11
ENDBRANCH   4   7
ENDBRANCH   2   3
ENDBRANCH   1   2
BRANCH   1  24
ATOM     24  C   UNL A   1      33.538  28.919  26.066  1.00  0.00     0.023 C 
BRANCH  24  25
ATOM     25  C   UNL A   1      32.964  29.697  27.231  1.00  0.00     0.116 C 
BRANCH  25  26
ATOM     26  N   UNL A   1      33.193  31.126  27.078  1.00  0.00    -0.352 N 
ATOM     27  C   UNL A   1      34.175  31.915  27.628  1.00  0.00     0.251 C 
ATOM     28  H   UNL A   1      32.552  31.596  26.498  1.00  0.00     0.163 HD
ATOM     29  O   UNL A   1      34.031  33.133  27.641  1.00  0.00    -0.269 OA
BRANCH  27  30
ATOM     30  C   UNL A   1      35.389  31.293  28.205  1.00  0.00     0.039 A 
ATOM     31  C   UNL A   1      35.297  30.043  28.823  1.00  0.00     0.014 A 
ATOM     32  C   UNL A   1      36.616  31.959  28.165  1.00  0.00     0.014 A 
ATOM     33  C   UNL A   1      36.442  29.456  29.367  1.00  0.00     0.010 A 
ATOM     34  C   UNL A   1      37.772  31.317  28.585  1.00  0.00     0.010 A 
ATOM     35  C   UNL A   1      37.692  30.080  29.234  1.00  0.00    -0.014 A 
BRANCH  35  36
ATOM     36  C   UNL A   1      38.921  29.508  29.842  1.00  0.00     0.031 A 
ATOM     37  C   UNL A   1      39.391  30.026  31.178  1.00  0.00     0.074 A 
ATOM     38  C   UNL A   1      39.631  28.577  29.178  1.00  0.00     0.049 A 
ATOM     39  N   UNL A   1      40.476  29.733  31.847  1.00  0.00    -0.248 NA
ATOM     40  C   UNL A   1      38.547  31.042  31.830  1.00  0.00     0.031 C 
ATOM     41  C   UNL A   1      39.294  28.038  27.859  1.00  0.00     0.029 A 
ATOM     42  N   UNL A   1      40.785  27.920  29.519  1.00  0.00    -0.354 N 
ATOM     43  C   UNL A   1      40.450  30.539  32.981  1.00  0.00     0.074 A 
ATOM     44  C   UNL A   1      39.291  31.395  32.864  1.00  0.00     0.031 C 
ATOM     45  C   UNL A   1      40.200  27.109  27.519  1.00  0.00     0.029 A 
ATOM     46  C   UNL A   1      41.211  27.022  28.568  1.00  0.00     0.049 A 
ATOM     47  H   UNL A   1      41.263  28.076  30.365  1.00  0.00     0.167 HD
ATOM     48  C   UNL A   1      41.295  30.540  34.042  1.00  0.00     0.034 A 
ATOM     49  C   UNL A   1      42.301  26.230  28.542  1.00  0.00     0.034 A 
ATOM     50  C   UNL A   1      42.433  29.663  34.145  1.00  0.00     0.049 A 
ATOM     51  C   UNL A   1      43.242  26.263  29.721  1.00  0.00     0.074 A 
ATOM     52  C   UNL A   1      43.333  29.537  35.186  1.00  0.00     0.029 A 
ATOM     53  N   UNL A   1      42.831  28.763  33.163  1.00  0.00    -0.354 N 
ATOM     54  N   UNL A   1      43.177  26.995  30.810  1.00  0.00    -0.248 NA
ATOM     55  C   UNL A   1      44.393  25.354  29.674  1.00  0.00     0.031 C 
ATOM     56  C   UNL A   1      44.316  28.617  34.805  1.00  0.00     0.029 A 
ATOM     57  C   UNL A   1      43.981  28.101  33.563  1.00  0.00     0.049 A 
ATOM     58  H   UNL A   1      42.364  28.617  32.308  1.00  0.00     0.167 HD
ATOM     59  C   UNL A   1      44.264  26.611  31.591  1.00  0.00     0.074 A 
ATOM     60  C   UNL A   1      44.953  25.570  30.855  1.00  0.00     0.031 C 
ATOM     61  C   UNL A   1      44.657  27.072  32.806  1.00  0.00     0.034 A 
BRANCH  48  62
ATOM     62  C   UNL A   1      41.020  31.530  35.151  1.00  0.00     0.023 A 
ATOM     63  C   UNL A   1      39.936  31.370  36.035  1.00  0.00     0.031 A 
ATOM     64  C   UNL A   1      41.825  32.672  35.306  1.00  0.00     0.131 A 
ATOM     65  C   UNL A   1      39.637  32.371  36.970  1.00  0.00     0.055 A 
ATOM     66  C   UNL A   1      41.578  33.620  36.301  1.00  0.00     0.041 A 
ATOM     67  F   UNL A   1      42.860  32.897  34.481  1.00  0.00    -0.206 F 
ATOM     68  C   UNL A   1      40.468  33.482  37.130  1.00  0.00     0.022 A 
BRANCH  65  69
ATOM     69  S   UNL A   1      38.059  32.282  37.860  1.00  0.00     0.124 S 
ATOM     70  O   UNL A   1      37.562  30.971  37.448  1.00  0.00    -0.237 OA
ATOM     71  O   UNL A   1      38.474  32.397  39.253  1.00  0.00    -0.237 OA
ATOM     72  O   UNL A   1      37.304  33.418  37.338  1.00  0.00    -0.744 OA
ENDBRANCH  65  69
ENDBRANCH  48  62
BRANCH  49  73
ATOM     73  C   UNL A   1      42.569  25.350  27.367  1.00  0.00     0.023 A 
ATOM     74  C   UNL A   1      42.115  24.022  27.337  1.00  0.00     0.031 A 
ATOM     75  C   UNL A   1      43.312  25.817  26.268  1.00  0.00     0.131 A 
ATOM     76  C   UNL A   1      42.450  23.193  26.254  1.00  0.00     0.055 A 
ATOM     77  C   UNL A   1      43.591  25.006  25.166  1.00  0.00     0.041 A 
ATOM     78  F   UNL A   1      43.768  27.080  26.242  1.00  0.00    -0.206 F 
ATOM     79  C   UNL A   1      43.171  23.680  25.162  1.00  0.00     0.022 A 
BRANCH  76  80
ATOM     80  S   UNL A   1      42.009  21.435  26.337  1.00  0.00     0.124 S 
ATOM     81  O   UNL A   1      42.382  21.100  27.706  1.00  0.00    -0.237 OA
ATOM     82  O   UNL A   1      40.579  21.468  26.051  1.00  0.00    -0.237 OA
ATOM     83  O   UNL A   1      42.837  20.827  25.298  1.00  0.00    -0.744 OA
ENDBRANCH  76  80
ENDBRANCH  49  73
BRANCH  61  84
ATOM     84  C   UNL A   1      45.863  26.414  33.432  1.00  0.00     0.023 A 
ATOM     85  C   UNL A   1      45.743  25.300  34.280  1.00  0.00     0.031 A 
ATOM     86  C   UNL A   1      47.152  26.914  33.176  1.00  0.00     0.131 A 
ATOM     87  C   UNL A   1      46.884  24.761  34.891  1.00  0.00     0.055 A 
ATOM     88  C   UNL A   1      48.291  26.331  33.731  1.00  0.00     0.041 A 
ATOM     89  F   UNL A   1      47.326  27.979  32.376  1.00  0.00    -0.206 F 
ATOM     90  C   UNL A   1      48.160  25.256  34.605  1.00  0.00     0.022 A 
BRANCH  87  91
ATOM     91  S   UNL A   1      46.671  23.471  36.147  1.00  0.00     0.124 S 
ATOM     92  O   UNL A   1      45.756  24.112  37.087  1.00  0.00    -0.237 OA
ATOM     93  O   UNL A   1      46.116  22.367  35.371  1.00  0.00    -0.237 OA
ATOM     94  O   UNL A   1      48.026  23.255  36.650  1.00  0.00    -0.744 OA
ENDBRANCH  87  91
ENDBRANCH  61  84
ENDBRANCH  35  36
ENDBRANCH  27  30
ENDBRANCH  25  26
ENDBRANCH  24  25
ENDBRANCH   1  24
TORSDOF 18
ENDMDL
