MODEL 1
REMARK VINA RESULT:     -10.8      0.000      0.000
REMARK SMILES CCC(CC)(NC(=O)c1ccc(N)c(F)c1)C(=O)NCCCCNC(=O)c1ccc(-c2c3nc(c(-c4cc(S(=O)(=O)[O-])ccc4F)c4ccc([nH]4)c(-c4cc(S(=O)(=O)[O-])ccc4F)c4nc(c(-c5cc(S(=O)(=O)[O-])ccc5F)c5ccc2[nH]5)C=C4)C=C3)cc1
REMARK SMILES IDX 21 1 20 2 19 3 17 4 18 5 3 7 2 8 1 9 4 10 5 11 6 12 7 13
REMARK SMILES IDX 8 15 9 16 10 17 16 18 11 19 14 20 12 21 15 22 13 23 22 26
REMARK SMILES IDX 23 27 24 28 25 29 26 31 27 32 28 33 89 34 29 35 88 36 30 37
REMARK SMILES IDX 31 38 32 39 82 40 33 41 87 42 81 43 83 44 34 45 86 46 80 47
REMARK SMILES IDX 79 48 35 50 67 51 47 52 66 53 48 54 51 55 65 56 84 57 49 58
REMARK SMILES IDX 50 59 64 61 85 62 52 63 36 64 37 65 45 66 38 67 44 68 46 69
REMARK SMILES IDX 43 70 39 71 40 72 41 73 42 74 68 75 69 76 77 77 70 78 76 79
REMARK SMILES IDX 78 80 75 81 71 82 72 83 73 84 74 85 53 86 54 87 62 88 55 89
REMARK SMILES IDX 61 90 63 91 60 92 56 93 57 94 58 95 59 96
REMARK H PARENT 19 6 6 14 13 24 13 25 24 30 83 49 51 60
REMARK Flexibility Score: inf
ROOT
ATOM      1  C   UNL A   1      30.850  27.784  25.084  1.00  0.00     0.023 C 
ENDROOT
BRANCH   1   2
ATOM      2  C   UNL A   1      30.640  26.316  24.704  1.00  0.00     0.116 C 
BRANCH   2   3
ATOM      3  N   UNL A   1      30.170  25.388  25.727  1.00  0.00    -0.354 N 
ATOM      4  C   UNL A   1      30.659  24.205  26.233  1.00  0.00     0.245 C 
ATOM      5  O   UNL A   1      30.104  23.788  27.255  1.00  0.00    -0.272 OA
ATOM      6  H   UNL A   1      29.322  25.668  26.142  1.00  0.00     0.163 HD
BRANCH   4   7
ATOM      7  C   UNL A   1      31.902  23.488  25.630  1.00  0.00     0.118 C 
BRANCH   7   8
ATOM      8  C   UNL A   1      31.593  22.199  24.811  1.00  0.00     0.035 C 
ATOM      9  C   UNL A   1      32.170  22.064  23.408  1.00  0.00     0.007 C 
ENDBRANCH   7   8
BRANCH   7  10
ATOM     10  C   UNL A   1      32.701  23.124  26.934  1.00  0.00     0.035 C 
ATOM     11  C   UNL A   1      33.264  21.722  27.075  1.00  0.00     0.007 C 
ENDBRANCH   7  10
BRANCH   7  12
ATOM     12  N   UNL A   1      32.688  24.370  24.713  1.00  0.00    -0.338 N 
ATOM     13  C   UNL A   1      34.032  24.733  24.676  1.00  0.00     0.252 C 
ATOM     14  H   UNL A   1      32.150  24.773  23.994  1.00  0.00     0.164 HD
ATOM     15  O   UNL A   1      34.260  25.876  24.265  1.00  0.00    -0.269 OA
BRANCH  13  16
ATOM     16  C   UNL A   1      35.222  23.859  24.988  1.00  0.00     0.042 A 
ATOM     17  C   UNL A   1      35.540  22.694  24.303  1.00  0.00     0.016 A 
ATOM     18  C   UNL A   1      36.196  24.317  25.889  1.00  0.00     0.055 A 
ATOM     19  C   UNL A   1      36.746  22.004  24.451  1.00  0.00     0.029 A 
ATOM     20  C   UNL A   1      37.417  23.631  26.039  1.00  0.00     0.146 A 
ATOM     21  C   UNL A   1      37.718  22.475  25.310  1.00  0.00     0.068 A 
ATOM     22  F   UNL A   1      38.337  24.133  26.878  1.00  0.00    -0.205 F 
BRANCH  21  23
ATOM     23  N   UNL A   1      38.936  21.827  25.375  1.00  0.00    -0.396 N 
ATOM     24  H   UNL A   1      39.381  21.700  26.245  1.00  0.00     0.156 HD
ATOM     25  H   UNL A   1      39.359  21.491  24.551  1.00  0.00     0.156 HD
ENDBRANCH  21  23
ENDBRANCH  13  16
ENDBRANCH   7  12
ENDBRANCH   4   7
ENDBRANCH   2   3
ENDBRANCH   1   2
BRANCH   1  26
ATOM     26  C   UNL A   1      31.971  28.145  26.052  1.00  0.00     0.023 C 
BRANCH  26  27
ATOM     27  C   UNL A   1      32.966  29.181  25.571  1.00  0.00     0.116 C 
BRANCH  27  28
ATOM     28  N   UNL A   1      32.550  30.531  25.894  1.00  0.00    -0.352 N 
ATOM     29  C   UNL A   1      33.035  31.375  26.865  1.00  0.00     0.251 C 
ATOM     30  H   UNL A   1      31.818  30.894  25.344  1.00  0.00     0.163 HD
ATOM     31  O   UNL A   1      32.425  32.405  27.127  1.00  0.00    -0.269 OA
BRANCH  29  32
ATOM     32  C   UNL A   1      34.271  31.022  27.602  1.00  0.00     0.039 A 
ATOM     33  C   UNL A   1      35.204  32.027  27.872  1.00  0.00     0.014 A 
ATOM     34  C   UNL A   1      34.516  29.710  28.018  1.00  0.00     0.014 A 
ATOM     35  C   UNL A   1      36.358  31.723  28.598  1.00  0.00     0.010 A 
ATOM     36  C   UNL A   1      35.624  29.428  28.813  1.00  0.00     0.010 A 
ATOM     37  C   UNL A   1      36.565  30.427  29.098  1.00  0.00    -0.014 A 
BRANCH  37  38
ATOM     38  C   UNL A   1      37.778  30.089  29.889  1.00  0.00     0.031 A 
ATOM     39  C   UNL A   1      38.782  29.112  29.339  1.00  0.00     0.074 A 
ATOM     40  C   UNL A   1      37.947  30.619  31.117  1.00  0.00     0.049 A 
ATOM     41  N   UNL A   1      39.863  28.629  29.898  1.00  0.00    -0.248 NA
ATOM     42  C   UNL A   1      38.517  28.580  27.993  1.00  0.00     0.031 C 
ATOM     43  C   UNL A   1      37.024  31.550  31.769  1.00  0.00     0.029 A 
ATOM     44  N   UNL A   1      38.950  30.449  32.038  1.00  0.00    -0.354 N 
ATOM     45  C   UNL A   1      40.397  27.730  28.981  1.00  0.00     0.074 A 
ATOM     46  C   UNL A   1      39.483  27.685  27.860  1.00  0.00     0.031 C 
ATOM     47  C   UNL A   1      37.519  31.891  32.970  1.00  0.00     0.029 A 
ATOM     48  C   UNL A   1      38.766  31.168  33.197  1.00  0.00     0.049 A 
ATOM     49  H   UNL A   1      39.729  29.866  31.884  1.00  0.00     0.167 HD
ATOM     50  C   UNL A   1      41.554  27.027  29.055  1.00  0.00     0.034 A 
ATOM     51  C   UNL A   1      39.512  31.229  34.317  1.00  0.00     0.034 A 
ATOM     52  C   UNL A   1      42.461  27.099  30.175  1.00  0.00     0.049 A 
ATOM     53  C   UNL A   1      40.781  30.417  34.389  1.00  0.00     0.074 A 
ATOM     54  C   UNL A   1      43.685  26.475  30.334  1.00  0.00     0.029 A 
ATOM     55  N   UNL A   1      42.239  27.835  31.333  1.00  0.00    -0.354 N 
ATOM     56  N   UNL A   1      41.298  29.608  33.492  1.00  0.00    -0.248 NA
ATOM     57  C   UNL A   1      41.575  30.535  35.619  1.00  0.00     0.031 C 
ATOM     58  C   UNL A   1      44.168  26.772  31.613  1.00  0.00     0.029 A 
ATOM     59  C   UNL A   1      43.287  27.652  32.222  1.00  0.00     0.049 A 
ATOM     60  H   UNL A   1      41.452  28.403  31.498  1.00  0.00     0.167 HD
ATOM     61  C   UNL A   1      42.494  29.149  34.038  1.00  0.00     0.074 A 
ATOM     62  C   UNL A   1      42.627  29.783  35.334  1.00  0.00     0.031 C 
ATOM     63  C   UNL A   1      43.401  28.285  33.516  1.00  0.00     0.034 A 
BRANCH  50  64
ATOM     64  C   UNL A   1      41.884  26.104  27.905  1.00  0.00     0.023 A 
ATOM     65  C   UNL A   1      41.574  24.732  27.944  1.00  0.00     0.031 A 
ATOM     66  C   UNL A   1      42.541  26.595  26.763  1.00  0.00     0.131 A 
ATOM     67  C   UNL A   1      41.993  23.889  26.904  1.00  0.00     0.055 A 
ATOM     68  C   UNL A   1      42.876  25.765  25.691  1.00  0.00     0.041 A 
ATOM     69  F   UNL A   1      42.883  27.890  26.675  1.00  0.00    -0.206 F 
ATOM     70  C   UNL A   1      42.618  24.400  25.764  1.00  0.00     0.022 A 
BRANCH  67  71
ATOM     71  S   UNL A   1      41.845  22.095  27.131  1.00  0.00     0.124 S 
ATOM     72  O   UNL A   1      42.967  21.820  28.027  1.00  0.00    -0.237 OA
ATOM     73  O   UNL A   1      40.515  21.958  27.711  1.00  0.00    -0.237 OA
ATOM     74  O   UNL A   1      41.995  21.564  25.777  1.00  0.00    -0.744 OA
ENDBRANCH  67  71
ENDBRANCH  50  64
BRANCH  51  75
ATOM     75  C   UNL A   1      39.086  32.078  35.468  1.00  0.00     0.023 A 
ATOM     76  C   UNL A   1      39.545  33.399  35.601  1.00  0.00     0.031 A 
ATOM     77  C   UNL A   1      38.247  31.568  36.475  1.00  0.00     0.131 A 
ATOM     78  C   UNL A   1      39.206  34.146  36.740  1.00  0.00     0.055 A 
ATOM     79  C   UNL A   1      37.865  32.336  37.577  1.00  0.00     0.041 A 
ATOM     80  F   UNL A   1      37.777  30.313  36.397  1.00  0.00    -0.206 F 
ATOM     81  C   UNL A   1      38.357  33.630  37.721  1.00  0.00     0.022 A 
BRANCH  78  82
ATOM     82  S   UNL A   1      39.969  35.777  36.966  1.00  0.00     0.124 S 
ATOM     83  O   UNL A   1      39.271  36.269  38.147  1.00  0.00    -0.237 OA
ATOM     84  O   UNL A   1      41.375  35.430  37.147  1.00  0.00    -0.237 OA
ATOM     85  O   UNL A   1      39.657  36.474  35.720  1.00  0.00    -0.744 OA
ENDBRANCH  78  82
ENDBRANCH  51  75
BRANCH  63  86
ATOM     86  C   UNL A   1      44.644  28.017  34.332  1.00  0.00     0.023 A 
ATOM     87  C   UNL A   1      44.713  26.955  35.250  1.00  0.00     0.031 A 
ATOM     88  C   UNL A   1      45.771  28.846  34.192  1.00  0.00     0.131 A 
ATOM     89  C   UNL A   1      45.863  26.785  36.035  1.00  0.00     0.055 A 
ATOM     90  C   UNL A   1      46.937  28.632  34.929  1.00  0.00     0.041 A 
ATOM     91  F   UNL A   1      45.759  29.877  33.333  1.00  0.00    -0.206 F 
ATOM     92  C   UNL A   1      46.983  27.605  35.867  1.00  0.00     0.022 A 
BRANCH  89  93
ATOM     93  S   UNL A   1      45.844  25.536  37.350  1.00  0.00     0.124 S 
ATOM     94  O   UNL A   1      46.433  24.381  36.679  1.00  0.00    -0.237 OA
ATOM     95  O   UNL A   1      46.662  26.159  38.385  1.00  0.00    -0.237 OA
ATOM     96  O   UNL A   1      44.425  25.406  37.679  1.00  0.00    -0.744 OA
ENDBRANCH  89  93
ENDBRANCH  63  86
ENDBRANCH  37  38
ENDBRANCH  29  32
ENDBRANCH  27  28
ENDBRANCH  26  27
ENDBRANCH   1  26
TORSDOF 19
ENDMDL
MODEL 2
REMARK VINA RESULT:     -10.8      2.185      2.751
REMARK SMILES CCC(CC)(NC(=O)c1ccc(N)c(F)c1)C(=O)NCCCCNC(=O)c1ccc(-c2c3nc(c(-c4cc(S(=O)(=O)[O-])ccc4F)c4ccc([nH]4)c(-c4cc(S(=O)(=O)[O-])ccc4F)c4nc(c(-c5cc(S(=O)(=O)[O-])ccc5F)c5ccc2[nH]5)C=C4)C=C3)cc1
REMARK SMILES IDX 21 1 20 2 19 3 17 4 18 5 3 7 2 8 1 9 4 10 5 11 6 12 7 13
REMARK SMILES IDX 8 15 9 16 10 17 16 18 11 19 14 20 12 21 15 22 13 23 22 26
REMARK SMILES IDX 23 27 24 28 25 29 26 31 27 32 28 33 89 34 29 35 88 36 30 37
REMARK SMILES IDX 31 38 32 39 82 40 33 41 87 42 81 43 83 44 34 45 86 46 80 47
REMARK SMILES IDX 79 48 35 50 67 51 47 52 66 53 48 54 51 55 65 56 84 57 49 58
REMARK SMILES IDX 50 59 64 61 85 62 52 63 36 64 37 65 45 66 38 67 44 68 46 69
REMARK SMILES IDX 43 70 39 71 40 72 41 73 42 74 68 75 69 76 77 77 70 78 76 79
REMARK SMILES IDX 78 80 75 81 71 82 72 83 73 84 74 85 53 86 54 87 62 88 55 89
REMARK SMILES IDX 61 90 63 91 60 92 56 93 57 94 58 95 59 96
REMARK H PARENT 19 6 6 14 13 24 13 25 24 30 83 49 51 60
REMARK Flexibility Score: inf
ROOT
ATOM      1  C   UNL A   1      33.511  27.578  22.771  1.00  0.00     0.023 C 
ENDROOT
BRANCH   1   2
ATOM      2  C   UNL A   1      32.210  26.784  22.623  1.00  0.00     0.116 C 
BRANCH   2   3
ATOM      3  N   UNL A   1      31.231  26.838  23.702  1.00  0.00    -0.354 N 
ATOM      4  C   UNL A   1      30.936  26.008  24.759  1.00  0.00     0.245 C 
ATOM      5  O   UNL A   1      30.172  26.473  25.612  1.00  0.00    -0.272 OA
ATOM      6  H   UNL A   1      30.658  27.639  23.665  1.00  0.00     0.163 HD
BRANCH   4   7
ATOM      7  C   UNL A   1      31.602  24.612  24.938  1.00  0.00     0.118 C 
BRANCH   7   8
ATOM      8  C   UNL A   1      30.638  23.465  25.361  1.00  0.00     0.035 C 
ATOM      9  C   UNL A   1      30.517  23.114  26.838  1.00  0.00     0.007 C 
ENDBRANCH   7   8
BRANCH   7  10
ATOM     10  C   UNL A   1      32.627  24.914  26.090  1.00  0.00     0.035 C 
ATOM     11  C   UNL A   1      33.904  25.660  25.752  1.00  0.00     0.007 C 
ENDBRANCH   7  10
BRANCH   7  12
ATOM     12  N   UNL A   1      32.278  24.132  23.692  1.00  0.00    -0.338 N 
ATOM     13  C   UNL A   1      33.217  23.132  23.454  1.00  0.00     0.252 C 
ATOM     14  H   UNL A   1      32.004  24.619  22.882  1.00  0.00     0.164 HD
ATOM     15  O   UNL A   1      34.018  23.366  22.543  1.00  0.00    -0.269 OA
BRANCH  13  16
ATOM     16  C   UNL A   1      33.296  21.778  24.115  1.00  0.00     0.042 A 
ATOM     17  C   UNL A   1      33.824  21.553  25.379  1.00  0.00     0.016 A 
ATOM     18  C   UNL A   1      32.633  20.687  23.533  1.00  0.00     0.055 A 
ATOM     19  C   UNL A   1      33.706  20.345  26.073  1.00  0.00     0.029 A 
ATOM     20  C   UNL A   1      32.503  19.469  24.228  1.00  0.00     0.146 A 
ATOM     21  C   UNL A   1      33.022  19.285  25.514  1.00  0.00     0.068 A 
ATOM     22  F   UNL A   1      31.820  18.468  23.650  1.00  0.00    -0.205 F 
BRANCH  21  23
ATOM     23  N   UNL A   1      32.842  18.132  26.253  1.00  0.00    -0.396 N 
ATOM     24  H   UNL A   1      33.534  17.430  26.247  1.00  0.00     0.156 HD
ATOM     25  H   UNL A   1      32.023  18.010  26.785  1.00  0.00     0.156 HD
ENDBRANCH  21  23
ENDBRANCH  13  16
ENDBRANCH   7  12
ENDBRANCH   4   7
ENDBRANCH   2   3
ENDBRANCH   1   2
BRANCH   1  26
ATOM     26  C   UNL A   1      33.454  28.998  23.324  1.00  0.00     0.023 C 
BRANCH  26  27
ATOM     27  C   UNL A   1      33.633  29.143  24.822  1.00  0.00     0.116 C 
BRANCH  27  28
ATOM     28  N   UNL A   1      32.787  30.180  25.376  1.00  0.00    -0.352 N 
ATOM     29  C   UNL A   1      32.914  30.852  26.568  1.00  0.00     0.251 C 
ATOM     30  H   UNL A   1      32.014  30.438  24.823  1.00  0.00     0.163 HD
ATOM     31  O   UNL A   1      31.990  31.555  26.965  1.00  0.00    -0.269 OA
BRANCH  29  32
ATOM     32  C   UNL A   1      34.148  30.705  27.373  1.00  0.00     0.039 A 
ATOM     33  C   UNL A   1      34.455  29.453  27.914  1.00  0.00     0.014 A 
ATOM     34  C   UNL A   1      34.996  31.792  27.605  1.00  0.00     0.014 A 
ATOM     35  C   UNL A   1      35.633  29.284  28.646  1.00  0.00     0.010 A 
ATOM     36  C   UNL A   1      36.209  31.602  28.261  1.00  0.00     0.010 A 
ATOM     37  C   UNL A   1      36.534  30.351  28.803  1.00  0.00    -0.014 A 
BRANCH  37  38
ATOM     38  C   UNL A   1      37.801  30.185  29.561  1.00  0.00     0.031 A 
ATOM     39  C   UNL A   1      38.927  29.378  28.971  1.00  0.00     0.074 A 
ATOM     40  C   UNL A   1      37.918  30.711  30.797  1.00  0.00     0.049 A 
ATOM     41  N   UNL A   1      40.080  29.053  29.497  1.00  0.00    -0.248 NA
ATOM     42  C   UNL A   1      38.712  28.837  27.620  1.00  0.00     0.031 C 
ATOM     43  C   UNL A   1      36.883  31.482  31.488  1.00  0.00     0.029 A 
ATOM     44  N   UNL A   1      38.957  30.677  31.693  1.00  0.00    -0.354 N 
ATOM     45  C   UNL A   1      40.721  28.261  28.550  1.00  0.00     0.074 A 
ATOM     46  C   UNL A   1      39.798  28.100  27.447  1.00  0.00     0.031 C 
ATOM     47  C   UNL A   1      37.349  31.872  32.685  1.00  0.00     0.029 A 
ATOM     48  C   UNL A   1      38.694  31.340  32.871  1.00  0.00     0.049 A 
ATOM     49  H   UNL A   1      39.810  30.220  31.511  1.00  0.00     0.167 HD
ATOM     50  C   UNL A   1      41.971  27.738  28.586  1.00  0.00     0.034 A 
ATOM     51  C   UNL A   1      39.450  31.492  33.977  1.00  0.00     0.034 A 
ATOM     52  C   UNL A   1      42.884  27.925  29.687  1.00  0.00     0.049 A 
ATOM     53  C   UNL A   1      40.827  30.878  34.005  1.00  0.00     0.074 A 
ATOM     54  C   UNL A   1      44.191  27.488  29.808  1.00  0.00     0.029 A 
ATOM     55  N   UNL A   1      42.582  28.598  30.865  1.00  0.00    -0.354 N 
ATOM     56  N   UNL A   1      41.438  30.171  33.080  1.00  0.00    -0.248 NA
ATOM     57  C   UNL A   1      41.623  31.092  35.221  1.00  0.00     0.031 C 
ATOM     58  C   UNL A   1      44.653  27.832  31.083  1.00  0.00     0.029 A 
ATOM     59  C   UNL A   1      43.666  28.558  31.728  1.00  0.00     0.049 A 
ATOM     60  H   UNL A   1      41.723  29.039  31.059  1.00  0.00     0.167 HD
ATOM     61  C   UNL A   1      42.701  29.887  33.592  1.00  0.00     0.074 A 
ATOM     62  C   UNL A   1      42.769  30.510  34.897  1.00  0.00     0.031 C 
ATOM     63  C   UNL A   1      43.715  29.178  33.033  1.00  0.00     0.034 A 
BRANCH  50  64
ATOM     64  C   UNL A   1      42.409  26.895  27.409  1.00  0.00     0.023 A 
ATOM     65  C   UNL A   1      42.281  25.494  27.414  1.00  0.00     0.031 A 
ATOM     66  C   UNL A   1      42.985  27.497  26.277  1.00  0.00     0.131 A 
ATOM     67  C   UNL A   1      42.796  24.739  26.349  1.00  0.00     0.055 A 
ATOM     68  C   UNL A   1      43.416  26.745  25.181  1.00  0.00     0.041 A 
ATOM     69  F   UNL A   1      43.154  28.828  26.221  1.00  0.00    -0.206 F 
ATOM     70  C   UNL A   1      43.338  25.357  25.220  1.00  0.00     0.022 A 
BRANCH  67  71
ATOM     71  S   UNL A   1      42.886  22.937  26.530  1.00  0.00     0.124 S 
ATOM     72  O   UNL A   1      44.307  22.741  26.808  1.00  0.00    -0.237 OA
ATOM     73  O   UNL A   1      41.977  22.684  27.641  1.00  0.00    -0.237 OA
ATOM     74  O   UNL A   1      42.439  22.439  25.230  1.00  0.00    -0.744 OA
ENDBRANCH  67  71
ENDBRANCH  50  64
BRANCH  51  75
ATOM     75  C   UNL A   1      38.928  32.246  35.154  1.00  0.00     0.023 A 
ATOM     76  C   UNL A   1      38.448  31.573  36.289  1.00  0.00     0.031 A 
ATOM     77  C   UNL A   1      38.862  33.651  35.144  1.00  0.00     0.131 A 
ATOM     78  C   UNL A   1      37.877  32.300  37.344  1.00  0.00     0.055 A 
ATOM     79  C   UNL A   1      38.346  34.373  36.222  1.00  0.00     0.041 A 
ATOM     80  F   UNL A   1      39.309  34.346  34.086  1.00  0.00    -0.206 F 
ATOM     81  C   UNL A   1      37.836  33.696  37.326  1.00  0.00     0.022 A 
BRANCH  78  82
ATOM     82  S   UNL A   1      37.100  31.387  38.706  1.00  0.00     0.124 S 
ATOM     83  O   UNL A   1      35.822  32.077  38.834  1.00  0.00    -0.237 OA
ATOM     84  O   UNL A   1      37.048  30.031  38.171  1.00  0.00    -0.237 OA
ATOM     85  O   UNL A   1      38.028  31.581  39.819  1.00  0.00    -0.744 OA
ENDBRANCH  78  82
ENDBRANCH  51  75
BRANCH  63  86
ATOM     86  C   UNL A   1      45.002  29.085  33.817  1.00  0.00     0.023 A 
ATOM     87  C   UNL A   1      45.252  28.028  34.710  1.00  0.00     0.031 A 
ATOM     88  C   UNL A   1      45.990  30.075  33.672  1.00  0.00     0.131 A 
ATOM     89  C   UNL A   1      46.432  28.019  35.468  1.00  0.00     0.055 A 
ATOM     90  C   UNL A   1      47.191  30.026  34.380  1.00  0.00     0.041 A 
ATOM     91  F   UNL A   1      45.803  31.109  32.836  1.00  0.00    -0.206 F 
ATOM     92  C   UNL A   1      47.412  29.000  35.295  1.00  0.00     0.022 A 
BRANCH  89  93
ATOM     93  S   UNL A   1      46.630  26.757  36.755  1.00  0.00     0.124 S 
ATOM     94  O   UNL A   1      46.022  25.587  36.129  1.00  0.00    -0.237 OA
ATOM     95  O   UNL A   1      48.079  26.709  36.925  1.00  0.00    -0.237 OA
ATOM     96  O   UNL A   1      45.893  27.306  37.892  1.00  0.00    -0.744 OA
ENDBRANCH  89  93
ENDBRANCH  63  86
ENDBRANCH  37  38
ENDBRANCH  29  32
ENDBRANCH  27  28
ENDBRANCH  26  27
ENDBRANCH   1  26
TORSDOF 19
ENDMDL
MODEL 3
REMARK VINA RESULT:     -10.7      2.689      3.811
REMARK SMILES CCC(CC)(NC(=O)c1ccc(N)c(F)c1)C(=O)NCCCCNC(=O)c1ccc(-c2c3nc(c(-c4cc(S(=O)(=O)[O-])ccc4F)c4ccc([nH]4)c(-c4cc(S(=O)(=O)[O-])ccc4F)c4nc(c(-c5cc(S(=O)(=O)[O-])ccc5F)c5ccc2[nH]5)C=C4)C=C3)cc1
REMARK SMILES IDX 21 1 20 2 19 3 17 4 18 5 3 7 2 8 1 9 4 10 5 11 6 12 7 13
REMARK SMILES IDX 8 15 9 16 10 17 16 18 11 19 14 20 12 21 15 22 13 23 22 26
REMARK SMILES IDX 23 27 24 28 25 29 26 31 27 32 28 33 89 34 29 35 88 36 30 37
REMARK SMILES IDX 31 38 32 39 82 40 33 41 87 42 81 43 83 44 34 45 86 46 80 47
REMARK SMILES IDX 79 48 35 50 67 51 47 52 66 53 48 54 51 55 65 56 84 57 49 58
REMARK SMILES IDX 50 59 64 61 85 62 52 63 36 64 37 65 45 66 38 67 44 68 46 69
REMARK SMILES IDX 43 70 39 71 40 72 41 73 42 74 68 75 69 76 77 77 70 78 76 79
REMARK SMILES IDX 78 80 75 81 71 82 72 83 73 84 74 85 53 86 54 87 62 88 55 89
REMARK SMILES IDX 61 90 63 91 60 92 56 93 57 94 58 95 59 96
REMARK H PARENT 19 6 6 14 13 24 13 25 24 30 83 49 51 60
REMARK Flexibility Score: inf
ROOT
ATOM      1  C   UNL A   1      31.948  30.642  26.847  1.00  0.00     0.023 C 
ENDROOT
BRANCH   1   2
ATOM      2  C   UNL A   1      32.398  29.996  25.534  1.00  0.00     0.116 C 
BRANCH   2   3
ATOM      3  N   UNL A   1      31.387  29.648  24.543  1.00  0.00    -0.354 N 
ATOM      4  C   UNL A   1      30.921  28.454  24.040  1.00  0.00     0.245 C 
ATOM      5  O   UNL A   1      29.896  28.523  23.353  1.00  0.00    -0.272 OA
ATOM      6  H   UNL A   1      30.944  30.434  24.148  1.00  0.00     0.163 HD
BRANCH   4   7
ATOM      7  C   UNL A   1      31.570  27.085  24.399  1.00  0.00     0.118 C 
BRANCH   7   8
ATOM      8  C   UNL A   1      31.952  26.903  25.898  1.00  0.00     0.035 C 
ATOM      9  C   UNL A   1      33.410  26.648  26.259  1.00  0.00     0.007 C 
ENDBRANCH   7   8
BRANCH   7  10
ATOM     10  C   UNL A   1      32.865  27.125  23.509  1.00  0.00     0.035 C 
ATOM     11  C   UNL A   1      32.722  26.961  22.007  1.00  0.00     0.007 C 
ENDBRANCH   7  10
BRANCH   7  12
ATOM     12  N   UNL A   1      30.689  25.924  24.063  1.00  0.00    -0.338 N 
ATOM     13  C   UNL A   1      30.947  24.569  23.869  1.00  0.00     0.252 C 
ATOM     14  H   UNL A   1      29.740  26.164  23.958  1.00  0.00     0.164 HD
ATOM     15  O   UNL A   1      30.230  24.008  23.034  1.00  0.00    -0.269 OA
BRANCH  13  16
ATOM     16  C   UNL A   1      31.928  23.710  24.628  1.00  0.00     0.042 A 
ATOM     17  C   UNL A   1      31.724  23.240  25.918  1.00  0.00     0.016 A 
ATOM     18  C   UNL A   1      33.037  23.172  23.956  1.00  0.00     0.055 A 
ATOM     19  C   UNL A   1      32.529  22.279  26.538  1.00  0.00     0.029 A 
ATOM     20  C   UNL A   1      33.849  22.198  24.570  1.00  0.00     0.146 A 
ATOM     21  C   UNL A   1      33.597  21.725  25.863  1.00  0.00     0.068 A 
ATOM     22  F   UNL A   1      34.870  21.679  23.872  1.00  0.00    -0.205 F 
BRANCH  21  23
ATOM     23  N   UNL A   1      34.324  20.715  26.462  1.00  0.00    -0.396 N 
ATOM     24  H   UNL A   1      34.255  20.567  27.433  1.00  0.00     0.156 HD
ATOM     25  H   UNL A   1      34.912  20.142  25.918  1.00  0.00     0.156 HD
ENDBRANCH  21  23
ENDBRANCH  13  16
ENDBRANCH   7  12
ENDBRANCH   4   7
ENDBRANCH   2   3
ENDBRANCH   1   2
BRANCH   1  26
ATOM     26  C   UNL A   1      31.755  32.153  26.901  1.00  0.00     0.023 C 
BRANCH  26  27
ATOM     27  C   UNL A   1      32.991  32.977  27.203  1.00  0.00     0.116 C 
BRANCH  27  28
ATOM     28  N   UNL A   1      32.660  34.286  27.730  1.00  0.00    -0.352 N 
ATOM     29  C   UNL A   1      33.148  34.913  28.851  1.00  0.00     0.251 C 
ATOM     30  H   UNL A   1      31.994  34.796  27.214  1.00  0.00     0.163 HD
ATOM     31  O   UNL A   1      32.603  35.935  29.254  1.00  0.00    -0.269 OA
BRANCH  29  32
ATOM     32  C   UNL A   1      34.304  34.339  29.577  1.00  0.00     0.039 A 
ATOM     33  C   UNL A   1      34.068  33.551  30.706  1.00  0.00     0.014 A 
ATOM     34  C   UNL A   1      35.615  34.582  29.156  1.00  0.00     0.014 A 
ATOM     35  C   UNL A   1      35.143  32.970  31.383  1.00  0.00     0.010 A 
ATOM     36  C   UNL A   1      36.678  33.934  29.781  1.00  0.00     0.010 A 
ATOM     37  C   UNL A   1      36.456  33.134  30.911  1.00  0.00    -0.014 A 
BRANCH  37  38
ATOM     38  C   UNL A   1      37.610  32.508  31.606  1.00  0.00     0.031 A 
ATOM     39  C   UNL A   1      38.353  31.373  30.952  1.00  0.00     0.074 A 
ATOM     40  C   UNL A   1      37.956  32.923  32.842  1.00  0.00     0.049 A 
ATOM     41  N   UNL A   1      39.335  30.646  31.419  1.00  0.00    -0.248 NA
ATOM     42  C   UNL A   1      37.907  30.983  29.605  1.00  0.00     0.031 C 
ATOM     43  C   UNL A   1      37.289  33.990  33.591  1.00  0.00     0.029 A 
ATOM     44  N   UNL A   1      38.949  32.497  33.687  1.00  0.00    -0.354 N 
ATOM     45  C   UNL A   1      39.615  29.706  30.432  1.00  0.00     0.074 A 
ATOM     46  C   UNL A   1      38.652  29.915  29.372  1.00  0.00     0.031 C 
ATOM     47  C   UNL A   1      37.910  34.154  34.770  1.00  0.00     0.029 A 
ATOM     48  C   UNL A   1      38.985  33.175  34.885  1.00  0.00     0.049 A 
ATOM     49  H   UNL A   1      39.577  31.773  33.459  1.00  0.00     0.167 HD
ATOM     50  C   UNL A   1      40.599  28.773  30.401  1.00  0.00     0.034 A 
ATOM     51  C   UNL A   1      39.788  33.016  35.956  1.00  0.00     0.034 A 
ATOM     52  C   UNL A   1      41.561  28.592  31.461  1.00  0.00     0.049 A 
ATOM     53  C   UNL A   1      40.858  31.954  35.911  1.00  0.00     0.074 A 
ATOM     54  C   UNL A   1      42.631  27.718  31.514  1.00  0.00     0.029 A 
ATOM     55  N   UNL A   1      41.564  29.294  32.661  1.00  0.00    -0.354 N 
ATOM     56  N   UNL A   1      41.141  31.104  34.949  1.00  0.00    -0.248 NA
ATOM     57  C   UNL A   1      41.725  31.836  37.090  1.00  0.00     0.031 C 
ATOM     58  C   UNL A   1      43.235  27.838  32.770  1.00  0.00     0.029 A 
ATOM     59  C   UNL A   1      42.596  28.848  33.471  1.00  0.00     0.049 A 
ATOM     60  H   UNL A   1      40.926  30.005  32.901  1.00  0.00     0.167 HD
ATOM     61  C   UNL A   1      42.240  30.376  35.396  1.00  0.00     0.074 A 
ATOM     62  C   UNL A   1      42.576  30.896  36.706  1.00  0.00     0.031 C 
ATOM     63  C   UNL A   1      42.914  29.371  34.780  1.00  0.00     0.034 A 
BRANCH  50  64
ATOM     64  C   UNL A   1      40.662  27.865  29.194  1.00  0.00     0.023 A 
ATOM     65  C   UNL A   1      41.599  28.066  28.164  1.00  0.00     0.031 A 
ATOM     66  C   UNL A   1      39.756  26.799  29.057  1.00  0.00     0.131 A 
ATOM     67  C   UNL A   1      41.555  27.268  27.011  1.00  0.00     0.055 A 
ATOM     68  C   UNL A   1      39.776  25.952  27.946  1.00  0.00     0.041 A 
ATOM     69  F   UNL A   1      38.823  26.568  29.995  1.00  0.00    -0.206 F 
ATOM     70  C   UNL A   1      40.668  26.195  26.907  1.00  0.00     0.022 A 
BRANCH  67  71
ATOM     71  S   UNL A   1      42.572  27.749  25.588  1.00  0.00     0.124 S 
ATOM     72  O   UNL A   1      41.831  28.899  25.074  1.00  0.00    -0.237 OA
ATOM     73  O   UNL A   1      43.860  28.041  26.203  1.00  0.00    -0.237 OA
ATOM     74  O   UNL A   1      42.542  26.566  24.730  1.00  0.00    -0.744 OA
ENDBRANCH  67  71
ENDBRANCH  50  64
BRANCH  51  75
ATOM     75  C   UNL A   1      39.615  33.872  37.166  1.00  0.00     0.023 A 
ATOM     76  C   UNL A   1      38.950  33.388  38.304  1.00  0.00     0.031 A 
ATOM     77  C   UNL A   1      40.076  35.200  37.188  1.00  0.00     0.131 A 
ATOM     78  C   UNL A   1      38.716  34.240  39.394  1.00  0.00     0.055 A 
ATOM     79  C   UNL A   1      39.893  36.027  38.299  1.00  0.00     0.041 A 
ATOM     80  F   UNL A   1      40.721  35.714  36.129  1.00  0.00    -0.206 F 
ATOM     81  C   UNL A   1      39.197  35.552  39.406  1.00  0.00     0.022 A 
BRANCH  78  82
ATOM     82  S   UNL A   1      37.692  33.636  40.765  1.00  0.00     0.124 S 
ATOM     83  O   UNL A   1      36.555  33.063  40.053  1.00  0.00    -0.237 OA
ATOM     84  O   UNL A   1      38.588  32.688  41.417  1.00  0.00    -0.237 OA
ATOM     85  O   UNL A   1      37.402  34.846  41.531  1.00  0.00    -0.744 OA
ENDBRANCH  78  82
ENDBRANCH  51  75
BRANCH  63  86
ATOM     86  C   UNL A   1      44.114  28.805  35.501  1.00  0.00     0.023 A 
ATOM     87  C   UNL A   1      43.995  27.752  36.426  1.00  0.00     0.031 A 
ATOM     88  C   UNL A   1      45.394  29.336  35.265  1.00  0.00     0.131 A 
ATOM     89  C   UNL A   1      45.127  27.304  37.122  1.00  0.00     0.055 A 
ATOM     90  C   UNL A   1      46.527  28.842  35.912  1.00  0.00     0.041 A 
ATOM     91  F   UNL A   1      45.565  30.345  34.395  1.00  0.00    -0.206 F 
ATOM     92  C   UNL A   1      46.395  27.829  36.858  1.00  0.00     0.022 A 
BRANCH  89  93
ATOM     93  S   UNL A   1      44.908  26.089  38.450  1.00  0.00     0.124 S 
ATOM     94  O   UNL A   1      46.266  25.959  38.969  1.00  0.00    -0.237 OA
ATOM     95  O   UNL A   1      43.952  26.756  39.329  1.00  0.00    -0.237 OA
ATOM     96  O   UNL A   1      44.392  24.910  37.757  1.00  0.00    -0.744 OA
ENDBRANCH  89  93
ENDBRANCH  63  86
ENDBRANCH  37  38
ENDBRANCH  29  32
ENDBRANCH  27  28
ENDBRANCH  26  27
ENDBRANCH   1  26
TORSDOF 19
ENDMDL
