MODEL 1
REMARK VINA RESULT:     -12.4      0.000      0.000
REMARK SMILES O=C(NCCCCNC(=O)c1ccc(-c2c3nc(c(-c4cc(S(=O)(=O)[O-])ccc4F)c4ccc([nH]4)c(-c4cc(S(=O)(=O)[O-])ccc4F)c4nc(c(-c5cc(S(=O)(=O)[O-])ccc5F)c5ccc2[nH]5)C=C4)C=C3)cc1)C1=Cc2cc(Cl)cc(Cl)c2O[C@@H]1C(F)(F)F
REMARK SMILES IDX 6 1 5 2 4 3 3 4 1 5 2 6 74 8 75 9 85 10 76 11 84 12 77 13
REMARK SMILES IDX 83 14 78 15 81 16 79 17 80 18 82 19 86 20 87 21 88 22 89 23
REMARK SMILES IDX 7 24 8 25 9 26 10 28 11 29 12 30 73 31 13 32 72 33 14 34
REMARK SMILES IDX 15 35 16 36 66 37 17 38 71 39 65 40 67 41 18 42 70 43 64 44
REMARK SMILES IDX 63 45 19 47 51 48 31 49 50 50 32 51 35 52 49 53 68 54 33 55
REMARK SMILES IDX 34 56 48 58 69 59 36 60 20 61 21 62 29 63 22 64 28 65 30 66
REMARK SMILES IDX 27 67 23 68 24 69 25 70 26 71 52 72 53 73 61 74 54 75 60 76
REMARK SMILES IDX 62 77 59 78 55 79 56 80 57 81 58 82 37 83 38 84 46 85 39 86
REMARK SMILES IDX 45 87 47 88 44 89 40 90 41 91 42 92 43 93
REMARK H PARENT 3 7 8 27 67 46 35 57
REMARK Flexibility Score: inf
ROOT
ATOM      1  C   UNL A   1      31.882  28.942  26.311  1.00  0.00     0.023 C 
ENDROOT
BRANCH   1   2
ATOM      2  C   UNL A   1      32.016  27.519  26.856  1.00  0.00     0.023 C 
BRANCH   2   3
ATOM      3  C   UNL A   1      31.145  26.476  26.152  1.00  0.00     0.116 C 
BRANCH   3   4
ATOM      4  N   UNL A   1      31.044  25.207  26.876  1.00  0.00    -0.352 N 
ATOM      5  O   UNL A   1      31.688  23.139  27.545  1.00  0.00    -0.270 OA
ATOM      6  C   UNL A   1      31.726  24.025  26.700  1.00  0.00     0.251 C 
ATOM      7  H   UNL A   1      30.385  25.199  27.606  1.00  0.00     0.163 HD
BRANCH   6   8
ATOM      8  C   UNL A   1      32.615  23.901  25.526  1.00  0.00     0.067 C 
ATOM      9  C   UNL A   1      33.714  24.658  25.402  1.00  0.00     0.025 C 
ATOM     10  C   UNL A   1      32.408  22.709  24.644  1.00  0.00     0.314 C 
ATOM     11  C   UNL A   1      34.911  23.816  25.198  1.00  0.00     0.020 A 
ATOM     12  O   UNL A   1      33.566  21.846  24.643  1.00  0.00    -0.474 OA
ATOM     13  C   UNL A   1      36.136  24.310  25.665  1.00  0.00     0.032 A 
ATOM     14  C   UNL A   1      34.774  22.430  24.952  1.00  0.00     0.146 A 
ATOM     15  C   UNL A   1      37.189  23.430  25.928  1.00  0.00     0.043 A 
ATOM     16  C   UNL A   1      35.854  21.568  25.193  1.00  0.00     0.085 A 
ATOM     17  Cl  UNL A   1      38.633  24.034  26.641  1.00  0.00    -0.084 Cl
ATOM     18  C   UNL A   1      37.054  22.063  25.699  1.00  0.00     0.045 A 
ATOM     19  Cl  UNL A   1      35.689  19.859  25.001  1.00  0.00    -0.080 Cl
BRANCH  10  20
ATOM     20  C   UNL A   1      32.043  23.139  23.210  1.00  0.00     0.429 C 
ATOM     21  F   UNL A   1      33.145  23.463  22.494  1.00  0.00    -0.167 F 
ATOM     22  F   UNL A   1      31.409  22.154  22.531  1.00  0.00    -0.167 F 
ATOM     23  F   UNL A   1      31.225  24.222  23.188  1.00  0.00    -0.167 F 
ENDBRANCH  10  20
ENDBRANCH   6   8
ENDBRANCH   3   4
ENDBRANCH   2   3
ENDBRANCH   1   2
BRANCH   1  24
ATOM     24  C   UNL A   1      33.157  29.782  26.279  1.00  0.00     0.116 C 
BRANCH  24  25
ATOM     25  N   UNL A   1      33.016  31.126  26.815  1.00  0.00    -0.352 N 
ATOM     26  C   UNL A   1      33.901  31.822  27.613  1.00  0.00     0.251 C 
ATOM     27  H   UNL A   1      32.185  31.600  26.579  1.00  0.00     0.163 HD
ATOM     28  O   UNL A   1      33.611  32.946  28.015  1.00  0.00    -0.269 OA
BRANCH  26  29
ATOM     29  C   UNL A   1      35.170  31.179  28.025  1.00  0.00     0.039 A 
ATOM     30  C   UNL A   1      36.348  31.929  27.999  1.00  0.00     0.014 A 
ATOM     31  C   UNL A   1      35.185  29.865  28.500  1.00  0.00     0.014 A 
ATOM     32  C   UNL A   1      37.523  31.390  28.532  1.00  0.00     0.010 A 
ATOM     33  C   UNL A   1      36.335  29.360  29.100  1.00  0.00     0.010 A 
ATOM     34  C   UNL A   1      37.518  30.117  29.127  1.00  0.00    -0.014 A 
BRANCH  34  35
ATOM     35  C   UNL A   1      38.743  29.553  29.758  1.00  0.00     0.031 A 
ATOM     36  C   UNL A   1      39.191  30.062  31.103  1.00  0.00     0.074 A 
ATOM     37  C   UNL A   1      39.479  28.631  29.105  1.00  0.00     0.049 A 
ATOM     38  N   UNL A   1      40.267  29.765  31.786  1.00  0.00    -0.248 NA
ATOM     39  C   UNL A   1      38.328  31.063  31.748  1.00  0.00     0.031 C 
ATOM     40  C   UNL A   1      39.180  28.095  27.774  1.00  0.00     0.029 A 
ATOM     41  N   UNL A   1      40.635  27.984  29.466  1.00  0.00    -0.354 N 
ATOM     42  C   UNL A   1      40.213  30.547  32.935  1.00  0.00     0.074 A 
ATOM     43  C   UNL A   1      39.037  31.384  32.817  1.00  0.00     0.031 C 
ATOM     44  C   UNL A   1      40.115  27.190  27.443  1.00  0.00     0.029 A 
ATOM     45  C   UNL A   1      41.100  27.101  28.517  1.00  0.00     0.049 A 
ATOM     46  H   UNL A   1      41.091  28.138  30.325  1.00  0.00     0.167 HD
ATOM     47  C   UNL A   1      41.045  30.546  34.007  1.00  0.00     0.034 A 
ATOM     48  C   UNL A   1      42.194  26.312  28.514  1.00  0.00     0.034 A 
ATOM     49  C   UNL A   1      42.206  29.699  34.121  1.00  0.00     0.049 A 
ATOM     50  C   UNL A   1      43.094  26.315  29.727  1.00  0.00     0.074 A 
ATOM     51  C   UNL A   1      43.122  29.618  35.156  1.00  0.00     0.029 A 
ATOM     52  N   UNL A   1      42.607  28.774  33.165  1.00  0.00    -0.354 N 
ATOM     53  N   UNL A   1      43.011  27.044  30.817  1.00  0.00    -0.248 NA
ATOM     54  C   UNL A   1      44.217  25.369  29.721  1.00  0.00     0.031 C 
ATOM     55  C   UNL A   1      44.094  28.672  34.811  1.00  0.00     0.029 A 
ATOM     56  C   UNL A   1      43.751  28.116  33.590  1.00  0.00     0.049 A 
ATOM     57  H   UNL A   1      42.145  28.609  32.311  1.00  0.00     0.167 HD
ATOM     58  C   UNL A   1      44.046  26.609  31.641  1.00  0.00     0.074 A 
ATOM     59  C   UNL A   1      44.725  25.547  30.930  1.00  0.00     0.031 C 
ATOM     60  C   UNL A   1      44.406  27.048  32.875  1.00  0.00     0.034 A 
BRANCH  47  61
ATOM     61  C   UNL A   1      40.717  31.498  35.132  1.00  0.00     0.023 A 
ATOM     62  C   UNL A   1      39.663  31.235  36.026  1.00  0.00     0.031 A 
ATOM     63  C   UNL A   1      41.435  32.695  35.295  1.00  0.00     0.131 A 
ATOM     64  C   UNL A   1      39.304  32.190  36.987  1.00  0.00     0.055 A 
ATOM     65  C   UNL A   1      41.126  33.605  36.310  1.00  0.00     0.041 A 
ATOM     66  F   UNL A   1      42.437  33.011  34.461  1.00  0.00    -0.206 F 
ATOM     67  C   UNL A   1      40.045  33.362  37.153  1.00  0.00     0.022 A 
BRANCH  64  68
ATOM     68  S   UNL A   1      37.772  31.940  37.925  1.00  0.00     0.124 S 
ATOM     69  O   UNL A   1      38.226  32.171  39.294  1.00  0.00    -0.237 OA
ATOM     70  O   UNL A   1      36.890  32.958  37.365  1.00  0.00    -0.237 OA
ATOM     71  O   UNL A   1      37.404  30.560  37.620  1.00  0.00    -0.744 OA
ENDBRANCH  64  68
ENDBRANCH  47  61
BRANCH  48  72
ATOM     72  C   UNL A   1      42.512  25.447  27.340  1.00  0.00     0.023 A 
ATOM     73  C   UNL A   1      42.058  24.119  27.275  1.00  0.00     0.031 A 
ATOM     74  C   UNL A   1      43.340  25.911  26.303  1.00  0.00     0.131 A 
ATOM     75  C   UNL A   1      42.492  23.279  26.236  1.00  0.00     0.055 A 
ATOM     76  C   UNL A   1      43.720  25.089  25.240  1.00  0.00     0.041 A 
ATOM     77  F   UNL A   1      43.794  27.173  26.308  1.00  0.00    -0.206 F 
ATOM     78  C   UNL A   1      43.311  23.758  25.212  1.00  0.00     0.022 A 
BRANCH  75  79
ATOM     79  S   UNL A   1      42.066  21.518  26.309  1.00  0.00     0.124 S 
ATOM     80  O   UNL A   1      40.674  21.530  25.874  1.00  0.00    -0.237 OA
ATOM     81  O   UNL A   1      43.025  20.938  25.376  1.00  0.00    -0.237 OA
ATOM     82  O   UNL A   1      42.278  21.175  27.714  1.00  0.00    -0.744 OA
ENDBRANCH  75  79
ENDBRANCH  48  72
BRANCH  60  83
ATOM     83  C   UNL A   1      45.538  26.320  33.557  1.00  0.00     0.023 A 
ATOM     84  C   UNL A   1      45.317  25.184  34.355  1.00  0.00     0.031 A 
ATOM     85  C   UNL A   1      46.855  26.794  33.429  1.00  0.00     0.131 A 
ATOM     86  C   UNL A   1      46.388  24.602  35.051  1.00  0.00     0.055 A 
ATOM     87  C   UNL A   1      47.925  26.174  34.076  1.00  0.00     0.041 A 
ATOM     88  F   UNL A   1      47.122  27.874  32.679  1.00  0.00    -0.206 F 
ATOM     89  C   UNL A   1      47.692  25.081  34.905  1.00  0.00     0.022 A 
BRANCH  86  90
ATOM     90  S   UNL A   1      46.035  23.277  36.240  1.00  0.00     0.124 S 
ATOM     91  O   UNL A   1      47.306  22.563  36.286  1.00  0.00    -0.237 OA
ATOM     92  O   UNL A   1      45.681  24.026  37.442  1.00  0.00    -0.237 OA
ATOM     93  O   UNL A   1      44.933  22.544  35.620  1.00  0.00    -0.744 OA
ENDBRANCH  86  90
ENDBRANCH  60  83
ENDBRANCH  34  35
ENDBRANCH  26  29
ENDBRANCH  24  25
ENDBRANCH   1  24
TORSDOF 15
ENDMDL
MODEL 2
REMARK VINA RESULT:     -12.3      1.941      2.272
REMARK SMILES O=C(NCCCCNC(=O)c1ccc(-c2c3nc(c(-c4cc(S(=O)(=O)[O-])ccc4F)c4ccc([nH]4)c(-c4cc(S(=O)(=O)[O-])ccc4F)c4nc(c(-c5cc(S(=O)(=O)[O-])ccc5F)c5ccc2[nH]5)C=C4)C=C3)cc1)C1=Cc2cc(Cl)cc(Cl)c2O[C@@H]1C(F)(F)F
REMARK SMILES IDX 6 1 5 2 4 3 3 4 1 5 2 6 74 8 75 9 85 10 76 11 84 12 77 13
REMARK SMILES IDX 83 14 78 15 81 16 79 17 80 18 82 19 86 20 87 21 88 22 89 23
REMARK SMILES IDX 7 24 8 25 9 26 10 28 11 29 12 30 73 31 13 32 72 33 14 34
REMARK SMILES IDX 15 35 16 36 66 37 17 38 71 39 65 40 67 41 18 42 70 43 64 44
REMARK SMILES IDX 63 45 19 47 51 48 31 49 50 50 32 51 35 52 49 53 68 54 33 55
REMARK SMILES IDX 34 56 48 58 69 59 36 60 20 61 21 62 29 63 22 64 28 65 30 66
REMARK SMILES IDX 27 67 23 68 24 69 25 70 26 71 52 72 53 73 61 74 54 75 60 76
REMARK SMILES IDX 62 77 59 78 55 79 56 80 57 81 58 82 37 83 38 84 46 85 39 86
REMARK SMILES IDX 45 87 47 88 44 89 40 90 41 91 42 92 43 93
REMARK H PARENT 3 7 8 27 67 46 35 57
REMARK Flexibility Score: inf
ROOT
ATOM      1  C   UNL A   1      32.983  27.726  25.806  1.00  0.00     0.023 C 
ENDROOT
BRANCH   1   2
ATOM      2  C   UNL A   1      31.626  27.488  26.472  1.00  0.00     0.023 C 
BRANCH   2   3
ATOM      3  C   UNL A   1      30.856  26.274  25.947  1.00  0.00     0.116 C 
BRANCH   3   4
ATOM      4  N   UNL A   1      30.926  25.107  26.829  1.00  0.00    -0.352 N 
ATOM      5  O   UNL A   1      31.798  23.196  27.683  1.00  0.00    -0.270 OA
ATOM      6  C   UNL A   1      31.687  23.964  26.735  1.00  0.00     0.251 C 
ATOM      7  H   UNL A   1      30.335  25.146  27.615  1.00  0.00     0.163 HD
BRANCH   6   8
ATOM      8  C   UNL A   1      32.479  23.753  25.505  1.00  0.00     0.067 C 
ATOM      9  C   UNL A   1      33.636  24.398  25.302  1.00  0.00     0.025 C 
ATOM     10  C   UNL A   1      32.096  22.587  24.647  1.00  0.00     0.314 C 
ATOM     11  C   UNL A   1      34.727  23.441  25.024  1.00  0.00     0.020 A 
ATOM     12  O   UNL A   1      33.160  21.614  24.574  1.00  0.00    -0.474 OA
ATOM     13  C   UNL A   1      36.024  23.812  25.405  1.00  0.00     0.032 A 
ATOM     14  C   UNL A   1      34.438  22.076  24.797  1.00  0.00     0.146 A 
ATOM     15  C   UNL A   1      37.000  22.832  25.603  1.00  0.00     0.043 A 
ATOM     16  C   UNL A   1      35.441  21.111  24.971  1.00  0.00     0.085 A 
ATOM     17  Cl  UNL A   1      38.542  23.290  26.213  1.00  0.00    -0.084 Cl
ATOM     18  C   UNL A   1      36.716  21.485  25.393  1.00  0.00     0.045 A 
ATOM     19  Cl  UNL A   1      35.096  19.427  24.802  1.00  0.00    -0.080 Cl
BRANCH  10  20
ATOM     20  C   UNL A   1      31.679  23.052  23.238  1.00  0.00     0.429 C 
ATOM     21  F   UNL A   1      32.458  24.069  22.801  1.00  0.00    -0.167 F 
ATOM     22  F   UNL A   1      31.785  22.057  22.325  1.00  0.00    -0.167 F 
ATOM     23  F   UNL A   1      30.396  23.490  23.196  1.00  0.00    -0.167 F 
ENDBRANCH  10  20
ENDBRANCH   6   8
ENDBRANCH   3   4
ENDBRANCH   2   3
ENDBRANCH   1   2
BRANCH   1  24
ATOM     24  C   UNL A   1      34.000  28.541  26.603  1.00  0.00     0.116 C 
BRANCH  24  25
ATOM     25  N   UNL A   1      33.586  29.901  26.909  1.00  0.00    -0.352 N 
ATOM     26  C   UNL A   1      34.257  30.847  27.655  1.00  0.00     0.251 C 
ATOM     27  H   UNL A   1      32.717  30.181  26.539  1.00  0.00     0.163 HD
ATOM     28  O   UNL A   1      33.747  31.948  27.853  1.00  0.00    -0.269 OA
BRANCH  26  29
ATOM     29  C   UNL A   1      35.565  30.505  28.260  1.00  0.00     0.039 A 
ATOM     30  C   UNL A   1      35.591  29.779  29.453  1.00  0.00     0.014 A 
ATOM     31  C   UNL A   1      36.759  30.836  27.615  1.00  0.00     0.014 A 
ATOM     32  C   UNL A   1      36.809  29.312  29.954  1.00  0.00     0.010 A 
ATOM     33  C   UNL A   1      37.962  30.305  28.072  1.00  0.00     0.010 A 
ATOM     34  C   UNL A   1      38.003  29.532  29.245  1.00  0.00    -0.014 A 
BRANCH  34  35
ATOM     35  C   UNL A   1      39.301  28.987  29.727  1.00  0.00     0.031 A 
ATOM     36  C   UNL A   1      40.020  29.665  30.863  1.00  0.00     0.074 A 
ATOM     37  C   UNL A   1      39.858  27.923  29.114  1.00  0.00     0.049 A 
ATOM     38  N   UNL A   1      41.194  29.402  31.377  1.00  0.00    -0.248 NA
ATOM     39  C   UNL A   1      39.339  30.815  31.478  1.00  0.00     0.031 C 
ATOM     40  C   UNL A   1      39.287  27.209  27.968  1.00  0.00     0.029 A 
ATOM     41  N   UNL A   1      41.035  27.258  29.360  1.00  0.00    -0.354 N 
ATOM     42  C   UNL A   1      41.394  30.356  32.370  1.00  0.00     0.074 A 
ATOM     43  C   UNL A   1      40.254  31.248  32.330  1.00  0.00     0.031 C 
ATOM     44  C   UNL A   1      40.103  26.197  27.628  1.00  0.00     0.029 A 
ATOM     45  C   UNL A   1      41.271  26.206  28.504  1.00  0.00     0.049 A 
ATOM     46  H   UNL A   1      41.653  27.512  30.083  1.00  0.00     0.167 HD
ATOM     47  C   UNL A   1      42.416  30.463  33.256  1.00  0.00     0.034 A 
ATOM     48  C   UNL A   1      42.310  25.350  28.433  1.00  0.00     0.034 A 
ATOM     49  C   UNL A   1      43.542  29.562  33.295  1.00  0.00     0.049 A 
ATOM     50  C   UNL A   1      43.426  25.477  29.442  1.00  0.00     0.074 A 
ATOM     51  C   UNL A   1      44.634  29.578  34.144  1.00  0.00     0.029 A 
ATOM     52  N   UNL A   1      43.712  28.472  32.451  1.00  0.00    -0.354 N 
ATOM     53  N   UNL A   1      43.584  26.371  30.392  1.00  0.00    -0.248 NA
ATOM     54  C   UNL A   1      44.487  24.462  29.390  1.00  0.00     0.031 C 
ATOM     55  C   UNL A   1      45.482  28.522  33.791  1.00  0.00     0.029 A 
ATOM     56  C   UNL A   1      44.889  27.807  32.764  1.00  0.00     0.049 A 
ATOM     57  H   UNL A   1      43.089  28.209  31.736  1.00  0.00     0.167 HD
ATOM     58  C   UNL A   1      44.740  25.997  31.074  1.00  0.00     0.074 A 
ATOM     59  C   UNL A   1      45.225  24.790  30.438  1.00  0.00     0.031 C 
ATOM     60  C   UNL A   1      45.348  26.596  32.130  1.00  0.00     0.034 A 
BRANCH  47  61
ATOM     61  C   UNL A   1      42.351  31.600  34.246  1.00  0.00     0.023 A 
ATOM     62  C   UNL A   1      41.497  31.546  35.363  1.00  0.00     0.031 A 
ATOM     63  C   UNL A   1      43.116  32.764  34.059  1.00  0.00     0.131 A 
ATOM     64  C   UNL A   1      41.367  32.662  36.202  1.00  0.00     0.055 A 
ATOM     65  C   UNL A   1      43.045  33.841  34.946  1.00  0.00     0.041 A 
ATOM     66  F   UNL A   1      43.933  32.883  33.001  1.00  0.00    -0.206 F 
ATOM     67  C   UNL A   1      42.155  33.800  36.017  1.00  0.00     0.022 A 
BRANCH  64  68
ATOM     68  S   UNL A   1      40.055  32.656  37.453  1.00  0.00     0.124 S 
ATOM     69  O   UNL A   1      39.516  34.008  37.318  1.00  0.00    -0.237 OA
ATOM     70  O   UNL A   1      39.189  31.575  36.998  1.00  0.00    -0.237 OA
ATOM     71  O   UNL A   1      40.772  32.399  38.700  1.00  0.00    -0.744 OA
ENDBRANCH  64  68
ENDBRANCH  47  61
BRANCH  48  72
ATOM     72  C   UNL A   1      42.361  24.290  27.382  1.00  0.00     0.023 A 
ATOM     73  C   UNL A   1      41.726  23.052  27.571  1.00  0.00     0.031 A 
ATOM     74  C   UNL A   1      43.109  24.473  26.206  1.00  0.00     0.131 A 
ATOM     75  C   UNL A   1      41.910  22.019  26.638  1.00  0.00     0.055 A 
ATOM     76  C   UNL A   1      43.241  23.462  25.251  1.00  0.00     0.041 A 
ATOM     77  F   UNL A   1      43.729  25.639  25.969  1.00  0.00    -0.206 F 
ATOM     78  C   UNL A   1      42.654  22.219  25.474  1.00  0.00     0.022 A 
BRANCH  75  79
ATOM     79  S   UNL A   1      41.261  20.371  27.028  1.00  0.00     0.124 S 
ATOM     80  O   UNL A   1      42.428  19.528  26.794  1.00  0.00    -0.237 OA
ATOM     81  O   UNL A   1      40.852  20.530  28.419  1.00  0.00    -0.237 OA
ATOM     82  O   UNL A   1      40.167  20.202  26.073  1.00  0.00    -0.744 OA
ENDBRANCH  75  79
ENDBRANCH  48  72
BRANCH  60  83
ATOM     83  C   UNL A   1      46.559  25.904  32.706  1.00  0.00     0.023 A 
ATOM     84  C   UNL A   1      47.847  26.100  32.180  1.00  0.00     0.031 A 
ATOM     85  C   UNL A   1      46.410  25.007  33.780  1.00  0.00     0.131 A 
ATOM     86  C   UNL A   1      48.926  25.356  32.682  1.00  0.00     0.055 A 
ATOM     87  C   UNL A   1      47.498  24.317  34.315  1.00  0.00     0.041 A 
ATOM     88  F   UNL A   1      45.202  24.784  34.320  1.00  0.00    -0.206 F 
ATOM     89  C   UNL A   1      48.762  24.476  33.756  1.00  0.00     0.022 A 
BRANCH  86  90
ATOM     90  S   UNL A   1      50.529  25.470  31.839  1.00  0.00     0.124 S 
ATOM     91  O   UNL A   1      51.415  25.883  32.923  1.00  0.00    -0.237 OA
ATOM     92  O   UNL A   1      50.717  24.109  31.347  1.00  0.00    -0.237 OA
ATOM     93  O   UNL A   1      50.302  26.478  30.805  1.00  0.00    -0.744 OA
ENDBRANCH  86  90
ENDBRANCH  60  83
ENDBRANCH  34  35
ENDBRANCH  26  29
ENDBRANCH  24  25
ENDBRANCH   1  24
TORSDOF 15
ENDMDL
MODEL 3
REMARK VINA RESULT:     -12.2      2.366      3.155
REMARK SMILES O=C(NCCCCNC(=O)c1ccc(-c2c3nc(c(-c4cc(S(=O)(=O)[O-])ccc4F)c4ccc([nH]4)c(-c4cc(S(=O)(=O)[O-])ccc4F)c4nc(c(-c5cc(S(=O)(=O)[O-])ccc5F)c5ccc2[nH]5)C=C4)C=C3)cc1)C1=Cc2cc(Cl)cc(Cl)c2O[C@@H]1C(F)(F)F
REMARK SMILES IDX 6 1 5 2 4 3 3 4 1 5 2 6 74 8 75 9 85 10 76 11 84 12 77 13
REMARK SMILES IDX 83 14 78 15 81 16 79 17 80 18 82 19 86 20 87 21 88 22 89 23
REMARK SMILES IDX 7 24 8 25 9 26 10 28 11 29 12 30 73 31 13 32 72 33 14 34
REMARK SMILES IDX 15 35 16 36 66 37 17 38 71 39 65 40 67 41 18 42 70 43 64 44
REMARK SMILES IDX 63 45 19 47 51 48 31 49 50 50 32 51 35 52 49 53 68 54 33 55
REMARK SMILES IDX 34 56 48 58 69 59 36 60 20 61 21 62 29 63 22 64 28 65 30 66
REMARK SMILES IDX 27 67 23 68 24 69 25 70 26 71 52 72 53 73 61 74 54 75 60 76
REMARK SMILES IDX 62 77 59 78 55 79 56 80 57 81 58 82 37 83 38 84 46 85 39 86
REMARK SMILES IDX 45 87 47 88 44 89 40 90 41 91 42 92 43 93
REMARK H PARENT 3 7 8 27 67 46 35 57
REMARK Flexibility Score: inf
ROOT
ATOM      1  C   UNL A   1      31.403  29.045  26.085  1.00  0.00     0.023 C 
ENDROOT
BRANCH   1   2
ATOM      2  C   UNL A   1      31.470  27.825  27.006  1.00  0.00     0.023 C 
BRANCH   2   3
ATOM      3  C   UNL A   1      32.347  26.681  26.494  1.00  0.00     0.116 C 
BRANCH   3   4
ATOM      4  N   UNL A   1      31.773  25.353  26.720  1.00  0.00    -0.352 N 
ATOM      5  O   UNL A   1      31.218  23.215  26.213  1.00  0.00    -0.270 OA
ATOM      6  C   UNL A   1      31.471  24.349  25.828  1.00  0.00     0.251 C 
ATOM      7  H   UNL A   1      31.572  25.144  27.661  1.00  0.00     0.163 HD
BRANCH   6   8
ATOM      8  C   UNL A   1      31.591  24.641  24.385  1.00  0.00     0.067 C 
ATOM      9  C   UNL A   1      30.574  25.177  23.696  1.00  0.00     0.025 C 
ATOM     10  C   UNL A   1      32.968  24.595  23.798  1.00  0.00     0.314 C 
ATOM     11  C   UNL A   1      31.001  26.412  23.006  1.00  0.00     0.020 A 
ATOM     12  O   UNL A   1      33.375  25.890  23.306  1.00  0.00    -0.474 OA
ATOM     13  C   UNL A   1      30.032  27.402  22.793  1.00  0.00     0.032 A 
ATOM     14  C   UNL A   1      32.370  26.764  22.956  1.00  0.00     0.146 A 
ATOM     15  C   UNL A   1      30.423  28.726  22.583  1.00  0.00     0.043 A 
ATOM     16  C   UNL A   1      32.741  28.094  22.713  1.00  0.00     0.085 A 
ATOM     17  Cl  UNL A   1      29.220  29.951  22.473  1.00  0.00    -0.084 Cl
ATOM     18  C   UNL A   1      31.769  29.079  22.547  1.00  0.00     0.045 A 
ATOM     19  Cl  UNL A   1      34.399  28.578  22.747  1.00  0.00    -0.080 Cl
BRANCH  10  20
ATOM     20  C   UNL A   1      33.059  23.531  22.686  1.00  0.00     0.429 C 
ATOM     21  F   UNL A   1      32.907  24.083  21.459  1.00  0.00    -0.167 F 
ATOM     22  F   UNL A   1      34.257  22.899  22.687  1.00  0.00    -0.167 F 
ATOM     23  F   UNL A   1      32.107  22.572  22.809  1.00  0.00    -0.167 F 
ENDBRANCH  10  20
ENDBRANCH   6   8
ENDBRANCH   3   4
ENDBRANCH   2   3
ENDBRANCH   1   2
BRANCH   1  24
ATOM     24  C   UNL A   1      32.635  29.947  26.057  1.00  0.00     0.116 C 
BRANCH  24  25
ATOM     25  N   UNL A   1      32.404  31.309  26.511  1.00  0.00    -0.352 N 
ATOM     26  C   UNL A   1      33.222  32.095  27.297  1.00  0.00     0.251 C 
ATOM     27  H   UNL A   1      31.559  31.723  26.221  1.00  0.00     0.163 HD
ATOM     28  O   UNL A   1      32.859  33.223  27.624  1.00  0.00    -0.269 OA
BRANCH  26  29
ATOM     29  C   UNL A   1      34.507  31.546  27.786  1.00  0.00     0.039 A 
ATOM     30  C   UNL A   1      35.578  32.417  28.003  1.00  0.00     0.014 A 
ATOM     31  C   UNL A   1      34.634  30.190  28.097  1.00  0.00     0.014 A 
ATOM     32  C   UNL A   1      36.743  31.944  28.612  1.00  0.00     0.010 A 
ATOM     33  C   UNL A   1      35.764  29.738  28.773  1.00  0.00     0.010 A 
ATOM     34  C   UNL A   1      36.832  30.610  29.043  1.00  0.00    -0.014 A 
BRANCH  34  35
ATOM     35  C   UNL A   1      38.038  30.103  29.752  1.00  0.00     0.031 A 
ATOM     36  C   UNL A   1      38.334  30.574  31.152  1.00  0.00     0.074 A 
ATOM     37  C   UNL A   1      38.894  29.271  29.125  1.00  0.00     0.049 A 
ATOM     38  N   UNL A   1      39.368  30.321  31.912  1.00  0.00    -0.248 NA
ATOM     39  C   UNL A   1      37.346  31.477  31.764  1.00  0.00     0.031 C 
ATOM     40  C   UNL A   1      38.748  28.783  27.751  1.00  0.00     0.029 A 
ATOM     41  N   UNL A   1      40.062  28.691  29.556  1.00  0.00    -0.354 N 
ATOM     42  C   UNL A   1      39.159  31.038  33.086  1.00  0.00     0.074 A 
ATOM     43  C   UNL A   1      37.938  31.794  32.904  1.00  0.00     0.031 C 
ATOM     44  C   UNL A   1      39.774  27.965  27.462  1.00  0.00     0.029 A 
ATOM     45  C   UNL A   1      40.669  27.893  28.613  1.00  0.00     0.049 A 
ATOM     46  H   UNL A   1      40.432  28.834  30.458  1.00  0.00     0.167 HD
ATOM     47  C   UNL A   1      39.897  31.043  34.225  1.00  0.00     0.034 A 
ATOM     48  C   UNL A   1      41.816  27.185  28.670  1.00  0.00     0.034 A 
ATOM     49  C   UNL A   1      41.106  30.276  34.401  1.00  0.00     0.049 A 
ATOM     50  C   UNL A   1      42.609  27.191  29.955  1.00  0.00     0.074 A 
ATOM     51  C   UNL A   1      41.935  30.209  35.507  1.00  0.00     0.029 A 
ATOM     52  N   UNL A   1      41.653  29.432  33.444  1.00  0.00    -0.354 N 
ATOM     53  N   UNL A   1      42.381  27.856  31.065  1.00  0.00    -0.248 NA
ATOM     54  C   UNL A   1      43.798  26.329  30.004  1.00  0.00     0.031 C 
ATOM     55  C   UNL A   1      43.002  29.353  35.206  1.00  0.00     0.029 A 
ATOM     56  C   UNL A   1      42.805  28.836  33.937  1.00  0.00     0.049 A 
ATOM     57  H   UNL A   1      41.278  29.277  32.547  1.00  0.00     0.167 HD
ATOM     58  C   UNL A   1      43.374  27.455  31.956  1.00  0.00     0.074 A 
ATOM     59  C   UNL A   1      44.188  26.482  31.260  1.00  0.00     0.031 C 
ATOM     60  C   UNL A   1      43.595  27.855  33.235  1.00  0.00     0.034 A 
BRANCH  47  61
ATOM     61  C   UNL A   1      39.406  31.910  35.358  1.00  0.00     0.023 A 
ATOM     62  C   UNL A   1      39.830  33.245  35.492  1.00  0.00     0.031 A 
ATOM     63  C   UNL A   1      38.539  31.395  36.337  1.00  0.00     0.131 A 
ATOM     64  C   UNL A   1      39.453  33.992  36.616  1.00  0.00     0.055 A 
ATOM     65  C   UNL A   1      38.099  32.171  37.412  1.00  0.00     0.041 A 
ATOM     66  F   UNL A   1      38.116  30.123  36.276  1.00  0.00    -0.206 F 
ATOM     67  C   UNL A   1      38.570  33.473  37.565  1.00  0.00     0.022 A 
BRANCH  64  68
ATOM     68  S   UNL A   1      40.246  35.599  36.893  1.00  0.00     0.124 S 
ATOM     69  O   UNL A   1      39.831  35.898  38.261  1.00  0.00    -0.237 OA
ATOM     70  O   UNL A   1      41.659  35.291  36.707  1.00  0.00    -0.237 OA
ATOM     71  O   UNL A   1      39.653  36.454  35.867  1.00  0.00    -0.744 OA
ENDBRANCH  64  68
ENDBRANCH  47  61
BRANCH  48  72
ATOM     72  C   UNL A   1      42.296  26.405  27.491  1.00  0.00     0.023 A 
ATOM     73  C   UNL A   1      41.927  25.062  27.312  1.00  0.00     0.031 A 
ATOM     74  C   UNL A   1      43.193  26.969  26.567  1.00  0.00     0.131 A 
ATOM     75  C   UNL A   1      42.506  24.306  26.280  1.00  0.00     0.055 A 
ATOM     76  C   UNL A   1      43.721  26.230  25.506  1.00  0.00     0.041 A 
ATOM     77  F   UNL A   1      43.572  28.252  26.683  1.00  0.00    -0.206 F 
ATOM     78  C   UNL A   1      43.393  24.884  25.369  1.00  0.00     0.022 A 
BRANCH  75  79
ATOM     79  S   UNL A   1      42.176  22.523  26.220  1.00  0.00     0.124 S 
ATOM     80  O   UNL A   1      40.720  22.493  26.152  1.00  0.00    -0.237 OA
ATOM     81  O   UNL A   1      42.883  22.128  25.007  1.00  0.00    -0.237 OA
ATOM     82  O   UNL A   1      42.755  22.029  27.467  1.00  0.00    -0.744 OA
ENDBRANCH  75  79
ENDBRANCH  48  72
BRANCH  60  83
ATOM     83  C   UNL A   1      44.718  27.177  33.980  1.00  0.00     0.023 A 
ATOM     84  C   UNL A   1      44.511  26.008  34.733  1.00  0.00     0.031 A 
ATOM     85  C   UNL A   1      46.011  27.731  33.958  1.00  0.00     0.131 A 
ATOM     86  C   UNL A   1      45.563  25.471  35.490  1.00  0.00     0.055 A 
ATOM     87  C   UNL A   1      47.067  27.157  34.665  1.00  0.00     0.041 A 
ATOM     88  F   UNL A   1      46.263  28.846  33.255  1.00  0.00    -0.206 F 
ATOM     89  C   UNL A   1      46.844  26.031  35.450  1.00  0.00     0.022 A 
BRANCH  86  90
ATOM     90  S   UNL A   1      45.209  24.096  36.619  1.00  0.00     0.124 S 
ATOM     91  O   UNL A   1      44.720  24.792  37.805  1.00  0.00    -0.237 OA
ATOM     92  O   UNL A   1      44.213  23.333  35.874  1.00  0.00    -0.237 OA
ATOM     93  O   UNL A   1      46.504  23.437  36.776  1.00  0.00    -0.744 OA
ENDBRANCH  86  90
ENDBRANCH  60  83
ENDBRANCH  34  35
ENDBRANCH  26  29
ENDBRANCH  24  25
ENDBRANCH   1  24
TORSDOF 15
ENDMDL
