MODEL 1
REMARK VINA RESULT:     -10.8      0.000      0.000
REMARK SMILES O=C(CCCCc1nc(C[C@H]2CCCO2)no1)NCCCCNC(=O)c1ccc(-c2c3nc(c(-c4cc(S(=O)(=O)[O-])ccc4F)c4ccc([nH]4)c(-c4cc(S(=O)(=O)[O-])ccc4F)c4nc(c(-c5cc(S(=O)(=O)[O-])ccc5F)c5ccc2[nH]5)C=C4)C=C3)cc1
REMARK SMILES IDX 19 1 18 2 1 3 2 4 3 6 4 7 5 8 6 9 7 10 8 11 17 12 9 13 16 14
REMARK SMILES IDX 10 15 11 16 12 17 15 18 13 19 14 20 20 21 21 22 22 23 23 24
REMARK SMILES IDX 24 25 25 27 26 28 27 29 88 30 28 31 87 32 29 33 30 34 31 35
REMARK SMILES IDX 81 36 32 37 86 38 80 39 82 40 33 41 85 42 79 43 78 44 34 46
REMARK SMILES IDX 66 47 46 48 65 49 47 50 50 51 64 52 83 53 48 54 49 55 63 57
REMARK SMILES IDX 84 58 51 59 35 60 36 61 44 62 37 63 43 64 45 65 42 66 38 67
REMARK SMILES IDX 39 68 40 69 41 70 67 71 68 72 76 73 69 74 75 75 77 76 74 77
REMARK SMILES IDX 70 78 71 79 72 80 73 81 52 82 53 83 61 84 54 85 60 86 62 87
REMARK SMILES IDX 59 88 55 89 56 90 57 91 58 92
REMARK H PARENT 18 5 23 26 82 45 50 56
REMARK Flexibility Score: inf
ROOT
ATOM      1  C   UNL A   1      32.981  29.614  26.647  1.00  0.00     0.116 C 
ENDROOT
BRANCH   1   2
ATOM      2  N   UNL A   1      33.022  28.238  26.203  1.00  0.00    -0.356 N 
ATOM      3  O   UNL A   1      31.427  27.436  27.651  1.00  0.00    -0.275 OA
ATOM      4  C   UNL A   1      32.202  27.262  26.716  1.00  0.00     0.219 C 
ATOM      5  H   UNL A   1      33.667  27.988  25.503  1.00  0.00     0.163 HD
BRANCH   4   6
ATOM      6  C   UNL A   1      32.321  25.935  25.998  1.00  0.00     0.100 C 
BRANCH   6   7
ATOM      7  C   UNL A   1      33.733  25.701  25.457  1.00  0.00     0.010 C 
BRANCH   7   8
ATOM      8  C   UNL A   1      33.849  25.356  23.960  1.00  0.00     0.010 C 
BRANCH   8   9
ATOM      9  C   UNL A   1      34.707  24.130  23.615  1.00  0.00     0.100 C 
BRANCH   9  10
ATOM     10  C   UNL A   1      34.045  22.865  24.005  1.00  0.00     0.226 A 
ATOM     11  N   UNL A   1      34.568  21.791  24.545  1.00  0.00    -0.196 NA
ATOM     12  O   UNL A   1      32.733  22.719  23.663  1.00  0.00    -0.339 OA
ATOM     13  C   UNL A   1      33.528  20.907  24.487  1.00  0.00     0.174 A 
ATOM     14  N   UNL A   1      32.393  21.400  23.974  1.00  0.00    -0.062 NA
BRANCH  13  15
ATOM     15  C   UNL A   1      33.700  19.483  24.843  1.00  0.00     0.113 C 
BRANCH  15  16
ATOM     16  C   UNL A   1      32.600  18.573  24.298  1.00  0.00     0.126 C 
ATOM     17  C   UNL A   1      33.040  17.657  23.164  1.00  0.00     0.035 C 
ATOM     18  O   UNL A   1      32.198  17.688  25.372  1.00  0.00    -0.378 OA
ATOM     19  C   UNL A   1      33.613  16.475  23.905  1.00  0.00     0.031 C 
ATOM     20  C   UNL A   1      32.675  16.366  25.087  1.00  0.00     0.160 C 
ENDBRANCH  15  16
ENDBRANCH  13  15
ENDBRANCH   9  10
ENDBRANCH   8   9
ENDBRANCH   7   8
ENDBRANCH   6   7
ENDBRANCH   4   6
ENDBRANCH   1   2
BRANCH   1  21
ATOM     21  C   UNL A   1      31.777  30.356  26.072  1.00  0.00     0.023 C 
BRANCH  21  22
ATOM     22  C   UNL A   1      31.568  31.778  26.605  1.00  0.00     0.023 C 
BRANCH  22  23
ATOM     23  C   UNL A   1      32.763  32.389  27.333  1.00  0.00     0.116 C 
BRANCH  23  24
ATOM     24  N   UNL A   1      32.564  33.797  27.637  1.00  0.00    -0.352 N 
ATOM     25  C   UNL A   1      33.169  34.585  28.585  1.00  0.00     0.251 C 
ATOM     26  H   UNL A   1      31.894  34.253  27.078  1.00  0.00     0.163 HD
ATOM     27  O   UNL A   1      32.713  35.707  28.810  1.00  0.00    -0.269 OA
BRANCH  25  28
ATOM     28  C   UNL A   1      34.334  34.089  29.353  1.00  0.00     0.039 A 
ATOM     29  C   UNL A   1      34.113  33.235  30.437  1.00  0.00     0.014 A 
ATOM     30  C   UNL A   1      35.638  34.472  29.027  1.00  0.00     0.014 A 
ATOM     31  C   UNL A   1      35.199  32.711  31.146  1.00  0.00     0.010 A 
ATOM     32  C   UNL A   1      36.721  33.891  29.686  1.00  0.00     0.010 A 
ATOM     33  C   UNL A   1      36.515  33.001  30.751  1.00  0.00    -0.014 A 
BRANCH  33  34
ATOM     34  C   UNL A   1      37.681  32.375  31.436  1.00  0.00     0.031 A 
ATOM     35  C   UNL A   1      38.424  31.236  30.788  1.00  0.00     0.074 A 
ATOM     36  C   UNL A   1      38.040  32.796  32.666  1.00  0.00     0.049 A 
ATOM     37  N   UNL A   1      39.409  30.515  31.259  1.00  0.00    -0.248 NA
ATOM     38  C   UNL A   1      37.980  30.839  29.444  1.00  0.00     0.031 C 
ATOM     39  C   UNL A   1      37.382  33.869  33.414  1.00  0.00     0.029 A 
ATOM     40  N   UNL A   1      39.037  32.370  33.509  1.00  0.00    -0.354 N 
ATOM     41  C   UNL A   1      39.701  29.577  30.274  1.00  0.00     0.074 A 
ATOM     42  C   UNL A   1      38.742  29.781  29.210  1.00  0.00     0.031 C 
ATOM     43  C   UNL A   1      38.007  34.032  34.591  1.00  0.00     0.029 A 
ATOM     44  C   UNL A   1      39.074  33.043  34.709  1.00  0.00     0.049 A 
ATOM     45  H   UNL A   1      39.667  31.650  33.276  1.00  0.00     0.167 HD
ATOM     46  C   UNL A   1      40.692  28.650  30.248  1.00  0.00     0.034 A 
ATOM     47  C   UNL A   1      39.861  32.874  35.791  1.00  0.00     0.034 A 
ATOM     48  C   UNL A   1      41.643  28.459  31.317  1.00  0.00     0.049 A 
ATOM     49  C   UNL A   1      40.925  31.804  35.759  1.00  0.00     0.074 A 
ATOM     50  C   UNL A   1      42.709  27.577  31.374  1.00  0.00     0.029 A 
ATOM     51  N   UNL A   1      41.641  29.153  32.521  1.00  0.00    -0.354 N 
ATOM     52  N   UNL A   1      41.213  30.954  34.801  1.00  0.00    -0.248 NA
ATOM     53  C   UNL A   1      41.775  31.678  36.950  1.00  0.00     0.031 C 
ATOM     54  C   UNL A   1      43.300  27.680  32.638  1.00  0.00     0.029 A 
ATOM     55  C   UNL A   1      42.663  28.692  33.339  1.00  0.00     0.049 A 
ATOM     56  H   UNL A   1      41.007  29.867  32.760  1.00  0.00     0.167 HD
ATOM     57  C   UNL A   1      42.301  30.217  35.262  1.00  0.00     0.074 A 
ATOM     58  C   UNL A   1      42.625  30.734  36.575  1.00  0.00     0.031 C 
ATOM     59  C   UNL A   1      42.974  29.206  34.653  1.00  0.00     0.034 A 
BRANCH  46  60
ATOM     60  C   UNL A   1      40.777  27.756  29.033  1.00  0.00     0.023 A 
ATOM     61  C   UNL A   1      41.724  27.978  28.017  1.00  0.00     0.031 A 
ATOM     62  C   UNL A   1      39.889  26.677  28.874  1.00  0.00     0.131 A 
ATOM     63  C   UNL A   1      41.711  27.188  26.858  1.00  0.00     0.055 A 
ATOM     64  C   UNL A   1      39.939  25.837  27.759  1.00  0.00     0.041 A 
ATOM     65  F   UNL A   1      38.948  26.424  29.798  1.00  0.00    -0.206 F 
ATOM     66  C   UNL A   1      40.844  26.101  26.734  1.00  0.00     0.022 A 
BRANCH  63  67
ATOM     67  S   UNL A   1      42.738  27.696  25.453  1.00  0.00     0.124 S 
ATOM     68  O   UNL A   1      41.879  28.685  24.804  1.00  0.00    -0.237 OA
ATOM     69  O   UNL A   1      43.931  28.219  26.107  1.00  0.00    -0.237 OA
ATOM     70  O   UNL A   1      42.927  26.458  24.700  1.00  0.00    -0.744 OA
ENDBRANCH  63  67
ENDBRANCH  46  60
BRANCH  47  71
ATOM     71  C   UNL A   1      39.665  33.714  37.008  1.00  0.00     0.023 A 
ATOM     72  C   UNL A   1      39.007  33.211  38.142  1.00  0.00     0.031 A 
ATOM     73  C   UNL A   1      40.091  35.056  37.038  1.00  0.00     0.131 A 
ATOM     74  C   UNL A   1      38.746  34.055  39.233  1.00  0.00     0.055 A 
ATOM     75  C   UNL A   1      39.884  35.873  38.150  1.00  0.00     0.041 A 
ATOM     76  F   UNL A   1      40.726  35.589  35.982  1.00  0.00    -0.206 F 
ATOM     77  C   UNL A   1      39.195  35.377  39.251  1.00  0.00     0.022 A 
BRANCH  74  78
ATOM     78  S   UNL A   1      37.721  33.427  40.592  1.00  0.00     0.124 S 
ATOM     79  O   UNL A   1      36.537  32.965  39.879  1.00  0.00    -0.237 OA
ATOM     80  O   UNL A   1      38.575  32.390  41.161  1.00  0.00    -0.237 OA
ATOM     81  O   UNL A   1      37.523  34.602  41.438  1.00  0.00    -0.744 OA
ENDBRANCH  74  78
ENDBRANCH  47  71
BRANCH  59  82
ATOM     82  C   UNL A   1      44.163  28.630  35.385  1.00  0.00     0.023 A 
ATOM     83  C   UNL A   1      45.458  29.159  35.235  1.00  0.00     0.031 A 
ATOM     84  C   UNL A   1      43.998  27.526  36.241  1.00  0.00     0.131 A 
ATOM     85  C   UNL A   1      46.542  28.548  35.882  1.00  0.00     0.055 A 
ATOM     86  C   UNL A   1      45.070  26.965  36.936  1.00  0.00     0.041 A 
ATOM     87  F   UNL A   1      42.786  26.975  36.420  1.00  0.00    -0.206 F 
ATOM     88  C   UNL A   1      46.354  27.466  36.748  1.00  0.00     0.022 A 
BRANCH  85  89
ATOM     89  S   UNL A   1      48.220  29.120  35.500  1.00  0.00     0.124 S 
ATOM     90  O   UNL A   1      48.001  29.915  34.296  1.00  0.00    -0.237 OA
ATOM     91  O   UNL A   1      48.577  29.868  36.701  1.00  0.00    -0.237 OA
ATOM     92  O   UNL A   1      48.968  27.881  35.297  1.00  0.00    -0.744 OA
ENDBRANCH  85  89
ENDBRANCH  59  82
ENDBRANCH  33  34
ENDBRANCH  25  28
ENDBRANCH  23  24
ENDBRANCH  22  23
ENDBRANCH  21  22
ENDBRANCH   1  21
TORSDOF 20
ENDMDL
MODEL 2
REMARK VINA RESULT:     -10.7      2.020      2.397
REMARK SMILES O=C(CCCCc1nc(C[C@H]2CCCO2)no1)NCCCCNC(=O)c1ccc(-c2c3nc(c(-c4cc(S(=O)(=O)[O-])ccc4F)c4ccc([nH]4)c(-c4cc(S(=O)(=O)[O-])ccc4F)c4nc(c(-c5cc(S(=O)(=O)[O-])ccc5F)c5ccc2[nH]5)C=C4)C=C3)cc1
REMARK SMILES IDX 19 1 18 2 1 3 2 4 3 6 4 7 5 8 6 9 7 10 8 11 17 12 9 13 16 14
REMARK SMILES IDX 10 15 11 16 12 17 15 18 13 19 14 20 20 21 21 22 22 23 23 24
REMARK SMILES IDX 24 25 25 27 26 28 27 29 88 30 28 31 87 32 29 33 30 34 31 35
REMARK SMILES IDX 81 36 32 37 86 38 80 39 82 40 33 41 85 42 79 43 78 44 34 46
REMARK SMILES IDX 66 47 46 48 65 49 47 50 50 51 64 52 83 53 48 54 49 55 63 57
REMARK SMILES IDX 84 58 51 59 35 60 36 61 44 62 37 63 43 64 45 65 42 66 38 67
REMARK SMILES IDX 39 68 40 69 41 70 67 71 68 72 76 73 69 74 75 75 77 76 74 77
REMARK SMILES IDX 70 78 71 79 72 80 73 81 52 82 53 83 61 84 54 85 60 86 62 87
REMARK SMILES IDX 59 88 55 89 56 90 57 91 58 92
REMARK H PARENT 18 5 23 26 82 45 50 56
REMARK Flexibility Score: inf
ROOT
ATOM      1  C   UNL A   1      32.462  30.071  26.180  1.00  0.00     0.116 C 
ENDROOT
BRANCH   1   2
ATOM      2  N   UNL A   1      32.840  29.372  24.972  1.00  0.00    -0.356 N 
ATOM      3  O   UNL A   1      33.961  27.646  25.994  1.00  0.00    -0.275 OA
ATOM      4  C   UNL A   1      33.526  28.182  24.980  1.00  0.00     0.219 C 
ATOM      5  H   UNL A   1      32.595  29.766  24.104  1.00  0.00     0.163 HD
BRANCH   4   6
ATOM      6  C   UNL A   1      33.681  27.565  23.606  1.00  0.00     0.100 C 
BRANCH   6   7
ATOM      7  C   UNL A   1      32.959  26.220  23.498  1.00  0.00     0.010 C 
BRANCH   7   8
ATOM      8  C   UNL A   1      33.819  25.006  23.097  1.00  0.00     0.010 C 
BRANCH   8   9
ATOM      9  C   UNL A   1      34.484  24.241  24.250  1.00  0.00     0.100 C 
BRANCH   9  10
ATOM     10  C   UNL A   1      33.943  22.870  24.388  1.00  0.00     0.226 A 
ATOM     11  N   UNL A   1      34.555  21.774  24.768  1.00  0.00    -0.196 NA
ATOM     12  O   UNL A   1      32.665  22.660  23.961  1.00  0.00    -0.339 OA
ATOM     13  C   UNL A   1      33.615  20.818  24.510  1.00  0.00     0.174 A 
ATOM     14  N   UNL A   1      32.452  21.281  24.030  1.00  0.00    -0.062 NA
BRANCH  13  15
ATOM     15  C   UNL A   1      33.920  19.377  24.632  1.00  0.00     0.113 C 
BRANCH  15  16
ATOM     16  C   UNL A   1      32.784  18.464  24.170  1.00  0.00     0.126 C 
ATOM     17  C   UNL A   1      33.226  17.295  23.299  1.00  0.00     0.035 C 
ATOM     18  O   UNL A   1      32.203  17.864  25.352  1.00  0.00    -0.378 OA
ATOM     19  C   UNL A   1      33.609  16.256  24.323  1.00  0.00     0.031 C 
ATOM     20  C   UNL A   1      32.566  16.477  25.396  1.00  0.00     0.160 C 
ENDBRANCH  15  16
ENDBRANCH  13  15
ENDBRANCH   9  10
ENDBRANCH   8   9
ENDBRANCH   7   8
ENDBRANCH   6   7
ENDBRANCH   4   6
ENDBRANCH   1   2
BRANCH   1  21
ATOM     21  C   UNL A   1      31.228  30.944  25.965  1.00  0.00     0.023 C 
BRANCH  21  22
ATOM     22  C   UNL A   1      31.340  32.379  26.491  1.00  0.00     0.023 C 
BRANCH  22  23
ATOM     23  C   UNL A   1      32.690  32.753  27.098  1.00  0.00     0.116 C 
BRANCH  23  24
ATOM     24  N   UNL A   1      32.665  34.057  27.741  1.00  0.00    -0.352 N 
ATOM     25  C   UNL A   1      33.422  34.539  28.780  1.00  0.00     0.251 C 
ATOM     26  H   UNL A   1      32.005  34.689  27.375  1.00  0.00     0.163 HD
ATOM     27  O   UNL A   1      33.107  35.607  29.306  1.00  0.00    -0.269 OA
BRANCH  25  28
ATOM     28  C   UNL A   1      34.585  33.776  29.289  1.00  0.00     0.039 A 
ATOM     29  C   UNL A   1      35.871  34.188  28.926  1.00  0.00     0.014 A 
ATOM     30  C   UNL A   1      34.421  32.652  30.102  1.00  0.00     0.014 A 
ATOM     31  C   UNL A   1      36.988  33.518  29.436  1.00  0.00     0.010 A 
ATOM     32  C   UNL A   1      35.535  32.031  30.668  1.00  0.00     0.010 A 
ATOM     33  C   UNL A   1      36.832  32.459  30.345  1.00  0.00    -0.014 A 
BRANCH  33  34
ATOM     34  C   UNL A   1      38.012  31.797  30.969  1.00  0.00     0.031 A 
ATOM     35  C   UNL A   1      38.772  30.731  30.224  1.00  0.00     0.074 A 
ATOM     36  C   UNL A   1      38.370  32.119  32.229  1.00  0.00     0.049 A 
ATOM     37  N   UNL A   1      39.772  29.991  30.629  1.00  0.00    -0.248 NA
ATOM     38  C   UNL A   1      38.328  30.443  28.852  1.00  0.00     0.031 C 
ATOM     39  C   UNL A   1      37.697  33.113  33.069  1.00  0.00     0.029 A 
ATOM     40  N   UNL A   1      39.378  31.641  33.030  1.00  0.00    -0.354 N 
ATOM     41  C   UNL A   1      40.074  29.145  29.566  1.00  0.00     0.074 A 
ATOM     42  C   UNL A   1      39.106  29.422  28.526  1.00  0.00     0.031 C 
ATOM     43  C   UNL A   1      38.325  33.186  34.253  1.00  0.00     0.029 A 
ATOM     44  C   UNL A   1      39.409  32.210  34.283  1.00  0.00     0.049 A 
ATOM     45  H   UNL A   1      40.020  30.955  32.733  1.00  0.00     0.167 HD
ATOM     46  C   UNL A   1      41.081  28.242  29.458  1.00  0.00     0.034 A 
ATOM     47  C   UNL A   1      40.205  31.963  35.344  1.00  0.00     0.034 A 
ATOM     48  C   UNL A   1      42.041  27.977  30.503  1.00  0.00     0.049 A 
ATOM     49  C   UNL A   1      41.287  30.919  35.217  1.00  0.00     0.074 A 
ATOM     50  C   UNL A   1      43.122  27.112  30.481  1.00  0.00     0.029 A 
ATOM     51  N   UNL A   1      42.033  28.566  31.762  1.00  0.00    -0.354 N 
ATOM     52  N   UNL A   1      41.585  30.159  34.188  1.00  0.00    -0.248 NA
ATOM     53  C   UNL A   1      42.146  30.707  36.389  1.00  0.00     0.031 C 
ATOM     54  C   UNL A   1      43.718  27.119  31.747  1.00  0.00     0.029 A 
ATOM     55  C   UNL A   1      43.068  28.056  32.533  1.00  0.00     0.049 A 
ATOM     56  H   UNL A   1      41.388  29.246  32.063  1.00  0.00     0.167 HD
ATOM     57  C   UNL A   1      42.688  29.404  34.581  1.00  0.00     0.074 A 
ATOM     58  C   UNL A   1      43.010  29.814  35.932  1.00  0.00     0.031 C 
ATOM     59  C   UNL A   1      43.376  28.462  33.886  1.00  0.00     0.034 A 
BRANCH  46  60
ATOM     60  C   UNL A   1      41.176  27.456  28.170  1.00  0.00     0.023 A 
ATOM     61  C   UNL A   1      40.786  26.106  28.100  1.00  0.00     0.031 A 
ATOM     62  C   UNL A   1      41.677  28.054  27.001  1.00  0.00     0.131 A 
ATOM     63  C   UNL A   1      40.979  25.381  26.914  1.00  0.00     0.055 A 
ATOM     64  C   UNL A   1      41.782  27.351  25.798  1.00  0.00     0.041 A 
ATOM     65  F   UNL A   1      42.085  29.333  27.008  1.00  0.00    -0.206 F 
ATOM     66  C   UNL A   1      41.446  26.001  25.754  1.00  0.00     0.022 A 
BRANCH  63  67
ATOM     67  S   UNL A   1      40.752  23.582  26.955  1.00  0.00     0.124 S 
ATOM     68  O   UNL A   1      41.140  23.268  28.329  1.00  0.00    -0.237 OA
ATOM     69  O   UNL A   1      39.335  23.435  26.642  1.00  0.00    -0.237 OA
ATOM     70  O   UNL A   1      41.673  23.096  25.929  1.00  0.00    -0.744 OA
ENDBRANCH  63  67
ENDBRANCH  46  60
BRANCH  47  71
ATOM     71  C   UNL A   1      40.001  32.693  36.628  1.00  0.00     0.023 A 
ATOM     72  C   UNL A   1      39.052  32.260  37.569  1.00  0.00     0.031 A 
ATOM     73  C   UNL A   1      40.718  33.870  36.914  1.00  0.00     0.131 A 
ATOM     74  C   UNL A   1      38.809  33.022  38.722  1.00  0.00     0.055 A 
ATOM     75  C   UNL A   1      40.517  34.592  38.091  1.00  0.00     0.041 A 
ATOM     76  F   UNL A   1      41.638  34.331  36.051  1.00  0.00    -0.206 F 
ATOM     77  C   UNL A   1      39.547  34.176  38.997  1.00  0.00     0.022 A 
BRANCH  74  78
ATOM     78  S   UNL A   1      37.441  32.540  39.811  1.00  0.00     0.124 S 
ATOM     79  O   UNL A   1      38.003  31.381  40.495  1.00  0.00    -0.237 OA
ATOM     80  O   UNL A   1      37.261  33.740  40.620  1.00  0.00    -0.237 OA
ATOM     81  O   UNL A   1      36.353  32.250  38.880  1.00  0.00    -0.744 OA
ENDBRANCH  74  78
ENDBRANCH  47  71
BRANCH  59  82
ATOM     82  C   UNL A   1      44.579  27.846  34.562  1.00  0.00     0.023 A 
ATOM     83  C   UNL A   1      44.480  26.676  35.335  1.00  0.00     0.031 A 
ATOM     84  C   UNL A   1      45.844  28.447  34.435  1.00  0.00     0.131 A 
ATOM     85  C   UNL A   1      45.612  26.178  35.999  1.00  0.00     0.055 A 
ATOM     86  C   UNL A   1      46.979  27.909  35.041  1.00  0.00     0.041 A 
ATOM     87  F   UNL A   1      45.999  29.570  33.713  1.00  0.00    -0.206 F 
ATOM     88  C   UNL A   1      46.865  26.777  35.841  1.00  0.00     0.022 A 
BRANCH  85  89
ATOM     89  S   UNL A   1      45.407  24.796  37.155  1.00  0.00     0.124 S 
ATOM     90  O   UNL A   1      45.350  23.652  36.251  1.00  0.00    -0.237 OA
ATOM     91  O   UNL A   1      46.606  24.898  37.980  1.00  0.00    -0.237 OA
ATOM     92  O   UNL A   1      44.154  25.107  37.843  1.00  0.00    -0.744 OA
ENDBRANCH  85  89
ENDBRANCH  59  82
ENDBRANCH  33  34
ENDBRANCH  25  28
ENDBRANCH  23  24
ENDBRANCH  22  23
ENDBRANCH  21  22
ENDBRANCH   1  21
TORSDOF 20
ENDMDL
MODEL 3
REMARK VINA RESULT:     -10.6      1.724      2.048
REMARK SMILES O=C(CCCCc1nc(C[C@H]2CCCO2)no1)NCCCCNC(=O)c1ccc(-c2c3nc(c(-c4cc(S(=O)(=O)[O-])ccc4F)c4ccc([nH]4)c(-c4cc(S(=O)(=O)[O-])ccc4F)c4nc(c(-c5cc(S(=O)(=O)[O-])ccc5F)c5ccc2[nH]5)C=C4)C=C3)cc1
REMARK SMILES IDX 19 1 18 2 1 3 2 4 3 6 4 7 5 8 6 9 7 10 8 11 17 12 9 13 16 14
REMARK SMILES IDX 10 15 11 16 12 17 15 18 13 19 14 20 20 21 21 22 22 23 23 24
REMARK SMILES IDX 24 25 25 27 26 28 27 29 88 30 28 31 87 32 29 33 30 34 31 35
REMARK SMILES IDX 81 36 32 37 86 38 80 39 82 40 33 41 85 42 79 43 78 44 34 46
REMARK SMILES IDX 66 47 46 48 65 49 47 50 50 51 64 52 83 53 48 54 49 55 63 57
REMARK SMILES IDX 84 58 51 59 35 60 36 61 44 62 37 63 43 64 45 65 42 66 38 67
REMARK SMILES IDX 39 68 40 69 41 70 67 71 68 72 76 73 69 74 75 75 77 76 74 77
REMARK SMILES IDX 70 78 71 79 72 80 73 81 52 82 53 83 61 84 54 85 60 86 62 87
REMARK SMILES IDX 59 88 55 89 56 90 57 91 58 92
REMARK H PARENT 18 5 23 26 82 45 50 56
REMARK Flexibility Score: inf
ROOT
ATOM      1  C   UNL A   1      31.015  30.107  24.616  1.00  0.00     0.116 C 
ENDROOT
BRANCH   1   2
ATOM      2  N   UNL A   1      30.797  28.709  24.317  1.00  0.00    -0.356 N 
ATOM      3  O   UNL A   1      30.333  28.978  22.082  1.00  0.00    -0.275 OA
ATOM      4  C   UNL A   1      30.516  28.251  23.053  1.00  0.00     0.219 C 
ATOM      5  H   UNL A   1      30.852  28.057  25.051  1.00  0.00     0.163 HD
BRANCH   4   6
ATOM      6  C   UNL A   1      30.473  26.740  22.954  1.00  0.00     0.100 C 
BRANCH   6   7
ATOM      7  C   UNL A   1      31.642  26.187  22.136  1.00  0.00     0.010 C 
BRANCH   7   8
ATOM      8  C   UNL A   1      33.058  26.554  22.620  1.00  0.00     0.010 C 
BRANCH   8   9
ATOM      9  C   UNL A   1      33.535  25.851  23.899  1.00  0.00     0.100 C 
BRANCH   9  10
ATOM     10  C   UNL A   1      33.544  24.378  23.749  1.00  0.00     0.226 A 
ATOM     11  N   UNL A   1      33.258  23.455  24.637  1.00  0.00    -0.196 NA
ATOM     12  O   UNL A   1      34.020  23.874  22.575  1.00  0.00    -0.339 OA
ATOM     13  C   UNL A   1      33.630  22.311  23.990  1.00  0.00     0.174 A 
ATOM     14  N   UNL A   1      34.091  22.489  22.745  1.00  0.00    -0.062 NA
BRANCH  13  15
ATOM     15  C   UNL A   1      33.641  21.002  24.675  1.00  0.00     0.113 C 
BRANCH  15  16
ATOM     16  C   UNL A   1      32.390  20.162  24.420  1.00  0.00     0.126 C 
ATOM     17  C   UNL A   1      32.427  19.345  23.135  1.00  0.00     0.035 C 
ATOM     18  O   UNL A   1      32.294  19.191  25.490  1.00  0.00    -0.378 OA
ATOM     19  C   UNL A   1      33.146  18.093  23.568  1.00  0.00     0.031 C 
ATOM     20  C   UNL A   1      32.607  17.892  24.967  1.00  0.00     0.160 C 
ENDBRANCH  15  16
ENDBRANCH  13  15
ENDBRANCH   9  10
ENDBRANCH   8   9
ENDBRANCH   7   8
ENDBRANCH   6   7
ENDBRANCH   4   6
ENDBRANCH   1   2
BRANCH   1  21
ATOM     21  C   UNL A   1      31.827  30.290  25.896  1.00  0.00     0.023 C 
BRANCH  21  22
ATOM     22  C   UNL A   1      31.575  31.601  26.650  1.00  0.00     0.023 C 
BRANCH  22  23
ATOM     23  C   UNL A   1      32.817  32.277  27.226  1.00  0.00     0.116 C 
BRANCH  23  24
ATOM     24  N   UNL A   1      32.584  33.675  27.551  1.00  0.00    -0.352 N 
ATOM     25  C   UNL A   1      33.162  34.459  28.520  1.00  0.00     0.251 C 
ATOM     26  H   UNL A   1      31.911  34.126  26.993  1.00  0.00     0.163 HD
ATOM     27  O   UNL A   1      32.680  35.567  28.758  1.00  0.00    -0.269 OA
BRANCH  25  28
ATOM     28  C   UNL A   1      34.329  33.975  29.292  1.00  0.00     0.039 A 
ATOM     29  C   UNL A   1      34.109  33.145  30.395  1.00  0.00     0.014 A 
ATOM     30  C   UNL A   1      35.632  34.347  28.952  1.00  0.00     0.014 A 
ATOM     31  C   UNL A   1      35.197  32.631  31.109  1.00  0.00     0.010 A 
ATOM     32  C   UNL A   1      36.717  33.776  29.619  1.00  0.00     0.010 A 
ATOM     33  C   UNL A   1      36.512  32.908  30.703  1.00  0.00    -0.014 A 
BRANCH  33  34
ATOM     34  C   UNL A   1      37.679  32.292  31.395  1.00  0.00     0.031 A 
ATOM     35  C   UNL A   1      38.428  31.151  30.758  1.00  0.00     0.074 A 
ATOM     36  C   UNL A   1      38.034  32.725  32.623  1.00  0.00     0.049 A 
ATOM     37  N   UNL A   1      39.415  30.438  31.238  1.00  0.00    -0.248 NA
ATOM     38  C   UNL A   1      37.988  30.741  29.416  1.00  0.00     0.031 C 
ATOM     39  C   UNL A   1      37.371  33.802  33.361  1.00  0.00     0.029 A 
ATOM     40  N   UNL A   1      39.031  32.310  33.472  1.00  0.00    -0.354 N 
ATOM     41  C   UNL A   1      39.712  29.493  30.261  1.00  0.00     0.074 A 
ATOM     42  C   UNL A   1      38.754  29.684  29.193  1.00  0.00     0.031 C 
ATOM     43  C   UNL A   1      37.992  33.977  34.538  1.00  0.00     0.029 A 
ATOM     44  C   UNL A   1      39.062  32.993  34.666  1.00  0.00     0.049 A 
ATOM     45  H   UNL A   1      39.664  31.591  33.245  1.00  0.00     0.167 HD
ATOM     46  C   UNL A   1      40.707  28.569  30.245  1.00  0.00     0.034 A 
ATOM     47  C   UNL A   1      39.848  32.835  35.751  1.00  0.00     0.034 A 
ATOM     48  C   UNL A   1      41.656  28.390  31.317  1.00  0.00     0.049 A 
ATOM     49  C   UNL A   1      40.916  31.770  35.730  1.00  0.00     0.074 A 
ATOM     50  C   UNL A   1      42.725  27.513  31.384  1.00  0.00     0.029 A 
ATOM     51  N   UNL A   1      41.649  29.094  32.516  1.00  0.00    -0.354 N 
ATOM     52  N   UNL A   1      41.209  30.913  34.779  1.00  0.00    -0.248 NA
ATOM     53  C   UNL A   1      41.764  31.657  36.924  1.00  0.00     0.031 C 
ATOM     54  C   UNL A   1      43.313  27.629  32.648  1.00  0.00     0.029 A 
ATOM     55  C   UNL A   1      42.671  28.645  33.339  1.00  0.00     0.049 A 
ATOM     56  H   UNL A   1      41.012  29.808  32.747  1.00  0.00     0.167 HD
ATOM     57  C   UNL A   1      42.299  30.183  35.249  1.00  0.00     0.074 A 
ATOM     58  C   UNL A   1      42.618  30.713  36.558  1.00  0.00     0.031 C 
ATOM     59  C   UNL A   1      42.977  29.171  34.650  1.00  0.00     0.034 A 
BRANCH  46  60
ATOM     60  C   UNL A   1      40.797  27.665  29.037  1.00  0.00     0.023 A 
ATOM     61  C   UNL A   1      41.747  27.882  28.022  1.00  0.00     0.031 A 
ATOM     62  C   UNL A   1      39.913  26.582  28.885  1.00  0.00     0.131 A 
ATOM     63  C   UNL A   1      41.739  27.082  26.870  1.00  0.00     0.055 A 
ATOM     64  C   UNL A   1      39.969  25.734  27.777  1.00  0.00     0.041 A 
ATOM     65  F   UNL A   1      38.971  26.334  29.808  1.00  0.00    -0.206 F 
ATOM     66  C   UNL A   1      40.875  25.991  26.753  1.00  0.00     0.022 A 
BRANCH  63  67
ATOM     67  S   UNL A   1      42.768  27.582  25.463  1.00  0.00     0.124 S 
ATOM     68  O   UNL A   1      42.695  26.397  24.610  1.00  0.00    -0.237 OA
ATOM     69  O   UNL A   1      42.074  28.766  24.970  1.00  0.00    -0.237 OA
ATOM     70  O   UNL A   1      44.077  27.828  26.064  1.00  0.00    -0.744 OA
ENDBRANCH  63  67
ENDBRANCH  46  60
BRANCH  47  71
ATOM     71  C   UNL A   1      39.646  33.686  36.961  1.00  0.00     0.023 A 
ATOM     72  C   UNL A   1      39.065  33.164  38.128  1.00  0.00     0.031 A 
ATOM     73  C   UNL A   1      39.987  35.051  36.951  1.00  0.00     0.131 A 
ATOM     74  C   UNL A   1      38.794  34.010  39.214  1.00  0.00     0.055 A 
ATOM     75  C   UNL A   1      39.773  35.875  38.056  1.00  0.00     0.041 A 
ATOM     76  F   UNL A   1      40.546  35.603  35.862  1.00  0.00    -0.206 F 
ATOM     77  C   UNL A   1      39.159  35.358  39.192  1.00  0.00     0.022 A 
BRANCH  74  78
ATOM     78  S   UNL A   1      37.863  33.346  40.622  1.00  0.00     0.124 S 
ATOM     79  O   UNL A   1      37.916  34.458  41.563  1.00  0.00    -0.237 OA
ATOM     80  O   UNL A   1      36.562  33.072  40.022  1.00  0.00    -0.237 OA
ATOM     81  O   UNL A   1      38.630  32.163  41.008  1.00  0.00    -0.744 OA
ENDBRANCH  74  78
ENDBRANCH  47  71
BRANCH  59  82
ATOM     82  C   UNL A   1      44.167  28.605  35.389  1.00  0.00     0.023 A 
ATOM     83  C   UNL A   1      44.039  27.548  36.308  1.00  0.00     0.031 A 
ATOM     84  C   UNL A   1      45.450  29.139  35.174  1.00  0.00     0.131 A 
ATOM     85  C   UNL A   1      45.161  27.100  37.021  1.00  0.00     0.055 A 
ATOM     86  C   UNL A   1      46.575  28.643  35.835  1.00  0.00     0.041 A 
ATOM     87  F   UNL A   1      45.634  30.152  34.312  1.00  0.00    -0.206 F 
ATOM     88  C   UNL A   1      46.432  27.628  36.776  1.00  0.00     0.022 A 
BRANCH  85  89
ATOM     89  S   UNL A   1      44.924  25.888  38.348  1.00  0.00     0.124 S 
ATOM     90  O   UNL A   1      46.300  25.537  38.687  1.00  0.00    -0.237 OA
ATOM     91  O   UNL A   1      44.198  26.659  39.351  1.00  0.00    -0.237 OA
ATOM     92  O   UNL A   1      44.153  24.823  37.708  1.00  0.00    -0.744 OA
ENDBRANCH  85  89
ENDBRANCH  59  82
ENDBRANCH  33  34
ENDBRANCH  25  28
ENDBRANCH  23  24
ENDBRANCH  22  23
ENDBRANCH  21  22
ENDBRANCH   1  21
TORSDOF 20
ENDMDL
