MODEL 1
REMARK VINA RESULT:     -13.9      0.000      0.000
REMARK SMILES O=CN[C@@H](CCS[C@@H]1CCO[C@]2(CCOC2)C1)C(=O)NCCCCNC(=O)c1ccc(-c2c3nc(c(-c4cc(S(=O)(=O)[O-])ccc4F)c4ccc([nH]4)c(-c4cc(S(=O)(=O)[O-])ccc4F)c4nc(c(-c5cc(S(=O)(=O)[O-])ccc5F)c5ccc2[nH]5)C=C4)C=C3)cc1
REMARK SMILES IDX 22 1 21 2 20 3 18 4 19 5 4 7 3 8 1 9 2 10 5 12 6 13 7 14
REMARK SMILES IDX 8 15 9 16 17 17 10 18 12 19 11 20 13 21 16 22 14 23 15 24
REMARK SMILES IDX 23 25 24 26 25 27 26 28 27 30 28 31 29 32 90 33 30 34 89 35
REMARK SMILES IDX 31 36 32 37 33 38 83 39 34 40 88 41 82 42 84 43 35 44 87 45
REMARK SMILES IDX 81 46 80 47 36 49 68 50 48 51 67 52 49 53 52 54 66 55 85 56
REMARK SMILES IDX 50 57 51 58 65 60 86 61 53 62 37 63 38 64 46 65 39 66 45 67
REMARK SMILES IDX 47 68 44 69 40 70 41 71 42 72 43 73 69 74 70 75 78 76 71 77
REMARK SMILES IDX 77 78 79 79 76 80 72 81 73 82 74 83 75 84 54 85 55 86 63 87
REMARK SMILES IDX 56 88 62 89 64 90 61 91 57 92 58 93 59 94 60 95
REMARK H PARENT 20 6 3 11 25 29 84 48 52 59
REMARK Flexibility Score: inf
ROOT
ATOM      1  C   UNL A   1      32.289  26.890  26.461  1.00  0.00     0.023 C 
ENDROOT
BRANCH   1   2
ATOM      2  C   UNL A   1      31.400  24.978  26.575  1.00  0.00     0.116 C 
BRANCH   2   3
ATOM      3  N   UNL A   1      31.756  23.649  25.663  1.00  0.00    -0.354 N 
ATOM      4  C   UNL A   1      32.583  23.276  24.666  1.00  0.00     0.242 C 
ATOM      5  O   UNL A   1      32.577  22.107  24.280  1.00  0.00    -0.273 OA
ATOM      6  H   UNL A   1      31.185  22.894  25.930  1.00  0.00     0.163 HD
BRANCH   4   7
ATOM      7  C   UNL A   1      33.534  24.269  24.116  1.00  0.00     0.171 C 
BRANCH   7   8
ATOM      8  N   UNL A   1      34.836  23.675  24.405  1.00  0.00    -0.347 N 
ATOM      9  O   UNL A   1      36.864  23.091  23.529  1.00  0.00    -0.279 OA
ATOM     10  C   UNL A   1      35.660  23.267  23.383  1.00  0.00     0.337 C 
ATOM     11  H   UNL A   1      35.125  23.565  25.339  1.00  0.00     0.164 HD
ENDBRANCH   7   8
BRANCH   7  12
ATOM     12  C   UNL A   1      33.176  24.503  22.644  1.00  0.00     0.046 C 
BRANCH  12  13
ATOM     13  C   UNL A   1      31.877  25.332  22.217  1.00  0.00     0.072 C 
BRANCH  13  14
ATOM     14  S   UNL A   1      31.484  27.276  22.115  1.00  0.00    -0.158 SA
BRANCH  14  15
ATOM     15  C   UNL A   1      30.297  27.860  23.704  1.00  0.00     0.052 C 
ATOM     16  C   UNL A   1      28.864  26.637  24.335  1.00  0.00     0.043 C 
ATOM     17  C   UNL A   1      29.807  29.669  23.328  1.00  0.00     0.052 C 
ATOM     18  C   UNL A   1      27.026  27.113  23.825  1.00  0.00     0.162 C 
ATOM     19  C   UNL A   1      27.974  30.083  22.942  1.00  0.00     0.095 C 
ATOM     20  O   UNL A   1      26.709  28.858  23.314  1.00  0.00    -0.372 OA
ATOM     21  C   UNL A   1      27.956  30.719  21.533  1.00  0.00     0.066 C 
ATOM     22  C   UNL A   1      27.451  31.402  23.629  1.00  0.00     0.195 C 
ATOM     23  C   UNL A   1      28.608  32.086  21.791  1.00  0.00     0.163 C 
ATOM     24  O   UNL A   1      28.239  32.469  23.112  1.00  0.00    -0.378 OA
ENDBRANCH  14  15
ENDBRANCH  13  14
ENDBRANCH  12  13
ENDBRANCH   7  12
ENDBRANCH   4   7
ENDBRANCH   2   3
ENDBRANCH   1   2
BRANCH   1  25
ATOM     25  C   UNL A   1      31.939  28.497  26.898  1.00  0.00     0.023 C 
BRANCH  25  26
ATOM     26  C   UNL A   1      32.651  29.651  26.168  1.00  0.00     0.116 C 
BRANCH  26  27
ATOM     27  N   UNL A   1      32.438  30.964  26.746  1.00  0.00    -0.352 N 
ATOM     28  C   UNL A   1      33.325  31.788  27.405  1.00  0.00     0.251 C 
ATOM     29  H   UNL A   1      31.523  31.319  26.654  1.00  0.00     0.163 HD
ATOM     30  O   UNL A   1      32.932  32.857  27.863  1.00  0.00    -0.269 OA
BRANCH  28  31
ATOM     31  C   UNL A   1      34.697  31.313  27.688  1.00  0.00     0.039 A 
ATOM     32  C   UNL A   1      35.677  32.283  27.910  1.00  0.00     0.014 A 
ATOM     33  C   UNL A   1      35.004  29.961  27.850  1.00  0.00     0.014 A 
ATOM     34  C   UNL A   1      36.914  31.908  28.429  1.00  0.00     0.010 A 
ATOM     35  C   UNL A   1      36.206  29.594  28.453  1.00  0.00     0.010 A 
ATOM     36  C   UNL A   1      37.159  30.569  28.777  1.00  0.00    -0.014 A 
BRANCH  36  37
ATOM     37  C   UNL A   1      38.385  30.224  29.540  1.00  0.00     0.031 A 
ATOM     38  C   UNL A   1      38.583  30.720  30.941  1.00  0.00     0.074 A 
ATOM     39  C   UNL A   1      39.321  29.455  28.946  1.00  0.00     0.049 A 
ATOM     40  N   UNL A   1      39.529  30.421  31.793  1.00  0.00    -0.248 NA
ATOM     41  C   UNL A   1      37.608  31.699  31.441  1.00  0.00     0.031 C 
ATOM     42  C   UNL A   1      39.267  28.983  27.558  1.00  0.00     0.029 A 
ATOM     43  N   UNL A   1      40.484  28.913  29.430  1.00  0.00    -0.354 N 
ATOM     44  C   UNL A   1      39.255  31.161  32.938  1.00  0.00     0.074 A 
ATOM     45  C   UNL A   1      38.101  31.982  32.638  1.00  0.00     0.031 C 
ATOM     46  C   UNL A   1      40.315  28.178  27.324  1.00  0.00     0.029 A 
ATOM     47  C   UNL A   1      41.129  28.093  28.531  1.00  0.00     0.049 A 
ATOM     48  H   UNL A   1      40.825  29.092  30.336  1.00  0.00     0.167 HD
ATOM     49  C   UNL A   1      39.889  31.133  34.136  1.00  0.00     0.034 A 
ATOM     50  C   UNL A   1      42.238  27.341  28.672  1.00  0.00     0.034 A 
ATOM     51  C   UNL A   1      41.048  30.315  34.405  1.00  0.00     0.049 A 
ATOM     52  C   UNL A   1      42.918  27.315  30.017  1.00  0.00     0.074 A 
ATOM     53  C   UNL A   1      41.758  30.181  35.585  1.00  0.00     0.029 A 
ATOM     54  N   UNL A   1      41.675  29.496  33.473  1.00  0.00    -0.354 N 
ATOM     55  N   UNL A   1      42.598  27.958  31.117  1.00  0.00    -0.248 NA
ATOM     56  C   UNL A   1      44.093  26.444  30.145  1.00  0.00     0.031 C 
ATOM     57  C   UNL A   1      42.846  29.330  35.351  1.00  0.00     0.029 A 
ATOM     58  C   UNL A   1      42.777  28.877  34.042  1.00  0.00     0.049 A 
ATOM     59  H   UNL A   1      41.379  29.375  32.542  1.00  0.00     0.167 HD
ATOM     60  C   UNL A   1      43.521  27.550  32.075  1.00  0.00     0.074 A 
ATOM     61  C   UNL A   1      44.389  26.586  31.428  1.00  0.00     0.031 C 
ATOM     62  C   UNL A   1      43.643  27.934  33.372  1.00  0.00     0.034 A 
BRANCH  49  63
ATOM     63  C   UNL A   1      39.347  32.032  35.222  1.00  0.00     0.023 A 
ATOM     64  C   UNL A   1      39.783  33.362  35.361  1.00  0.00     0.031 A 
ATOM     65  C   UNL A   1      38.423  31.543  36.162  1.00  0.00     0.131 A 
ATOM     66  C   UNL A   1      39.361  34.129  36.459  1.00  0.00     0.055 A 
ATOM     67  C   UNL A   1      37.943  32.338  37.206  1.00  0.00     0.041 A 
ATOM     68  F   UNL A   1      37.986  30.276  36.096  1.00  0.00    -0.206 F 
ATOM     69  C   UNL A   1      38.426  33.635  37.369  1.00  0.00     0.022 A 
BRANCH  66  70
ATOM     70  S   UNL A   1      40.171  35.724  36.763  1.00  0.00     0.124 S 
ATOM     71  O   UNL A   1      41.581  35.370  36.624  1.00  0.00    -0.237 OA
ATOM     72  O   UNL A   1      39.616  36.566  35.710  1.00  0.00    -0.237 OA
ATOM     73  O   UNL A   1      39.752  36.066  38.121  1.00  0.00    -0.744 OA
ENDBRANCH  66  70
ENDBRANCH  49  63
BRANCH  50  74
ATOM     74  C   UNL A   1      42.759  26.534  27.530  1.00  0.00     0.023 A 
ATOM     75  C   UNL A   1      42.327  25.215  27.314  1.00  0.00     0.031 A 
ATOM     76  C   UNL A   1      43.723  27.063  26.653  1.00  0.00     0.131 A 
ATOM     77  C   UNL A   1      42.890  24.455  26.276  1.00  0.00     0.055 A 
ATOM     78  C   UNL A   1      44.244  26.319  25.593  1.00  0.00     0.041 A 
ATOM     79  F   UNL A   1      44.162  28.323  26.808  1.00  0.00    -0.206 F 
ATOM     80  C   UNL A   1      43.838  25.002  25.407  1.00  0.00     0.022 A 
BRANCH  77  81
ATOM     81  S   UNL A   1      42.423  22.708  26.121  1.00  0.00     0.124 S 
ATOM     82  O   UNL A   1      40.980  22.766  26.329  1.00  0.00    -0.237 OA
ATOM     83  O   UNL A   1      42.865  22.397  24.766  1.00  0.00    -0.237 OA
ATOM     84  O   UNL A   1      43.181  22.056  27.187  1.00  0.00    -0.744 OA
ENDBRANCH  77  81
ENDBRANCH  50  74
BRANCH  62  85
ATOM     85  C   UNL A   1      44.748  27.284  34.166  1.00  0.00     0.023 A 
ATOM     86  C   UNL A   1      44.513  26.147  34.958  1.00  0.00     0.031 A 
ATOM     87  C   UNL A   1      46.044  27.829  34.156  1.00  0.00     0.131 A 
ATOM     88  C   UNL A   1      45.539  25.632  35.763  1.00  0.00     0.055 A 
ATOM     89  C   UNL A   1      47.078  27.274  34.910  1.00  0.00     0.041 A 
ATOM     90  F   UNL A   1      46.323  28.915  33.417  1.00  0.00    -0.206 F 
ATOM     91  C   UNL A   1      46.825  26.179  35.732  1.00  0.00     0.022 A 
BRANCH  88  92
ATOM     92  S   UNL A   1      45.143  24.304  36.932  1.00  0.00     0.124 S 
ATOM     93  O   UNL A   1      44.072  24.905  37.723  1.00  0.00    -0.237 OA
ATOM     94  O   UNL A   1      44.746  23.216  36.046  1.00  0.00    -0.237 OA
ATOM     95  O   UNL A   1      46.399  24.093  37.650  1.00  0.00    -0.744 OA
ENDBRANCH  88  92
ENDBRANCH  62  85
ENDBRANCH  36  37
ENDBRANCH  28  31
ENDBRANCH  26  27
ENDBRANCH  25  26
ENDBRANCH   1  25
TORSDOF 19
ENDMDL
MODEL 2
REMARK VINA RESULT:     -13.5      2.071      2.360
REMARK SMILES O=CN[C@@H](CCS[C@@H]1CCO[C@]2(CCOC2)C1)C(=O)NCCCCNC(=O)c1ccc(-c2c3nc(c(-c4cc(S(=O)(=O)[O-])ccc4F)c4ccc([nH]4)c(-c4cc(S(=O)(=O)[O-])ccc4F)c4nc(c(-c5cc(S(=O)(=O)[O-])ccc5F)c5ccc2[nH]5)C=C4)C=C3)cc1
REMARK SMILES IDX 22 1 21 2 20 3 18 4 19 5 4 7 3 8 1 9 2 10 5 12 6 13 7 14
REMARK SMILES IDX 8 15 9 16 17 17 10 18 12 19 11 20 13 21 16 22 14 23 15 24
REMARK SMILES IDX 23 25 24 26 25 27 26 28 27 30 28 31 29 32 90 33 30 34 89 35
REMARK SMILES IDX 31 36 32 37 33 38 83 39 34 40 88 41 82 42 84 43 35 44 87 45
REMARK SMILES IDX 81 46 80 47 36 49 68 50 48 51 67 52 49 53 52 54 66 55 85 56
REMARK SMILES IDX 50 57 51 58 65 60 86 61 53 62 37 63 38 64 46 65 39 66 45 67
REMARK SMILES IDX 47 68 44 69 40 70 41 71 42 72 43 73 69 74 70 75 78 76 71 77
REMARK SMILES IDX 77 78 79 79 76 80 72 81 73 82 74 83 75 84 54 85 55 86 63 87
REMARK SMILES IDX 56 88 62 89 64 90 61 91 57 92 58 93 59 94 60 95
REMARK H PARENT 20 6 3 11 25 29 84 48 52 59
REMARK Flexibility Score: inf
ROOT
ATOM      1  C   UNL A   1      32.870  27.122  26.351  1.00  0.00     0.023 C 
ENDROOT
BRANCH   1   2
ATOM      2  C   UNL A   1      32.258  25.114  26.578  1.00  0.00     0.116 C 
BRANCH   2   3
ATOM      3  N   UNL A   1      32.412  23.887  25.485  1.00  0.00    -0.354 N 
ATOM      4  C   UNL A   1      33.120  23.574  24.381  1.00  0.00     0.242 C 
ATOM      5  O   UNL A   1      32.971  22.469  23.860  1.00  0.00    -0.273 OA
ATOM      6  H   UNL A   1      31.793  23.155  25.709  1.00  0.00     0.163 HD
BRANCH   4   7
ATOM      7  C   UNL A   1      34.117  24.544  23.873  1.00  0.00     0.171 C 
BRANCH   7   8
ATOM      8  N   UNL A   1      35.379  23.823  24.014  1.00  0.00    -0.347 N 
ATOM      9  O   UNL A   1      36.846  22.889  25.497  1.00  0.00    -0.279 OA
ATOM     10  C   UNL A   1      36.001  23.738  25.238  1.00  0.00     0.337 C 
ATOM     11  H   UNL A   1      35.788  23.396  23.228  1.00  0.00     0.164 HD
ENDBRANCH   7   8
BRANCH   7  12
ATOM     12  C   UNL A   1      33.696  24.959  22.459  1.00  0.00     0.046 C 
BRANCH  12  13
ATOM     13  C   UNL A   1      32.448  25.927  22.205  1.00  0.00     0.072 C 
BRANCH  13  14
ATOM     14  S   UNL A   1      32.168  27.874  22.474  1.00  0.00    -0.158 SA
BRANCH  14  15
ATOM     15  C   UNL A   1      30.759  28.207  23.950  1.00  0.00     0.052 C 
ATOM     16  C   UNL A   1      29.542  26.725  24.470  1.00  0.00     0.043 C 
ATOM     17  C   UNL A   1      29.961  29.888  23.515  1.00  0.00     0.052 C 
ATOM     18  C   UNL A   1      27.697  26.838  23.800  1.00  0.00     0.162 C 
ATOM     19  C   UNL A   1      28.122  29.941  22.971  1.00  0.00     0.095 C 
ATOM     20  O   UNL A   1      27.092  28.491  23.247  1.00  0.00    -0.372 OA
ATOM     21  C   UNL A   1      28.102  30.570  21.559  1.00  0.00     0.066 C 
ATOM     22  C   UNL A   1      27.297  31.129  23.596  1.00  0.00     0.195 C 
ATOM     23  C   UNL A   1      28.453  32.037  21.856  1.00  0.00     0.163 C 
ATOM     24  O   UNL A   1      27.905  32.333  23.137  1.00  0.00    -0.378 OA
ENDBRANCH  14  15
ENDBRANCH  13  14
ENDBRANCH  12  13
ENDBRANCH   7  12
ENDBRANCH   4   7
ENDBRANCH   2   3
ENDBRANCH   1   2
BRANCH   1  25
ATOM     25  C   UNL A   1      32.559  28.645  27.042  1.00  0.00     0.023 C 
BRANCH  25  26
ATOM     26  C   UNL A   1      33.121  29.910  26.368  1.00  0.00     0.116 C 
BRANCH  26  27
ATOM     27  N   UNL A   1      33.052  31.114  27.173  1.00  0.00    -0.352 N 
ATOM     28  C   UNL A   1      34.027  31.712  27.945  1.00  0.00     0.251 C 
ATOM     29  H   UNL A   1      32.180  31.573  27.168  1.00  0.00     0.163 HD
ATOM     30  O   UNL A   1      33.752  32.718  28.593  1.00  0.00    -0.269 OA
BRANCH  28  31
ATOM     31  C   UNL A   1      35.343  31.055  28.105  1.00  0.00     0.039 A 
ATOM     32  C   UNL A   1      36.474  31.873  28.065  1.00  0.00     0.014 A 
ATOM     33  C   UNL A   1      35.471  29.698  28.403  1.00  0.00     0.014 A 
ATOM     34  C   UNL A   1      37.708  31.361  28.461  1.00  0.00     0.010 A 
ATOM     35  C   UNL A   1      36.684  29.210  28.886  1.00  0.00     0.010 A 
ATOM     36  C   UNL A   1      37.806  30.048  28.948  1.00  0.00    -0.014 A 
BRANCH  36  37
ATOM     37  C   UNL A   1      39.071  29.595  29.582  1.00  0.00     0.031 A 
ATOM     38  C   UNL A   1      39.479  30.105  30.932  1.00  0.00     0.074 A 
ATOM     39  C   UNL A   1      39.848  28.716  28.917  1.00  0.00     0.049 A 
ATOM     40  N   UNL A   1      40.481  29.730  31.684  1.00  0.00    -0.248 NA
ATOM     41  C   UNL A   1      38.673  31.195  31.500  1.00  0.00     0.031 C 
ATOM     42  C   UNL A   1      39.586  28.216  27.564  1.00  0.00     0.029 A 
ATOM     43  N   UNL A   1      40.997  28.067  29.289  1.00  0.00    -0.354 N 
ATOM     44  C   UNL A   1      40.418  30.525  32.823  1.00  0.00     0.074 A 
ATOM     45  C   UNL A   1      39.328  31.456  32.622  1.00  0.00     0.031 C 
ATOM     46  C   UNL A   1      40.513  27.298  27.244  1.00  0.00     0.029 A 
ATOM     47  C   UNL A   1      41.447  27.160  28.355  1.00  0.00     0.049 A 
ATOM     48  H   UNL A   1      41.458  28.233  30.143  1.00  0.00     0.167 HD
ATOM     49  C   UNL A   1      41.180  30.463  33.942  1.00  0.00     0.034 A 
ATOM     50  C   UNL A   1      42.482  26.299  28.400  1.00  0.00     0.034 A 
ATOM     51  C   UNL A   1      42.273  29.534  34.111  1.00  0.00     0.049 A 
ATOM     52  C   UNL A   1      43.307  26.236  29.660  1.00  0.00     0.074 A 
ATOM     53  C   UNL A   1      43.097  29.357  35.209  1.00  0.00     0.029 A 
ATOM     54  N   UNL A   1      42.700  28.629  33.147  1.00  0.00    -0.354 N 
ATOM     55  N   UNL A   1      43.184  26.938  30.763  1.00  0.00    -0.248 NA
ATOM     56  C   UNL A   1      44.393  25.250  29.690  1.00  0.00     0.031 C 
ATOM     57  C   UNL A   1      44.058  28.390  34.887  1.00  0.00     0.029 A 
ATOM     58  C   UNL A   1      43.792  27.912  33.613  1.00  0.00     0.049 A 
ATOM     59  H   UNL A   1      42.288  28.515  32.260  1.00  0.00     0.167 HD
ATOM     60  C   UNL A   1      44.164  26.461  31.628  1.00  0.00     0.074 A 
ATOM     61  C   UNL A   1      44.849  25.393  30.925  1.00  0.00     0.031 C 
ATOM     62  C   UNL A   1      44.474  26.865  32.886  1.00  0.00     0.034 A 
BRANCH  49  63
ATOM     63  C   UNL A   1      40.862  31.443  35.047  1.00  0.00     0.023 A 
ATOM     64  C   UNL A   1      39.782  31.235  35.924  1.00  0.00     0.031 A 
ATOM     65  C   UNL A   1      41.610  32.623  35.195  1.00  0.00     0.131 A 
ATOM     66  C   UNL A   1      39.430  32.227  36.853  1.00  0.00     0.055 A 
ATOM     67  C   UNL A   1      41.305  33.570  36.177  1.00  0.00     0.041 A 
ATOM     68  F   UNL A   1      42.638  32.890  34.375  1.00  0.00    -0.206 F 
ATOM     69  C   UNL A   1      40.198  33.383  37.002  1.00  0.00     0.022 A 
BRANCH  66  70
ATOM     70  S   UNL A   1      37.865  32.054  37.755  1.00  0.00     0.124 S 
ATOM     71  O   UNL A   1      37.018  33.022  37.063  1.00  0.00    -0.237 OA
ATOM     72  O   UNL A   1      37.534  30.649  37.546  1.00  0.00    -0.237 OA
ATOM     73  O   UNL A   1      38.219  32.414  39.126  1.00  0.00    -0.744 OA
ENDBRANCH  66  70
ENDBRANCH  49  63
BRANCH  50  74
ATOM     74  C   UNL A   1      42.783  25.411  27.239  1.00  0.00     0.023 A 
ATOM     75  C   UNL A   1      42.326  24.083  27.200  1.00  0.00     0.031 A 
ATOM     76  C   UNL A   1      43.561  25.870  26.162  1.00  0.00     0.131 A 
ATOM     77  C   UNL A   1      42.687  23.249  26.130  1.00  0.00     0.055 A 
ATOM     78  C   UNL A   1      43.877  25.051  25.077  1.00  0.00     0.041 A 
ATOM     79  F   UNL A   1      44.015  27.134  26.143  1.00  0.00    -0.206 F 
ATOM     80  C   UNL A   1      43.450  23.727  25.062  1.00  0.00     0.022 A 
BRANCH  77  81
ATOM     81  S   UNL A   1      42.208  21.499  26.188  1.00  0.00     0.124 S 
ATOM     82  O   UNL A   1      40.804  21.561  25.796  1.00  0.00    -0.237 OA
ATOM     83  O   UNL A   1      43.120  20.905  25.216  1.00  0.00    -0.237 OA
ATOM     84  O   UNL A   1      42.452  21.124  27.579  1.00  0.00    -0.744 OA
ENDBRANCH  77  81
ENDBRANCH  50  74
BRANCH  62  85
ATOM     85  C   UNL A   1      45.591  26.123  33.577  1.00  0.00     0.023 A 
ATOM     86  C   UNL A   1      46.939  26.450  33.354  1.00  0.00     0.031 A 
ATOM     87  C   UNL A   1      45.303  25.054  34.444  1.00  0.00     0.131 A 
ATOM     88  C   UNL A   1      47.952  25.673  33.933  1.00  0.00     0.055 A 
ATOM     89  C   UNL A   1      46.314  24.324  35.067  1.00  0.00     0.041 A 
ATOM     90  F   UNL A   1      44.032  24.699  34.692  1.00  0.00    -0.206 F 
ATOM     91  C   UNL A   1      47.648  24.621  34.801  1.00  0.00     0.022 A 
BRANCH  88  92
ATOM     92  S   UNL A   1      49.672  25.987  33.451  1.00  0.00     0.124 S 
ATOM     93  O   UNL A   1      49.641  25.707  32.018  1.00  0.00    -0.237 OA
ATOM     94  O   UNL A   1      49.850  27.386  33.823  1.00  0.00    -0.237 OA
ATOM     95  O   UNL A   1      50.433  25.031  34.253  1.00  0.00    -0.744 OA
ENDBRANCH  88  92
ENDBRANCH  62  85
ENDBRANCH  36  37
ENDBRANCH  28  31
ENDBRANCH  26  27
ENDBRANCH  25  26
ENDBRANCH   1  25
TORSDOF 19
ENDMDL
MODEL 3
REMARK VINA RESULT:     -13.4      4.949      9.846
REMARK SMILES O=CN[C@@H](CCS[C@@H]1CCO[C@]2(CCOC2)C1)C(=O)NCCCCNC(=O)c1ccc(-c2c3nc(c(-c4cc(S(=O)(=O)[O-])ccc4F)c4ccc([nH]4)c(-c4cc(S(=O)(=O)[O-])ccc4F)c4nc(c(-c5cc(S(=O)(=O)[O-])ccc5F)c5ccc2[nH]5)C=C4)C=C3)cc1
REMARK SMILES IDX 22 1 21 2 20 3 18 4 19 5 4 7 3 8 1 9 2 10 5 12 6 13 7 14
REMARK SMILES IDX 8 15 9 16 17 17 10 18 12 19 11 20 13 21 16 22 14 23 15 24
REMARK SMILES IDX 23 25 24 26 25 27 26 28 27 30 28 31 29 32 90 33 30 34 89 35
REMARK SMILES IDX 31 36 32 37 33 38 83 39 34 40 88 41 82 42 84 43 35 44 87 45
REMARK SMILES IDX 81 46 80 47 36 49 68 50 48 51 67 52 49 53 52 54 66 55 85 56
REMARK SMILES IDX 50 57 51 58 65 60 86 61 53 62 37 63 38 64 46 65 39 66 45 67
REMARK SMILES IDX 47 68 44 69 40 70 41 71 42 72 43 73 69 74 70 75 78 76 71 77
REMARK SMILES IDX 77 78 79 79 76 80 72 81 73 82 74 83 75 84 54 85 55 86 63 87
REMARK SMILES IDX 56 88 62 89 64 90 61 91 57 92 58 93 59 94 60 95
REMARK H PARENT 20 6 3 11 25 29 84 48 52 59
REMARK Flexibility Score: inf
ROOT
ATOM      1  C   UNL A   1      34.393  21.118  24.661  1.00  0.00     0.023 C 
ENDROOT
BRANCH   1   2
ATOM      2  C   UNL A   1      32.300  21.376  24.757  1.00  0.00     0.116 C 
BRANCH   2   3
ATOM      3  N   UNL A   1      31.405  21.847  26.062  1.00  0.00    -0.354 N 
ATOM      4  C   UNL A   1      31.087  22.966  26.744  1.00  0.00     0.242 C 
ATOM      5  O   UNL A   1      30.295  22.898  27.683  1.00  0.00    -0.273 OA
ATOM      6  H   UNL A   1      30.967  21.066  26.471  1.00  0.00     0.163 HD
BRANCH   4   7
ATOM      7  C   UNL A   1      31.642  24.262  26.289  1.00  0.00     0.171 C 
BRANCH   7   8
ATOM      8  N   UNL A   1      33.079  24.005  26.238  1.00  0.00    -0.347 N 
ATOM      9  O   UNL A   1      35.101  24.809  25.540  1.00  0.00    -0.279 OA
ATOM     10  C   UNL A   1      33.887  24.727  25.391  1.00  0.00     0.337 C 
ATOM     11  H   UNL A   1      33.471  23.310  26.813  1.00  0.00     0.164 HD
ENDBRANCH   7   8
BRANCH   7  12
ATOM     12  C   UNL A   1      30.946  24.642  24.978  1.00  0.00     0.046 C 
BRANCH  12  13
ATOM     13  C   UNL A   1      29.611  25.524  24.961  1.00  0.00     0.072 C 
BRANCH  13  14
ATOM     14  S   UNL A   1      28.863  26.821  23.657  1.00  0.00    -0.158 SA
BRANCH  14  15
ATOM     15  C   UNL A   1      30.350  28.066  22.938  1.00  0.00     0.052 C 
ATOM     16  C   UNL A   1      31.668  27.340  21.640  1.00  0.00     0.043 C 
ATOM     17  C   UNL A   1      31.037  28.970  24.476  1.00  0.00     0.052 C 
ATOM     18  C   UNL A   1      33.457  26.937  22.349  1.00  0.00     0.162 C 
ATOM     19  C   UNL A   1      32.831  28.610  25.052  1.00  0.00     0.095 C 
ATOM     20  O   UNL A   1      33.945  27.742  23.937  1.00  0.00    -0.372 OA
ATOM     21  C   UNL A   1      32.728  28.089  26.504  1.00  0.00     0.066 C 
ATOM     22  C   UNL A   1      33.639  29.892  25.488  1.00  0.00     0.195 C 
ATOM     23  C   UNL A   1      32.329  29.358  27.273  1.00  0.00     0.163 C 
ATOM     24  O   UNL A   1      32.946  30.451  26.599  1.00  0.00    -0.378 OA
ENDBRANCH  14  15
ENDBRANCH  13  14
ENDBRANCH  12  13
ENDBRANCH   7  12
ENDBRANCH   4   7
ENDBRANCH   2   3
ENDBRANCH   1   2
BRANCH   1  25
ATOM     25  C   UNL A   1      35.761  21.343  25.647  1.00  0.00     0.023 C 
BRANCH  25  26
ATOM     26  C   UNL A   1      37.068  21.861  25.020  1.00  0.00     0.116 C 
BRANCH  26  27
ATOM     27  N   UNL A   1      38.208  20.976  25.161  1.00  0.00    -0.352 N 
ATOM     28  C   UNL A   1      39.369  21.147  25.885  1.00  0.00     0.251 C 
ATOM     29  H   UNL A   1      38.143  20.127  24.666  1.00  0.00     0.163 HD
ATOM     30  O   UNL A   1      40.243  20.286  25.839  1.00  0.00    -0.269 OA
BRANCH  28  31
ATOM     31  C   UNL A   1      39.617  22.427  26.585  1.00  0.00     0.039 A 
ATOM     32  C   UNL A   1      40.525  22.411  27.645  1.00  0.00     0.014 A 
ATOM     33  C   UNL A   1      39.071  23.636  26.150  1.00  0.00     0.014 A 
ATOM     34  C   UNL A   1      40.991  23.614  28.172  1.00  0.00     0.010 A 
ATOM     35  C   UNL A   1      39.603  24.839  26.613  1.00  0.00     0.010 A 
ATOM     36  C   UNL A   1      40.591  24.836  27.606  1.00  0.00    -0.014 A 
BRANCH  36  37
ATOM     37  C   UNL A   1      41.271  26.090  28.020  1.00  0.00     0.031 A 
ATOM     38  C   UNL A   1      42.680  26.376  27.597  1.00  0.00     0.074 A 
ATOM     39  C   UNL A   1      40.593  26.969  28.788  1.00  0.00     0.049 A 
ATOM     40  N   UNL A   1      43.384  27.466  27.763  1.00  0.00    -0.248 NA
ATOM     41  C   UNL A   1      43.404  25.288  26.922  1.00  0.00     0.031 C 
ATOM     42  C   UNL A   1      39.245  26.755  29.323  1.00  0.00     0.029 A 
ATOM     43  N   UNL A   1      40.927  28.222  29.233  1.00  0.00    -0.354 N 
ATOM     44  C   UNL A   1      44.628  27.204  27.199  1.00  0.00     0.074 A 
ATOM     45  C   UNL A   1      44.605  25.824  26.761  1.00  0.00     0.031 C 
ATOM     46  C   UNL A   1      38.847  27.861  29.972  1.00  0.00     0.029 A 
ATOM     47  C   UNL A   1      39.915  28.852  29.922  1.00  0.00     0.049 A 
ATOM     48  H   UNL A   1      41.807  28.634  29.074  1.00  0.00     0.167 HD
ATOM     49  C   UNL A   1      45.679  28.045  27.037  1.00  0.00     0.034 A 
ATOM     50  C   UNL A   1      39.848  30.095  30.436  1.00  0.00     0.034 A 
ATOM     51  C   UNL A   1      45.682  29.413  27.497  1.00  0.00     0.049 A 
ATOM     52  C   UNL A   1      41.022  31.019  30.231  1.00  0.00     0.074 A 
ATOM     53  C   UNL A   1      46.673  30.369  27.365  1.00  0.00     0.029 A 
ATOM     54  N   UNL A   1      44.640  30.019  28.191  1.00  0.00    -0.354 N 
ATOM     55  N   UNL A   1      42.162  30.782  29.622  1.00  0.00    -0.248 NA
ATOM     56  C   UNL A   1      40.891  32.381  30.760  1.00  0.00     0.031 C 
ATOM     57  C   UNL A   1      46.257  31.530  28.029  1.00  0.00     0.029 A 
ATOM     58  C   UNL A   1      44.976  31.325  28.517  1.00  0.00     0.049 A 
ATOM     59  H   UNL A   1      43.787  29.583  28.419  1.00  0.00     0.167 HD
ATOM     60  C   UNL A   1      42.874  31.976  29.675  1.00  0.00     0.074 A 
ATOM     61  C   UNL A   1      42.022  32.935  30.352  1.00  0.00     0.031 C 
ATOM     62  C   UNL A   1      44.119  32.258  29.211  1.00  0.00     0.034 A 
BRANCH  49  63
ATOM     63  C   UNL A   1      46.905  27.489  26.354  1.00  0.00     0.023 A 
ATOM     64  C   UNL A   1      47.231  27.837  25.030  1.00  0.00     0.031 A 
ATOM     65  C   UNL A   1      47.733  26.562  27.011  1.00  0.00     0.131 A 
ATOM     66  C   UNL A   1      48.300  27.202  24.379  1.00  0.00     0.055 A 
ATOM     67  C   UNL A   1      48.846  25.994  26.384  1.00  0.00     0.041 A 
ATOM     68  F   UNL A   1      47.463  26.173  28.266  1.00  0.00    -0.206 F 
ATOM     69  C   UNL A   1      49.125  26.301  25.055  1.00  0.00     0.022 A 
BRANCH  66  70
ATOM     70  S   UNL A   1      48.502  27.457  22.593  1.00  0.00     0.124 S 
ATOM     71  O   UNL A   1      47.262  28.150  22.254  1.00  0.00    -0.237 OA
ATOM     72  O   UNL A   1      49.720  28.254  22.524  1.00  0.00    -0.237 OA
ATOM     73  O   UNL A   1      48.613  26.098  22.066  1.00  0.00    -0.744 OA
ENDBRANCH  66  70
ENDBRANCH  49  63
BRANCH  50  74
ATOM     74  C   UNL A   1      38.628  30.552  31.165  1.00  0.00     0.023 A 
ATOM     75  C   UNL A   1      37.565  31.173  30.488  1.00  0.00     0.031 A 
ATOM     76  C   UNL A   1      38.522  30.402  32.559  1.00  0.00     0.131 A 
ATOM     77  C   UNL A   1      36.464  31.659  31.209  1.00  0.00     0.055 A 
ATOM     78  C   UNL A   1      37.403  30.844  33.266  1.00  0.00     0.041 A 
ATOM     79  F   UNL A   1      39.505  29.806  33.254  1.00  0.00    -0.206 F 
ATOM     80  C   UNL A   1      36.370  31.489  32.593  1.00  0.00     0.022 A 
BRANCH  77  81
ATOM     81  S   UNL A   1      35.182  32.590  30.324  1.00  0.00     0.124 S 
ATOM     82  O   UNL A   1      34.867  31.689  29.221  1.00  0.00    -0.237 OA
ATOM     83  O   UNL A   1      34.153  32.735  31.348  1.00  0.00    -0.237 OA
ATOM     84  O   UNL A   1      35.860  33.828  29.945  1.00  0.00    -0.744 OA
ENDBRANCH  77  81
ENDBRANCH  50  74
BRANCH  62  85
ATOM     85  C   UNL A   1      44.607  33.671  29.407  1.00  0.00     0.023 A 
ATOM     86  C   UNL A   1      44.435  34.653  28.417  1.00  0.00     0.031 A 
ATOM     87  C   UNL A   1      45.282  34.031  30.587  1.00  0.00     0.131 A 
ATOM     88  C   UNL A   1      44.992  35.928  28.592  1.00  0.00     0.055 A 
ATOM     89  C   UNL A   1      45.780  35.319  30.783  1.00  0.00     0.041 A 
ATOM     90  F   UNL A   1      45.475  33.131  31.566  1.00  0.00    -0.206 F 
ATOM     91  C   UNL A   1      45.651  36.272  29.776  1.00  0.00     0.022 A 
BRANCH  88  92
ATOM     92  S   UNL A   1      44.939  37.097  27.207  1.00  0.00     0.124 S 
ATOM     93  O   UNL A   1      43.523  37.088  26.855  1.00  0.00    -0.237 OA
ATOM     94  O   UNL A   1      45.436  38.326  27.817  1.00  0.00    -0.237 OA
ATOM     95  O   UNL A   1      45.829  36.495  26.215  1.00  0.00    -0.744 OA
ENDBRANCH  88  92
ENDBRANCH  62  85
ENDBRANCH  36  37
ENDBRANCH  28  31
ENDBRANCH  26  27
ENDBRANCH  25  26
ENDBRANCH   1  25
TORSDOF 19
ENDMDL
