MODEL 1
REMARK VINA RESULT:     -13.2      0.000      0.000
REMARK SMILES C[C@@H]1[C@H](C(=O)NCCCCNC(=O)c2ccc(-c3c4nc(c(-c5cc(S(=O)(=O)[O-])ccc5F)c5ccc([nH]5)c(-c5cc(S(=O)(=O)[O-])ccc5F)c5nc(c(-c6cc(S(=O)(=O)[O-])ccc6F)c6ccc3[nH]6)C=C5)C=C4)cc2)CC[N@@H+]1Cc1cnn(-c2ccccc2)c1
REMARK SMILES IDX 8 1 7 2 6 3 4 4 5 5 3 7 1 8 2 9 79 10 77 11 78 12 80 14
REMARK SMILES IDX 81 15 82 16 91 17 83 18 84 19 85 20 86 21 90 22 87 23 89 24
REMARK SMILES IDX 88 25 9 26 10 27 11 28 12 29 13 31 14 32 15 33 76 34 16 35
REMARK SMILES IDX 75 36 17 37 18 38 19 39 69 40 20 41 74 42 68 43 70 44 21 45
REMARK SMILES IDX 73 46 67 47 66 48 22 50 54 51 34 52 53 53 35 54 38 55 52 56
REMARK SMILES IDX 71 57 36 58 37 59 51 61 72 62 39 63 23 64 24 65 32 66 25 67
REMARK SMILES IDX 31 68 33 69 30 70 26 71 27 72 28 73 29 74 55 75 56 76 64 77
REMARK SMILES IDX 57 78 63 79 65 80 62 81 58 82 59 83 60 84 61 85 40 86 41 87
REMARK SMILES IDX 49 88 42 89 48 90 50 91 47 92 43 93 44 94 45 95 46 96
REMARK H PARENT 6 6 79 13 11 30 70 49 38 60
REMARK Flexibility Score: inf
ROOT
ATOM      1  C   UNL A   1      31.528  30.492  25.792  1.00  0.00     0.023 C 
ENDROOT
BRANCH   1   2
ATOM      2  C   UNL A   1      31.845  29.304  24.891  1.00  0.00     0.116 C 
BRANCH   2   3
ATOM      3  N   UNL A   1      31.193  29.423  23.606  1.00  0.00    -0.356 N 
ATOM      4  C   UNL A   1      30.573  28.490  22.842  1.00  0.00     0.229 C 
ATOM      5  O   UNL A   1      30.175  28.852  21.729  1.00  0.00    -0.275 OA
ATOM      6  H   UNL A   1      31.201  30.331  23.223  1.00  0.00     0.163 HD
BRANCH   4   7
ATOM      7  C   UNL A   1      30.333  27.054  23.291  1.00  0.00     0.142 C 
ATOM      8  C   UNL A   1      32.705  26.378  22.359  1.00  0.00     0.076 C 
ATOM      9  C   UNL A   1      31.393  25.969  23.006  1.00  0.00     0.193 C 
ATOM     10  N   UNL A   1      31.476  25.231  24.259  1.00  0.00    -0.328 N 
ATOM     11  C   UNL A   1      29.922  26.879  24.755  1.00  0.00     0.081 C 
ATOM     12  C   UNL A   1      30.311  25.448  25.081  1.00  0.00     0.263 C 
ATOM     13  H   UNL A   1      31.708  24.289  23.942  1.00  0.00     0.348 HD
BRANCH  10  14
ATOM     14  C   UNL A   1      32.653  24.579  24.776  1.00  0.00     0.302 C 
BRANCH  14  15
ATOM     15  C   UNL A   1      32.492  23.097  24.878  1.00  0.00     0.045 A 
ATOM     16  C   UNL A   1      31.585  22.367  25.674  1.00  0.00     0.145 A 
ATOM     17  C   UNL A   1      33.141  22.109  24.158  1.00  0.00     0.124 A 
ATOM     18  N   UNL A   1      31.635  21.053  25.459  1.00  0.00    -0.176 NA
ATOM     19  N   UNL A   1      32.624  20.889  24.548  1.00  0.00    -0.240 N 
BRANCH  19  20
ATOM     20  C   UNL A   1      33.045  19.592  24.146  1.00  0.00     0.065 A 
ATOM     21  C   UNL A   1      34.241  19.070  24.656  1.00  0.00     0.028 A 
ATOM     22  C   UNL A   1      32.316  18.855  23.202  1.00  0.00     0.028 A 
ATOM     23  C   UNL A   1      34.694  17.818  24.233  1.00  0.00     0.002 A 
ATOM     24  C   UNL A   1      32.804  17.627  22.745  1.00  0.00     0.002 A 
ATOM     25  C   UNL A   1      33.986  17.106  23.266  1.00  0.00     0.000 A 
ENDBRANCH  19  20
ENDBRANCH  14  15
ENDBRANCH  10  14
ENDBRANCH   4   7
ENDBRANCH   2   3
ENDBRANCH   1   2
BRANCH   1  26
ATOM     26  C   UNL A   1      32.333  30.609  27.072  1.00  0.00     0.023 C 
BRANCH  26  27
ATOM     27  C   UNL A   1      33.309  31.769  27.115  1.00  0.00     0.116 C 
BRANCH  27  28
ATOM     28  N   UNL A   1      32.744  33.023  27.594  1.00  0.00    -0.352 N 
ATOM     29  C   UNL A   1      33.300  33.908  28.495  1.00  0.00     0.251 C 
ATOM     30  H   UNL A   1      31.862  33.268  27.234  1.00  0.00     0.163 HD
ATOM     31  O   UNL A   1      32.799  34.991  28.738  1.00  0.00    -0.269 OA
BRANCH  29  32
ATOM     32  C   UNL A   1      34.543  33.509  29.168  1.00  0.00     0.039 A 
ATOM     33  C   UNL A   1      35.753  34.104  28.801  1.00  0.00     0.014 A 
ATOM     34  C   UNL A   1      34.469  32.592  30.215  1.00  0.00     0.014 A 
ATOM     35  C   UNL A   1      36.905  33.792  29.521  1.00  0.00     0.010 A 
ATOM     36  C   UNL A   1      35.590  32.367  30.990  1.00  0.00     0.010 A 
ATOM     37  C   UNL A   1      36.825  32.931  30.625  1.00  0.00    -0.014 A 
BRANCH  37  38
ATOM     38  C   UNL A   1      38.024  32.469  31.360  1.00  0.00     0.031 A 
ATOM     39  C   UNL A   1      38.832  31.358  30.747  1.00  0.00     0.074 A 
ATOM     40  C   UNL A   1      38.313  32.951  32.583  1.00  0.00     0.049 A 
ATOM     41  N   UNL A   1      39.757  30.609  31.280  1.00  0.00    -0.248 NA
ATOM     42  C   UNL A   1      38.496  31.005  29.358  1.00  0.00     0.031 C 
ATOM     43  C   UNL A   1      37.587  34.021  33.269  1.00  0.00     0.029 A 
ATOM     44  N   UNL A   1      39.284  32.582  33.474  1.00  0.00    -0.354 N 
ATOM     45  C   UNL A   1      40.079  29.667  30.307  1.00  0.00     0.074 A 
ATOM     46  C   UNL A   1      39.196  29.897  29.185  1.00  0.00     0.031 C 
ATOM     47  C   UNL A   1      38.147  34.227  34.472  1.00  0.00     0.029 A 
ATOM     48  C   UNL A   1      39.232  33.269  34.664  1.00  0.00     0.049 A 
ATOM     49  H   UNL A   1      39.957  31.888  33.282  1.00  0.00     0.167 HD
ATOM     50  C   UNL A   1      41.042  28.714  30.341  1.00  0.00     0.034 A 
ATOM     51  C   UNL A   1      39.966  33.120  35.784  1.00  0.00     0.034 A 
ATOM     52  C   UNL A   1      41.928  28.538  31.464  1.00  0.00     0.049 A 
ATOM     53  C   UNL A   1      41.032  32.051  35.805  1.00  0.00     0.074 A 
ATOM     54  C   UNL A   1      42.973  27.645  31.609  1.00  0.00     0.029 A 
ATOM     55  N   UNL A   1      41.872  29.282  32.638  1.00  0.00    -0.354 N 
ATOM     56  N   UNL A   1      41.342  31.172  34.877  1.00  0.00    -0.248 NA
ATOM     57  C   UNL A   1      41.853  31.961  37.017  1.00  0.00     0.031 C 
ATOM     58  C   UNL A   1      43.507  27.806  32.892  1.00  0.00     0.029 A 
ATOM     59  C   UNL A   1      42.852  28.855  33.518  1.00  0.00     0.049 A 
ATOM     60  H   UNL A   1      41.228  30.005  32.817  1.00  0.00     0.167 HD
ATOM     61  C   UNL A   1      42.422  30.453  35.380  1.00  0.00     0.074 A 
ATOM     62  C   UNL A   1      42.713  31.009  36.687  1.00  0.00     0.031 C 
ATOM     63  C   UNL A   1      43.118  29.432  34.816  1.00  0.00     0.034 A 
BRANCH  50  64
ATOM     64  C   UNL A   1      41.151  27.795  29.147  1.00  0.00     0.023 A 
ATOM     65  C   UNL A   1      42.144  27.968  28.165  1.00  0.00     0.031 A 
ATOM     66  C   UNL A   1      40.211  26.767  28.950  1.00  0.00     0.131 A 
ATOM     67  C   UNL A   1      42.115  27.198  26.992  1.00  0.00     0.055 A 
ATOM     68  C   UNL A   1      40.247  25.940  27.825  1.00  0.00     0.041 A 
ATOM     69  F   UNL A   1      39.223  26.565  29.835  1.00  0.00    -0.206 F 
ATOM     70  C   UNL A   1      41.190  26.166  26.828  1.00  0.00     0.022 A 
BRANCH  67  71
ATOM     71  S   UNL A   1      43.191  27.683  25.615  1.00  0.00     0.124 S 
ATOM     72  O   UNL A   1      43.825  26.412  25.276  1.00  0.00    -0.237 OA
ATOM     73  O   UNL A   1      42.242  28.203  24.638  1.00  0.00    -0.237 OA
ATOM     74  O   UNL A   1      44.084  28.677  26.210  1.00  0.00    -0.744 OA
ENDBRANCH  67  71
ENDBRANCH  50  64
BRANCH  51  75
ATOM     75  C   UNL A   1      39.728  33.993  36.969  1.00  0.00     0.023 A 
ATOM     76  C   UNL A   1      39.150  33.474  38.139  1.00  0.00     0.031 A 
ATOM     77  C   UNL A   1      40.043  35.363  36.944  1.00  0.00     0.131 A 
ATOM     78  C   UNL A   1      38.863  34.324  39.218  1.00  0.00     0.055 A 
ATOM     79  C   UNL A   1      39.805  36.195  38.041  1.00  0.00     0.041 A 
ATOM     80  F   UNL A   1      40.604  35.912  35.855  1.00  0.00    -0.206 F 
ATOM     81  C   UNL A   1      39.200  35.678  39.182  1.00  0.00     0.022 A 
BRANCH  78  82
ATOM     82  S   UNL A   1      37.969  33.646  40.643  1.00  0.00     0.124 S 
ATOM     83  O   UNL A   1      37.633  34.856  41.385  1.00  0.00    -0.237 OA
ATOM     84  O   UNL A   1      36.856  32.956  40.001  1.00  0.00    -0.237 OA
ATOM     85  O   UNL A   1      38.956  32.776  41.280  1.00  0.00    -0.744 OA
ENDBRANCH  78  82
ENDBRANCH  51  75
BRANCH  63  86
ATOM     86  C   UNL A   1      44.302  28.903  35.588  1.00  0.00     0.023 A 
ATOM     87  C   UNL A   1      44.176  27.856  36.517  1.00  0.00     0.031 A 
ATOM     88  C   UNL A   1      45.576  29.465  35.391  1.00  0.00     0.131 A 
ATOM     89  C   UNL A   1      45.293  27.446  37.259  1.00  0.00     0.055 A 
ATOM     90  C   UNL A   1      46.697  29.007  36.083  1.00  0.00     0.041 A 
ATOM     91  F   UNL A   1      45.752  30.469  34.516  1.00  0.00    -0.206 F 
ATOM     92  C   UNL A   1      46.555  28.001  37.034  1.00  0.00     0.022 A 
BRANCH  89  93
ATOM     93  S   UNL A   1      45.052  26.250  38.601  1.00  0.00     0.124 S 
ATOM     94  O   UNL A   1      43.665  26.497  38.982  1.00  0.00    -0.237 OA
ATOM     95  O   UNL A   1      45.314  24.978  37.935  1.00  0.00    -0.237 OA
ATOM     96  O   UNL A   1      46.048  26.645  39.595  1.00  0.00    -0.744 OA
ENDBRANCH  89  93
ENDBRANCH  63  86
ENDBRANCH  37  38
ENDBRANCH  29  32
ENDBRANCH  27  28
ENDBRANCH  26  27
ENDBRANCH   1  26
TORSDOF 17
ENDMDL
MODEL 2
REMARK VINA RESULT:     -13.2      1.791      7.776
REMARK SMILES C[C@@H]1[C@H](C(=O)NCCCCNC(=O)c2ccc(-c3c4nc(c(-c5cc(S(=O)(=O)[O-])ccc5F)c5ccc([nH]5)c(-c5cc(S(=O)(=O)[O-])ccc5F)c5nc(c(-c6cc(S(=O)(=O)[O-])ccc6F)c6ccc3[nH]6)C=C5)C=C4)cc2)CC[N@@H+]1Cc1cnn(-c2ccccc2)c1
REMARK SMILES IDX 8 1 7 2 6 3 4 4 5 5 3 7 1 8 2 9 79 10 77 11 78 12 80 14
REMARK SMILES IDX 81 15 82 16 91 17 83 18 84 19 85 20 86 21 90 22 87 23 89 24
REMARK SMILES IDX 88 25 9 26 10 27 11 28 12 29 13 31 14 32 15 33 76 34 16 35
REMARK SMILES IDX 75 36 17 37 18 38 19 39 69 40 20 41 74 42 68 43 70 44 21 45
REMARK SMILES IDX 73 46 67 47 66 48 22 50 54 51 34 52 53 53 35 54 38 55 52 56
REMARK SMILES IDX 71 57 36 58 37 59 51 61 72 62 39 63 23 64 24 65 32 66 25 67
REMARK SMILES IDX 31 68 33 69 30 70 26 71 27 72 28 73 29 74 55 75 56 76 64 77
REMARK SMILES IDX 57 78 63 79 65 80 62 81 58 82 59 83 60 84 61 85 40 86 41 87
REMARK SMILES IDX 49 88 42 89 48 90 50 91 47 92 43 93 44 94 45 95 46 96
REMARK H PARENT 6 6 79 13 11 30 70 49 38 60
REMARK Flexibility Score: inf
ROOT
ATOM      1  C   UNL A   1      31.453  30.497  25.962  1.00  0.00     0.023 C 
ENDROOT
BRANCH   1   2
ATOM      2  C   UNL A   1      32.837  29.889  25.759  1.00  0.00     0.116 C 
BRANCH   2   3
ATOM      3  N   UNL A   1      32.895  29.092  24.554  1.00  0.00    -0.356 N 
ATOM      4  C   UNL A   1      33.077  27.758  24.387  1.00  0.00     0.229 C 
ATOM      5  O   UNL A   1      33.176  27.348  23.226  1.00  0.00    -0.275 OA
ATOM      6  H   UNL A   1      32.784  29.600  23.718  1.00  0.00     0.163 HD
BRANCH   4   7
ATOM      7  C   UNL A   1      33.145  26.764  25.539  1.00  0.00     0.142 C 
ATOM      8  C   UNL A   1      30.525  26.494  25.448  1.00  0.00     0.076 C 
ATOM      9  C   UNL A   1      31.849  26.155  26.112  1.00  0.00     0.193 C 
ATOM     10  N   UNL A   1      32.168  24.742  26.263  1.00  0.00    -0.328 N 
ATOM     11  C   UNL A   1      34.120  25.598  25.349  1.00  0.00     0.081 C 
ATOM     12  C   UNL A   1      33.593  24.519  26.279  1.00  0.00     0.263 C 
ATOM     13  H   UNL A   1      31.602  24.477  27.070  1.00  0.00     0.348 HD
BRANCH  10  14
ATOM     14  C   UNL A   1      31.235  23.650  26.145  1.00  0.00     0.302 C 
BRANCH  14  15
ATOM     15  C   UNL A   1      31.665  22.631  25.141  1.00  0.00     0.045 A 
ATOM     16  C   UNL A   1      31.661  22.732  23.734  1.00  0.00     0.145 A 
ATOM     17  C   UNL A   1      32.236  21.390  25.364  1.00  0.00     0.124 A 
ATOM     18  N   UNL A   1      32.200  21.675  23.129  1.00  0.00    -0.176 NA
ATOM     19  N   UNL A   1      32.524  20.827  24.136  1.00  0.00    -0.240 N 
BRANCH  19  20
ATOM     20  C   UNL A   1      33.033  19.528  23.867  1.00  0.00     0.065 A 
ATOM     21  C   UNL A   1      32.366  18.703  22.953  1.00  0.00     0.028 A 
ATOM     22  C   UNL A   1      34.157  19.037  24.549  1.00  0.00     0.028 A 
ATOM     23  C   UNL A   1      32.825  17.406  22.715  1.00  0.00     0.002 A 
ATOM     24  C   UNL A   1      34.578  17.720  24.344  1.00  0.00     0.002 A 
ATOM     25  C   UNL A   1      33.919  16.909  23.423  1.00  0.00     0.000 A 
ENDBRANCH  19  20
ENDBRANCH  14  15
ENDBRANCH  10  14
ENDBRANCH   4   7
ENDBRANCH   2   3
ENDBRANCH   1   2
BRANCH   1  26
ATOM     26  C   UNL A   1      31.405  31.932  26.445  1.00  0.00     0.023 C 
BRANCH  26  27
ATOM     27  C   UNL A   1      32.629  32.395  27.211  1.00  0.00     0.116 C 
BRANCH  27  28
ATOM     28  N   UNL A   1      32.580  33.779  27.661  1.00  0.00    -0.352 N 
ATOM     29  C   UNL A   1      33.512  34.452  28.424  1.00  0.00     0.251 C 
ATOM     30  H   UNL A   1      31.788  34.296  27.390  1.00  0.00     0.163 HD
ATOM     31  O   UNL A   1      33.433  35.647  28.645  1.00  0.00    -0.269 OA
BRANCH  29  32
ATOM     32  C   UNL A   1      34.632  33.678  28.974  1.00  0.00     0.039 A 
ATOM     33  C   UNL A   1      35.946  34.076  28.711  1.00  0.00     0.014 A 
ATOM     34  C   UNL A   1      34.351  32.601  29.811  1.00  0.00     0.014 A 
ATOM     35  C   UNL A   1      36.995  33.394  29.326  1.00  0.00     0.010 A 
ATOM     36  C   UNL A   1      35.385  31.997  30.499  1.00  0.00     0.010 A 
ATOM     37  C   UNL A   1      36.717  32.360  30.232  1.00  0.00    -0.014 A 
BRANCH  37  38
ATOM     38  C   UNL A   1      37.781  31.522  30.830  1.00  0.00     0.031 A 
ATOM     39  C   UNL A   1      38.178  31.811  32.251  1.00  0.00     0.074 A 
ATOM     40  C   UNL A   1      38.440  30.612  30.091  1.00  0.00     0.049 A 
ATOM     41  N   UNL A   1      39.224  31.413  32.922  1.00  0.00    -0.248 NA
ATOM     42  C   UNL A   1      37.303  32.735  32.993  1.00  0.00     0.031 C 
ATOM     43  C   UNL A   1      38.138  30.263  28.702  1.00  0.00     0.029 A 
ATOM     44  N   UNL A   1      39.520  29.830  30.405  1.00  0.00    -0.354 N 
ATOM     45  C   UNL A   1      39.156  32.073  34.145  1.00  0.00     0.074 A 
ATOM     46  C   UNL A   1      38.009  32.952  34.089  1.00  0.00     0.031 C 
ATOM     47  C   UNL A   1      39.009  29.328  28.287  1.00  0.00     0.029 A 
ATOM     48  C   UNL A   1      39.962  29.054  29.358  1.00  0.00     0.049 A 
ATOM     49  H   UNL A   1      39.941  29.825  31.294  1.00  0.00     0.167 HD
ATOM     50  C   UNL A   1      39.965  31.938  35.223  1.00  0.00     0.034 A 
ATOM     51  C   UNL A   1      41.029  28.235  29.278  1.00  0.00     0.034 A 
ATOM     52  C   UNL A   1      41.079  31.024  35.255  1.00  0.00     0.049 A 
ATOM     53  C   UNL A   1      41.920  28.099  30.488  1.00  0.00     0.074 A 
ATOM     54  C   UNL A   1      41.948  30.755  36.295  1.00  0.00     0.029 A 
ATOM     55  N   UNL A   1      41.473  30.222  34.188  1.00  0.00    -0.354 N 
ATOM     56  N   UNL A   1      41.844  28.715  31.647  1.00  0.00    -0.248 NA
ATOM     57  C   UNL A   1      43.035  27.150  30.384  1.00  0.00     0.031 C 
ATOM     58  C   UNL A   1      42.903  29.840  35.840  1.00  0.00     0.029 A 
ATOM     59  C   UNL A   1      42.582  29.473  34.541  1.00  0.00     0.049 A 
ATOM     60  H   UNL A   1      41.028  30.193  33.311  1.00  0.00     0.167 HD
ATOM     61  C   UNL A   1      42.876  28.196  32.423  1.00  0.00     0.074 A 
ATOM     62  C   UNL A   1      43.553  27.211  31.601  1.00  0.00     0.031 C 
ATOM     63  C   UNL A   1      43.233  28.496  33.699  1.00  0.00     0.034 A 
BRANCH  50  64
ATOM     64  C   UNL A   1      39.678  32.814  36.421  1.00  0.00     0.023 A 
ATOM     65  C   UNL A   1      38.910  32.357  37.508  1.00  0.00     0.031 A 
ATOM     66  C   UNL A   1      40.124  34.147  36.451  1.00  0.00     0.131 A 
ATOM     67  C   UNL A   1      38.530  33.247  38.524  1.00  0.00     0.055 A 
ATOM     68  C   UNL A   1      39.823  35.002  37.516  1.00  0.00     0.041 A 
ATOM     69  F   UNL A   1      40.839  34.654  35.435  1.00  0.00    -0.206 F 
ATOM     70  C   UNL A   1      39.005  34.559  38.550  1.00  0.00     0.022 A 
BRANCH  67  71
ATOM     71  S   UNL A   1      37.268  32.712  39.712  1.00  0.00     0.124 S 
ATOM     72  O   UNL A   1      37.332  33.778  40.709  1.00  0.00    -0.237 OA
ATOM     73  O   UNL A   1      36.061  32.673  38.896  1.00  0.00    -0.237 OA
ATOM     74  O   UNL A   1      37.757  31.412  40.169  1.00  0.00    -0.744 OA
ENDBRANCH  67  71
ENDBRANCH  50  64
BRANCH  51  75
ATOM     75  C   UNL A   1      41.314  27.484  28.022  1.00  0.00     0.023 A 
ATOM     76  C   UNL A   1      41.066  26.104  27.938  1.00  0.00     0.031 A 
ATOM     77  C   UNL A   1      41.866  28.122  26.896  1.00  0.00     0.131 A 
ATOM     78  C   UNL A   1      41.410  25.398  26.775  1.00  0.00     0.055 A 
ATOM     79  C   UNL A   1      42.156  27.424  25.722  1.00  0.00     0.041 A 
ATOM     80  F   UNL A   1      42.117  29.440  26.918  1.00  0.00    -0.206 F 
ATOM     81  C   UNL A   1      41.940  26.051  25.661  1.00  0.00     0.022 A 
BRANCH  78  82
ATOM     82  S   UNL A   1      41.224  23.593  26.770  1.00  0.00     0.124 S 
ATOM     83  O   UNL A   1      39.802  23.442  26.485  1.00  0.00    -0.237 OA
ATOM     84  O   UNL A   1      42.139  23.199  25.704  1.00  0.00    -0.237 OA
ATOM     85  O   UNL A   1      41.636  23.207  28.118  1.00  0.00    -0.744 OA
ENDBRANCH  78  82
ENDBRANCH  51  75
BRANCH  63  86
ATOM     86  C   UNL A   1      44.365  27.697  34.298  1.00  0.00     0.023 A 
ATOM     87  C   UNL A   1      44.137  26.516  35.024  1.00  0.00     0.031 A 
ATOM     88  C   UNL A   1      45.692  28.135  34.141  1.00  0.00     0.131 A 
ATOM     89  C   UNL A   1      45.217  25.847  35.619  1.00  0.00     0.055 A 
ATOM     90  C   UNL A   1      46.768  27.427  34.677  1.00  0.00     0.041 A 
ATOM     91  F   UNL A   1      45.965  29.258  33.456  1.00  0.00    -0.206 F 
ATOM     92  C   UNL A   1      46.531  26.284  35.434  1.00  0.00     0.022 A 
BRANCH  89  93
ATOM     93  S   UNL A   1      44.870  24.455  36.730  1.00  0.00     0.124 S 
ATOM     94  O   UNL A   1      44.512  23.399  35.790  1.00  0.00    -0.237 OA
ATOM     95  O   UNL A   1      46.142  24.287  37.424  1.00  0.00    -0.237 OA
ATOM     96  O   UNL A   1      43.772  24.946  37.561  1.00  0.00    -0.744 OA
ENDBRANCH  89  93
ENDBRANCH  63  86
ENDBRANCH  37  38
ENDBRANCH  29  32
ENDBRANCH  27  28
ENDBRANCH  26  27
ENDBRANCH   1  26
TORSDOF 17
ENDMDL
MODEL 3
REMARK VINA RESULT:     -13.2      2.854      8.675
REMARK SMILES C[C@@H]1[C@H](C(=O)NCCCCNC(=O)c2ccc(-c3c4nc(c(-c5cc(S(=O)(=O)[O-])ccc5F)c5ccc([nH]5)c(-c5cc(S(=O)(=O)[O-])ccc5F)c5nc(c(-c6cc(S(=O)(=O)[O-])ccc6F)c6ccc3[nH]6)C=C5)C=C4)cc2)CC[N@@H+]1Cc1cnn(-c2ccccc2)c1
REMARK SMILES IDX 8 1 7 2 6 3 4 4 5 5 3 7 1 8 2 9 79 10 77 11 78 12 80 14
REMARK SMILES IDX 81 15 82 16 91 17 83 18 84 19 85 20 86 21 90 22 87 23 89 24
REMARK SMILES IDX 88 25 9 26 10 27 11 28 12 29 13 31 14 32 15 33 76 34 16 35
REMARK SMILES IDX 75 36 17 37 18 38 19 39 69 40 20 41 74 42 68 43 70 44 21 45
REMARK SMILES IDX 73 46 67 47 66 48 22 50 54 51 34 52 53 53 35 54 38 55 52 56
REMARK SMILES IDX 71 57 36 58 37 59 51 61 72 62 39 63 23 64 24 65 32 66 25 67
REMARK SMILES IDX 31 68 33 69 30 70 26 71 27 72 28 73 29 74 55 75 56 76 64 77
REMARK SMILES IDX 57 78 63 79 65 80 62 81 58 82 59 83 60 84 61 85 40 86 41 87
REMARK SMILES IDX 49 88 42 89 48 90 50 91 47 92 43 93 44 94 45 95 46 96
REMARK H PARENT 6 6 79 13 11 30 70 49 38 60
REMARK Flexibility Score: inf
ROOT
ATOM      1  C   UNL A   1      31.399  27.459  26.654  1.00  0.00     0.023 C 
ENDROOT
BRANCH   1   2
ATOM      2  C   UNL A   1      30.810  26.223  25.982  1.00  0.00     0.116 C 
BRANCH   2   3
ATOM      3  N   UNL A   1      30.883  25.064  26.844  1.00  0.00    -0.356 N 
ATOM      4  C   UNL A   1      31.711  23.991  26.810  1.00  0.00     0.229 C 
ATOM      5  O   UNL A   1      31.492  23.089  27.626  1.00  0.00    -0.275 OA
ATOM      6  H   UNL A   1      30.223  25.054  27.576  1.00  0.00     0.163 HD
BRANCH   4   7
ATOM      7  C   UNL A   1      32.882  23.857  25.846  1.00  0.00     0.142 C 
ATOM      8  C   UNL A   1      31.195  23.387  23.876  1.00  0.00     0.076 C 
ATOM      9  C   UNL A   1      32.628  23.505  24.365  1.00  0.00     0.193 C 
ATOM     10  N   UNL A   1      33.501  24.417  23.639  1.00  0.00    -0.328 N 
ATOM     11  C   UNL A   1      33.874  25.024  25.846  1.00  0.00     0.081 C 
ATOM     12  C   UNL A   1      34.545  24.941  24.486  1.00  0.00     0.263 C 
ATOM     13  H   UNL A   1      33.742  23.873  22.810  1.00  0.00     0.348 HD
BRANCH  10  14
ATOM     14  C   UNL A   1      33.245  24.967  22.332  1.00  0.00     0.302 C 
BRANCH  14  15
ATOM     15  C   UNL A   1      32.631  26.328  22.389  1.00  0.00     0.045 A 
ATOM     16  C   UNL A   1      33.279  27.580  22.428  1.00  0.00     0.145 A 
ATOM     17  C   UNL A   1      31.291  26.671  22.339  1.00  0.00     0.124 A 
ATOM     18  N   UNL A   1      32.437  28.611  22.378  1.00  0.00    -0.176 NA
ATOM     19  N   UNL A   1      31.203  28.049  22.361  1.00  0.00    -0.240 N 
BRANCH  19  20
ATOM     20  C   UNL A   1      30.031  28.850  22.416  1.00  0.00     0.065 A 
ATOM     21  C   UNL A   1      28.907  28.376  23.105  1.00  0.00     0.028 A 
ATOM     22  C   UNL A   1      29.960  30.077  21.740  1.00  0.00     0.028 A 
ATOM     23  C   UNL A   1      27.730  29.129  23.127  1.00  0.00     0.002 A 
ATOM     24  C   UNL A   1      28.762  30.798  21.722  1.00  0.00     0.002 A 
ATOM     25  C   UNL A   1      27.653  30.329  22.422  1.00  0.00     0.000 A 
ENDBRANCH  19  20
ENDBRANCH  14  15
ENDBRANCH  10  14
ENDBRANCH   4   7
ENDBRANCH   2   3
ENDBRANCH   1   2
BRANCH   1  26
ATOM     26  C   UNL A   1      31.657  28.658  25.764  1.00  0.00     0.023 C 
BRANCH  26  27
ATOM     27  C   UNL A   1      32.818  29.537  26.186  1.00  0.00     0.116 C 
BRANCH  27  28
ATOM     28  N   UNL A   1      32.462  30.918  26.482  1.00  0.00    -0.352 N 
ATOM     29  C   UNL A   1      33.196  31.843  27.194  1.00  0.00     0.251 C 
ATOM     30  H   UNL A   1      31.596  31.227  26.133  1.00  0.00     0.163 HD
ATOM     31  O   UNL A   1      32.863  33.011  27.282  1.00  0.00    -0.269 OA
BRANCH  29  32
ATOM     32  C   UNL A   1      34.422  31.380  27.857  1.00  0.00     0.039 A 
ATOM     33  C   UNL A   1      35.488  32.265  28.044  1.00  0.00     0.014 A 
ATOM     34  C   UNL A   1      34.461  30.078  28.353  1.00  0.00     0.014 A 
ATOM     35  C   UNL A   1      36.601  31.840  28.767  1.00  0.00     0.010 A 
ATOM     36  C   UNL A   1      35.517  29.697  29.157  1.00  0.00     0.010 A 
ATOM     37  C   UNL A   1      36.614  30.558  29.337  1.00  0.00    -0.014 A 
BRANCH  37  38
ATOM     38  C   UNL A   1      37.806  30.004  30.017  1.00  0.00     0.031 A 
ATOM     39  C   UNL A   1      38.089  30.473  31.418  1.00  0.00     0.074 A 
ATOM     40  C   UNL A   1      38.661  29.198  29.363  1.00  0.00     0.049 A 
ATOM     41  N   UNL A   1      39.171  30.349  32.136  1.00  0.00    -0.248 NA
ATOM     42  C   UNL A   1      37.019  31.248  32.070  1.00  0.00     0.031 C 
ATOM     43  C   UNL A   1      38.483  28.694  28.001  1.00  0.00     0.029 A 
ATOM     44  N   UNL A   1      39.867  28.681  29.756  1.00  0.00    -0.354 N 
ATOM     45  C   UNL A   1      38.929  31.069  33.302  1.00  0.00     0.074 A 
ATOM     46  C   UNL A   1      37.629  31.686  33.157  1.00  0.00     0.031 C 
ATOM     47  C   UNL A   1      39.540  27.931  27.676  1.00  0.00     0.029 A 
ATOM     48  C   UNL A   1      40.493  27.938  28.781  1.00  0.00     0.049 A 
ATOM     49  H   UNL A   1      40.251  28.828  30.650  1.00  0.00     0.167 HD
ATOM     50  C   UNL A   1      39.713  31.183  34.401  1.00  0.00     0.034 A 
ATOM     51  C   UNL A   1      41.707  27.354  28.783  1.00  0.00     0.034 A 
ATOM     52  C   UNL A   1      40.989  30.524  34.523  1.00  0.00     0.049 A 
ATOM     53  C   UNL A   1      42.567  27.494  30.015  1.00  0.00     0.074 A 
ATOM     54  C   UNL A   1      41.860  30.517  35.597  1.00  0.00     0.029 A 
ATOM     55  N   UNL A   1      41.573  29.744  33.530  1.00  0.00    -0.354 N 
ATOM     56  N   UNL A   1      42.328  28.164  31.121  1.00  0.00    -0.248 NA
ATOM     57  C   UNL A   1      43.855  26.790  30.005  1.00  0.00     0.031 C 
ATOM     58  C   UNL A   1      42.996  29.787  35.231  1.00  0.00     0.029 A 
ATOM     59  C   UNL A   1      42.800  29.267  33.960  1.00  0.00     0.049 A 
ATOM     60  H   UNL A   1      41.173  29.559  32.650  1.00  0.00     0.167 HD
ATOM     61  C   UNL A   1      43.419  27.928  31.953  1.00  0.00     0.074 A 
ATOM     62  C   UNL A   1      44.309  27.046  31.223  1.00  0.00     0.031 C 
ATOM     63  C   UNL A   1      43.665  28.387  33.208  1.00  0.00     0.034 A 
BRANCH  50  64
ATOM     64  C   UNL A   1      39.214  32.066  35.521  1.00  0.00     0.023 A 
ATOM     65  C   UNL A   1      39.565  33.426  35.607  1.00  0.00     0.031 A 
ATOM     66  C   UNL A   1      38.426  31.528  36.555  1.00  0.00     0.131 A 
ATOM     67  C   UNL A   1      39.216  34.172  36.743  1.00  0.00     0.055 A 
ATOM     68  C   UNL A   1      38.000  32.303  37.637  1.00  0.00     0.041 A 
ATOM     69  F   UNL A   1      38.078  30.232  36.547  1.00  0.00    -0.206 F 
ATOM     70  C   UNL A   1      38.411  33.627  37.745  1.00  0.00     0.022 A 
BRANCH  67  71
ATOM     71  S   UNL A   1      39.974  35.804  36.970  1.00  0.00     0.124 S 
ATOM     72  O   UNL A   1      39.654  36.456  35.703  1.00  0.00    -0.237 OA
ATOM     73  O   UNL A   1      39.279  36.316  38.145  1.00  0.00    -0.237 OA
ATOM     74  O   UNL A   1      41.391  35.499  37.165  1.00  0.00    -0.744 OA
ENDBRANCH  67  71
ENDBRANCH  50  64
BRANCH  51  75
ATOM     75  C   UNL A   1      42.181  26.588  27.595  1.00  0.00     0.023 A 
ATOM     76  C   UNL A   1      41.886  25.222  27.457  1.00  0.00     0.031 A 
ATOM     77  C   UNL A   1      42.960  27.196  26.595  1.00  0.00     0.131 A 
ATOM     78  C   UNL A   1      42.402  24.497  26.372  1.00  0.00     0.055 A 
ATOM     79  C   UNL A   1      43.427  26.483  25.488  1.00  0.00     0.041 A 
ATOM     80  F   UNL A   1      43.267  28.500  26.672  1.00  0.00    -0.206 F 
ATOM     81  C   UNL A   1      43.159  25.123  25.378  1.00  0.00     0.022 A 
BRANCH  78  82
ATOM     82  S   UNL A   1      42.134  22.704  26.319  1.00  0.00     0.124 S 
ATOM     83  O   UNL A   1      42.657  22.365  25.000  1.00  0.00    -0.237 OA
ATOM     84  O   UNL A   1      42.920  22.248  27.459  1.00  0.00    -0.237 OA
ATOM     85  O   UNL A   1      40.686  22.574  26.469  1.00  0.00    -0.744 OA
ENDBRANCH  78  82
ENDBRANCH  51  75
BRANCH  63  86
ATOM     86  C   UNL A   1      44.915  27.885  33.887  1.00  0.00     0.023 A 
ATOM     87  C   UNL A   1      44.902  26.764  34.734  1.00  0.00     0.031 A 
ATOM     88  C   UNL A   1      46.138  28.549  33.684  1.00  0.00     0.131 A 
ATOM     89  C   UNL A   1      46.077  26.377  35.395  1.00  0.00     0.055 A 
ATOM     90  C   UNL A   1      47.318  28.119  34.291  1.00  0.00     0.041 A 
ATOM     91  F   UNL A   1      46.206  29.627  32.885  1.00  0.00    -0.206 F 
ATOM     92  C   UNL A   1      47.287  27.036  35.164  1.00  0.00     0.022 A 
BRANCH  89  93
ATOM     93  S   UNL A   1      45.979  25.068  36.646  1.00  0.00     0.124 S 
ATOM     94  O   UNL A   1      47.278  24.417  36.506  1.00  0.00    -0.237 OA
ATOM     95  O   UNL A   1      45.775  25.827  37.875  1.00  0.00    -0.237 OA
ATOM     96  O   UNL A   1      44.834  24.268  36.215  1.00  0.00    -0.744 OA
ENDBRANCH  89  93
ENDBRANCH  63  86
ENDBRANCH  37  38
ENDBRANCH  29  32
ENDBRANCH  27  28
ENDBRANCH  26  27
ENDBRANCH   1  26
TORSDOF 17
ENDMDL
