MODEL 1
REMARK VINA RESULT:     -12.9      0.000      0.000
REMARK SMILES Nc1ccc(-c2cc3ccccc3s2)c(C(=O)NCCCCNC(=O)c2ccc(-c3c4nc(c(-c5cc(S(=O)(=O)[O-])ccc5F)c5ccc([nH]5)c(-c5cc(S(=O)(=O)[O-])ccc5F)c5nc(c(-c6cc(S(=O)(=O)[O-])ccc6F)c6ccc3[nH]6)C=C5)C=C4)cc2)n1
REMARK SMILES IDX 21 1 20 2 19 3 18 4 16 5 17 6 15 8 2 9 3 10 89 11 4 12 5 13
REMARK SMILES IDX 1 14 6 17 7 18 14 19 8 20 13 21 9 22 12 23 10 24 11 25 22 26
REMARK SMILES IDX 23 27 24 28 25 30 26 31 27 32 88 33 28 34 87 35 29 36 30 37
REMARK SMILES IDX 31 38 81 39 32 40 86 41 80 42 82 43 33 44 85 45 79 46 78 47
REMARK SMILES IDX 34 49 66 50 46 51 65 52 47 53 50 54 64 55 83 56 48 57 49 58
REMARK SMILES IDX 63 60 84 61 51 62 35 63 36 64 44 65 37 66 43 67 45 68 42 69
REMARK SMILES IDX 38 70 39 71 40 72 41 73 67 74 68 75 76 76 69 77 75 78 77 79
REMARK SMILES IDX 74 80 70 81 71 82 72 83 73 84 52 85 53 86 61 87 54 88 60 89
REMARK SMILES IDX 62 90 59 91 55 92 56 93 57 94 58 95
REMARK H PARENT 18 7 1 15 1 16 23 29 82 48 50 59
REMARK Flexibility Score: inf
ROOT
ATOM      1  C   UNL A   1      35.879  21.386  25.412  1.00  0.00     0.023 C 
ENDROOT
BRANCH   1   2
ATOM      2  C   UNL A   1      35.155  22.287  26.415  1.00  0.00     0.023 C 
BRANCH   2   3
ATOM      3  C   UNL A   1      34.260  21.599  27.436  1.00  0.00     0.116 C 
BRANCH   3   4
ATOM      4  N   UNL A   1      32.999  22.253  27.708  1.00  0.00    -0.351 N 
ATOM      5  C   UNL A   1      31.978  22.591  26.839  1.00  0.00     0.270 C 
ATOM      6  O   UNL A   1      30.922  22.997  27.329  1.00  0.00    -0.267 OA
ATOM      7  H   UNL A   1      32.845  22.493  28.650  1.00  0.00     0.163 HD
BRANCH   5   8
ATOM      8  C   UNL A   1      32.109  22.546  25.339  1.00  0.00     0.139 A 
ATOM      9  C   UNL A   1      32.265  21.052  23.556  1.00  0.00     0.124 A 
ATOM     10  C   UNL A   1      32.437  22.088  22.660  1.00  0.00     0.047 A 
ATOM     11  N   UNL A   1      32.072  21.260  24.864  1.00  0.00    -0.225 NA
ATOM     12  C   UNL A   1      32.485  23.393  23.143  1.00  0.00     0.016 A 
ATOM     13  C   UNL A   1      32.346  23.654  24.515  1.00  0.00     0.023 A 
BRANCH   9  14
ATOM     14  N   UNL A   1      32.248  19.740  23.123  1.00  0.00    -0.384 N 
ATOM     15  H   UNL A   1      32.989  19.135  23.357  1.00  0.00     0.158 HD
ATOM     16  H   UNL A   1      31.496  19.410  22.581  1.00  0.00     0.158 HD
ENDBRANCH   9  14
BRANCH  13  17
ATOM     17  C   UNL A   1      32.483  25.034  24.990  1.00  0.00     0.038 A 
ATOM     18  C   UNL A   1      33.621  25.745  25.306  1.00  0.00     0.029 A 
ATOM     19  S   UNL A   1      31.075  25.979  25.257  1.00  0.00    -0.135 S 
ATOM     20  C   UNL A   1      33.339  27.001  25.945  1.00  0.00    -0.007 A 
ATOM     21  C   UNL A   1      31.964  27.235  26.020  1.00  0.00     0.035 A 
ATOM     22  C   UNL A   1      34.211  27.952  26.526  1.00  0.00     0.009 A 
ATOM     23  C   UNL A   1      31.440  28.366  26.669  1.00  0.00     0.019 A 
ATOM     24  C   UNL A   1      33.694  29.074  27.180  1.00  0.00     0.001 A 
ATOM     25  C   UNL A   1      32.323  29.273  27.254  1.00  0.00     0.001 A 
ENDBRANCH  13  17
ENDBRANCH   5   8
ENDBRANCH   3   4
ENDBRANCH   2   3
ENDBRANCH   1   2
BRANCH   1  26
ATOM     26  C   UNL A   1      37.266  21.813  24.933  1.00  0.00     0.116 C 
BRANCH  26  27
ATOM     27  N   UNL A   1      38.350  20.916  25.303  1.00  0.00    -0.352 N 
ATOM     28  C   UNL A   1      39.450  21.117  26.112  1.00  0.00     0.251 C 
ATOM     29  H   UNL A   1      38.288  20.015  24.911  1.00  0.00     0.163 HD
ATOM     30  O   UNL A   1      40.274  20.216  26.239  1.00  0.00    -0.269 OA
BRANCH  28  31
ATOM     31  C   UNL A   1      39.694  22.425  26.771  1.00  0.00     0.039 A 
ATOM     32  C   UNL A   1      40.759  22.516  27.674  1.00  0.00     0.014 A 
ATOM     33  C   UNL A   1      38.937  23.562  26.485  1.00  0.00     0.014 A 
ATOM     34  C   UNL A   1      41.158  23.763  28.161  1.00  0.00     0.010 A 
ATOM     35  C   UNL A   1      39.386  24.816  26.901  1.00  0.00     0.010 A 
ATOM     36  C   UNL A   1      40.531  24.932  27.703  1.00  0.00    -0.014 A 
BRANCH  36  37
ATOM     37  C   UNL A   1      41.135  26.268  27.953  1.00  0.00     0.031 A 
ATOM     38  C   UNL A   1      42.547  26.571  27.543  1.00  0.00     0.074 A 
ATOM     39  C   UNL A   1      40.417  27.180  28.642  1.00  0.00     0.049 A 
ATOM     40  N   UNL A   1      43.249  27.659  27.739  1.00  0.00    -0.248 NA
ATOM     41  C   UNL A   1      43.275  25.501  26.848  1.00  0.00     0.031 C 
ATOM     42  C   UNL A   1      39.059  26.971  29.155  1.00  0.00     0.029 A 
ATOM     43  N   UNL A   1      40.722  28.458  29.040  1.00  0.00    -0.354 N 
ATOM     44  C   UNL A   1      44.505  27.403  27.201  1.00  0.00     0.074 A 
ATOM     45  C   UNL A   1      44.481  26.035  26.722  1.00  0.00     0.031 C 
ATOM     46  C   UNL A   1      38.639  28.089  29.766  1.00  0.00     0.029 A 
ATOM     47  C   UNL A   1      39.708  29.079  29.734  1.00  0.00     0.049 A 
ATOM     48  H   UNL A   1      41.585  28.890  28.846  1.00  0.00     0.167 HD
ATOM     49  C   UNL A   1      45.571  28.238  27.100  1.00  0.00     0.034 A 
ATOM     50  C   UNL A   1      39.647  30.305  30.291  1.00  0.00     0.034 A 
ATOM     51  C   UNL A   1      45.573  29.597  27.587  1.00  0.00     0.049 A 
ATOM     52  C   UNL A   1      40.839  31.214  30.163  1.00  0.00     0.074 A 
ATOM     53  C   UNL A   1      46.577  30.547  27.500  1.00  0.00     0.029 A 
ATOM     54  N   UNL A   1      44.519  30.202  28.263  1.00  0.00    -0.354 N 
ATOM     55  N   UNL A   1      41.999  30.976  29.596  1.00  0.00    -0.248 NA
ATOM     56  C   UNL A   1      40.710  32.559  30.736  1.00  0.00     0.031 C 
ATOM     57  C   UNL A   1      46.154  31.700  28.171  1.00  0.00     0.029 A 
ATOM     58  C   UNL A   1      44.858  31.499  28.619  1.00  0.00     0.049 A 
ATOM     59  H   UNL A   1      43.656  29.771  28.461  1.00  0.00     0.167 HD
ATOM     60  C   UNL A   1      42.730  32.154  29.722  1.00  0.00     0.074 A 
ATOM     61  C   UNL A   1      41.872  33.102  30.404  1.00  0.00     0.031 C 
ATOM     62  C   UNL A   1      43.993  32.427  29.309  1.00  0.00     0.034 A 
BRANCH  49  63
ATOM     63  C   UNL A   1      46.824  27.684  26.461  1.00  0.00     0.023 A 
ATOM     64  C   UNL A   1      47.154  27.966  25.124  1.00  0.00     0.031 A 
ATOM     65  C   UNL A   1      47.680  26.832  27.182  1.00  0.00     0.131 A 
ATOM     66  C   UNL A   1      48.253  27.335  24.523  1.00  0.00     0.055 A 
ATOM     67  C   UNL A   1      48.821  26.273  26.603  1.00  0.00     0.041 A 
ATOM     68  F   UNL A   1      47.410  26.511  28.458  1.00  0.00    -0.206 F 
ATOM     69  C   UNL A   1      49.104  26.509  25.262  1.00  0.00     0.022 A 
BRANCH  66  70
ATOM     70  S   UNL A   1      48.466  27.489  22.729  1.00  0.00     0.124 S 
ATOM     71  O   UNL A   1      47.263  28.229  22.353  1.00  0.00    -0.237 OA
ATOM     72  O   UNL A   1      49.724  28.216  22.620  1.00  0.00    -0.237 OA
ATOM     73  O   UNL A   1      48.503  26.102  22.267  1.00  0.00    -0.744 OA
ENDBRANCH  66  70
ENDBRANCH  49  63
BRANCH  50  74
ATOM     74  C   UNL A   1      38.420  30.744  31.017  1.00  0.00     0.023 A 
ATOM     75  C   UNL A   1      37.403  31.449  30.356  1.00  0.00     0.031 A 
ATOM     76  C   UNL A   1      38.258  30.484  32.389  1.00  0.00     0.131 A 
ATOM     77  C   UNL A   1      36.288  31.907  31.075  1.00  0.00     0.055 A 
ATOM     78  C   UNL A   1      37.124  30.900  33.090  1.00  0.00     0.041 A 
ATOM     79  F   UNL A   1      39.196  29.804  33.068  1.00  0.00    -0.206 F 
ATOM     80  C   UNL A   1      36.135  31.627  32.434  1.00  0.00     0.022 A 
BRANCH  77  81
ATOM     81  S   UNL A   1      35.068  32.943  30.219  1.00  0.00     0.124 S 
ATOM     82  O   UNL A   1      34.484  31.997  29.274  1.00  0.00    -0.237 OA
ATOM     83  O   UNL A   1      34.208  33.367  31.318  1.00  0.00    -0.237 OA
ATOM     84  O   UNL A   1      35.881  34.001  29.622  1.00  0.00    -0.744 OA
ENDBRANCH  77  81
ENDBRANCH  50  74
BRANCH  62  85
ATOM     85  C   UNL A   1      44.498  33.826  29.555  1.00  0.00     0.023 A 
ATOM     86  C   UNL A   1      44.325  34.851  28.608  1.00  0.00     0.031 A 
ATOM     87  C   UNL A   1      45.178  34.131  30.747  1.00  0.00     0.131 A 
ATOM     88  C   UNL A   1      44.876  36.119  28.845  1.00  0.00     0.055 A 
ATOM     89  C   UNL A   1      45.674  35.410  31.002  1.00  0.00     0.041 A 
ATOM     90  F   UNL A   1      45.372  33.188  31.683  1.00  0.00    -0.206 F 
ATOM     91  C   UNL A   1      45.535  36.409  30.043  1.00  0.00     0.022 A 
BRANCH  88  92
ATOM     92  S   UNL A   1      44.788  37.365  27.530  1.00  0.00     0.124 S 
ATOM     93  O   UNL A   1      45.859  36.938  26.635  1.00  0.00    -0.237 OA
ATOM     94  O   UNL A   1      43.430  37.195  27.027  1.00  0.00    -0.237 OA
ATOM     95  O   UNL A   1      45.034  38.623  28.234  1.00  0.00    -0.744 OA
ENDBRANCH  88  92
ENDBRANCH  62  85
ENDBRANCH  36  37
ENDBRANCH  28  31
ENDBRANCH  26  27
ENDBRANCH   1  26
TORSDOF 16
ENDMDL
MODEL 2
REMARK VINA RESULT:     -12.9      1.008      7.544
REMARK SMILES Nc1ccc(-c2cc3ccccc3s2)c(C(=O)NCCCCNC(=O)c2ccc(-c3c4nc(c(-c5cc(S(=O)(=O)[O-])ccc5F)c5ccc([nH]5)c(-c5cc(S(=O)(=O)[O-])ccc5F)c5nc(c(-c6cc(S(=O)(=O)[O-])ccc6F)c6ccc3[nH]6)C=C5)C=C4)cc2)n1
REMARK SMILES IDX 21 1 20 2 19 3 18 4 16 5 17 6 15 8 2 9 3 10 89 11 4 12 5 13
REMARK SMILES IDX 1 14 6 17 7 18 14 19 8 20 13 21 9 22 12 23 10 24 11 25 22 26
REMARK SMILES IDX 23 27 24 28 25 30 26 31 27 32 88 33 28 34 87 35 29 36 30 37
REMARK SMILES IDX 31 38 81 39 32 40 86 41 80 42 82 43 33 44 85 45 79 46 78 47
REMARK SMILES IDX 34 49 66 50 46 51 65 52 47 53 50 54 64 55 83 56 48 57 49 58
REMARK SMILES IDX 63 60 84 61 51 62 35 63 36 64 44 65 37 66 43 67 45 68 42 69
REMARK SMILES IDX 38 70 39 71 40 72 41 73 67 74 68 75 76 76 69 77 75 78 77 79
REMARK SMILES IDX 74 80 70 81 71 82 72 83 73 84 52 85 53 86 61 87 54 88 60 89
REMARK SMILES IDX 62 90 59 91 55 92 56 93 57 94 58 95
REMARK H PARENT 18 7 1 15 1 16 23 29 82 48 50 59
REMARK Flexibility Score: inf
ROOT
ATOM      1  C   UNL A   1      35.829  21.331  25.410  1.00  0.00     0.023 C 
ENDROOT
BRANCH   1   2
ATOM      2  C   UNL A   1      35.281  22.394  26.365  1.00  0.00     0.023 C 
BRANCH   2   3
ATOM      3  C   UNL A   1      34.381  21.907  27.492  1.00  0.00     0.116 C 
BRANCH   3   4
ATOM      4  N   UNL A   1      33.101  22.570  27.603  1.00  0.00    -0.351 N 
ATOM      5  C   UNL A   1      32.020  22.547  26.742  1.00  0.00     0.270 C 
ATOM      6  O   UNL A   1      30.969  23.061  27.130  1.00  0.00    -0.267 OA
ATOM      7  H   UNL A   1      32.981  23.118  28.413  1.00  0.00     0.163 HD
BRANCH   5   8
ATOM      8  C   UNL A   1      32.078  21.986  25.345  1.00  0.00     0.139 A 
ATOM      9  C   UNL A   1      32.266  19.973  24.183  1.00  0.00     0.124 A 
ATOM     10  C   UNL A   1      32.307  20.637  22.973  1.00  0.00     0.047 A 
ATOM     11  N   UNL A   1      32.123  20.616  25.349  1.00  0.00    -0.225 NA
ATOM     12  C   UNL A   1      32.270  22.029  22.969  1.00  0.00     0.016 A 
ATOM     13  C   UNL A   1      32.180  22.746  24.172  1.00  0.00     0.023 A 
BRANCH   9  14
ATOM     14  N   UNL A   1      32.336  18.595  24.234  1.00  0.00    -0.384 N 
ATOM     15  H   UNL A   1      33.014  18.157  24.799  1.00  0.00     0.158 HD
ATOM     16  H   UNL A   1      31.709  18.049  23.707  1.00  0.00     0.158 HD
ENDBRANCH   9  14
BRANCH  13  17
ATOM     17  C   UNL A   1      32.226  24.210  24.128  1.00  0.00     0.038 A 
ATOM     18  C   UNL A   1      33.304  25.059  24.265  1.00  0.00     0.029 A 
ATOM     19  S   UNL A   1      30.772  25.095  23.911  1.00  0.00    -0.135 S 
ATOM     20  C   UNL A   1      32.920  26.440  24.381  1.00  0.00    -0.007 A 
ATOM     21  C   UNL A   1      31.539  26.596  24.245  1.00  0.00     0.035 A 
ATOM     22  C   UNL A   1      33.698  27.590  24.653  1.00  0.00     0.009 A 
ATOM     23  C   UNL A   1      30.916  27.847  24.393  1.00  0.00     0.019 A 
ATOM     24  C   UNL A   1      33.083  28.835  24.811  1.00  0.00     0.001 A 
ATOM     25  C   UNL A   1      31.706  28.958  24.687  1.00  0.00     0.001 A 
ENDBRANCH  13  17
ENDBRANCH   5   8
ENDBRANCH   3   4
ENDBRANCH   2   3
ENDBRANCH   1   2
BRANCH   1  26
ATOM     26  C   UNL A   1      37.193  21.579  24.765  1.00  0.00     0.116 C 
BRANCH  26  27
ATOM     27  N   UNL A   1      38.235  20.637  25.146  1.00  0.00    -0.352 N 
ATOM     28  C   UNL A   1      39.343  20.797  25.953  1.00  0.00     0.251 C 
ATOM     29  H   UNL A   1      38.132  19.735  24.764  1.00  0.00     0.163 HD
ATOM     30  O   UNL A   1      40.125  19.860  26.090  1.00  0.00    -0.269 OA
BRANCH  28  31
ATOM     31  C   UNL A   1      39.648  22.100  26.597  1.00  0.00     0.039 A 
ATOM     32  C   UNL A   1      40.654  22.132  27.569  1.00  0.00     0.014 A 
ATOM     33  C   UNL A   1      39.005  23.284  26.233  1.00  0.00     0.014 A 
ATOM     34  C   UNL A   1      41.118  23.357  28.053  1.00  0.00     0.010 A 
ATOM     35  C   UNL A   1      39.525  24.510  26.650  1.00  0.00     0.010 A 
ATOM     36  C   UNL A   1      40.619  24.558  27.526  1.00  0.00    -0.014 A 
BRANCH  36  37
ATOM     37  C   UNL A   1      41.311  25.849  27.787  1.00  0.00     0.031 A 
ATOM     38  C   UNL A   1      40.641  26.948  28.561  1.00  0.00     0.074 A 
ATOM     39  C   UNL A   1      42.526  26.051  27.234  1.00  0.00     0.049 A 
ATOM     40  N   UNL A   1      41.074  28.155  28.825  1.00  0.00    -0.248 NA
ATOM     41  C   UNL A   1      39.297  26.663  29.078  1.00  0.00     0.031 C 
ATOM     42  C   UNL A   1      43.244  25.081  26.402  1.00  0.00     0.029 A 
ATOM     43  N   UNL A   1      43.370  27.132  27.275  1.00  0.00    -0.354 N 
ATOM     44  C   UNL A   1      40.052  28.779  29.532  1.00  0.00     0.074 A 
ATOM     45  C   UNL A   1      38.958  27.831  29.603  1.00  0.00     0.031 C 
ATOM     46  C   UNL A   1      44.429  25.597  26.042  1.00  0.00     0.029 A 
ATOM     47  C   UNL A   1      44.540  26.949  26.574  1.00  0.00     0.049 A 
ATOM     48  H   UNL A   1      43.158  27.962  27.762  1.00  0.00     0.167 HD
ATOM     49  C   UNL A   1      40.038  30.018  30.086  1.00  0.00     0.034 A 
ATOM     50  C   UNL A   1      45.583  27.779  26.372  1.00  0.00     0.034 A 
ATOM     51  C   UNL A   1      41.141  30.947  30.000  1.00  0.00     0.049 A 
ATOM     52  C   UNL A   1      45.547  29.146  26.999  1.00  0.00     0.074 A 
ATOM     53  C   UNL A   1      41.255  32.209  30.558  1.00  0.00     0.029 A 
ATOM     54  N   UNL A   1      42.321  30.718  29.302  1.00  0.00    -0.354 N 
ATOM     55  N   UNL A   1      44.596  29.698  27.717  1.00  0.00    -0.248 NA
ATOM     56  C   UNL A   1      46.726  29.997  26.800  1.00  0.00     0.031 C 
ATOM     57  C   UNL A   1      42.475  32.763  30.151  1.00  0.00     0.029 A 
ATOM     58  C   UNL A   1      43.156  31.822  29.395  1.00  0.00     0.049 A 
ATOM     59  H   UNL A   1      42.535  29.891  28.812  1.00  0.00     0.167 HD
ATOM     60  C   UNL A   1      45.076  30.953  28.078  1.00  0.00     0.074 A 
ATOM     61  C   UNL A   1      46.405  31.068  27.511  1.00  0.00     0.031 C 
ATOM     62  C   UNL A   1      44.474  31.922  28.813  1.00  0.00     0.034 A 
BRANCH  49  63
ATOM     63  C   UNL A   1      38.777  30.439  30.805  1.00  0.00     0.023 A 
ATOM     64  C   UNL A   1      37.734  31.101  30.133  1.00  0.00     0.031 A 
ATOM     65  C   UNL A   1      38.630  30.214  32.185  1.00  0.00     0.131 A 
ATOM     66  C   UNL A   1      36.635  31.591  30.853  1.00  0.00     0.055 A 
ATOM     67  C   UNL A   1      37.493  30.630  32.882  1.00  0.00     0.041 A 
ATOM     68  F   UNL A   1      39.598  29.602  32.886  1.00  0.00    -0.206 F 
ATOM     69  C   UNL A   1      36.495  31.339  32.220  1.00  0.00     0.022 A 
BRANCH  66  70
ATOM     70  S   UNL A   1      35.468  32.693  30.008  1.00  0.00     0.124 S 
ATOM     71  O   UNL A   1      36.222  33.944  29.967  1.00  0.00    -0.237 OA
ATOM     72  O   UNL A   1      35.272  32.024  28.728  1.00  0.00    -0.237 OA
ATOM     73  O   UNL A   1      34.305  32.705  30.892  1.00  0.00    -0.744 OA
ENDBRANCH  66  70
ENDBRANCH  49  63
BRANCH  50  74
ATOM     74  C   UNL A   1      46.745  27.343  25.545  1.00  0.00     0.023 A 
ATOM     75  C   UNL A   1      46.924  27.825  24.239  1.00  0.00     0.031 A 
ATOM     76  C   UNL A   1      47.682  26.419  26.041  1.00  0.00     0.131 A 
ATOM     77  C   UNL A   1      47.990  27.352  23.458  1.00  0.00     0.055 A 
ATOM     78  C   UNL A   1      48.768  25.988  25.277  1.00  0.00     0.041 A 
ATOM     79  F   UNL A   1      47.564  25.934  27.287  1.00  0.00    -0.206 F 
ATOM     80  C   UNL A   1      48.920  26.446  23.972  1.00  0.00     0.022 A 
BRANCH  77  81
ATOM     81  S   UNL A   1      48.102  27.885  21.727  1.00  0.00     0.124 S 
ATOM     82  O   UNL A   1      48.305  26.616  21.037  1.00  0.00    -0.237 OA
ATOM     83  O   UNL A   1      46.807  28.527  21.525  1.00  0.00    -0.237 OA
ATOM     84  O   UNL A   1      49.251  28.789  21.723  1.00  0.00    -0.744 OA
ENDBRANCH  77  81
ENDBRANCH  50  74
BRANCH  62  85
ATOM     85  C   UNL A   1      45.277  33.172  29.074  1.00  0.00     0.023 A 
ATOM     86  C   UNL A   1      45.187  34.296  28.235  1.00  0.00     0.031 A 
ATOM     87  C   UNL A   1      46.159  33.227  30.168  1.00  0.00     0.131 A 
ATOM     88  C   UNL A   1      46.007  35.410  28.472  1.00  0.00     0.055 A 
ATOM     89  C   UNL A   1      46.931  34.359  30.430  1.00  0.00     0.041 A 
ATOM     90  F   UNL A   1      46.284  32.179  30.997  1.00  0.00    -0.206 F 
ATOM     91  C   UNL A   1      46.867  35.454  29.572  1.00  0.00     0.022 A 
BRANCH  88  92
ATOM     92  S   UNL A   1      45.995  36.770  27.272  1.00  0.00     0.124 S 
ATOM     93  O   UNL A   1      46.582  37.861  28.044  1.00  0.00    -0.237 OA
ATOM     94  O   UNL A   1      46.816  36.240  26.189  1.00  0.00    -0.237 OA
ATOM     95  O   UNL A   1      44.577  36.930  26.951  1.00  0.00    -0.744 OA
ENDBRANCH  88  92
ENDBRANCH  62  85
ENDBRANCH  36  37
ENDBRANCH  28  31
ENDBRANCH  26  27
ENDBRANCH   1  26
TORSDOF 16
ENDMDL
MODEL 3
REMARK VINA RESULT:     -12.9      1.509      1.737
REMARK SMILES Nc1ccc(-c2cc3ccccc3s2)c(C(=O)NCCCCNC(=O)c2ccc(-c3c4nc(c(-c5cc(S(=O)(=O)[O-])ccc5F)c5ccc([nH]5)c(-c5cc(S(=O)(=O)[O-])ccc5F)c5nc(c(-c6cc(S(=O)(=O)[O-])ccc6F)c6ccc3[nH]6)C=C5)C=C4)cc2)n1
REMARK SMILES IDX 21 1 20 2 19 3 18 4 16 5 17 6 15 8 2 9 3 10 89 11 4 12 5 13
REMARK SMILES IDX 1 14 6 17 7 18 14 19 8 20 13 21 9 22 12 23 10 24 11 25 22 26
REMARK SMILES IDX 23 27 24 28 25 30 26 31 27 32 88 33 28 34 87 35 29 36 30 37
REMARK SMILES IDX 31 38 81 39 32 40 86 41 80 42 82 43 33 44 85 45 79 46 78 47
REMARK SMILES IDX 34 49 66 50 46 51 65 52 47 53 50 54 64 55 83 56 48 57 49 58
REMARK SMILES IDX 63 60 84 61 51 62 35 63 36 64 44 65 37 66 43 67 45 68 42 69
REMARK SMILES IDX 38 70 39 71 40 72 41 73 67 74 68 75 76 76 69 77 75 78 77 79
REMARK SMILES IDX 74 80 70 81 71 82 72 83 73 84 52 85 53 86 61 87 54 88 60 89
REMARK SMILES IDX 62 90 59 91 55 92 56 93 57 94 58 95
REMARK H PARENT 18 7 1 15 1 16 23 29 82 48 50 59
REMARK Flexibility Score: inf
ROOT
ATOM      1  C   UNL A   1      35.753  21.491  25.372  1.00  0.00     0.023 C 
ENDROOT
BRANCH   1   2
ATOM      2  C   UNL A   1      35.208  22.584  26.293  1.00  0.00     0.023 C 
BRANCH   2   3
ATOM      3  C   UNL A   1      34.373  22.130  27.481  1.00  0.00     0.116 C 
BRANCH   3   4
ATOM      4  N   UNL A   1      33.061  22.728  27.592  1.00  0.00    -0.351 N 
ATOM      5  C   UNL A   1      31.975  22.631  26.742  1.00  0.00     0.270 C 
ATOM      6  O   UNL A   1      30.902  23.099  27.131  1.00  0.00    -0.267 OA
ATOM      7  H   UNL A   1      32.921  23.286  28.391  1.00  0.00     0.163 HD
BRANCH   5   8
ATOM      8  C   UNL A   1      32.049  22.045  25.357  1.00  0.00     0.139 A 
ATOM      9  C   UNL A   1      32.259  20.012  24.235  1.00  0.00     0.124 A 
ATOM     10  C   UNL A   1      32.306  20.652  23.013  1.00  0.00     0.047 A 
ATOM     11  N   UNL A   1      32.102  20.675  25.388  1.00  0.00    -0.225 NA
ATOM     12  C   UNL A   1      32.261  22.044  22.983  1.00  0.00     0.016 A 
ATOM     13  C   UNL A   1      32.156  22.783  24.171  1.00  0.00     0.023 A 
BRANCH   9  14
ATOM     14  N   UNL A   1      32.337  18.635  24.313  1.00  0.00    -0.384 N 
ATOM     15  H   UNL A   1      32.865  18.133  23.650  1.00  0.00     0.158 HD
ATOM     16  H   UNL A   1      31.865  18.154  25.031  1.00  0.00     0.158 HD
ENDBRANCH   9  14
BRANCH  13  17
ATOM     17  C   UNL A   1      32.193  24.246  24.099  1.00  0.00     0.038 A 
ATOM     18  C   UNL A   1      33.270  25.103  24.195  1.00  0.00     0.029 A 
ATOM     19  S   UNL A   1      30.729  25.120  23.903  1.00  0.00    -0.135 S 
ATOM     20  C   UNL A   1      32.881  26.484  24.295  1.00  0.00    -0.007 A 
ATOM     21  C   UNL A   1      31.497  26.630  24.191  1.00  0.00     0.035 A 
ATOM     22  C   UNL A   1      33.660  27.642  24.528  1.00  0.00     0.009 A 
ATOM     23  C   UNL A   1      30.871  27.881  24.332  1.00  0.00     0.019 A 
ATOM     24  C   UNL A   1      33.043  28.887  24.679  1.00  0.00     0.001 A 
ATOM     25  C   UNL A   1      31.662  29.001  24.586  1.00  0.00     0.001 A 
ENDBRANCH  13  17
ENDBRANCH   5   8
ENDBRANCH   3   4
ENDBRANCH   2   3
ENDBRANCH   1   2
BRANCH   1  26
ATOM     26  C   UNL A   1      37.122  21.711  24.725  1.00  0.00     0.116 C 
BRANCH  26  27
ATOM     27  N   UNL A   1      38.154  20.769  25.131  1.00  0.00    -0.352 N 
ATOM     28  C   UNL A   1      39.249  20.932  25.954  1.00  0.00     0.251 C 
ATOM     29  H   UNL A   1      38.054  19.864  24.754  1.00  0.00     0.163 HD
ATOM     30  O   UNL A   1      40.025  19.994  26.112  1.00  0.00    -0.269 OA
BRANCH  28  31
ATOM     31  C   UNL A   1      39.547  22.239  26.593  1.00  0.00     0.039 A 
ATOM     32  C   UNL A   1      40.580  22.288  27.536  1.00  0.00     0.014 A 
ATOM     33  C   UNL A   1      38.872  23.412  26.251  1.00  0.00     0.014 A 
ATOM     34  C   UNL A   1      41.035  23.520  28.009  1.00  0.00     0.010 A 
ATOM     35  C   UNL A   1      39.381  24.646  26.656  1.00  0.00     0.010 A 
ATOM     36  C   UNL A   1      40.499  24.713  27.500  1.00  0.00    -0.014 A 
BRANCH  36  37
ATOM     37  C   UNL A   1      41.174  26.016  27.744  1.00  0.00     0.031 A 
ATOM     38  C   UNL A   1      42.584  26.258  27.291  1.00  0.00     0.074 A 
ATOM     39  C   UNL A   1      40.523  26.953  28.465  1.00  0.00     0.049 A 
ATOM     40  N   UNL A   1      43.343  27.309  27.474  1.00  0.00    -0.248 NA
ATOM     41  C   UNL A   1      43.237  25.163  26.561  1.00  0.00     0.031 C 
ATOM     42  C   UNL A   1      39.173  26.802  29.021  1.00  0.00     0.029 A 
ATOM     43  N   UNL A   1      40.900  28.211  28.866  1.00  0.00    -0.354 N 
ATOM     44  C   UNL A   1      44.568  27.000  26.893  1.00  0.00     0.074 A 
ATOM     45  C   UNL A   1      44.463  25.641  26.402  1.00  0.00     0.031 C 
ATOM     46  C   UNL A   1      38.827  27.932  29.657  1.00  0.00     0.029 A 
ATOM     47  C   UNL A   1      39.940  28.870  29.600  1.00  0.00     0.049 A 
ATOM     48  H   UNL A   1      41.775  28.604  28.648  1.00  0.00     0.167 HD
ATOM     49  C   UNL A   1      45.668  27.786  26.765  1.00  0.00     0.034 A 
ATOM     50  C   UNL A   1      39.954  30.091  30.171  1.00  0.00     0.034 A 
ATOM     51  C   UNL A   1      45.750  29.138  27.266  1.00  0.00     0.049 A 
ATOM     52  C   UNL A   1      41.184  30.945  30.012  1.00  0.00     0.074 A 
ATOM     53  C   UNL A   1      46.795  30.040  27.156  1.00  0.00     0.029 A 
ATOM     54  N   UNL A   1      44.748  29.783  27.982  1.00  0.00    -0.354 N 
ATOM     55  N   UNL A   1      42.312  30.659  29.405  1.00  0.00    -0.248 NA
ATOM     56  C   UNL A   1      41.137  32.288  30.603  1.00  0.00     0.031 C 
ATOM     57  C   UNL A   1      46.448  31.204  27.852  1.00  0.00     0.029 A 
ATOM     58  C   UNL A   1      45.159  31.058  28.341  1.00  0.00     0.049 A 
ATOM     59  H   UNL A   1      43.872  29.391  28.205  1.00  0.00     0.167 HD
ATOM     60  C   UNL A   1      43.101  31.800  29.519  1.00  0.00     0.074 A 
ATOM     61  C   UNL A   1      42.312  32.779  30.239  1.00  0.00     0.031 C 
ATOM     62  C   UNL A   1      44.362  32.018  29.068  1.00  0.00     0.034 A 
BRANCH  49  63
ATOM     63  C   UNL A   1      46.872  27.181  26.081  1.00  0.00     0.023 A 
ATOM     64  C   UNL A   1      47.849  26.472  26.802  1.00  0.00     0.031 A 
ATOM     65  C   UNL A   1      47.070  27.347  24.699  1.00  0.00     0.131 A 
ATOM     66  C   UNL A   1      49.016  26.034  26.160  1.00  0.00     0.055 A 
ATOM     67  C   UNL A   1      48.195  26.835  24.049  1.00  0.00     0.041 A 
ATOM     68  F   UNL A   1      46.182  28.029  23.957  1.00  0.00    -0.206 F 
ATOM     69  C   UNL A   1      49.185  26.189  24.782  1.00  0.00     0.022 A 
BRANCH  66  70
ATOM     70  S   UNL A   1      50.376  25.397  27.177  1.00  0.00     0.124 S 
ATOM     71  O   UNL A   1      51.331  24.968  26.157  1.00  0.00    -0.237 OA
ATOM     72  O   UNL A   1      50.760  26.564  27.960  1.00  0.00    -0.237 OA
ATOM     73  O   UNL A   1      49.758  24.311  27.936  1.00  0.00    -0.744 OA
ENDBRANCH  66  70
ENDBRANCH  49  63
BRANCH  50  74
ATOM     74  C   UNL A   1      38.774  30.578  30.941  1.00  0.00     0.023 A 
ATOM     75  C   UNL A   1      37.698  31.204  30.294  1.00  0.00     0.031 A 
ATOM     76  C   UNL A   1      38.717  30.447  32.339  1.00  0.00     0.131 A 
ATOM     77  C   UNL A   1      36.627  31.711  31.047  1.00  0.00     0.055 A 
ATOM     78  C   UNL A   1      37.627  30.910  33.080  1.00  0.00     0.041 A 
ATOM     79  F   UNL A   1      39.715  29.847  33.008  1.00  0.00    -0.206 F 
ATOM     80  C   UNL A   1      36.579  31.558  32.434  1.00  0.00     0.022 A 
BRANCH  77  81
ATOM     81  S   UNL A   1      35.327  32.643  30.191  1.00  0.00     0.124 S 
ATOM     82  O   UNL A   1      34.407  32.943  31.281  1.00  0.00    -0.237 OA
ATOM     83  O   UNL A   1      36.074  33.775  29.650  1.00  0.00    -0.237 OA
ATOM     84  O   UNL A   1      34.829  31.696  29.195  1.00  0.00    -0.744 OA
ENDBRANCH  77  81
ENDBRANCH  50  74
BRANCH  62  85
ATOM     85  C   UNL A   1      44.940  33.389  29.311  1.00  0.00     0.023 A 
ATOM     86  C   UNL A   1      44.751  34.443  28.401  1.00  0.00     0.031 A 
ATOM     87  C   UNL A   1      45.708  33.636  30.463  1.00  0.00     0.131 A 
ATOM     88  C   UNL A   1      45.368  35.682  28.630  1.00  0.00     0.055 A 
ATOM     89  C   UNL A   1      46.273  34.887  30.713  1.00  0.00     0.041 A 
ATOM     90  F   UNL A   1      45.921  32.663  31.363  1.00  0.00    -0.206 F 
ATOM     91  C   UNL A   1      46.115  35.915  29.788  1.00  0.00     0.022 A 
BRANCH  88  92
ATOM     92  S   UNL A   1      45.249  36.963  27.351  1.00  0.00     0.124 S 
ATOM     93  O   UNL A   1      46.219  36.497  26.364  1.00  0.00    -0.237 OA
ATOM     94  O   UNL A   1      43.847  36.882  26.956  1.00  0.00    -0.237 OA
ATOM     95  O   UNL A   1      45.624  38.187  28.058  1.00  0.00    -0.744 OA
ENDBRANCH  88  92
ENDBRANCH  62  85
ENDBRANCH  36  37
ENDBRANCH  28  31
ENDBRANCH  26  27
ENDBRANCH   1  26
TORSDOF 16
ENDMDL
