MODEL 1
REMARK VINA RESULT:     -12.1      0.000      0.000
REMARK SMILES O=C1C[C@@H](C(=O)NCCCCNC(=O)c2ccc(-c3c4nc(c(-c5cc(S(=O)(=O)[O-])ccc5F)c5ccc([nH]5)c(-c5cc(S(=O)(=O)[O-])ccc5F)c5nc(c(-c6cc(S(=O)(=O)[O-])ccc6F)c6ccc3[nH]6)C=C5)C=C4)cc2)C2(CC[NH+](Cc3c[nH]nc3-c3ccc(Cl)cc3)CC2)N1
REMARK SMILES IDX 9 1 8 2 7 3 5 4 6 5 4 7 1 8 2 9 3 10 97 11 78 12 79 14 96 15
REMARK SMILES IDX 80 16 95 17 81 18 82 20 83 21 84 22 87 23 85 24 86 25 88 27
REMARK SMILES IDX 89 28 94 29 90 30 93 31 91 32 92 33 10 34 11 35 12 36 13 37
REMARK SMILES IDX 14 39 15 40 16 41 77 42 17 43 76 44 18 45 19 46 20 47 70 48
REMARK SMILES IDX 21 49 75 50 69 51 71 52 22 53 74 54 68 55 67 56 23 58 55 59
REMARK SMILES IDX 35 60 54 61 36 62 39 63 53 64 72 65 37 66 38 67 52 69 73 70
REMARK SMILES IDX 40 71 24 72 25 73 33 74 26 75 32 76 34 77 31 78 27 79 28 80
REMARK SMILES IDX 29 81 30 82 56 83 57 84 65 85 58 86 64 87 66 88 63 89 59 90
REMARK SMILES IDX 60 91 61 92 62 93 41 94 42 95 50 96 43 97 49 98 51 99 48 100
REMARK SMILES IDX 44 101 45 102 46 103 47 104
REMARK H PARENT 7 6 97 13 81 19 85 26 12 38 71 57 39 68
REMARK Flexibility Score: inf
ROOT
ATOM      1  C   UNL A   1      39.483  22.946  26.602  1.00  0.00     0.023 C 
ENDROOT
BRANCH   1   2
ATOM      2  C   UNL A   1      38.244  23.707  26.124  1.00  0.00     0.116 C 
BRANCH   2   3
ATOM      3  N   UNL A   1      37.766  23.308  24.810  1.00  0.00    -0.356 N 
ATOM      4  C   UNL A   1      36.599  22.771  24.365  1.00  0.00     0.226 C 
ATOM      5  O   UNL A   1      36.512  22.572  23.148  1.00  0.00    -0.275 OA
ATOM      6  H   UNL A   1      38.424  23.458  24.093  1.00  0.00     0.163 HD
BRANCH   4   7
ATOM      7  C   UNL A   1      35.421  22.362  25.257  1.00  0.00     0.114 C 
ATOM      8  O   UNL A   1      33.580  19.458  24.274  1.00  0.00    -0.275 OA
ATOM      9  C   UNL A   1      34.013  20.555  24.571  1.00  0.00     0.221 C 
ATOM     10  C   UNL A   1      35.260  20.841  25.366  1.00  0.00     0.116 C 
ATOM     11  N   UNL A   1      33.449  21.756  24.202  1.00  0.00    -0.349 N 
ATOM     12  C   UNL A   1      34.022  22.905  24.890  1.00  0.00     0.063 C 
ATOM     13  H   UNL A   1      32.726  21.831  23.537  1.00  0.00     0.164 HD
ATOM     14  C   UNL A   1      34.057  24.144  23.982  1.00  0.00     0.091 C 
ATOM     15  C   UNL A   1      33.133  23.111  26.153  1.00  0.00     0.091 C 
ATOM     16  C   UNL A   1      34.022  25.469  24.718  1.00  0.00     0.264 C 
ATOM     17  C   UNL A   1      32.953  24.547  26.643  1.00  0.00     0.264 C 
ATOM     18  N   UNL A   1      32.887  25.565  25.610  1.00  0.00    -0.331 N 
ATOM     19  H   UNL A   1      32.970  26.440  26.127  1.00  0.00     0.348 HD
BRANCH  18  20
ATOM     20  C   UNL A   1      31.591  25.909  25.005  1.00  0.00     0.303 C 
BRANCH  20  21
ATOM     21  C   UNL A   1      31.613  26.948  23.925  1.00  0.00     0.052 A 
ATOM     22  C   UNL A   1      31.061  26.838  22.661  1.00  0.00     0.115 A 
ATOM     23  C   UNL A   1      32.065  28.318  23.973  1.00  0.00     0.101 A 
ATOM     24  N   UNL A   1      31.343  27.991  22.002  1.00  0.00    -0.285 N 
ATOM     25  N   UNL A   1      31.936  28.905  22.770  1.00  0.00    -0.175 NA
ATOM     26  H   UNL A   1      31.130  28.138  21.053  1.00  0.00     0.189 HD
BRANCH  23  27
ATOM     27  C   UNL A   1      32.557  29.118  25.097  1.00  0.00     0.003 A 
ATOM     28  C   UNL A   1      33.855  28.879  25.574  1.00  0.00     0.012 A 
ATOM     29  C   UNL A   1      31.776  30.082  25.743  1.00  0.00     0.012 A 
ATOM     30  C   UNL A   1      34.376  29.615  26.641  1.00  0.00     0.021 A 
ATOM     31  C   UNL A   1      32.296  30.828  26.807  1.00  0.00     0.021 A 
ATOM     32  C   UNL A   1      33.596  30.596  27.246  1.00  0.00     0.041 A 
ATOM     33  Cl  UNL A   1      34.242  31.522  28.542  1.00  0.00    -0.084 Cl
ENDBRANCH  23  27
ENDBRANCH  20  21
ENDBRANCH  18  20
ENDBRANCH   4   7
ENDBRANCH   2   3
ENDBRANCH   1   2
BRANCH   1  34
ATOM     34  C   UNL A   1      39.551  21.496  26.139  1.00  0.00     0.023 C 
BRANCH  34  35
ATOM     35  C   UNL A   1      40.366  20.596  27.055  1.00  0.00     0.116 C 
BRANCH  35  36
ATOM     36  N   UNL A   1      41.244  19.692  26.321  1.00  0.00    -0.352 N 
ATOM     37  C   UNL A   1      42.455  19.971  25.732  1.00  0.00     0.251 C 
ATOM     38  H   UNL A   1      40.931  18.763  26.237  1.00  0.00     0.163 HD
ATOM     39  O   UNL A   1      43.009  19.146  25.017  1.00  0.00    -0.269 OA
BRANCH  37  40
ATOM     40  C   UNL A   1      43.040  21.306  25.955  1.00  0.00     0.039 A 
ATOM     41  C   UNL A   1      43.033  22.231  24.912  1.00  0.00     0.014 A 
ATOM     42  C   UNL A   1      43.477  21.665  27.233  1.00  0.00     0.014 A 
ATOM     43  C   UNL A   1      43.389  23.553  25.177  1.00  0.00     0.010 A 
ATOM     44  C   UNL A   1      43.736  22.998  27.513  1.00  0.00     0.010 A 
ATOM     45  C   UNL A   1      43.689  23.956  26.489  1.00  0.00    -0.014 A 
BRANCH  45  46
ATOM     46  C   UNL A   1      43.953  25.380  26.819  1.00  0.00     0.031 A 
ATOM     47  C   UNL A   1      45.347  25.927  26.690  1.00  0.00     0.074 A 
ATOM     48  C   UNL A   1      42.956  26.149  27.304  1.00  0.00     0.049 A 
ATOM     49  N   UNL A   1      45.805  27.107  27.019  1.00  0.00    -0.248 NA
ATOM     50  C   UNL A   1      46.367  25.015  26.151  1.00  0.00     0.031 C 
ATOM     51  C   UNL A   1      41.573  25.711  27.512  1.00  0.00     0.029 A 
ATOM     52  N   UNL A   1      42.951  27.456  27.721  1.00  0.00    -0.354 N 
ATOM     53  C   UNL A   1      47.166  27.074  26.741  1.00  0.00     0.074 A 
ATOM     54  C   UNL A   1      47.470  25.737  26.277  1.00  0.00     0.031 C 
ATOM     55  C   UNL A   1      40.852  26.736  27.991  1.00  0.00     0.029 A 
ATOM     56  C   UNL A   1      41.728  27.888  28.182  1.00  0.00     0.049 A 
ATOM     57  H   UNL A   1      43.749  28.033  27.693  1.00  0.00     0.167 HD
ATOM     58  C   UNL A   1      48.074  28.074  26.844  1.00  0.00     0.034 A 
ATOM     59  C   UNL A   1      41.360  29.068  28.719  1.00  0.00     0.034 A 
ATOM     60  C   UNL A   1      47.747  29.403  27.296  1.00  0.00     0.049 A 
ATOM     61  C   UNL A   1      42.398  30.155  28.853  1.00  0.00     0.074 A 
ATOM     62  C   UNL A   1      48.573  30.510  27.377  1.00  0.00     0.029 A 
ATOM     63  N   UNL A   1      46.499  29.805  27.757  1.00  0.00    -0.354 N 
ATOM     64  N   UNL A   1      43.670  30.128  28.525  1.00  0.00    -0.248 NA
ATOM     65  C   UNL A   1      41.951  31.434  29.420  1.00  0.00     0.031 C 
ATOM     66  C   UNL A   1      47.850  31.553  27.964  1.00  0.00     0.029 A 
ATOM     67  C   UNL A   1      46.545  31.128  28.164  1.00  0.00     0.049 A 
ATOM     68  H   UNL A   1      45.699  29.231  27.789  1.00  0.00     0.167 HD
ATOM     69  C   UNL A   1      44.165  31.396  28.820  1.00  0.00     0.074 A 
ATOM     70  C   UNL A   1      43.050  32.167  29.329  1.00  0.00     0.031 C 
ATOM     71  C   UNL A   1      45.426  31.880  28.682  1.00  0.00     0.034 A 
BRANCH  58  72
ATOM     72  C   UNL A   1      49.507  27.759  26.490  1.00  0.00     0.023 A 
ATOM     73  C   UNL A   1      49.995  27.889  25.178  1.00  0.00     0.031 A 
ATOM     74  C   UNL A   1      50.399  27.313  27.482  1.00  0.00     0.131 A 
ATOM     75  C   UNL A   1      51.314  27.516  24.880  1.00  0.00     0.055 A 
ATOM     76  C   UNL A   1      51.734  27.022  27.196  1.00  0.00     0.041 A 
ATOM     77  F   UNL A   1      49.985  27.143  28.747  1.00  0.00    -0.206 F 
ATOM     78  C   UNL A   1      52.196  27.111  25.886  1.00  0.00     0.022 A 
BRANCH  75  79
ATOM     79  S   UNL A   1      51.822  27.436  23.141  1.00  0.00     0.124 S 
ATOM     80  O   UNL A   1      50.572  27.058  22.487  1.00  0.00    -0.237 OA
ATOM     81  O   UNL A   1      52.293  28.792  22.888  1.00  0.00    -0.237 OA
ATOM     82  O   UNL A   1      52.857  26.403  23.134  1.00  0.00    -0.744 OA
ENDBRANCH  75  79
ENDBRANCH  58  72
BRANCH  59  83
ATOM     83  C   UNL A   1      39.963  29.286  29.200  1.00  0.00     0.023 A 
ATOM     84  C   UNL A   1      39.647  29.224  30.567  1.00  0.00     0.031 A 
ATOM     85  C   UNL A   1      38.909  29.499  28.292  1.00  0.00     0.131 A 
ATOM     86  C   UNL A   1      38.309  29.312  30.982  1.00  0.00     0.055 A 
ATOM     87  C   UNL A   1      37.587  29.652  28.716  1.00  0.00     0.041 A 
ATOM     88  F   UNL A   1      39.151  29.566  26.974  1.00  0.00    -0.206 F 
ATOM     89  C   UNL A   1      37.279  29.541  30.067  1.00  0.00     0.022 A 
BRANCH  86  90
ATOM     90  S   UNL A   1      37.920  29.005  32.728  1.00  0.00     0.124 S 
ATOM     91  O   UNL A   1      39.079  29.588  33.395  1.00  0.00    -0.237 OA
ATOM     92  O   UNL A   1      36.659  29.721  32.887  1.00  0.00    -0.237 OA
ATOM     93  O   UNL A   1      37.823  27.549  32.803  1.00  0.00    -0.744 OA
ENDBRANCH  86  90
ENDBRANCH  59  83
BRANCH  71  94
ATOM     94  C   UNL A   1      45.650  33.328  29.048  1.00  0.00     0.023 A 
ATOM     95  C   UNL A   1      45.572  34.355  28.091  1.00  0.00     0.031 A 
ATOM     96  C   UNL A   1      45.954  33.684  30.374  1.00  0.00     0.131 A 
ATOM     97  C   UNL A   1      45.855  35.678  28.461  1.00  0.00     0.055 A 
ATOM     98  C   UNL A   1      46.162  35.010  30.751  1.00  0.00     0.041 A 
ATOM     99  F   UNL A   1      46.047  32.745  31.330  1.00  0.00    -0.206 F 
ATOM    100  C   UNL A   1      46.128  36.016  29.789  1.00  0.00     0.022 A 
BRANCH  97 101
ATOM    101  S   UNL A   1      45.962  36.940  27.163  1.00  0.00     0.124 S 
ATOM    102  O   UNL A   1      44.634  37.543  27.217  1.00  0.00    -0.237 OA
ATOM    103  O   UNL A   1      47.062  37.777  27.631  1.00  0.00    -0.237 OA
ATOM    104  O   UNL A   1      46.243  36.166  25.954  1.00  0.00    -0.744 OA
ENDBRANCH  97 101
ENDBRANCH  71  94
ENDBRANCH  45  46
ENDBRANCH  37  40
ENDBRANCH  35  36
ENDBRANCH  34  35
ENDBRANCH   1  34
TORSDOF 17
ENDMDL
MODEL 2
REMARK VINA RESULT:     -11.7      5.855     10.786
REMARK SMILES O=C1C[C@@H](C(=O)NCCCCNC(=O)c2ccc(-c3c4nc(c(-c5cc(S(=O)(=O)[O-])ccc5F)c5ccc([nH]5)c(-c5cc(S(=O)(=O)[O-])ccc5F)c5nc(c(-c6cc(S(=O)(=O)[O-])ccc6F)c6ccc3[nH]6)C=C5)C=C4)cc2)C2(CC[NH+](Cc3c[nH]nc3-c3ccc(Cl)cc3)CC2)N1
REMARK SMILES IDX 9 1 8 2 7 3 5 4 6 5 4 7 1 8 2 9 3 10 97 11 78 12 79 14 96 15
REMARK SMILES IDX 80 16 95 17 81 18 82 20 83 21 84 22 87 23 85 24 86 25 88 27
REMARK SMILES IDX 89 28 94 29 90 30 93 31 91 32 92 33 10 34 11 35 12 36 13 37
REMARK SMILES IDX 14 39 15 40 16 41 77 42 17 43 76 44 18 45 19 46 20 47 70 48
REMARK SMILES IDX 21 49 75 50 69 51 71 52 22 53 74 54 68 55 67 56 23 58 55 59
REMARK SMILES IDX 35 60 54 61 36 62 39 63 53 64 72 65 37 66 38 67 52 69 73 70
REMARK SMILES IDX 40 71 24 72 25 73 33 74 26 75 32 76 34 77 31 78 27 79 28 80
REMARK SMILES IDX 29 81 30 82 56 83 57 84 65 85 58 86 64 87 66 88 63 89 59 90
REMARK SMILES IDX 60 91 61 92 62 93 41 94 42 95 50 96 43 97 49 98 51 99 48 100
REMARK SMILES IDX 44 101 45 102 46 103 47 104
REMARK H PARENT 7 6 97 13 81 19 85 26 12 38 71 57 39 68
REMARK Flexibility Score: inf
ROOT
ATOM      1  C   UNL A   1      34.849  30.091  27.654  1.00  0.00     0.023 C 
ENDROOT
BRANCH   1   2
ATOM      2  C   UNL A   1      34.310  28.833  26.969  1.00  0.00     0.116 C 
BRANCH   2   3
ATOM      3  N   UNL A   1      33.011  28.396  27.454  1.00  0.00    -0.356 N 
ATOM      4  C   UNL A   1      31.952  27.783  26.862  1.00  0.00     0.226 C 
ATOM      5  O   UNL A   1      30.986  27.525  27.589  1.00  0.00    -0.275 OA
ATOM      6  H   UNL A   1      32.867  28.584  28.410  1.00  0.00     0.163 HD
BRANCH   4   7
ATOM      7  C   UNL A   1      31.857  27.433  25.372  1.00  0.00     0.114 C 
ATOM      8  O   UNL A   1      28.659  26.394  24.155  1.00  0.00    -0.275 OA
ATOM      9  C   UNL A   1      29.812  26.540  24.513  1.00  0.00     0.221 C 
ATOM     10  C   UNL A   1      30.518  27.848  24.749  1.00  0.00     0.116 C 
ATOM     11  N   UNL A   1      30.687  25.515  24.802  1.00  0.00    -0.349 N 
ATOM     12  C   UNL A   1      32.065  25.957  24.968  1.00  0.00     0.063 C 
ATOM     13  H   UNL A   1      30.409  24.575  24.887  1.00  0.00     0.164 HD
ATOM     14  C   UNL A   1      32.799  25.122  26.028  1.00  0.00     0.091 C 
ATOM     15  C   UNL A   1      32.708  25.831  23.553  1.00  0.00     0.091 C 
ATOM     16  C   UNL A   1      34.304  25.048  25.845  1.00  0.00     0.264 C 
ATOM     17  C   UNL A   1      34.194  25.479  23.500  1.00  0.00     0.264 C 
ATOM     18  N   UNL A   1      34.667  24.570  24.528  1.00  0.00    -0.331 N 
ATOM     19  H   UNL A   1      35.682  24.621  24.448  1.00  0.00     0.348 HD
BRANCH  18  20
ATOM     20  C   UNL A   1      34.604  23.118  24.304  1.00  0.00     0.303 C 
BRANCH  20  21
ATOM     21  C   UNL A   1      35.873  22.352  24.534  1.00  0.00     0.052 A 
ATOM     22  C   UNL A   1      37.134  22.883  24.732  1.00  0.00     0.115 A 
ATOM     23  C   UNL A   1      36.069  20.937  24.743  1.00  0.00     0.101 A 
ATOM     24  N   UNL A   1      37.990  21.837  24.862  1.00  0.00    -0.285 N 
ATOM     25  N   UNL A   1      37.376  20.654  24.885  1.00  0.00    -0.175 NA
ATOM     26  H   UNL A   1      38.966  21.941  24.934  1.00  0.00     0.189 HD
BRANCH  23  27
ATOM     27  C   UNL A   1      35.096  19.850  24.872  1.00  0.00     0.003 A 
ATOM     28  C   UNL A   1      35.502  18.544  24.553  1.00  0.00     0.012 A 
ATOM     29  C   UNL A   1      33.769  20.060  25.259  1.00  0.00     0.012 A 
ATOM     30  C   UNL A   1      34.615  17.469  24.661  1.00  0.00     0.021 A 
ATOM     31  C   UNL A   1      32.879  18.986  25.377  1.00  0.00     0.021 A 
ATOM     32  C   UNL A   1      33.309  17.694  25.084  1.00  0.00     0.041 A 
ATOM     33  Cl  UNL A   1      32.223  16.372  25.243  1.00  0.00    -0.084 Cl
ENDBRANCH  23  27
ENDBRANCH  20  21
ENDBRANCH  18  20
ENDBRANCH   4   7
ENDBRANCH   2   3
ENDBRANCH   1   2
BRANCH   1  34
ATOM     34  C   UNL A   1      33.874  31.263  27.680  1.00  0.00     0.023 C 
BRANCH  34  35
ATOM     35  C   UNL A   1      34.550  32.625  27.697  1.00  0.00     0.116 C 
BRANCH  35  36
ATOM     36  N   UNL A   1      33.863  33.584  28.553  1.00  0.00    -0.352 N 
ATOM     37  C   UNL A   1      34.122  33.892  29.868  1.00  0.00     0.251 C 
ATOM     38  H   UNL A   1      33.119  34.075  28.136  1.00  0.00     0.163 HD
ATOM     39  O   UNL A   1      33.361  34.611  30.505  1.00  0.00    -0.269 OA
BRANCH  37  40
ATOM     40  C   UNL A   1      35.316  33.298  30.494  1.00  0.00     0.039 A 
ATOM     41  C   UNL A   1      35.171  32.158  31.284  1.00  0.00     0.014 A 
ATOM     42  C   UNL A   1      36.582  33.807  30.191  1.00  0.00     0.014 A 
ATOM     43  C   UNL A   1      36.311  31.473  31.702  1.00  0.00     0.010 A 
ATOM     44  C   UNL A   1      37.708  33.071  30.526  1.00  0.00     0.010 A 
ATOM     45  C   UNL A   1      37.584  31.894  31.280  1.00  0.00    -0.014 A 
BRANCH  45  46
ATOM     46  C   UNL A   1      38.805  31.114  31.611  1.00  0.00     0.031 A 
ATOM     47  C   UNL A   1      39.607  31.470  32.831  1.00  0.00     0.074 A 
ATOM     48  C   UNL A   1      39.224  30.144  30.772  1.00  0.00     0.049 A 
ATOM     49  N   UNL A   1      40.749  30.982  33.240  1.00  0.00    -0.248 NA
ATOM     50  C   UNL A   1      39.069  32.540  33.685  1.00  0.00     0.031 C 
ATOM     51  C   UNL A   1      38.549  29.742  29.535  1.00  0.00     0.029 A 
ATOM     52  N   UNL A   1      40.326  29.327  30.823  1.00  0.00    -0.354 N 
ATOM     53  C   UNL A   1      41.073  31.695  34.388  1.00  0.00     0.074 A 
ATOM     54  C   UNL A   1      40.039  32.689  34.574  1.00  0.00     0.031 C 
ATOM     55  C   UNL A   1      39.234  28.741  28.962  1.00  0.00     0.029 A 
ATOM     56  C   UNL A   1      40.429  28.466  29.754  1.00  0.00     0.049 A 
ATOM     57  H   UNL A   1      40.981  29.353  31.558  1.00  0.00     0.167 HD
ATOM     58  C   UNL A   1      42.126  31.518  35.223  1.00  0.00     0.034 A 
ATOM     59  C   UNL A   1      41.388  27.574  29.436  1.00  0.00     0.034 A 
ATOM     60  C   UNL A   1      43.138  30.511  35.026  1.00  0.00     0.049 A 
ATOM     61  C   UNL A   1      42.568  27.421  30.365  1.00  0.00     0.074 A 
ATOM     62  C   UNL A   1      44.211  30.201  35.842  1.00  0.00     0.029 A 
ATOM     63  N   UNL A   1      43.213  29.658  33.930  1.00  0.00    -0.354 N 
ATOM     64  N   UNL A   1      42.827  28.059  31.483  1.00  0.00    -0.248 NA
ATOM     65  C   UNL A   1      43.578  26.422  29.994  1.00  0.00     0.031 C 
ATOM     66  C   UNL A   1      44.979  29.224  35.201  1.00  0.00     0.029 A 
ATOM     67  C   UNL A   1      44.337  28.854  34.030  1.00  0.00     0.049 A 
ATOM     68  H   UNL A   1      42.561  29.630  33.193  1.00  0.00     0.167 HD
ATOM     69  C   UNL A   1      44.017  27.516  31.963  1.00  0.00     0.074 A 
ATOM     70  C   UNL A   1      44.408  26.485  31.024  1.00  0.00     0.031 C 
ATOM     71  C   UNL A   1      44.721  27.838  33.078  1.00  0.00     0.034 A 
BRANCH  58  72
ATOM     72  C   UNL A   1      42.250  32.452  36.402  1.00  0.00     0.023 A 
ATOM     73  C   UNL A   1      41.662  32.162  37.645  1.00  0.00     0.031 A 
ATOM     74  C   UNL A   1      42.962  33.658  36.277  1.00  0.00     0.131 A 
ATOM     75  C   UNL A   1      41.740  33.092  38.692  1.00  0.00     0.055 A 
ATOM     76  C   UNL A   1      43.108  34.542  37.348  1.00  0.00     0.041 A 
ATOM     77  F   UNL A   1      43.523  34.004  35.108  1.00  0.00    -0.206 F 
ATOM     78  C   UNL A   1      42.484  34.267  38.561  1.00  0.00     0.022 A 
BRANCH  75  79
ATOM     79  S   UNL A   1      40.744  32.810  40.181  1.00  0.00     0.124 S 
ATOM     80  O   UNL A   1      41.519  31.775  40.862  1.00  0.00    -0.237 OA
ATOM     81  O   UNL A   1      40.738  34.124  40.811  1.00  0.00    -0.237 OA
ATOM     82  O   UNL A   1      39.455  32.365  39.651  1.00  0.00    -0.744 OA
ENDBRANCH  75  79
ENDBRANCH  58  72
BRANCH  59  83
ATOM     83  C   UNL A   1      41.303  26.778  28.175  1.00  0.00     0.023 A 
ATOM     84  C   UNL A   1      41.048  25.397  28.203  1.00  0.00     0.031 A 
ATOM     85  C   UNL A   1      41.534  27.377  26.923  1.00  0.00     0.131 A 
ATOM     86  C   UNL A   1      41.092  24.652  27.014  1.00  0.00     0.055 A 
ATOM     87  C   UNL A   1      41.510  26.642  25.736  1.00  0.00     0.041 A 
ATOM     88  F   UNL A   1      41.782  28.693  26.835  1.00  0.00    -0.206 F 
ATOM     89  C   UNL A   1      41.305  25.268  25.779  1.00  0.00     0.022 A 
BRANCH  86  90
ATOM     90  S   UNL A   1      40.981  22.844  27.119  1.00  0.00     0.124 S 
ATOM     91  O   UNL A   1      41.745  22.571  28.331  1.00  0.00    -0.237 OA
ATOM     92  O   UNL A   1      39.540  22.634  27.208  1.00  0.00    -0.237 OA
ATOM     93  O   UNL A   1      41.601  22.393  25.875  1.00  0.00    -0.744 OA
ENDBRANCH  86  90
ENDBRANCH  59  83
BRANCH  71  94
ATOM     94  C   UNL A   1      45.965  27.031  33.363  1.00  0.00     0.023 A 
ATOM     95  C   UNL A   1      45.914  25.813  34.062  1.00  0.00     0.031 A 
ATOM     96  C   UNL A   1      47.222  27.493  32.933  1.00  0.00     0.131 A 
ATOM     97  C   UNL A   1      47.102  25.130  34.364  1.00  0.00     0.055 A 
ATOM     98  C   UNL A   1      48.393  26.773  33.172  1.00  0.00     0.041 A 
ATOM     99  F   UNL A   1      47.332  28.653  32.264  1.00  0.00    -0.206 F 
ATOM    100  C   UNL A   1      48.338  25.591  33.904  1.00  0.00     0.022 A 
BRANCH  97 101
ATOM    101  S   UNL A   1      47.021  23.683  35.454  1.00  0.00     0.124 S 
ATOM    102  O   UNL A   1      48.374  23.639  35.999  1.00  0.00    -0.237 OA
ATOM    103  O   UNL A   1      45.967  24.056  36.392  1.00  0.00    -0.237 OA
ATOM    104  O   UNL A   1      46.682  22.588  34.546  1.00  0.00    -0.744 OA
ENDBRANCH  97 101
ENDBRANCH  71  94
ENDBRANCH  45  46
ENDBRANCH  37  40
ENDBRANCH  35  36
ENDBRANCH  34  35
ENDBRANCH   1  34
TORSDOF 17
ENDMDL
MODEL 3
REMARK VINA RESULT:     -11.7      5.751     10.175
REMARK SMILES O=C1C[C@@H](C(=O)NCCCCNC(=O)c2ccc(-c3c4nc(c(-c5cc(S(=O)(=O)[O-])ccc5F)c5ccc([nH]5)c(-c5cc(S(=O)(=O)[O-])ccc5F)c5nc(c(-c6cc(S(=O)(=O)[O-])ccc6F)c6ccc3[nH]6)C=C5)C=C4)cc2)C2(CC[NH+](Cc3c[nH]nc3-c3ccc(Cl)cc3)CC2)N1
REMARK SMILES IDX 9 1 8 2 7 3 5 4 6 5 4 7 1 8 2 9 3 10 97 11 78 12 79 14 96 15
REMARK SMILES IDX 80 16 95 17 81 18 82 20 83 21 84 22 87 23 85 24 86 25 88 27
REMARK SMILES IDX 89 28 94 29 90 30 93 31 91 32 92 33 10 34 11 35 12 36 13 37
REMARK SMILES IDX 14 39 15 40 16 41 77 42 17 43 76 44 18 45 19 46 20 47 70 48
REMARK SMILES IDX 21 49 75 50 69 51 71 52 22 53 74 54 68 55 67 56 23 58 55 59
REMARK SMILES IDX 35 60 54 61 36 62 39 63 53 64 72 65 37 66 38 67 52 69 73 70
REMARK SMILES IDX 40 71 24 72 25 73 33 74 26 75 32 76 34 77 31 78 27 79 28 80
REMARK SMILES IDX 29 81 30 82 56 83 57 84 65 85 58 86 64 87 66 88 63 89 59 90
REMARK SMILES IDX 60 91 61 92 62 93 41 94 42 95 50 96 43 97 49 98 51 99 48 100
REMARK SMILES IDX 44 101 45 102 46 103 47 104
REMARK H PARENT 7 6 97 13 81 19 85 26 12 38 71 57 39 68
REMARK Flexibility Score: inf
ROOT
ATOM      1  C   UNL A   1      34.603  30.209  27.665  1.00  0.00     0.023 C 
ENDROOT
BRANCH   1   2
ATOM      2  C   UNL A   1      34.123  28.944  26.947  1.00  0.00     0.116 C 
BRANCH   2   3
ATOM      3  N   UNL A   1      32.850  28.431  27.425  1.00  0.00    -0.356 N 
ATOM      4  C   UNL A   1      31.821  27.779  26.820  1.00  0.00     0.226 C 
ATOM      5  O   UNL A   1      30.872  27.455  27.544  1.00  0.00    -0.275 OA
ATOM      6  H   UNL A   1      32.700  28.587  28.385  1.00  0.00     0.163 HD
BRANCH   4   7
ATOM      7  C   UNL A   1      31.737  27.463  25.322  1.00  0.00     0.114 C 
ATOM      8  O   UNL A   1      28.593  26.286  24.091  1.00  0.00    -0.275 OA
ATOM      9  C   UNL A   1      29.738  26.484  24.448  1.00  0.00     0.221 C 
ATOM     10  C   UNL A   1      30.375  27.822  24.715  1.00  0.00     0.116 C 
ATOM     11  N   UNL A   1      30.668  25.501  24.708  1.00  0.00    -0.349 N 
ATOM     12  C   UNL A   1      32.022  26.011  24.880  1.00  0.00     0.063 C 
ATOM     13  H   UNL A   1      30.440  24.545  24.770  1.00  0.00     0.164 HD
ATOM     14  C   UNL A   1      32.804  25.189  25.916  1.00  0.00     0.091 C 
ATOM     15  C   UNL A   1      32.663  25.955  23.461  1.00  0.00     0.091 C 
ATOM     16  C   UNL A   1      34.309  25.200  25.726  1.00  0.00     0.264 C 
ATOM     17  C   UNL A   1      34.166  25.684  23.393  1.00  0.00     0.264 C 
ATOM     18  N   UNL A   1      34.691  24.776  24.397  1.00  0.00    -0.331 N 
ATOM     19  H   UNL A   1      35.702  24.883  24.314  1.00  0.00     0.348 HD
BRANCH  18  20
ATOM     20  C   UNL A   1      34.704  23.328  24.136  1.00  0.00     0.303 C 
BRANCH  20  21
ATOM     21  C   UNL A   1      35.960  22.596  24.502  1.00  0.00     0.052 A 
ATOM     22  C   UNL A   1      37.191  23.158  24.788  1.00  0.00     0.115 A 
ATOM     23  C   UNL A   1      36.162  21.193  24.780  1.00  0.00     0.101 A 
ATOM     24  N   UNL A   1      38.050  22.134  25.031  1.00  0.00    -0.285 N 
ATOM     25  N   UNL A   1      37.456  20.941  25.044  1.00  0.00    -0.175 NA
ATOM     26  H   UNL A   1      39.014  22.260  25.182  1.00  0.00     0.189 HD
BRANCH  23  27
ATOM     27  C   UNL A   1      35.199  20.093  24.865  1.00  0.00     0.003 A 
ATOM     28  C   UNL A   1      33.908  20.366  25.343  1.00  0.00     0.012 A 
ATOM     29  C   UNL A   1      35.521  18.774  24.529  1.00  0.00     0.012 A 
ATOM     30  C   UNL A   1      32.949  19.354  25.442  1.00  0.00     0.021 A 
ATOM     31  C   UNL A   1      34.562  17.758  24.618  1.00  0.00     0.021 A 
ATOM     32  C   UNL A   1      33.278  18.055  25.067  1.00  0.00     0.041 A 
ATOM     33  Cl  UNL A   1      32.094  16.812  25.163  1.00  0.00    -0.084 Cl
ENDBRANCH  23  27
ENDBRANCH  20  21
ENDBRANCH  18  20
ENDBRANCH   4   7
ENDBRANCH   2   3
ENDBRANCH   1   2
BRANCH   1  34
ATOM     34  C   UNL A   1      33.561  31.318  27.752  1.00  0.00     0.023 C 
BRANCH  34  35
ATOM     35  C   UNL A   1      34.075  32.680  27.314  1.00  0.00     0.116 C 
BRANCH  35  36
ATOM     36  N   UNL A   1      33.303  33.782  27.875  1.00  0.00    -0.352 N 
ATOM     37  C   UNL A   1      33.456  34.394  29.097  1.00  0.00     0.251 C 
ATOM     38  H   UNL A   1      32.579  34.132  27.308  1.00  0.00     0.163 HD
ATOM     39  O   UNL A   1      32.633  35.208  29.498  1.00  0.00    -0.269 OA
BRANCH  37  40
ATOM     40  C   UNL A   1      34.615  34.010  29.922  1.00  0.00     0.039 A 
ATOM     41  C   UNL A   1      34.427  33.131  30.988  1.00  0.00     0.014 A 
ATOM     42  C   UNL A   1      35.896  34.429  29.553  1.00  0.00     0.014 A 
ATOM     43  C   UNL A   1      35.543  32.602  31.635  1.00  0.00     0.010 A 
ATOM     44  C   UNL A   1      37.002  33.827  30.134  1.00  0.00     0.010 A 
ATOM     45  C   UNL A   1      36.837  32.903  31.178  1.00  0.00    -0.014 A 
BRANCH  45  46
ATOM     46  C   UNL A   1      38.036  32.259  31.771  1.00  0.00     0.031 A 
ATOM     47  C   UNL A   1      38.716  31.137  31.037  1.00  0.00     0.074 A 
ATOM     48  C   UNL A   1      38.458  32.634  32.996  1.00  0.00     0.049 A 
ATOM     49  N   UNL A   1      39.711  30.381  31.424  1.00  0.00    -0.248 NA
ATOM     50  C   UNL A   1      38.186  30.800  29.707  1.00  0.00     0.031 C 
ATOM     51  C   UNL A   1      37.847  33.682  33.818  1.00  0.00     0.029 A 
ATOM     52  N   UNL A   1      39.492  32.171  33.771  1.00  0.00    -0.354 N 
ATOM     53  C   UNL A   1      39.915  29.471  30.393  1.00  0.00     0.074 A 
ATOM     54  C   UNL A   1      38.900  29.730  29.395  1.00  0.00     0.031 C 
ATOM     55  C   UNL A   1      38.532  33.798  34.967  1.00  0.00     0.029 A 
ATOM     56  C   UNL A   1      39.594  32.796  34.993  1.00  0.00     0.049 A 
ATOM     57  H   UNL A   1      40.105  31.457  33.479  1.00  0.00     0.167 HD
ATOM     58  C   UNL A   1      40.875  28.522  30.283  1.00  0.00     0.034 A 
ATOM     59  C   UNL A   1      40.431  32.573  36.025  1.00  0.00     0.034 A 
ATOM     60  C   UNL A   1      41.885  28.290  31.285  1.00  0.00     0.049 A 
ATOM     61  C   UNL A   1      41.470  31.487  35.890  1.00  0.00     0.074 A 
ATOM     62  C   UNL A   1      42.944  27.401  31.247  1.00  0.00     0.029 A 
ATOM     63  N   UNL A   1      41.957  28.940  32.511  1.00  0.00    -0.354 N 
ATOM     64  N   UNL A   1      41.691  30.676  34.880  1.00  0.00    -0.248 NA
ATOM     65  C   UNL A   1      42.378  31.292  37.027  1.00  0.00     0.031 C 
ATOM     66  C   UNL A   1      43.602  27.452  32.479  1.00  0.00     0.029 A 
ATOM     67  C   UNL A   1      43.014  28.440  33.253  1.00  0.00     0.049 A 
ATOM     68  H   UNL A   1      41.345  29.653  32.808  1.00  0.00     0.167 HD
ATOM     69  C   UNL A   1      42.782  29.895  35.252  1.00  0.00     0.074 A 
ATOM     70  C   UNL A   1      43.186  30.349  36.567  1.00  0.00     0.031 C 
ATOM     71  C   UNL A   1      43.397  28.895  34.570  1.00  0.00     0.034 A 
BRANCH  58  72
ATOM     72  C   UNL A   1      40.857  27.647  29.053  1.00  0.00     0.023 A 
ATOM     73  C   UNL A   1      41.800  27.798  28.020  1.00  0.00     0.031 A 
ATOM     74  C   UNL A   1      39.876  26.651  28.907  1.00  0.00     0.131 A 
ATOM     75  C   UNL A   1      41.701  27.012  26.862  1.00  0.00     0.055 A 
ATOM     76  C   UNL A   1      39.834  25.815  27.789  1.00  0.00     0.041 A 
ATOM     77  F   UNL A   1      38.934  26.476  29.847  1.00  0.00    -0.206 F 
ATOM     78  C   UNL A   1      40.743  26.002  26.752  1.00  0.00     0.022 A 
BRANCH  75  79
ATOM     79  S   UNL A   1      42.757  27.420  25.445  1.00  0.00     0.124 S 
ATOM     80  O   UNL A   1      41.995  28.492  24.809  1.00  0.00    -0.237 OA
ATOM     81  O   UNL A   1      44.006  27.815  26.085  1.00  0.00    -0.237 OA
ATOM     82  O   UNL A   1      42.810  26.171  24.687  1.00  0.00    -0.744 OA
ENDBRANCH  75  79
ENDBRANCH  58  72
BRANCH  59  83
ATOM     83  C   UNL A   1      40.312  33.361  37.289  1.00  0.00     0.023 A 
ATOM     84  C   UNL A   1      39.571  32.878  38.379  1.00  0.00     0.031 A 
ATOM     85  C   UNL A   1      40.890  34.638  37.402  1.00  0.00     0.131 A 
ATOM     86  C   UNL A   1      39.376  33.690  39.508  1.00  0.00     0.055 A 
ATOM     87  C   UNL A   1      40.748  35.414  38.555  1.00  0.00     0.041 A 
ATOM     88  F   UNL A   1      41.609  35.152  36.392  1.00  0.00    -0.206 F 
ATOM     89  C   UNL A   1      39.972  34.948  39.609  1.00  0.00     0.022 A 
BRANCH  86  90
ATOM     90  S   UNL A   1      38.231  33.122  40.797  1.00  0.00     0.124 S 
ATOM     91  O   UNL A   1      36.990  32.974  40.045  1.00  0.00    -0.237 OA
ATOM     92  O   UNL A   1      38.865  31.885  41.240  1.00  0.00    -0.237 OA
ATOM     93  O   UNL A   1      38.246  34.213  41.769  1.00  0.00    -0.744 OA
ENDBRANCH  86  90
ENDBRANCH  59  83
BRANCH  71  94
ATOM     94  C   UNL A   1      44.601  28.257  35.221  1.00  0.00     0.023 A 
ATOM     95  C   UNL A   1      44.485  27.117  36.034  1.00  0.00     0.031 A 
ATOM     96  C   UNL A   1      45.882  28.803  35.029  1.00  0.00     0.131 A 
ATOM     97  C   UNL A   1      45.620  26.596  36.674  1.00  0.00     0.055 A 
ATOM     98  C   UNL A   1      47.018  28.239  35.609  1.00  0.00     0.041 A 
ATOM     99  F   UNL A   1      46.053  29.896  34.266  1.00  0.00    -0.206 F 
ATOM    100  C   UNL A   1      46.889  27.136  36.449  1.00  0.00     0.022 A 
BRANCH  97 101
ATOM    101  S   UNL A   1      45.402  25.265  37.886  1.00  0.00     0.124 S 
ATOM    102  O   UNL A   1      46.739  24.682  37.939  1.00  0.00    -0.237 OA
ATOM    103  O   UNL A   1      44.976  25.993  39.077  1.00  0.00    -0.237 OA
ATOM    104  O   UNL A   1      44.379  24.414  37.281  1.00  0.00    -0.744 OA
ENDBRANCH  97 101
ENDBRANCH  71  94
ENDBRANCH  45  46
ENDBRANCH  37  40
ENDBRANCH  35  36
ENDBRANCH  34  35
ENDBRANCH   1  34
TORSDOF 17
ENDMDL
