MODEL 1
REMARK VINA RESULT:     -11.0      0.000      0.000
REMARK SMILES O=C(CSCc1ccc(C(=O)NCCCCNC(=O)c2ccc(-c3c4nc(c(-c5cc(S(=O)(=O)[O-])ccc5F)c5ccc([nH]5)c(-c5cc(S(=O)(=O)[O-])ccc5F)c5nc(c(-c6cc(S(=O)(=O)[O-])ccc6F)c6ccc3[nH]6)C=C5)C=C4)cc2)cc1)Nc1ccc(Cl)cc1
REMARK SMILES IDX 13 1 12 2 10 3 11 4 9 6 6 7 7 8 84 9 8 10 83 11 5 12 4 13
REMARK SMILES IDX 3 14 2 15 1 16 85 17 86 19 87 20 92 21 88 22 91 23 89 24
REMARK SMILES IDX 90 25 14 26 15 27 16 28 17 29 18 30 19 32 20 33 21 34 82 35
REMARK SMILES IDX 22 36 81 37 23 38 24 39 25 40 75 41 26 42 80 43 74 44 76 45
REMARK SMILES IDX 27 46 79 47 73 48 72 49 28 51 60 52 40 53 59 54 41 55 44 56
REMARK SMILES IDX 58 57 77 58 42 59 43 60 57 62 78 63 45 64 29 65 30 66 38 67
REMARK SMILES IDX 31 68 37 69 39 70 36 71 32 72 33 73 34 74 35 75 61 76 62 77
REMARK SMILES IDX 70 78 63 79 69 80 71 81 68 82 64 83 65 84 66 85 67 86 46 87
REMARK SMILES IDX 47 88 55 89 48 90 54 91 56 92 53 93 49 94 50 95 51 96 52 97
REMARK H PARENT 12 5 85 18 17 31 76 50 44 61
REMARK Flexibility Score: inf
ROOT
ATOM      1  C   UNL A   1      36.163  21.086  24.881  1.00  0.00     0.116 C 
ENDROOT
BRANCH   1   2
ATOM      2  N   UNL A   1      35.543  21.079  26.191  1.00  0.00    -0.352 N 
ATOM      3  C   UNL A   1      34.797  22.008  26.872  1.00  0.00     0.251 C 
ATOM      4  O   UNL A   1      34.401  21.698  27.997  1.00  0.00    -0.269 OA
ATOM      5  H   UNL A   1      35.686  20.244  26.692  1.00  0.00     0.163 HD
BRANCH   3   6
ATOM      6  C   UNL A   1      34.395  23.330  26.310  1.00  0.00     0.039 A 
ATOM      7  C   UNL A   1      33.374  25.772  25.268  1.00  0.00    -0.038 A 
ATOM      8  C   UNL A   1      32.709  25.099  26.296  1.00  0.00     0.005 A 
ATOM      9  C   UNL A   1      34.612  25.258  24.851  1.00  0.00     0.005 A 
ATOM     10  C   UNL A   1      33.197  23.882  26.786  1.00  0.00     0.014 A 
ATOM     11  C   UNL A   1      35.129  24.071  25.384  1.00  0.00     0.014 A 
BRANCH   7  12
ATOM     12  C   UNL A   1      32.892  27.042  24.607  1.00  0.00     0.105 C 
BRANCH  12  13
ATOM     13  S   UNL A   1      33.202  27.295  22.833  1.00  0.00    -0.147 SA
BRANCH  13  14
ATOM     14  C   UNL A   1      32.009  26.136  22.084  1.00  0.00     0.170 C 
BRANCH  14  15
ATOM     15  C   UNL A   1      32.455  24.686  22.070  1.00  0.00     0.234 C 
ATOM     16  O   UNL A   1      33.567  24.387  21.640  1.00  0.00    -0.274 OA
ATOM     17  N   UNL A   1      31.553  23.807  22.643  1.00  0.00    -0.325 N 
ATOM     18  H   UNL A   1      30.658  24.163  22.847  1.00  0.00     0.169 HD
BRANCH  17  19
ATOM     19  C   UNL A   1      31.786  22.457  22.965  1.00  0.00     0.041 A 
ATOM     20  C   UNL A   1      31.931  22.123  24.316  1.00  0.00     0.027 A 
ATOM     21  C   UNL A   1      31.907  21.449  22.002  1.00  0.00     0.027 A 
ATOM     22  C   UNL A   1      32.160  20.797  24.700  1.00  0.00     0.022 A 
ATOM     23  C   UNL A   1      32.154  20.126  22.382  1.00  0.00     0.022 A 
ATOM     24  C   UNL A   1      32.270  19.803  23.729  1.00  0.00     0.041 A 
ATOM     25  Cl  UNL A   1      32.558  18.174  24.199  1.00  0.00    -0.084 Cl
ENDBRANCH  17  19
ENDBRANCH  14  15
ENDBRANCH  13  14
ENDBRANCH  12  13
ENDBRANCH   7  12
ENDBRANCH   3   6
ENDBRANCH   1   2
BRANCH   1  26
ATOM     26  C   UNL A   1      37.668  21.337  25.004  1.00  0.00     0.023 C 
BRANCH  26  27
ATOM     27  C   UNL A   1      38.508  20.058  25.109  1.00  0.00     0.023 C 
BRANCH  27  28
ATOM     28  C   UNL A   1      39.392  19.966  26.351  1.00  0.00     0.116 C 
BRANCH  28  29
ATOM     29  N   UNL A   1      40.609  19.203  26.128  1.00  0.00    -0.352 N 
ATOM     30  C   UNL A   1      41.910  19.647  26.075  1.00  0.00     0.251 C 
ATOM     31  H   UNL A   1      40.484  18.235  25.997  1.00  0.00     0.163 HD
ATOM     32  O   UNL A   1      42.803  18.876  25.756  1.00  0.00    -0.269 OA
BRANCH  30  33
ATOM     33  C   UNL A   1      42.206  21.069  26.362  1.00  0.00     0.039 A 
ATOM     34  C   UNL A   1      42.458  21.444  27.684  1.00  0.00     0.014 A 
ATOM     35  C   UNL A   1      42.256  22.018  25.338  1.00  0.00     0.014 A 
ATOM     36  C   UNL A   1      42.832  22.758  27.968  1.00  0.00     0.010 A 
ATOM     37  C   UNL A   1      42.691  23.312  25.614  1.00  0.00     0.010 A 
ATOM     38  C   UNL A   1      42.990  23.693  26.931  1.00  0.00    -0.014 A 
BRANCH  38  39
ATOM     39  C   UNL A   1      43.491  25.063  27.211  1.00  0.00     0.031 A 
ATOM     40  C   UNL A   1      42.560  26.120  27.740  1.00  0.00     0.074 A 
ATOM     41  C   UNL A   1      44.775  25.366  26.934  1.00  0.00     0.049 A 
ATOM     42  N   UNL A   1      42.804  27.377  28.007  1.00  0.00    -0.248 NA
ATOM     43  C   UNL A   1      41.166  25.716  27.970  1.00  0.00     0.031 C 
ATOM     44  C   UNL A   1      45.757  24.436  26.370  1.00  0.00     0.029 A 
ATOM     45  N   UNL A   1      45.476  26.536  27.084  1.00  0.00    -0.354 N 
ATOM     46  C   UNL A   1      41.595  27.917  28.432  1.00  0.00     0.074 A 
ATOM     47  C   UNL A   1      40.607  26.863  28.324  1.00  0.00     0.031 C 
ATOM     48  C   UNL A   1      46.937  25.064  26.247  1.00  0.00     0.029 A 
ATOM     49  C   UNL A   1      46.789  26.449  26.684  1.00  0.00     0.049 A 
ATOM     50  H   UNL A   1      45.076  27.360  27.444  1.00  0.00     0.167 HD
ATOM     51  C   UNL A   1      41.338  29.167  28.889  1.00  0.00     0.034 A 
ATOM     52  C   UNL A   1      47.762  27.382  26.662  1.00  0.00     0.034 A 
ATOM     53  C   UNL A   1      42.337  30.204  28.995  1.00  0.00     0.049 A 
ATOM     54  C   UNL A   1      47.448  28.767  27.163  1.00  0.00     0.074 A 
ATOM     55  C   UNL A   1      42.201  31.486  29.500  1.00  0.00     0.029 A 
ATOM     56  N   UNL A   1      43.658  30.082  28.581  1.00  0.00    -0.354 N 
ATOM     57  N   UNL A   1      46.313  29.244  27.622  1.00  0.00    -0.248 NA
ATOM     58  C   UNL A   1      48.551  29.737  27.158  1.00  0.00     0.031 C 
ATOM     59  C   UNL A   1      43.416  32.158  29.328  1.00  0.00     0.029 A 
ATOM     60  C   UNL A   1      44.336  31.275  28.787  1.00  0.00     0.049 A 
ATOM     61  H   UNL A   1      44.055  29.267  28.196  1.00  0.00     0.167 HD
ATOM     62  C   UNL A   1      46.574  30.564  27.981  1.00  0.00     0.074 A 
ATOM     63  C   UNL A   1      47.979  30.796  27.709  1.00  0.00     0.031 C 
ATOM     64  C   UNL A   1      45.732  31.499  28.491  1.00  0.00     0.034 A 
BRANCH  51  65
ATOM     65  C   UNL A   1      39.915  29.483  29.286  1.00  0.00     0.023 A 
ATOM     66  C   UNL A   1      39.520  29.541  30.635  1.00  0.00     0.031 A 
ATOM     67  C   UNL A   1      38.932  29.704  28.305  1.00  0.00     0.131 A 
ATOM     68  C   UNL A   1      38.170  29.739  30.964  1.00  0.00     0.055 A 
ATOM     69  C   UNL A   1      37.604  29.981  28.640  1.00  0.00     0.041 A 
ATOM     70  F   UNL A   1      39.242  29.642  27.001  1.00  0.00    -0.206 F 
ATOM     71  C   UNL A   1      37.214  29.984  29.976  1.00  0.00     0.022 A 
BRANCH  68  72
ATOM     72  S   UNL A   1      37.660  29.529  32.691  1.00  0.00     0.124 S 
ATOM     73  O   UNL A   1      36.303  30.069  32.666  1.00  0.00    -0.237 OA
ATOM     74  O   UNL A   1      37.771  28.088  32.881  1.00  0.00    -0.237 OA
ATOM     75  O   UNL A   1      38.628  30.334  33.434  1.00  0.00    -0.744 OA
ENDBRANCH  68  72
ENDBRANCH  51  65
BRANCH  52  76
ATOM     76  C   UNL A   1      49.120  27.046  26.147  1.00  0.00     0.023 A 
ATOM     77  C   UNL A   1      49.528  27.448  24.865  1.00  0.00     0.031 A 
ATOM     78  C   UNL A   1      50.015  26.278  26.912  1.00  0.00     0.131 A 
ATOM     79  C   UNL A   1      50.775  27.042  24.367  1.00  0.00     0.055 A 
ATOM     80  C   UNL A   1      51.276  25.920  26.433  1.00  0.00     0.041 A 
ATOM     81  F   UNL A   1      49.678  25.873  28.147  1.00  0.00    -0.206 F 
ATOM     82  C   UNL A   1      51.657  26.291  25.147  1.00  0.00     0.022 A 
BRANCH  79  83
ATOM     83  S   UNL A   1      51.195  27.437  22.647  1.00  0.00     0.124 S 
ATOM     84  O   UNL A   1      52.241  26.461  22.364  1.00  0.00    -0.237 OA
ATOM     85  O   UNL A   1      49.920  27.224  21.969  1.00  0.00    -0.237 OA
ATOM     86  O   UNL A   1      51.637  28.827  22.715  1.00  0.00    -0.744 OA
ENDBRANCH  79  83
ENDBRANCH  52  76
BRANCH  64  87
ATOM     87  C   UNL A   1      46.329  32.848  28.811  1.00  0.00     0.023 A 
ATOM     88  C   UNL A   1      46.306  33.904  27.883  1.00  0.00     0.031 A 
ATOM     89  C   UNL A   1      46.958  33.069  30.049  1.00  0.00     0.131 A 
ATOM     90  C   UNL A   1      46.958  35.111  28.181  1.00  0.00     0.055 A 
ATOM     91  C   UNL A   1      47.547  34.294  30.365  1.00  0.00     0.041 A 
ATOM     92  F   UNL A   1      47.012  32.095  30.972  1.00  0.00    -0.206 F 
ATOM     93  C   UNL A   1      47.563  35.318  29.423  1.00  0.00     0.022 A 
BRANCH  90  94
ATOM     94  S   UNL A   1      47.097  36.368  26.882  1.00  0.00     0.124 S 
ATOM     95  O   UNL A   1      48.543  36.535  26.775  1.00  0.00    -0.237 OA
ATOM     96  O   UNL A   1      46.445  35.720  25.748  1.00  0.00    -0.237 OA
ATOM     97  O   UNL A   1      46.379  37.515  27.436  1.00  0.00    -0.744 OA
ENDBRANCH  90  94
ENDBRANCH  64  87
ENDBRANCH  38  39
ENDBRANCH  30  33
ENDBRANCH  28  29
ENDBRANCH  27  28
ENDBRANCH  26  27
ENDBRANCH   1  26
TORSDOF 19
ENDMDL
MODEL 2
REMARK VINA RESULT:     -10.8      2.408      8.307
REMARK SMILES O=C(CSCc1ccc(C(=O)NCCCCNC(=O)c2ccc(-c3c4nc(c(-c5cc(S(=O)(=O)[O-])ccc5F)c5ccc([nH]5)c(-c5cc(S(=O)(=O)[O-])ccc5F)c5nc(c(-c6cc(S(=O)(=O)[O-])ccc6F)c6ccc3[nH]6)C=C5)C=C4)cc2)cc1)Nc1ccc(Cl)cc1
REMARK SMILES IDX 13 1 12 2 10 3 11 4 9 6 6 7 7 8 84 9 8 10 83 11 5 12 4 13
REMARK SMILES IDX 3 14 2 15 1 16 85 17 86 19 87 20 92 21 88 22 91 23 89 24
REMARK SMILES IDX 90 25 14 26 15 27 16 28 17 29 18 30 19 32 20 33 21 34 82 35
REMARK SMILES IDX 22 36 81 37 23 38 24 39 25 40 75 41 26 42 80 43 74 44 76 45
REMARK SMILES IDX 27 46 79 47 73 48 72 49 28 51 60 52 40 53 59 54 41 55 44 56
REMARK SMILES IDX 58 57 77 58 42 59 43 60 57 62 78 63 45 64 29 65 30 66 38 67
REMARK SMILES IDX 31 68 37 69 39 70 36 71 32 72 33 73 34 74 35 75 61 76 62 77
REMARK SMILES IDX 70 78 63 79 69 80 71 81 68 82 64 83 65 84 66 85 67 86 46 87
REMARK SMILES IDX 47 88 55 89 48 90 54 91 56 92 53 93 49 94 50 95 51 96 52 97
REMARK H PARENT 12 5 85 18 17 31 76 50 44 61
REMARK Flexibility Score: inf
ROOT
ATOM      1  C   UNL A   1      39.230  21.849  26.094  1.00  0.00     0.116 C 
ENDROOT
BRANCH   1   2
ATOM      2  N   UNL A   1      38.307  20.792  25.729  1.00  0.00    -0.352 N 
ATOM      3  C   UNL A   1      37.039  20.805  25.206  1.00  0.00     0.251 C 
ATOM      4  O   UNL A   1      36.502  19.715  25.001  1.00  0.00    -0.269 OA
ATOM      5  H   UNL A   1      38.659  19.887  25.889  1.00  0.00     0.163 HD
BRANCH   3   6
ATOM      6  C   UNL A   1      36.306  22.048  24.824  1.00  0.00     0.039 A 
ATOM      7  C   UNL A   1      34.741  24.365  24.301  1.00  0.00    -0.038 A 
ATOM      8  C   UNL A   1      34.946  23.921  25.609  1.00  0.00     0.005 A 
ATOM      9  C   UNL A   1      35.423  23.692  23.273  1.00  0.00     0.005 A 
ATOM     10  C   UNL A   1      35.692  22.763  25.862  1.00  0.00     0.014 A 
ATOM     11  C   UNL A   1      36.216  22.569  23.535  1.00  0.00     0.014 A 
BRANCH   7  12
ATOM     12  C   UNL A   1      33.886  25.546  23.908  1.00  0.00     0.105 C 
BRANCH  12  13
ATOM     13  S   UNL A   1      32.214  25.257  23.252  1.00  0.00    -0.147 SA
BRANCH  13  14
ATOM     14  C   UNL A   1      31.232  25.149  24.785  1.00  0.00     0.170 C 
BRANCH  14  15
ATOM     15  C   UNL A   1      31.373  26.339  25.716  1.00  0.00     0.234 C 
ATOM     16  O   UNL A   1      30.953  26.273  26.869  1.00  0.00    -0.274 OA
ATOM     17  N   UNL A   1      32.065  27.407  25.173  1.00  0.00    -0.325 N 
ATOM     18  H   UNL A   1      32.249  27.370  24.206  1.00  0.00     0.169 HD
BRANCH  17  19
ATOM     19  C   UNL A   1      32.532  28.542  25.863  1.00  0.00     0.041 A 
ATOM     20  C   UNL A   1      33.804  28.474  26.443  1.00  0.00     0.027 A 
ATOM     21  C   UNL A   1      31.779  29.710  26.017  1.00  0.00     0.027 A 
ATOM     22  C   UNL A   1      34.326  29.571  27.139  1.00  0.00     0.022 A 
ATOM     23  C   UNL A   1      32.291  30.800  26.727  1.00  0.00     0.022 A 
ATOM     24  C   UNL A   1      33.566  30.730  27.277  1.00  0.00     0.041 A 
ATOM     25  Cl  UNL A   1      34.204  32.076  28.138  1.00  0.00    -0.084 Cl
ENDBRANCH  17  19
ENDBRANCH  14  15
ENDBRANCH  13  14
ENDBRANCH  12  13
ENDBRANCH   7  12
ENDBRANCH   3   6
ENDBRANCH   1   2
BRANCH   1  26
ATOM     26  C   UNL A   1      40.522  21.256  26.662  1.00  0.00     0.023 C 
BRANCH  26  27
ATOM     27  C   UNL A   1      40.796  19.814  26.219  1.00  0.00     0.023 C 
BRANCH  27  28
ATOM     28  C   UNL A   1      42.145  19.248  26.658  1.00  0.00     0.116 C 
BRANCH  28  29
ATOM     29  N   UNL A   1      43.067  19.051  25.552  1.00  0.00    -0.352 N 
ATOM     30  C   UNL A   1      43.843  19.980  24.898  1.00  0.00     0.251 C 
ATOM     31  H   UNL A   1      43.148  18.125  25.227  1.00  0.00     0.163 HD
ATOM     32  O   UNL A   1      44.474  19.652  23.903  1.00  0.00    -0.269 OA
BRANCH  30  33
ATOM     33  C   UNL A   1      43.867  21.379  25.381  1.00  0.00     0.039 A 
ATOM     34  C   UNL A   1      44.380  21.636  26.655  1.00  0.00     0.014 A 
ATOM     35  C   UNL A   1      43.409  22.428  24.580  1.00  0.00     0.014 A 
ATOM     36  C   UNL A   1      44.500  22.955  27.096  1.00  0.00     0.010 A 
ATOM     37  C   UNL A   1      43.589  23.746  24.995  1.00  0.00     0.010 A 
ATOM     38  C   UNL A   1      44.143  24.022  26.255  1.00  0.00    -0.014 A 
BRANCH  38  39
ATOM     39  C   UNL A   1      44.367  25.429  26.674  1.00  0.00     0.031 A 
ATOM     40  C   UNL A   1      45.742  26.035  26.599  1.00  0.00     0.074 A 
ATOM     41  C   UNL A   1      43.337  26.142  27.173  1.00  0.00     0.049 A 
ATOM     42  N   UNL A   1      46.139  27.230  26.954  1.00  0.00    -0.248 NA
ATOM     43  C   UNL A   1      46.815  25.172  26.085  1.00  0.00     0.031 C 
ATOM     44  C   UNL A   1      41.970  25.642  27.342  1.00  0.00     0.029 A 
ATOM     45  N   UNL A   1      43.277  27.432  27.635  1.00  0.00    -0.354 N 
ATOM     46  C   UNL A   1      47.508  27.263  26.712  1.00  0.00     0.074 A 
ATOM     47  C   UNL A   1      47.880  25.944  26.240  1.00  0.00     0.031 C 
ATOM     48  C   UNL A   1      41.202  26.623  27.843  1.00  0.00     0.029 A 
ATOM     49  C   UNL A   1      42.026  27.806  28.070  1.00  0.00     0.049 A 
ATOM     50  H   UNL A   1      44.055  28.035  27.652  1.00  0.00     0.167 HD
ATOM     51  C   UNL A   1      48.370  28.301  26.849  1.00  0.00     0.034 A 
ATOM     52  C   UNL A   1      41.594  28.967  28.601  1.00  0.00     0.034 A 
ATOM     53  C   UNL A   1      47.979  29.610  27.316  1.00  0.00     0.049 A 
ATOM     54  C   UNL A   1      42.573  30.102  28.755  1.00  0.00     0.074 A 
ATOM     55  C   UNL A   1      48.756  30.750  27.437  1.00  0.00     0.029 A 
ATOM     56  N   UNL A   1      46.704  29.954  27.749  1.00  0.00    -0.354 N 
ATOM     57  N   UNL A   1      43.853  30.136  28.461  1.00  0.00    -0.248 NA
ATOM     58  C   UNL A   1      42.046  31.359  29.300  1.00  0.00     0.031 C 
ATOM     59  C   UNL A   1      47.970  31.759  28.005  1.00  0.00     0.029 A 
ATOM     60  C   UNL A   1      46.682  31.277  28.169  1.00  0.00     0.049 A 
ATOM     61  H   UNL A   1      45.929  29.347  27.757  1.00  0.00     0.167 HD
ATOM     62  C   UNL A   1      44.276  31.427  28.765  1.00  0.00     0.074 A 
ATOM     63  C   UNL A   1      43.110  32.144  29.240  1.00  0.00     0.031 C 
ATOM     64  C   UNL A   1      45.516  31.972  28.660  1.00  0.00     0.034 A 
BRANCH  51  65
ATOM     65  C   UNL A   1      49.820  28.050  26.511  1.00  0.00     0.023 A 
ATOM     66  C   UNL A   1      50.296  28.139  25.190  1.00  0.00     0.031 A 
ATOM     67  C   UNL A   1      50.736  27.692  27.516  1.00  0.00     0.131 A 
ATOM     68  C   UNL A   1      51.628  27.802  24.900  1.00  0.00     0.055 A 
ATOM     69  C   UNL A   1      52.080  27.437  27.232  1.00  0.00     0.041 A 
ATOM     70  F   UNL A   1      50.339  27.571  28.792  1.00  0.00    -0.206 F 
ATOM     71  C   UNL A   1      52.529  27.476  25.915  1.00  0.00     0.022 A 
BRANCH  68  72
ATOM     72  S   UNL A   1      52.124  27.659  23.162  1.00  0.00     0.124 S 
ATOM     73  O   UNL A   1      52.842  28.915  22.956  1.00  0.00    -0.237 OA
ATOM     74  O   UNL A   1      52.939  26.450  23.164  1.00  0.00    -0.237 OA
ATOM     75  O   UNL A   1      50.852  27.554  22.449  1.00  0.00    -0.744 OA
ENDBRANCH  68  72
ENDBRANCH  51  65
BRANCH  52  76
ATOM     76  C   UNL A   1      40.174  29.121  29.029  1.00  0.00     0.023 A 
ATOM     77  C   UNL A   1      39.819  29.075  30.387  1.00  0.00     0.031 A 
ATOM     78  C   UNL A   1      39.144  29.269  28.083  1.00  0.00     0.131 A 
ATOM     79  C   UNL A   1      38.467  29.129  30.759  1.00  0.00     0.055 A 
ATOM     80  C   UNL A   1      37.806  29.375  28.461  1.00  0.00     0.041 A 
ATOM     81  F   UNL A   1      39.430  29.325  26.772  1.00  0.00    -0.206 F 
ATOM     82  C   UNL A   1      37.459  29.292  29.806  1.00  0.00     0.022 A 
BRANCH  79  83
ATOM     83  S   UNL A   1      38.037  28.897  32.507  1.00  0.00     0.124 S 
ATOM     84  O   UNL A   1      39.024  29.742  33.170  1.00  0.00    -0.237 OA
ATOM     85  O   UNL A   1      36.658  29.370  32.544  1.00  0.00    -0.237 OA
ATOM     86  O   UNL A   1      38.206  27.460  32.710  1.00  0.00    -0.744 OA
ENDBRANCH  79  83
ENDBRANCH  52  76
BRANCH  64  87
ATOM     87  C   UNL A   1      45.652  33.426  29.042  1.00  0.00     0.023 A 
ATOM     88  C   UNL A   1      45.464  34.458  28.105  1.00  0.00     0.031 A 
ATOM     89  C   UNL A   1      46.007  33.784  30.356  1.00  0.00     0.131 A 
ATOM     90  C   UNL A   1      45.696  35.791  28.475  1.00  0.00     0.055 A 
ATOM     91  C   UNL A   1      46.171  35.117  30.735  1.00  0.00     0.041 A 
ATOM     92  F   UNL A   1      46.202  32.841  31.292  1.00  0.00    -0.206 F 
ATOM     93  C   UNL A   1      46.032  36.128  29.790  1.00  0.00     0.022 A 
BRANCH  90  94
ATOM     94  S   UNL A   1      45.657  37.070  27.191  1.00  0.00     0.124 S 
ATOM     95  O   UNL A   1      46.413  38.151  27.817  1.00  0.00    -0.237 OA
ATOM     96  O   UNL A   1      46.309  36.405  26.067  1.00  0.00    -0.237 OA
ATOM     97  O   UNL A   1      44.231  37.334  27.012  1.00  0.00    -0.744 OA
ENDBRANCH  90  94
ENDBRANCH  64  87
ENDBRANCH  38  39
ENDBRANCH  30  33
ENDBRANCH  28  29
ENDBRANCH  27  28
ENDBRANCH  26  27
ENDBRANCH   1  26
TORSDOF 19
ENDMDL
MODEL 3
REMARK VINA RESULT:     -10.4      1.920      7.728
REMARK SMILES O=C(CSCc1ccc(C(=O)NCCCCNC(=O)c2ccc(-c3c4nc(c(-c5cc(S(=O)(=O)[O-])ccc5F)c5ccc([nH]5)c(-c5cc(S(=O)(=O)[O-])ccc5F)c5nc(c(-c6cc(S(=O)(=O)[O-])ccc6F)c6ccc3[nH]6)C=C5)C=C4)cc2)cc1)Nc1ccc(Cl)cc1
REMARK SMILES IDX 13 1 12 2 10 3 11 4 9 6 6 7 7 8 84 9 8 10 83 11 5 12 4 13
REMARK SMILES IDX 3 14 2 15 1 16 85 17 86 19 87 20 92 21 88 22 91 23 89 24
REMARK SMILES IDX 90 25 14 26 15 27 16 28 17 29 18 30 19 32 20 33 21 34 82 35
REMARK SMILES IDX 22 36 81 37 23 38 24 39 25 40 75 41 26 42 80 43 74 44 76 45
REMARK SMILES IDX 27 46 79 47 73 48 72 49 28 51 60 52 40 53 59 54 41 55 44 56
REMARK SMILES IDX 58 57 77 58 42 59 43 60 57 62 78 63 45 64 29 65 30 66 38 67
REMARK SMILES IDX 31 68 37 69 39 70 36 71 32 72 33 73 34 74 35 75 61 76 62 77
REMARK SMILES IDX 70 78 63 79 69 80 71 81 68 82 64 83 65 84 66 85 67 86 46 87
REMARK SMILES IDX 47 88 55 89 48 90 54 91 56 92 53 93 49 94 50 95 51 96 52 97
REMARK H PARENT 12 5 85 18 17 31 76 50 44 61
REMARK Flexibility Score: inf
ROOT
ATOM      1  C   UNL A   1      39.378  21.734  26.306  1.00  0.00     0.116 C 
ENDROOT
BRANCH   1   2
ATOM      2  N   UNL A   1      38.602  20.709  25.637  1.00  0.00    -0.352 N 
ATOM      3  C   UNL A   1      37.377  20.726  25.019  1.00  0.00     0.251 C 
ATOM      4  O   UNL A   1      36.977  19.668  24.531  1.00  0.00    -0.269 OA
ATOM      5  H   UNL A   1      39.039  19.828  25.624  1.00  0.00     0.163 HD
BRANCH   3   6
ATOM      6  C   UNL A   1      36.540  21.951  24.858  1.00  0.00     0.039 A 
ATOM      7  C   UNL A   1      34.803  24.201  24.764  1.00  0.00    -0.038 A 
ATOM      8  C   UNL A   1      35.174  23.635  25.985  1.00  0.00     0.005 A 
ATOM      9  C   UNL A   1      35.404  23.689  23.602  1.00  0.00     0.005 A 
ATOM     10  C   UNL A   1      36.005  22.509  26.028  1.00  0.00     0.014 A 
ATOM     11  C   UNL A   1      36.281  22.600  23.651  1.00  0.00     0.014 A 
BRANCH   7  12
ATOM     12  C   UNL A   1      33.846  25.358  24.596  1.00  0.00     0.105 C 
BRANCH  12  13
ATOM     13  S   UNL A   1      32.367  25.148  23.560  1.00  0.00    -0.147 SA
BRANCH  13  14
ATOM     14  C   UNL A   1      31.257  24.236  24.684  1.00  0.00     0.170 C 
BRANCH  14  15
ATOM     15  C   UNL A   1      31.701  22.821  25.005  1.00  0.00     0.234 C 
ATOM     16  O   UNL A   1      31.436  22.326  26.099  1.00  0.00    -0.274 OA
ATOM     17  N   UNL A   1      32.322  22.168  23.956  1.00  0.00    -0.325 N 
ATOM     18  H   UNL A   1      32.567  22.716  23.176  1.00  0.00     0.169 HD
BRANCH  17  19
ATOM     19  C   UNL A   1      32.638  20.797  23.891  1.00  0.00     0.041 A 
ATOM     20  C   UNL A   1      32.146  20.065  22.804  1.00  0.00     0.027 A 
ATOM     21  C   UNL A   1      33.389  20.136  24.869  1.00  0.00     0.027 A 
ATOM     22  C   UNL A   1      32.430  18.700  22.681  1.00  0.00     0.022 A 
ATOM     23  C   UNL A   1      33.659  18.769  24.757  1.00  0.00     0.022 A 
ATOM     24  C   UNL A   1      33.186  18.058  23.660  1.00  0.00     0.041 A 
ATOM     25  Cl  UNL A   1      33.529  16.379  23.513  1.00  0.00    -0.084 Cl
ENDBRANCH  17  19
ENDBRANCH  14  15
ENDBRANCH  13  14
ENDBRANCH  12  13
ENDBRANCH   7  12
ENDBRANCH   3   6
ENDBRANCH   1   2
BRANCH   1  26
ATOM     26  C   UNL A   1      40.711  21.161  26.794  1.00  0.00     0.023 C 
BRANCH  26  27
ATOM     27  C   UNL A   1      40.980  19.723  26.332  1.00  0.00     0.023 C 
BRANCH  27  28
ATOM     28  C   UNL A   1      42.360  19.177  26.690  1.00  0.00     0.116 C 
BRANCH  28  29
ATOM     29  N   UNL A   1      43.231  19.031  25.535  1.00  0.00    -0.352 N 
ATOM     30  C   UNL A   1      43.940  19.998  24.859  1.00  0.00     0.251 C 
ATOM     31  H   UNL A   1      43.328  18.114  25.190  1.00  0.00     0.163 HD
ATOM     32  O   UNL A   1      44.530  19.709  23.828  1.00  0.00    -0.269 OA
BRANCH  30  33
ATOM     33  C   UNL A   1      43.938  21.389  25.365  1.00  0.00     0.039 A 
ATOM     34  C   UNL A   1      44.504  21.644  26.617  1.00  0.00     0.014 A 
ATOM     35  C   UNL A   1      43.405  22.434  24.605  1.00  0.00     0.014 A 
ATOM     36  C   UNL A   1      44.600  22.959  27.074  1.00  0.00     0.010 A 
ATOM     37  C   UNL A   1      43.560  23.750  25.035  1.00  0.00     0.010 A 
ATOM     38  C   UNL A   1      44.164  24.026  26.271  1.00  0.00    -0.014 A 
BRANCH  38  39
ATOM     39  C   UNL A   1      44.360  25.433  26.702  1.00  0.00     0.031 A 
ATOM     40  C   UNL A   1      45.697  26.102  26.534  1.00  0.00     0.074 A 
ATOM     41  C   UNL A   1      43.343  26.089  27.297  1.00  0.00     0.049 A 
ATOM     42  N   UNL A   1      46.069  27.307  26.884  1.00  0.00    -0.248 NA
ATOM     43  C   UNL A   1      46.763  25.299  25.917  1.00  0.00     0.031 C 
ATOM     44  C   UNL A   1      42.017  25.525  27.561  1.00  0.00     0.029 A 
ATOM     45  N   UNL A   1      43.263  27.366  27.792  1.00  0.00    -0.354 N 
ATOM     46  C   UNL A   1      47.412  27.406  26.536  1.00  0.00     0.074 A 
ATOM     47  C   UNL A   1      47.801  26.115  26.006  1.00  0.00     0.031 C 
ATOM     48  C   UNL A   1      41.249  26.460  28.144  1.00  0.00     0.029 A 
ATOM     49  C   UNL A   1      42.036  27.674  28.333  1.00  0.00     0.049 A 
ATOM     50  H   UNL A   1      44.014  28.003  27.762  1.00  0.00     0.167 HD
ATOM     51  C   UNL A   1      48.235  28.479  26.629  1.00  0.00     0.034 A 
ATOM     52  C   UNL A   1      41.598  28.804  28.922  1.00  0.00     0.034 A 
ATOM     53  C   UNL A   1      47.827  29.760  27.156  1.00  0.00     0.049 A 
ATOM     54  C   UNL A   1      42.536  29.979  29.026  1.00  0.00     0.074 A 
ATOM     55  C   UNL A   1      48.560  30.931  27.242  1.00  0.00     0.029 A 
ATOM     56  N   UNL A   1      46.576  30.037  27.695  1.00  0.00    -0.354 N 
ATOM     57  N   UNL A   1      43.785  30.076  28.633  1.00  0.00    -0.248 NA
ATOM     58  C   UNL A   1      41.999  31.200  29.639  1.00  0.00     0.031 C 
ATOM     59  C   UNL A   1      47.779  31.893  27.892  1.00  0.00     0.029 A 
ATOM     60  C   UNL A   1      46.530  31.349  28.145  1.00  0.00     0.049 A 
ATOM     61  H   UNL A   1      45.831  29.396  27.750  1.00  0.00     0.167 HD
ATOM     62  C   UNL A   1      44.175  31.379  28.931  1.00  0.00     0.074 A 
ATOM     63  C   UNL A   1      43.020  32.033  29.513  1.00  0.00     0.031 C 
ATOM     64  C   UNL A   1      45.377  31.982  28.742  1.00  0.00     0.034 A 
BRANCH  51  65
ATOM     65  C   UNL A   1      49.664  28.301  26.172  1.00  0.00     0.023 A 
ATOM     66  C   UNL A   1      50.004  28.268  24.808  1.00  0.00     0.031 A 
ATOM     67  C   UNL A   1      50.698  28.135  27.110  1.00  0.00     0.131 A 
ATOM     68  C   UNL A   1      51.326  28.001  24.420  1.00  0.00     0.055 A 
ATOM     69  C   UNL A   1      52.026  27.950  26.719  1.00  0.00     0.041 A 
ATOM     70  F   UNL A   1      50.434  28.135  28.426  1.00  0.00    -0.206 F 
ATOM     71  C   UNL A   1      52.344  27.866  25.367  1.00  0.00     0.022 A 
BRANCH  68  72
ATOM     72  S   UNL A   1      51.668  27.692  22.666  1.00  0.00     0.124 S 
ATOM     73  O   UNL A   1      52.743  26.705  22.745  1.00  0.00    -0.237 OA
ATOM     74  O   UNL A   1      50.386  27.202  22.176  1.00  0.00    -0.237 OA
ATOM     75  O   UNL A   1      52.072  29.002  22.160  1.00  0.00    -0.744 OA
ENDBRANCH  68  72
ENDBRANCH  51  65
BRANCH  52  76
ATOM     76  C   UNL A   1      40.211  28.885  29.464  1.00  0.00     0.023 A 
ATOM     77  C   UNL A   1      39.147  29.333  28.666  1.00  0.00     0.031 A 
ATOM     78  C   UNL A   1      39.937  28.559  30.804  1.00  0.00     0.131 A 
ATOM     79  C   UNL A   1      37.869  29.489  29.225  1.00  0.00     0.055 A 
ATOM     80  C   UNL A   1      38.655  28.666  31.342  1.00  0.00     0.041 A 
ATOM     81  F   UNL A   1      40.918  28.120  31.610  1.00  0.00    -0.206 F 
ATOM     82  C   UNL A   1      37.613  29.147  30.554  1.00  0.00     0.022 A 
BRANCH  79  83
ATOM     83  S   UNL A   1      36.561  30.231  28.209  1.00  0.00     0.124 S 
ATOM     84  O   UNL A   1      37.149  30.168  26.876  1.00  0.00    -0.237 OA
ATOM     85  O   UNL A   1      35.440  29.332  28.458  1.00  0.00    -0.237 OA
ATOM     86  O   UNL A   1      36.417  31.573  28.767  1.00  0.00    -0.744 OA
ENDBRANCH  79  83
ENDBRANCH  52  76
BRANCH  64  87
ATOM     87  C   UNL A   1      45.480  33.433  29.146  1.00  0.00     0.023 A 
ATOM     88  C   UNL A   1      45.193  34.473  28.244  1.00  0.00     0.031 A 
ATOM     89  C   UNL A   1      45.904  33.779  30.442  1.00  0.00     0.131 A 
ATOM     90  C   UNL A   1      45.395  35.807  28.628  1.00  0.00     0.055 A 
ATOM     91  C   UNL A   1      46.039  35.111  30.838  1.00  0.00     0.041 A 
ATOM     92  F   UNL A   1      46.194  32.829  31.344  1.00  0.00    -0.206 F 
ATOM     93  C   UNL A   1      45.800  36.133  29.925  1.00  0.00     0.022 A 
BRANCH  90  94
ATOM     94  S   UNL A   1      45.225  37.108  27.375  1.00  0.00     0.124 S 
ATOM     95  O   UNL A   1      45.460  38.316  28.160  1.00  0.00    -0.237 OA
ATOM     96  O   UNL A   1      46.267  36.757  26.416  1.00  0.00    -0.237 OA
ATOM     97  O   UNL A   1      43.856  36.940  26.891  1.00  0.00    -0.744 OA
ENDBRANCH  90  94
ENDBRANCH  64  87
ENDBRANCH  38  39
ENDBRANCH  30  33
ENDBRANCH  28  29
ENDBRANCH  27  28
ENDBRANCH  26  27
ENDBRANCH   1  26
TORSDOF 19
ENDMDL
