MODEL 1
REMARK VINA RESULT:     -11.7      0.000      0.000
REMARK SMILES CCOC(=O)CS[C@H]1CC(=O)N(c2ccc(C(=O)NCCCCNC(=O)c3ccc(-c4c5nc(c(-c6cc(S(=O)(=O)[O-])ccc6F)c6ccc([nH]6)c(-c6cc(S(=O)(=O)[O-])ccc6F)c6nc(c(-c7cc(S(=O)(=O)[O-])ccc7F)c7ccc4[nH]7)C=C6)C=C5)cc3)c(O)c2)C1=O
REMARK SMILES IDX 20 1 19 2 17 3 18 4 16 6 13 7 14 8 92 9 15 10 90 11 12 12
REMARK SMILES IDX 8 13 9 14 93 15 10 16 94 17 11 18 7 19 6 20 4 21 5 22 3 23
REMARK SMILES IDX 2 24 1 25 91 26 21 28 22 29 23 30 24 31 25 32 26 34 27 35
REMARK SMILES IDX 28 36 89 37 29 38 88 39 30 40 31 41 32 42 82 43 33 44 87 45
REMARK SMILES IDX 81 46 83 47 34 48 86 49 80 50 79 51 35 53 67 54 47 55 66 56
REMARK SMILES IDX 48 57 51 58 65 59 84 60 49 61 50 62 64 64 85 65 52 66 36 67
REMARK SMILES IDX 37 68 45 69 38 70 44 71 46 72 43 73 39 74 40 75 41 76 42 77
REMARK SMILES IDX 68 78 69 79 77 80 70 81 76 82 78 83 75 84 71 85 72 86 73 87
REMARK SMILES IDX 74 88 53 89 54 90 62 91 55 92 61 93 63 94 60 95 56 96 57 97
REMARK SMILES IDX 58 98 59 99
REMARK H PARENT 19 5 91 27 24 33 83 52 51 63
REMARK Flexibility Score: inf
ROOT
ATOM      1  C   UNL A   1      35.805  21.337  26.007  1.00  0.00     0.116 C 
ENDROOT
BRANCH   1   2
ATOM      2  N   UNL A   1      34.939  20.457  25.237  1.00  0.00    -0.352 N 
ATOM      3  C   UNL A   1      33.768  20.764  24.584  1.00  0.00     0.255 C 
ATOM      4  O   UNL A   1      33.132  19.892  24.001  1.00  0.00    -0.269 OA
ATOM      5  H   UNL A   1      35.229  19.519  25.174  1.00  0.00     0.163 HD
BRANCH   3   6
ATOM      6  C   UNL A   1      33.240  22.146  24.615  1.00  0.00     0.081 A 
ATOM      7  C   UNL A   1      32.284  24.799  24.422  1.00  0.00     0.055 A 
ATOM      8  C   UNL A   1      33.577  24.465  23.987  1.00  0.00     0.028 A 
ATOM      9  C   UNL A   1      31.499  23.785  24.986  1.00  0.00     0.073 A 
ATOM     10  C   UNL A   1      34.058  23.154  24.096  1.00  0.00     0.020 A 
ATOM     11  C   UNL A   1      31.981  22.482  25.110  1.00  0.00     0.130 A 
BRANCH   7  12
ATOM     12  N   UNL A   1      31.789  26.130  24.327  1.00  0.00    -0.249 N 
ATOM     13  C   UNL A   1      30.826  28.074  23.444  1.00  0.00     0.146 C 
ATOM     14  C   UNL A   1      31.091  28.293  24.915  1.00  0.00     0.125 C 
ATOM     15  C   UNL A   1      31.360  26.702  23.149  1.00  0.00     0.247 C 
ATOM     16  C   UNL A   1      31.642  26.984  25.397  1.00  0.00     0.235 C 
ATOM     17  O   UNL A   1      31.326  26.204  22.028  1.00  0.00    -0.273 OA
ATOM     18  O   UNL A   1      31.936  26.799  26.572  1.00  0.00    -0.274 OA
BRANCH  13  19
ATOM     19  S   UNL A   1      29.074  28.342  22.959  1.00  0.00    -0.136 SA
BRANCH  19  20
ATOM     20  C   UNL A   1      28.976  30.130  22.577  1.00  0.00     0.192 C 
BRANCH  20  21
ATOM     21  C   UNL A   1      27.763  30.795  23.184  1.00  0.00     0.315 C 
ATOM     22  O   UNL A   1      26.950  30.229  23.903  1.00  0.00    -0.251 OA
BRANCH  21  23
ATOM     23  O   UNL A   1      27.716  32.112  22.843  1.00  0.00    -0.465 OA
BRANCH  23  24
ATOM     24  C   UNL A   1      28.538  32.516  21.736  1.00  0.00     0.229 C 
ATOM     25  C   UNL A   1      27.687  32.842  20.523  1.00  0.00     0.049 C 
ENDBRANCH  23  24
ENDBRANCH  21  23
ENDBRANCH  20  21
ENDBRANCH  19  20
ENDBRANCH  13  19
ENDBRANCH   7  12
BRANCH  11  26
ATOM     26  O   UNL A   1      31.149  21.603  25.743  1.00  0.00    -0.507 OA
ATOM     27  H   UNL A   1      30.584  21.049  25.241  1.00  0.00     0.293 HD
ENDBRANCH  11  26
ENDBRANCH   3   6
ENDBRANCH   1   2
BRANCH   1  28
ATOM     28  C   UNL A   1      37.094  21.734  25.299  1.00  0.00     0.023 C 
BRANCH  28  29
ATOM     29  C   UNL A   1      38.146  20.636  25.162  1.00  0.00     0.023 C 
BRANCH  29  30
ATOM     30  C   UNL A   1      39.360  20.753  26.078  1.00  0.00     0.116 C 
BRANCH  30  31
ATOM     31  N   UNL A   1      40.231  19.588  26.042  1.00  0.00    -0.352 N 
ATOM     32  C   UNL A   1      41.603  19.514  26.151  1.00  0.00     0.251 C 
ATOM     33  H   UNL A   1      39.773  18.724  25.923  1.00  0.00     0.163 HD
ATOM     34  O   UNL A   1      42.173  18.440  25.979  1.00  0.00    -0.269 OA
BRANCH  32  35
ATOM     35  C   UNL A   1      42.382  20.739  26.429  1.00  0.00     0.039 A 
ATOM     36  C   UNL A   1      42.863  21.498  25.359  1.00  0.00     0.014 A 
ATOM     37  C   UNL A   1      42.590  21.166  27.741  1.00  0.00     0.014 A 
ATOM     38  C   UNL A   1      43.461  22.737  25.604  1.00  0.00     0.010 A 
ATOM     39  C   UNL A   1      43.095  22.441  27.976  1.00  0.00     0.010 A 
ATOM     40  C   UNL A   1      43.532  23.244  26.912  1.00  0.00    -0.014 A 
BRANCH  40  41
ATOM     41  C   UNL A   1      44.068  24.603  27.201  1.00  0.00     0.031 A 
ATOM     42  C   UNL A   1      43.139  25.678  27.702  1.00  0.00     0.074 A 
ATOM     43  C   UNL A   1      45.356  24.896  26.932  1.00  0.00     0.049 A 
ATOM     44  N   UNL A   1      43.361  26.955  27.874  1.00  0.00    -0.248 NA
ATOM     45  C   UNL A   1      41.763  25.260  28.012  1.00  0.00     0.031 C 
ATOM     46  C   UNL A   1      46.350  23.954  26.412  1.00  0.00     0.029 A 
ATOM     47  N   UNL A   1      46.050  26.077  27.043  1.00  0.00    -0.354 N 
ATOM     48  C   UNL A   1      42.149  27.497  28.287  1.00  0.00     0.074 A 
ATOM     49  C   UNL A   1      41.182  26.421  28.273  1.00  0.00     0.031 C 
ATOM     50  C   UNL A   1      47.526  24.586  26.271  1.00  0.00     0.029 A 
ATOM     51  C   UNL A   1      47.363  25.991  26.635  1.00  0.00     0.049 A 
ATOM     52  H   UNL A   1      45.646  26.908  27.381  1.00  0.00     0.167 HD
ATOM     53  C   UNL A   1      41.872  28.770  28.668  1.00  0.00     0.034 A 
ATOM     54  C   UNL A   1      48.320  26.937  26.545  1.00  0.00     0.034 A 
ATOM     55  C   UNL A   1      42.854  29.826  28.695  1.00  0.00     0.049 A 
ATOM     56  C   UNL A   1      47.983  28.353  26.947  1.00  0.00     0.074 A 
ATOM     57  C   UNL A   1      42.698  31.136  29.112  1.00  0.00     0.029 A 
ATOM     58  N   UNL A   1      44.176  29.697  28.286  1.00  0.00    -0.354 N 
ATOM     59  N   UNL A   1      46.841  28.842  27.373  1.00  0.00    -0.248 NA
ATOM     60  C   UNL A   1      49.066  29.341  26.865  1.00  0.00     0.031 C 
ATOM     61  C   UNL A   1      43.899  31.815  28.889  1.00  0.00     0.029 A 
ATOM     62  C   UNL A   1      44.835  30.910  28.412  1.00  0.00     0.049 A 
ATOM     63  H   UNL A   1      44.584  28.865  27.953  1.00  0.00     0.167 HD
ATOM     64  C   UNL A   1      47.082  30.187  27.645  1.00  0.00     0.074 A 
ATOM     65  C   UNL A   1      48.479  30.426  27.345  1.00  0.00     0.031 C 
ATOM     66  C   UNL A   1      46.229  31.136  28.107  1.00  0.00     0.034 A 
BRANCH  53  67
ATOM     67  C   UNL A   1      40.448  29.083  29.058  1.00  0.00     0.023 A 
ATOM     68  C   UNL A   1      40.057  29.186  30.405  1.00  0.00     0.031 A 
ATOM     69  C   UNL A   1      39.457  29.247  28.074  1.00  0.00     0.131 A 
ATOM     70  C   UNL A   1      38.702  29.357  30.732  1.00  0.00     0.055 A 
ATOM     71  C   UNL A   1      38.126  29.509  28.405  1.00  0.00     0.041 A 
ATOM     72  F   UNL A   1      39.763  29.139  26.771  1.00  0.00    -0.206 F 
ATOM     73  C   UNL A   1      37.739  29.547  29.740  1.00  0.00     0.022 A 
BRANCH  70  74
ATOM     74  S   UNL A   1      38.201  29.164  32.464  1.00  0.00     0.124 S 
ATOM     75  O   UNL A   1      38.762  30.371  33.068  1.00  0.00    -0.237 OA
ATOM     76  O   UNL A   1      36.747  29.116  32.369  1.00  0.00    -0.237 OA
ATOM     77  O   UNL A   1      38.843  27.916  32.870  1.00  0.00    -0.744 OA
ENDBRANCH  70  74
ENDBRANCH  53  67
BRANCH  54  78
ATOM     78  C   UNL A   1      49.683  26.595  26.045  1.00  0.00     0.023 A 
ATOM     79  C   UNL A   1      50.135  27.066  24.801  1.00  0.00     0.031 A 
ATOM     80  C   UNL A   1      50.537  25.750  26.776  1.00  0.00     0.131 A 
ATOM     81  C   UNL A   1      51.380  26.649  24.304  1.00  0.00     0.055 A 
ATOM     82  C   UNL A   1      51.798  25.385  26.304  1.00  0.00     0.041 A 
ATOM     83  F   UNL A   1      50.158  25.272  27.972  1.00  0.00    -0.206 F 
ATOM     84  C   UNL A   1      52.221  25.823  25.052  1.00  0.00     0.022 A 
BRANCH  81  85
ATOM     85  S   UNL A   1      51.846  27.128  22.617  1.00  0.00     0.124 S 
ATOM     86  O   UNL A   1      52.251  28.517  22.804  1.00  0.00    -0.237 OA
ATOM     87  O   UNL A   1      52.915  26.183  22.318  1.00  0.00    -0.237 OA
ATOM     88  O   UNL A   1      50.613  26.934  21.857  1.00  0.00    -0.744 OA
ENDBRANCH  81  85
ENDBRANCH  54  78
BRANCH  66  89
ATOM     89  C   UNL A   1      46.801  32.507  28.376  1.00  0.00     0.023 A 
ATOM     90  C   UNL A   1      46.941  33.469  27.362  1.00  0.00     0.031 A 
ATOM     91  C   UNL A   1      47.214  32.853  29.677  1.00  0.00     0.131 A 
ATOM     92  C   UNL A   1      47.529  34.710  27.652  1.00  0.00     0.055 A 
ATOM     93  C   UNL A   1      47.738  34.112  29.973  1.00  0.00     0.041 A 
ATOM     94  F   UNL A   1      47.106  31.972  30.685  1.00  0.00    -0.206 F 
ATOM     95  C   UNL A   1      47.910  35.044  28.954  1.00  0.00     0.022 A 
BRANCH  92  96
ATOM     96  S   UNL A   1      47.875  35.852  26.286  1.00  0.00     0.124 S 
ATOM     97  O   UNL A   1      47.891  34.953  25.136  1.00  0.00    -0.237 OA
ATOM     98  O   UNL A   1      46.748  36.776  26.357  1.00  0.00    -0.237 OA
ATOM     99  O   UNL A   1      49.170  36.429  26.640  1.00  0.00    -0.744 OA
ENDBRANCH  92  96
ENDBRANCH  66  89
ENDBRANCH  40  41
ENDBRANCH  32  35
ENDBRANCH  30  31
ENDBRANCH  29  30
ENDBRANCH  28  29
ENDBRANCH   1  28
TORSDOF 21
ENDMDL
MODEL 2
REMARK VINA RESULT:     -11.6      1.685      7.574
REMARK SMILES CCOC(=O)CS[C@H]1CC(=O)N(c2ccc(C(=O)NCCCCNC(=O)c3ccc(-c4c5nc(c(-c6cc(S(=O)(=O)[O-])ccc6F)c6ccc([nH]6)c(-c6cc(S(=O)(=O)[O-])ccc6F)c6nc(c(-c7cc(S(=O)(=O)[O-])ccc7F)c7ccc4[nH]7)C=C6)C=C5)cc3)c(O)c2)C1=O
REMARK SMILES IDX 20 1 19 2 17 3 18 4 16 6 13 7 14 8 92 9 15 10 90 11 12 12
REMARK SMILES IDX 8 13 9 14 93 15 10 16 94 17 11 18 7 19 6 20 4 21 5 22 3 23
REMARK SMILES IDX 2 24 1 25 91 26 21 28 22 29 23 30 24 31 25 32 26 34 27 35
REMARK SMILES IDX 28 36 89 37 29 38 88 39 30 40 31 41 32 42 82 43 33 44 87 45
REMARK SMILES IDX 81 46 83 47 34 48 86 49 80 50 79 51 35 53 67 54 47 55 66 56
REMARK SMILES IDX 48 57 51 58 65 59 84 60 49 61 50 62 64 64 85 65 52 66 36 67
REMARK SMILES IDX 37 68 45 69 38 70 44 71 46 72 43 73 39 74 40 75 41 76 42 77
REMARK SMILES IDX 68 78 69 79 77 80 70 81 76 82 78 83 75 84 71 85 72 86 73 87
REMARK SMILES IDX 74 88 53 89 54 90 62 91 55 92 61 93 63 94 60 95 56 96 57 97
REMARK SMILES IDX 58 98 59 99
REMARK H PARENT 19 5 91 27 24 33 83 52 51 63
REMARK Flexibility Score: inf
ROOT
ATOM      1  C   UNL A   1      35.703  21.039  25.432  1.00  0.00     0.116 C 
ENDROOT
BRANCH   1   2
ATOM      2  N   UNL A   1      34.620  20.235  24.887  1.00  0.00    -0.352 N 
ATOM      3  C   UNL A   1      33.402  20.653  24.403  1.00  0.00     0.255 C 
ATOM      4  O   UNL A   1      32.577  19.837  24.005  1.00  0.00    -0.269 OA
ATOM      5  H   UNL A   1      34.779  19.264  24.860  1.00  0.00     0.163 HD
BRANCH   3   6
ATOM      6  C   UNL A   1      33.059  22.092  24.398  1.00  0.00     0.081 A 
ATOM      7  C   UNL A   1      32.421  24.832  24.130  1.00  0.00     0.055 A 
ATOM      8  C   UNL A   1      33.587  24.305  23.554  1.00  0.00     0.028 A 
ATOM      9  C   UNL A   1      31.604  23.966  24.870  1.00  0.00     0.073 A 
ATOM     10  C   UNL A   1      33.913  22.950  23.698  1.00  0.00     0.020 A 
ATOM     11  C   UNL A   1      31.934  22.621  25.028  1.00  0.00     0.130 A 
BRANCH   7  12
ATOM     12  N   UNL A   1      32.085  26.209  24.000  1.00  0.00    -0.249 N 
ATOM     13  C   UNL A   1      31.331  28.224  23.073  1.00  0.00     0.146 C 
ATOM     14  C   UNL A   1      31.671  28.459  24.527  1.00  0.00     0.125 C 
ATOM     15  C   UNL A   1      31.687  26.788  22.814  1.00  0.00     0.247 C 
ATOM     16  C   UNL A   1      32.078  27.110  25.040  1.00  0.00     0.235 C 
ATOM     17  O   UNL A   1      31.555  26.261  21.715  1.00  0.00    -0.273 OA
ATOM     18  O   UNL A   1      32.387  26.931  26.212  1.00  0.00    -0.274 OA
BRANCH  13  19
ATOM     19  S   UNL A   1      29.609  28.685  22.631  1.00  0.00    -0.136 SA
BRANCH  19  20
ATOM     20  C   UNL A   1      29.302  30.237  23.553  1.00  0.00     0.192 C 
BRANCH  20  21
ATOM     21  C   UNL A   1      27.899  30.765  23.364  1.00  0.00     0.315 C 
ATOM     22  O   UNL A   1      26.881  30.119  23.577  1.00  0.00    -0.251 OA
BRANCH  21  23
ATOM     23  O   UNL A   1      27.925  32.063  22.955  1.00  0.00    -0.465 OA
BRANCH  23  24
ATOM     24  C   UNL A   1      28.710  32.349  21.786  1.00  0.00     0.229 C 
ATOM     25  C   UNL A   1      27.944  32.002  20.523  1.00  0.00     0.049 C 
ENDBRANCH  23  24
ENDBRANCH  21  23
ENDBRANCH  20  21
ENDBRANCH  19  20
ENDBRANCH  13  19
ENDBRANCH   7  12
BRANCH  11  26
ATOM     26  O   UNL A   1      31.098  21.899  25.832  1.00  0.00    -0.507 OA
ATOM     27  H   UNL A   1      31.435  21.186  26.338  1.00  0.00     0.293 HD
ENDBRANCH  11  26
ENDBRANCH   3   6
ENDBRANCH   1   2
BRANCH   1  28
ATOM     28  C   UNL A   1      37.005  20.965  24.644  1.00  0.00     0.023 C 
BRANCH  28  29
ATOM     29  C   UNL A   1      37.951  19.827  25.023  1.00  0.00     0.023 C 
BRANCH  29  30
ATOM     30  C   UNL A   1      39.096  20.192  25.960  1.00  0.00     0.116 C 
BRANCH  30  31
ATOM     31  N   UNL A   1      40.155  19.194  26.004  1.00  0.00    -0.352 N 
ATOM     32  C   UNL A   1      41.514  19.362  26.162  1.00  0.00     0.251 C 
ATOM     33  H   UNL A   1      39.856  18.261  25.907  1.00  0.00     0.163 HD
ATOM     34  O   UNL A   1      42.265  18.398  26.055  1.00  0.00    -0.269 OA
BRANCH  32  35
ATOM     35  C   UNL A   1      42.060  20.713  26.412  1.00  0.00     0.039 A 
ATOM     36  C   UNL A   1      42.371  21.535  25.326  1.00  0.00     0.014 A 
ATOM     37  C   UNL A   1      42.212  21.187  27.716  1.00  0.00     0.014 A 
ATOM     38  C   UNL A   1      42.737  22.866  25.549  1.00  0.00     0.010 A 
ATOM     39  C   UNL A   1      42.479  22.535  27.930  1.00  0.00     0.010 A 
ATOM     40  C   UNL A   1      42.740  23.392  26.850  1.00  0.00    -0.014 A 
BRANCH  40  41
ATOM     41  C   UNL A   1      43.022  24.830  27.117  1.00  0.00     0.031 A 
ATOM     42  C   UNL A   1      44.399  25.379  26.850  1.00  0.00     0.074 A 
ATOM     43  C   UNL A   1      42.080  25.614  27.679  1.00  0.00     0.049 A 
ATOM     44  N   UNL A   1      44.899  26.550  27.148  1.00  0.00    -0.248 NA
ATOM     45  C   UNL A   1      45.351  24.468  26.195  1.00  0.00     0.031 C 
ATOM     46  C   UNL A   1      40.719  25.193  28.019  1.00  0.00     0.029 A 
ATOM     47  N   UNL A   1      42.127  26.927  28.081  1.00  0.00    -0.354 N 
ATOM     48  C   UNL A   1      46.228  26.509  26.740  1.00  0.00     0.074 A 
ATOM     49  C   UNL A   1      46.470  25.174  26.238  1.00  0.00     0.031 C 
ATOM     50  C   UNL A   1      40.057  26.232  28.554  1.00  0.00     0.029 A 
ATOM     51  C   UNL A   1      40.957  27.377  28.650  1.00  0.00     0.049 A 
ATOM     52  H   UNL A   1      42.924  27.494  27.972  1.00  0.00     0.167 HD
ATOM     53  C   UNL A   1      47.154  27.500  26.758  1.00  0.00     0.034 A 
ATOM     54  C   UNL A   1      40.650  28.567  29.204  1.00  0.00     0.034 A 
ATOM     55  C   UNL A   1      46.889  28.832  27.244  1.00  0.00     0.049 A 
ATOM     56  C   UNL A   1      41.705  29.647  29.241  1.00  0.00     0.074 A 
ATOM     57  C   UNL A   1      47.735  29.927  27.261  1.00  0.00     0.029 A 
ATOM     58  N   UNL A   1      45.688  29.252  27.803  1.00  0.00    -0.354 N 
ATOM     59  N   UNL A   1      42.947  29.605  28.815  1.00  0.00    -0.248 NA
ATOM     60  C   UNL A   1      41.313  30.937  29.823  1.00  0.00     0.031 C 
ATOM     61  C   UNL A   1      47.074  30.984  27.893  1.00  0.00     0.029 A 
ATOM     62  C   UNL A   1      45.783  30.579  28.194  1.00  0.00     0.049 A 
ATOM     63  H   UNL A   1      44.887  28.688  27.907  1.00  0.00     0.167 HD
ATOM     64  C   UNL A   1      43.470  30.875  29.045  1.00  0.00     0.074 A 
ATOM     65  C   UNL A   1      42.406  31.661  29.635  1.00  0.00     0.031 C 
ATOM     66  C   UNL A   1      44.714  31.351  28.785  1.00  0.00     0.034 A 
BRANCH  53  67
ATOM     67  C   UNL A   1      48.540  27.164  26.261  1.00  0.00     0.023 A 
ATOM     68  C   UNL A   1      48.992  27.582  24.996  1.00  0.00     0.031 A 
ATOM     69  C   UNL A   1      49.411  26.385  27.044  1.00  0.00     0.131 A 
ATOM     70  C   UNL A   1      50.238  27.148  24.518  1.00  0.00     0.055 A 
ATOM     71  C   UNL A   1      50.686  26.034  26.599  1.00  0.00     0.041 A 
ATOM     72  F   UNL A   1      49.030  25.937  28.251  1.00  0.00    -0.206 F 
ATOM     73  C   UNL A   1      51.100  26.400  25.322  1.00  0.00     0.022 A 
BRANCH  70  74
ATOM     74  S   UNL A   1      50.643  27.439  22.774  1.00  0.00     0.124 S 
ATOM     75  O   UNL A   1      49.508  26.811  22.101  1.00  0.00    -0.237 OA
ATOM     76  O   UNL A   1      50.701  28.895  22.703  1.00  0.00    -0.237 OA
ATOM     77  O   UNL A   1      51.920  26.753  22.600  1.00  0.00    -0.744 OA
ENDBRANCH  70  74
ENDBRANCH  53  67
BRANCH  54  78
ATOM     78  C   UNL A   1      39.297  28.809  29.785  1.00  0.00     0.023 A 
ATOM     79  C   UNL A   1      38.254  29.324  28.998  1.00  0.00     0.031 A 
ATOM     80  C   UNL A   1      39.038  28.578  31.148  1.00  0.00     0.131 A 
ATOM     81  C   UNL A   1      37.020  29.640  29.589  1.00  0.00     0.055 A 
ATOM     82  C   UNL A   1      37.791  28.839  31.718  1.00  0.00     0.041 A 
ATOM     83  F   UNL A   1      39.997  28.084  31.947  1.00  0.00    -0.206 F 
ATOM     84  C   UNL A   1      36.776  29.388  30.940  1.00  0.00     0.022 A 
BRANCH  81  85
ATOM     85  S   UNL A   1      35.764  30.476  28.580  1.00  0.00     0.124 S 
ATOM     86  O   UNL A   1      35.071  29.345  27.972  1.00  0.00    -0.237 OA
ATOM     87  O   UNL A   1      35.016  31.222  29.586  1.00  0.00    -0.237 OA
ATOM     88  O   UNL A   1      36.555  31.291  27.661  1.00  0.00    -0.744 OA
ENDBRANCH  81  85
ENDBRANCH  54  78
BRANCH  66  89
ATOM     89  C   UNL A   1      44.972  32.809  29.081  1.00  0.00     0.023 A 
ATOM     90  C   UNL A   1      44.369  33.839  28.340  1.00  0.00     0.031 A 
ATOM     91  C   UNL A   1      45.839  33.169  30.130  1.00  0.00     0.131 A 
ATOM     92  C   UNL A   1      44.683  35.178  28.619  1.00  0.00     0.055 A 
ATOM     93  C   UNL A   1      46.096  34.504  30.446  1.00  0.00     0.041 A 
ATOM     94  F   UNL A   1      46.444  32.228  30.871  1.00  0.00    -0.206 F 
ATOM     95  C   UNL A   1      45.527  35.517  29.681  1.00  0.00     0.022 A 
BRANCH  92  96
ATOM     96  S   UNL A   1      44.045  36.471  27.520  1.00  0.00     0.124 S 
ATOM     97  O   UNL A   1      43.259  37.289  28.438  1.00  0.00    -0.237 OA
ATOM     98  O   UNL A   1      45.269  37.082  27.011  1.00  0.00    -0.237 OA
ATOM     99  O   UNL A   1      43.268  35.728  26.530  1.00  0.00    -0.744 OA
ENDBRANCH  92  96
ENDBRANCH  66  89
ENDBRANCH  40  41
ENDBRANCH  32  35
ENDBRANCH  30  31
ENDBRANCH  29  30
ENDBRANCH  28  29
ENDBRANCH   1  28
TORSDOF 21
ENDMDL
MODEL 3
REMARK VINA RESULT:     -11.5      5.566      9.217
REMARK SMILES CCOC(=O)CS[C@H]1CC(=O)N(c2ccc(C(=O)NCCCCNC(=O)c3ccc(-c4c5nc(c(-c6cc(S(=O)(=O)[O-])ccc6F)c6ccc([nH]6)c(-c6cc(S(=O)(=O)[O-])ccc6F)c6nc(c(-c7cc(S(=O)(=O)[O-])ccc7F)c7ccc4[nH]7)C=C6)C=C5)cc3)c(O)c2)C1=O
REMARK SMILES IDX 20 1 19 2 17 3 18 4 16 6 13 7 14 8 92 9 15 10 90 11 12 12
REMARK SMILES IDX 8 13 9 14 93 15 10 16 94 17 11 18 7 19 6 20 4 21 5 22 3 23
REMARK SMILES IDX 2 24 1 25 91 26 21 28 22 29 23 30 24 31 25 32 26 34 27 35
REMARK SMILES IDX 28 36 89 37 29 38 88 39 30 40 31 41 32 42 82 43 33 44 87 45
REMARK SMILES IDX 81 46 83 47 34 48 86 49 80 50 79 51 35 53 67 54 47 55 66 56
REMARK SMILES IDX 48 57 51 58 65 59 84 60 49 61 50 62 64 64 85 65 52 66 36 67
REMARK SMILES IDX 37 68 45 69 38 70 44 71 46 72 43 73 39 74 40 75 41 76 42 77
REMARK SMILES IDX 68 78 69 79 77 80 70 81 76 82 78 83 75 84 71 85 72 86 73 87
REMARK SMILES IDX 74 88 53 89 54 90 62 91 55 92 61 93 63 94 60 95 56 96 57 97
REMARK SMILES IDX 58 98 59 99
REMARK H PARENT 19 5 91 27 24 33 83 52 51 63
REMARK Flexibility Score: inf
ROOT
ATOM      1  C   UNL A   1      31.743  30.012  25.023  1.00  0.00     0.116 C 
ENDROOT
BRANCH   1   2
ATOM      2  N   UNL A   1      30.559  29.794  24.205  1.00  0.00    -0.352 N 
ATOM      3  C   UNL A   1      30.169  28.648  23.553  1.00  0.00     0.255 C 
ATOM      4  O   UNL A   1      29.150  28.635  22.870  1.00  0.00    -0.269 OA
ATOM      5  H   UNL A   1      29.959  30.567  24.105  1.00  0.00     0.163 HD
BRANCH   3   6
ATOM      6  C   UNL A   1      30.999  27.426  23.635  1.00  0.00     0.081 A 
ATOM      7  C   UNL A   1      32.767  25.237  23.903  1.00  0.00     0.055 A 
ATOM      8  C   UNL A   1      33.170  26.413  23.250  1.00  0.00     0.028 A 
ATOM      9  C   UNL A   1      31.452  25.170  24.384  1.00  0.00     0.073 A 
ATOM     10  C   UNL A   1      32.290  27.493  23.103  1.00  0.00     0.020 A 
ATOM     11  C   UNL A   1      30.570  26.238  24.225  1.00  0.00     0.130 A 
BRANCH   7  12
ATOM     12  N   UNL A   1      33.648  24.129  24.048  1.00  0.00    -0.249 N 
ATOM     13  C   UNL A   1      35.000  22.492  25.040  1.00  0.00     0.146 C 
ATOM     14  C   UNL A   1      34.949  22.239  23.551  1.00  0.00     0.125 C 
ATOM     15  C   UNL A   1      34.201  23.746  25.252  1.00  0.00     0.247 C 
ATOM     16  C   UNL A   1      34.018  23.289  23.022  1.00  0.00     0.235 C 
ATOM     17  O   UNL A   1      34.049  24.256  26.356  1.00  0.00    -0.273 OA
ATOM     18  O   UNL A   1      33.720  23.350  21.836  1.00  0.00    -0.274 OA
BRANCH  13  19
ATOM     19  S   UNL A   1      34.468  21.056  26.054  1.00  0.00    -0.136 SA
BRANCH  19  20
ATOM     20  C   UNL A   1      32.820  20.613  25.388  1.00  0.00     0.192 C 
BRANCH  20  21
ATOM     21  C   UNL A   1      32.721  19.161  24.985  1.00  0.00     0.315 C 
ATOM     22  O   UNL A   1      32.345  18.261  25.726  1.00  0.00    -0.251 OA
BRANCH  21  23
ATOM     23  O   UNL A   1      33.077  18.998  23.682  1.00  0.00    -0.465 OA
BRANCH  23  24
ATOM     24  C   UNL A   1      32.822  17.707  23.105  1.00  0.00     0.229 C 
ATOM     25  C   UNL A   1      34.083  16.864  23.088  1.00  0.00     0.049 C 
ENDBRANCH  23  24
ENDBRANCH  21  23
ENDBRANCH  20  21
ENDBRANCH  19  20
ENDBRANCH  13  19
ENDBRANCH   7  12
BRANCH  11  26
ATOM     26  O   UNL A   1      29.297  26.022  24.671  1.00  0.00    -0.507 OA
ATOM     27  H   UNL A   1      29.109  25.280  25.212  1.00  0.00     0.293 HD
ENDBRANCH  11  26
ENDBRANCH   3   6
ENDBRANCH   1   2
BRANCH   1  28
ATOM     28  C   UNL A   1      31.735  29.277  26.357  1.00  0.00     0.023 C 
BRANCH  28  29
ATOM     29  C   UNL A   1      32.963  28.419  26.654  1.00  0.00     0.023 C 
BRANCH  29  30
ATOM     30  C   UNL A   1      34.127  29.128  27.336  1.00  0.00     0.116 C 
BRANCH  30  31
ATOM     31  N   UNL A   1      33.859  30.525  27.643  1.00  0.00    -0.352 N 
ATOM     32  C   UNL A   1      34.576  31.407  28.423  1.00  0.00     0.251 C 
ATOM     33  H   UNL A   1      33.043  30.896  27.234  1.00  0.00     0.163 HD
ATOM     34  O   UNL A   1      34.124  32.523  28.659  1.00  0.00    -0.269 OA
BRANCH  32  35
ATOM     35  C   UNL A   1      35.867  30.983  29.007  1.00  0.00     0.039 A 
ATOM     36  C   UNL A   1      35.878  29.984  29.983  1.00  0.00     0.014 A 
ATOM     37  C   UNL A   1      37.067  31.532  28.552  1.00  0.00     0.014 A 
ATOM     38  C   UNL A   1      37.097  29.464  30.427  1.00  0.00     0.010 A 
ATOM     39  C   UNL A   1      38.273  30.947  28.921  1.00  0.00     0.010 A 
ATOM     40  C   UNL A   1      38.304  29.903  29.859  1.00  0.00    -0.014 A 
BRANCH  40  41
ATOM     41  C   UNL A   1      39.614  29.301  30.231  1.00  0.00     0.031 A 
ATOM     42  C   UNL A   1      40.433  29.924  31.330  1.00  0.00     0.074 A 
ATOM     43  C   UNL A   1      40.107  28.260  29.529  1.00  0.00     0.049 A 
ATOM     44  N   UNL A   1      41.656  29.655  31.710  1.00  0.00    -0.248 NA
ATOM     45  C   UNL A   1      39.802  31.026  32.073  1.00  0.00     0.031 C 
ATOM     46  C   UNL A   1      39.428  27.588  28.419  1.00  0.00     0.029 A 
ATOM     47  N   UNL A   1      41.303  27.593  29.633  1.00  0.00    -0.354 N 
ATOM     48  C   UNL A   1      41.948  30.569  32.718  1.00  0.00     0.074 A 
ATOM     49  C   UNL A   1      40.799  31.440  32.839  1.00  0.00     0.031 C 
ATOM     50  C   UNL A   1      40.206  26.594  27.962  1.00  0.00     0.029 A 
ATOM     51  C   UNL A   1      41.463  26.589  28.705  1.00  0.00     0.049 A 
ATOM     52  H   UNL A   1      41.984  27.813  30.309  1.00  0.00     0.167 HD
ATOM     53  C   UNL A   1      43.060  30.658  33.489  1.00  0.00     0.034 A 
ATOM     54  C   UNL A   1      42.508  25.771  28.464  1.00  0.00     0.034 A 
ATOM     55  C   UNL A   1      44.189  29.767  33.368  1.00  0.00     0.049 A 
ATOM     56  C   UNL A   1      43.748  25.906  29.315  1.00  0.00     0.074 A 
ATOM     57  C   UNL A   1      45.343  29.732  34.130  1.00  0.00     0.029 A 
ATOM     58  N   UNL A   1      44.308  28.756  32.423  1.00  0.00    -0.354 N 
ATOM     59  N   UNL A   1      43.994  26.751  30.291  1.00  0.00    -0.248 NA
ATOM     60  C   UNL A   1      44.847  24.971  29.039  1.00  0.00     0.031 C 
ATOM     61  C   UNL A   1      46.189  28.751  33.602  1.00  0.00     0.029 A 
ATOM     62  C   UNL A   1      45.528  28.113  32.564  1.00  0.00     0.049 A 
ATOM     63  H   UNL A   1      43.625  28.530  31.750  1.00  0.00     0.167 HD
ATOM     64  C   UNL A   1      45.260  26.421  30.767  1.00  0.00     0.074 A 
ATOM     65  C   UNL A   1      45.720  25.296  29.980  1.00  0.00     0.031 C 
ATOM     66  C   UNL A   1      45.976  26.992  31.770  1.00  0.00     0.034 A 
BRANCH  53  67
ATOM     67  C   UNL A   1      43.112  31.771  34.508  1.00  0.00     0.023 A 
ATOM     68  C   UNL A   1      42.539  31.631  35.785  1.00  0.00     0.031 A 
ATOM     69  C   UNL A   1      43.709  33.004  34.189  1.00  0.00     0.131 A 
ATOM     70  C   UNL A   1      42.498  32.728  36.660  1.00  0.00     0.055 A 
ATOM     71  C   UNL A   1      43.746  34.062  35.099  1.00  0.00     0.041 A 
ATOM     72  F   UNL A   1      44.254  33.207  32.979  1.00  0.00    -0.206 F 
ATOM     73  C   UNL A   1      43.123  33.933  36.336  1.00  0.00     0.022 A 
BRANCH  70  74
ATOM     74  S   UNL A   1      41.478  32.603  38.153  1.00  0.00     0.124 S 
ATOM     75  O   UNL A   1      40.208  32.132  37.603  1.00  0.00    -0.237 OA
ATOM     76  O   UNL A   1      42.218  31.641  38.962  1.00  0.00    -0.237 OA
ATOM     77  O   UNL A   1      41.457  33.969  38.669  1.00  0.00    -0.744 OA
ENDBRANCH  70  74
ENDBRANCH  53  67
BRANCH  54  78
ATOM     78  C   UNL A   1      42.447  24.761  27.368  1.00  0.00     0.023 A 
ATOM     79  C   UNL A   1      41.663  23.603  27.495  1.00  0.00     0.031 A 
ATOM     80  C   UNL A   1      43.211  24.911  26.196  1.00  0.00     0.131 A 
ATOM     81  C   UNL A   1      41.701  22.618  26.495  1.00  0.00     0.055 A 
ATOM     82  C   UNL A   1      43.200  23.956  25.179  1.00  0.00     0.041 A 
ATOM     83  F   UNL A   1      43.977  26.000  26.020  1.00  0.00    -0.206 F 
ATOM     84  C   UNL A   1      42.452  22.792  25.332  1.00  0.00     0.022 A 
BRANCH  81  85
ATOM     85  S   UNL A   1      40.823  21.056  26.782  1.00  0.00     0.124 S 
ATOM     86  O   UNL A   1      39.547  21.307  26.119  1.00  0.00    -0.237 OA
ATOM     87  O   UNL A   1      41.703  20.090  26.136  1.00  0.00    -0.237 OA
ATOM     88  O   UNL A   1      40.762  20.964  28.240  1.00  0.00    -0.744 OA
ENDBRANCH  81  85
ENDBRANCH  54  78
BRANCH  66  89
ATOM     89  C   UNL A   1      47.307  26.366  32.111  1.00  0.00     0.023 A 
ATOM     90  C   UNL A   1      47.426  25.337  33.060  1.00  0.00     0.031 A 
ATOM     91  C   UNL A   1      48.478  26.813  31.470  1.00  0.00     0.131 A 
ATOM     92  C   UNL A   1      48.692  24.825  33.382  1.00  0.00     0.055 A 
ATOM     93  C   UNL A   1      49.727  26.255  31.747  1.00  0.00     0.041 A 
ATOM     94  F   UNL A   1      48.425  27.795  30.557  1.00  0.00    -0.206 F 
ATOM     95  C   UNL A   1      49.840  25.264  32.717  1.00  0.00     0.022 A 
BRANCH  92  96
ATOM     96  S   UNL A   1      48.833  23.641  34.748  1.00  0.00     0.124 S 
ATOM     97  O   UNL A   1      47.481  23.096  34.817  1.00  0.00    -0.237 OA
ATOM     98  O   UNL A   1      49.865  22.728  34.266  1.00  0.00    -0.237 OA
ATOM     99  O   UNL A   1      49.226  24.472  35.884  1.00  0.00    -0.744 OA
ENDBRANCH  92  96
ENDBRANCH  66  89
ENDBRANCH  40  41
ENDBRANCH  32  35
ENDBRANCH  30  31
ENDBRANCH  29  30
ENDBRANCH  28  29
ENDBRANCH   1  28
TORSDOF 21
ENDMDL
