MODEL 1
REMARK VINA RESULT:     -13.4      0.000      0.000
REMARK SMILES C[C@H]1CCc2sc3ncn4nc(/C=C\C(=O)NCCCCNC(=O)c5ccc(-c6c7nc(c(-c8cc(S(=O)(=O)[O-])ccc8F)c8ccc([nH]8)c(-c8cc(S(=O)(=O)[O-])ccc8F)c8nc(c(-c9cc(S(=O)(=O)[O-])ccc9F)c9ccc6[nH]9)C=C8)C=C7)cc5)nc4c3c2C1
REMARK SMILES IDX 20 1 19 2 18 3 17 4 15 5 16 6 14 8 13 9 12 10 1 11 2 12 3 13
REMARK SMILES IDX 92 14 4 15 91 16 5 17 90 18 6 19 7 20 89 21 8 22 10 23 88 24
REMARK SMILES IDX 9 25 11 26 21 27 22 28 23 29 24 31 25 32 26 33 87 34 27 35
REMARK SMILES IDX 86 36 28 37 29 38 30 39 80 40 31 41 85 42 79 43 81 44 32 45
REMARK SMILES IDX 84 46 78 47 77 48 33 50 65 51 45 52 64 53 46 54 49 55 63 56
REMARK SMILES IDX 82 57 47 58 48 59 62 61 83 62 50 63 34 64 35 65 43 66 36 67
REMARK SMILES IDX 42 68 44 69 41 70 37 71 38 72 39 73 40 74 66 75 67 76 75 77
REMARK SMILES IDX 68 78 74 79 76 80 73 81 69 82 70 83 71 84 72 85 51 86 52 87
REMARK SMILES IDX 60 88 53 89 59 90 61 91 58 92 54 93 55 94 56 95 57 96
REMARK H PARENT 17 7 22 30 81 49 49 60
REMARK Flexibility Score: inf
ROOT
ATOM      1  C   UNL A   1      33.809  29.847  26.931  1.00  0.00     0.023 C 
ENDROOT
BRANCH   1   2
ATOM      2  C   UNL A   1      32.630  29.129  26.164  1.00  0.00     0.023 C 
BRANCH   2   3
ATOM      3  C   UNL A   1      32.489  29.402  24.654  1.00  0.00     0.116 C 
BRANCH   3   4
ATOM      4  N   UNL A   1      31.148  29.783  24.195  1.00  0.00    -0.353 N 
ATOM      5  C   UNL A   1      30.191  29.116  23.479  1.00  0.00     0.244 C 
ATOM      6  O   UNL A   1      29.040  29.556  23.471  1.00  0.00    -0.270 OA
ATOM      7  H   UNL A   1      30.885  30.697  24.452  1.00  0.00     0.163 HD
BRANCH   5   8
ATOM      8  C   UNL A   1      30.505  28.000  22.550  1.00  0.00     0.075 C 
ATOM      9  C   UNL A   1      30.935  26.763  22.842  1.00  0.00     0.057 C 
BRANCH   9  10
ATOM     10  C   UNL A   1      31.279  26.286  24.127  1.00  0.00     0.175 A 
ATOM     11  C   UNL A   1      37.273  23.600  26.226  1.00  0.00     0.008 C 
ATOM     12  C   UNL A   1      36.927  23.479  24.733  1.00  0.00    -0.009 C 
ATOM     13  C   UNL A   1      36.913  22.000  24.266  1.00  0.00     0.009 C 
ATOM     14  C   UNL A   1      35.566  24.158  24.421  1.00  0.00     0.041 C 
ATOM     15  C   UNL A   1      35.778  21.161  24.851  1.00  0.00     0.047 C 
ATOM     16  C   UNL A   1      34.483  23.382  25.075  1.00  0.00    -0.020 A 
ATOM     17  C   UNL A   1      34.629  22.021  25.254  1.00  0.00     0.011 A 
ATOM     18  C   UNL A   1      33.231  23.822  25.580  1.00  0.00     0.060 A 
ATOM     19  S   UNL A   1      33.359  21.367  26.108  1.00  0.00    -0.120 S 
ATOM     20  C   UNL A   1      32.515  22.839  26.225  1.00  0.00     0.129 A 
ATOM     21  C   UNL A   1      32.423  25.031  25.324  1.00  0.00     0.168 A 
ATOM     22  N   UNL A   1      31.232  22.909  26.707  1.00  0.00    -0.225 NA
ATOM     23  N   UNL A   1      31.119  25.036  25.753  1.00  0.00    -0.201 N 
ATOM     24  N   UNL A   1      32.572  25.897  24.357  1.00  0.00    -0.207 NA
ATOM     25  C   UNL A   1      30.547  23.985  26.453  1.00  0.00     0.227 A 
ATOM     26  N   UNL A   1      30.376  25.902  25.041  1.00  0.00    -0.145 NA
ENDBRANCH   9  10
ENDBRANCH   5   8
ENDBRANCH   3   4
ENDBRANCH   2   3
ENDBRANCH   1   2
BRANCH   1  27
ATOM     27  C   UNL A   1      33.644  31.330  27.401  1.00  0.00     0.116 C 
BRANCH  27  28
ATOM     28  N   UNL A   1      34.309  31.698  28.703  1.00  0.00    -0.352 N 
ATOM     29  C   UNL A   1      35.580  31.999  29.227  1.00  0.00     0.251 C 
ATOM     30  H   UNL A   1      33.635  31.742  29.419  1.00  0.00     0.163 HD
ATOM     31  O   UNL A   1      35.573  32.816  30.159  1.00  0.00    -0.269 OA
BRANCH  29  32
ATOM     32  C   UNL A   1      36.903  31.307  28.995  1.00  0.00     0.039 A 
ATOM     33  C   UNL A   1      38.014  31.703  29.758  1.00  0.00     0.014 A 
ATOM     34  C   UNL A   1      37.180  30.365  28.008  1.00  0.00     0.014 A 
ATOM     35  C   UNL A   1      39.224  30.949  29.762  1.00  0.00     0.010 A 
ATOM     36  C   UNL A   1      38.384  29.574  28.050  1.00  0.00     0.010 A 
ATOM     37  C   UNL A   1      39.379  29.754  29.026  1.00  0.00    -0.014 A 
BRANCH  37  38
ATOM     38  C   UNL A   1      40.500  28.765  29.382  1.00  0.00     0.031 A 
ATOM     39  C   UNL A   1      40.789  28.541  30.863  1.00  0.00     0.074 A 
ATOM     40  C   UNL A   1      41.161  27.826  28.633  1.00  0.00     0.049 A 
ATOM     41  N   UNL A   1      41.839  28.868  31.554  1.00  0.00    -0.248 NA
ATOM     42  C   UNL A   1      39.778  27.855  31.675  1.00  0.00     0.031 C 
ATOM     43  C   UNL A   1      41.001  27.445  27.226  1.00  0.00     0.029 A 
ATOM     44  N   UNL A   1      42.137  26.923  29.048  1.00  0.00    -0.354 N 
ATOM     45  C   UNL A   1      41.689  28.330  32.843  1.00  0.00     0.074 A 
ATOM     46  C   UNL A   1      40.354  27.790  32.880  1.00  0.00     0.031 C 
ATOM     47  C   UNL A   1      41.698  26.316  26.954  1.00  0.00     0.029 A 
ATOM     48  C   UNL A   1      42.485  25.942  28.114  1.00  0.00     0.049 A 
ATOM     49  H   UNL A   1      42.554  26.972  29.939  1.00  0.00     0.167 HD
ATOM     50  C   UNL A   1      42.713  28.276  33.754  1.00  0.00     0.034 A 
ATOM     51  C   UNL A   1      43.394  24.928  28.215  1.00  0.00     0.034 A 
ATOM     52  C   UNL A   1      43.840  29.059  33.317  1.00  0.00     0.049 A 
ATOM     53  C   UNL A   1      44.393  25.348  29.219  1.00  0.00     0.074 A 
ATOM     54  C   UNL A   1      44.037  30.380  32.966  1.00  0.00     0.029 A 
ATOM     55  N   UNL A   1      44.952  28.398  32.850  1.00  0.00    -0.354 N 
ATOM     56  N   UNL A   1      45.209  26.349  29.042  1.00  0.00    -0.248 NA
ATOM     57  C   UNL A   1      44.278  24.873  30.586  1.00  0.00     0.031 C 
ATOM     58  C   UNL A   1      44.916  30.321  31.843  1.00  0.00     0.029 A 
ATOM     59  C   UNL A   1      45.238  28.977  31.640  1.00  0.00     0.049 A 
ATOM     60  H   UNL A   1      45.440  27.665  33.291  1.00  0.00     0.167 HD
ATOM     61  C   UNL A   1      45.362  26.903  30.298  1.00  0.00     0.074 A 
ATOM     62  C   UNL A   1      44.884  25.879  31.222  1.00  0.00     0.031 C 
ATOM     63  C   UNL A   1      45.603  28.237  30.453  1.00  0.00     0.034 A 
BRANCH  50  64
ATOM     64  C   UNL A   1      42.859  27.366  34.962  1.00  0.00     0.023 A 
ATOM     65  C   UNL A   1      43.689  26.222  34.839  1.00  0.00     0.031 A 
ATOM     66  C   UNL A   1      42.045  27.400  36.111  1.00  0.00     0.131 A 
ATOM     67  C   UNL A   1      43.632  25.163  35.765  1.00  0.00     0.055 A 
ATOM     68  C   UNL A   1      42.038  26.372  37.067  1.00  0.00     0.041 A 
ATOM     69  F   UNL A   1      41.159  28.379  36.324  1.00  0.00    -0.206 F 
ATOM     70  C   UNL A   1      42.812  25.233  36.884  1.00  0.00     0.022 A 
BRANCH  67  71
ATOM     71  S   UNL A   1      44.519  23.622  35.392  1.00  0.00     0.124 S 
ATOM     72  O   UNL A   1      45.120  23.300  36.682  1.00  0.00    -0.237 OA
ATOM     73  O   UNL A   1      43.437  22.748  34.951  1.00  0.00    -0.237 OA
ATOM     74  O   UNL A   1      45.463  24.015  34.348  1.00  0.00    -0.744 OA
ENDBRANCH  67  71
ENDBRANCH  50  64
BRANCH  51  75
ATOM     75  C   UNL A   1      43.461  23.595  27.539  1.00  0.00     0.023 A 
ATOM     76  C   UNL A   1      42.401  22.653  27.565  1.00  0.00     0.031 A 
ATOM     77  C   UNL A   1      44.505  23.331  26.628  1.00  0.00     0.131 A 
ATOM     78  C   UNL A   1      42.419  21.520  26.712  1.00  0.00     0.055 A 
ATOM     79  C   UNL A   1      44.520  22.209  25.791  1.00  0.00     0.041 A 
ATOM     80  F   UNL A   1      45.509  24.205  26.458  1.00  0.00    -0.206 F 
ATOM     81  C   UNL A   1      43.472  21.303  25.823  1.00  0.00     0.022 A 
BRANCH  78  82
ATOM     82  S   UNL A   1      41.000  20.370  26.637  1.00  0.00     0.124 S 
ATOM     83  O   UNL A   1      40.849  19.973  28.032  1.00  0.00    -0.237 OA
ATOM     84  O   UNL A   1      39.938  21.200  26.080  1.00  0.00    -0.237 OA
ATOM     85  O   UNL A   1      41.472  19.310  25.744  1.00  0.00    -0.744 OA
ENDBRANCH  78  82
ENDBRANCH  51  75
BRANCH  63  86
ATOM     86  C   UNL A   1      45.979  29.061  29.240  1.00  0.00     0.023 A 
ATOM     87  C   UNL A   1      45.066  29.850  28.507  1.00  0.00     0.031 A 
ATOM     88  C   UNL A   1      47.345  29.183  28.933  1.00  0.00     0.131 A 
ATOM     89  C   UNL A   1      45.531  30.718  27.503  1.00  0.00     0.055 A 
ATOM     90  C   UNL A   1      47.806  30.065  27.958  1.00  0.00     0.041 A 
ATOM     91  F   UNL A   1      48.263  28.482  29.619  1.00  0.00    -0.206 F 
ATOM     92  C   UNL A   1      46.899  30.837  27.238  1.00  0.00     0.022 A 
BRANCH  89  93
ATOM     93  S   UNL A   1      44.353  31.733  26.555  1.00  0.00     0.124 S 
ATOM     94  O   UNL A   1      43.907  32.724  27.526  1.00  0.00    -0.237 OA
ATOM     95  O   UNL A   1      45.161  32.239  25.450  1.00  0.00    -0.237 OA
ATOM     96  O   UNL A   1      43.320  30.771  26.154  1.00  0.00    -0.744 OA
ENDBRANCH  89  93
ENDBRANCH  63  86
ENDBRANCH  37  38
ENDBRANCH  29  32
ENDBRANCH  27  28
ENDBRANCH   1  27
TORSDOF 15
ENDMDL
MODEL 2
REMARK VINA RESULT:     -13.4      4.140      9.881
REMARK SMILES C[C@H]1CCc2sc3ncn4nc(/C=C\C(=O)NCCCCNC(=O)c5ccc(-c6c7nc(c(-c8cc(S(=O)(=O)[O-])ccc8F)c8ccc([nH]8)c(-c8cc(S(=O)(=O)[O-])ccc8F)c8nc(c(-c9cc(S(=O)(=O)[O-])ccc9F)c9ccc6[nH]9)C=C8)C=C7)cc5)nc4c3c2C1
REMARK SMILES IDX 20 1 19 2 18 3 17 4 15 5 16 6 14 8 13 9 12 10 1 11 2 12 3 13
REMARK SMILES IDX 92 14 4 15 91 16 5 17 90 18 6 19 7 20 89 21 8 22 10 23 88 24
REMARK SMILES IDX 9 25 11 26 21 27 22 28 23 29 24 31 25 32 26 33 87 34 27 35
REMARK SMILES IDX 86 36 28 37 29 38 30 39 80 40 31 41 85 42 79 43 81 44 32 45
REMARK SMILES IDX 84 46 78 47 77 48 33 50 65 51 45 52 64 53 46 54 49 55 63 56
REMARK SMILES IDX 82 57 47 58 48 59 62 61 83 62 50 63 34 64 35 65 43 66 36 67
REMARK SMILES IDX 42 68 44 69 41 70 37 71 38 72 39 73 40 74 66 75 67 76 75 77
REMARK SMILES IDX 68 78 74 79 76 80 73 81 69 82 70 83 71 84 72 85 51 86 52 87
REMARK SMILES IDX 60 88 53 89 59 90 61 91 58 92 54 93 55 94 56 95 57 96
REMARK H PARENT 17 7 22 30 81 49 49 60
REMARK Flexibility Score: inf
ROOT
ATOM      1  C   UNL A   1      37.760  22.773  25.616  1.00  0.00     0.023 C 
ENDROOT
BRANCH   1   2
ATOM      2  C   UNL A   1      36.476  22.183  24.913  1.00  0.00     0.023 C 
BRANCH   2   3
ATOM      3  C   UNL A   1      35.483  21.389  25.784  1.00  0.00     0.116 C 
BRANCH   3   4
ATOM      4  N   UNL A   1      34.798  20.274  25.121  1.00  0.00    -0.353 N 
ATOM      5  C   UNL A   1      33.524  20.126  24.641  1.00  0.00     0.244 C 
ATOM      6  O   UNL A   1      33.284  19.194  23.871  1.00  0.00    -0.270 OA
ATOM      7  H   UNL A   1      35.363  19.478  24.997  1.00  0.00     0.163 HD
BRANCH   5   8
ATOM      8  C   UNL A   1      32.369  20.910  25.150  1.00  0.00     0.075 C 
ATOM      9  C   UNL A   1      32.121  22.221  25.012  1.00  0.00     0.057 C 
BRANCH   9  10
ATOM     10  C   UNL A   1      32.984  23.170  24.417  1.00  0.00     0.175 A 
ATOM     11  C   UNL A   1      34.862  29.347  26.840  1.00  0.00     0.008 C 
ATOM     12  C   UNL A   1      33.512  28.782  27.312  1.00  0.00    -0.009 C 
ATOM     13  C   UNL A   1      32.340  29.741  26.975  1.00  0.00     0.009 C 
ATOM     14  C   UNL A   1      33.254  27.378  26.703  1.00  0.00     0.041 C 
ATOM     15  C   UNL A   1      32.043  29.879  25.483  1.00  0.00     0.047 C 
ATOM     16  C   UNL A   1      33.059  27.520  25.238  1.00  0.00    -0.020 A 
ATOM     17  C   UNL A   1      32.510  28.681  24.731  1.00  0.00     0.011 A 
ATOM     18  C   UNL A   1      33.353  26.607  24.191  1.00  0.00     0.060 A 
ATOM     19  S   UNL A   1      32.489  28.682  23.067  1.00  0.00    -0.120 S 
ATOM     20  C   UNL A   1      33.140  27.117  22.931  1.00  0.00     0.129 A 
ATOM     21  C   UNL A   1      33.577  25.147  24.177  1.00  0.00     0.168 A 
ATOM     22  N   UNL A   1      33.210  26.456  21.730  1.00  0.00    -0.225 NA
ATOM     23  N   UNL A   1      33.563  24.506  22.964  1.00  0.00    -0.201 N 
ATOM     24  N   UNL A   1      33.313  24.293  25.130  1.00  0.00    -0.207 NA
ATOM     25  C   UNL A   1      33.398  25.169  21.758  1.00  0.00     0.227 A 
ATOM     26  N   UNL A   1      33.256  23.204  23.105  1.00  0.00    -0.145 NA
ENDBRANCH   9  10
ENDBRANCH   5   8
ENDBRANCH   3   4
ENDBRANCH   2   3
ENDBRANCH   1   2
BRANCH   1  27
ATOM     27  C   UNL A   1      38.898  21.813  26.095  1.00  0.00     0.116 C 
BRANCH  27  28
ATOM     28  N   UNL A   1      40.278  22.411  26.203  1.00  0.00    -0.352 N 
ATOM     29  C   UNL A   1      41.070  23.164  27.091  1.00  0.00     0.251 C 
ATOM     30  H   UNL A   1      40.792  22.211  25.387  1.00  0.00     0.163 HD
ATOM     31  O   UNL A   1      42.280  22.902  27.050  1.00  0.00    -0.269 OA
BRANCH  29  32
ATOM     32  C   UNL A   1      40.708  24.390  27.897  1.00  0.00     0.039 A 
ATOM     33  C   UNL A   1      41.743  25.153  28.461  1.00  0.00     0.014 A 
ATOM     34  C   UNL A   1      39.424  24.802  28.242  1.00  0.00     0.014 A 
ATOM     35  C   UNL A   1      41.497  26.437  29.032  1.00  0.00     0.010 A 
ATOM     36  C   UNL A   1      39.182  26.120  28.771  1.00  0.00     0.010 A 
ATOM     37  C   UNL A   1      40.216  27.031  29.047  1.00  0.00    -0.014 A 
BRANCH  37  38
ATOM     38  C   UNL A   1      40.066  28.545  29.263  1.00  0.00     0.031 A 
ATOM     39  C   UNL A   1      41.197  29.437  28.759  1.00  0.00     0.074 A 
ATOM     40  C   UNL A   1      38.989  29.316  29.613  1.00  0.00     0.049 A 
ATOM     41  N   UNL A   1      42.045  30.150  29.435  1.00  0.00    -0.248 NA
ATOM     42  C   UNL A   1      41.398  29.555  27.310  1.00  0.00     0.031 C 
ATOM     43  C   UNL A   1      37.598  28.939  29.885  1.00  0.00     0.029 A 
ATOM     44  N   UNL A   1      38.923  30.701  29.737  1.00  0.00    -0.354 N 
ATOM     45  C   UNL A   1      42.802  30.900  28.520  1.00  0.00     0.074 A 
ATOM     46  C   UNL A   1      42.413  30.420  27.218  1.00  0.00     0.031 C 
ATOM     47  C   UNL A   1      36.812  30.039  29.970  1.00  0.00     0.029 A 
ATOM     48  C   UNL A   1      37.638  31.229  29.903  1.00  0.00     0.049 A 
ATOM     49  H   UNL A   1      39.726  31.270  29.710  1.00  0.00     0.167 HD
ATOM     50  C   UNL A   1      43.621  31.933  28.896  1.00  0.00     0.034 A 
ATOM     51  C   UNL A   1      37.245  32.529  30.052  1.00  0.00     0.034 A 
ATOM     52  C   UNL A   1      43.794  31.966  30.325  1.00  0.00     0.049 A 
ATOM     53  C   UNL A   1      38.400  33.265  30.607  1.00  0.00     0.074 A 
ATOM     54  C   UNL A   1      44.252  31.075  31.276  1.00  0.00     0.029 A 
ATOM     55  N   UNL A   1      43.144  32.945  31.040  1.00  0.00    -0.354 N 
ATOM     56  N   UNL A   1      38.881  33.050  31.799  1.00  0.00    -0.248 NA
ATOM     57  C   UNL A   1      39.260  34.024  29.716  1.00  0.00     0.031 C 
ATOM     58  C   UNL A   1      43.369  31.255  32.383  1.00  0.00     0.029 A 
ATOM     59  C   UNL A   1      42.488  32.285  32.046  1.00  0.00     0.049 A 
ATOM     60  H   UNL A   1      43.149  33.914  30.865  1.00  0.00     0.167 HD
ATOM     61  C   UNL A   1      40.242  33.249  31.670  1.00  0.00     0.074 A 
ATOM     62  C   UNL A   1      40.398  33.977  30.414  1.00  0.00     0.031 C 
ATOM     63  C   UNL A   1      41.129  32.567  32.451  1.00  0.00     0.034 A 
BRANCH  50  64
ATOM     64  C   UNL A   1      44.133  33.091  28.054  1.00  0.00     0.023 A 
ATOM     65  C   UNL A   1      43.672  34.397  28.366  1.00  0.00     0.031 A 
ATOM     66  C   UNL A   1      44.816  32.969  26.829  1.00  0.00     0.131 A 
ATOM     67  C   UNL A   1      43.820  35.468  27.465  1.00  0.00     0.055 A 
ATOM     68  C   UNL A   1      45.019  34.054  25.962  1.00  0.00     0.041 A 
ATOM     69  F   UNL A   1      45.242  31.787  26.370  1.00  0.00    -0.206 F 
ATOM     70  C   UNL A   1      44.497  35.305  26.262  1.00  0.00     0.022 A 
BRANCH  67  71
ATOM     71  S   UNL A   1      42.966  37.034  27.815  1.00  0.00     0.124 S 
ATOM     72  O   UNL A   1      43.873  37.665  28.768  1.00  0.00    -0.237 OA
ATOM     73  O   UNL A   1      42.898  37.644  26.491  1.00  0.00    -0.237 OA
ATOM     74  O   UNL A   1      41.683  36.607  28.368  1.00  0.00    -0.744 OA
ENDBRANCH  67  71
ENDBRANCH  50  64
BRANCH  51  75
ATOM     75  C   UNL A   1      35.954  33.211  29.723  1.00  0.00     0.023 A 
ATOM     76  C   UNL A   1      35.215  33.974  30.663  1.00  0.00     0.031 A 
ATOM     77  C   UNL A   1      35.552  33.324  28.376  1.00  0.00     0.131 A 
ATOM     78  C   UNL A   1      34.138  34.794  30.240  1.00  0.00     0.055 A 
ATOM     79  C   UNL A   1      34.486  34.132  27.965  1.00  0.00     0.041 A 
ATOM     80  F   UNL A   1      36.243  32.717  27.398  1.00  0.00    -0.206 F 
ATOM     81  C   UNL A   1      33.780  34.879  28.894  1.00  0.00     0.022 A 
BRANCH  78  82
ATOM     82  S   UNL A   1      33.262  35.886  31.416  1.00  0.00     0.124 S 
ATOM     83  O   UNL A   1      34.352  36.379  32.250  1.00  0.00    -0.237 OA
ATOM     84  O   UNL A   1      32.623  36.862  30.541  1.00  0.00    -0.237 OA
ATOM     85  O   UNL A   1      32.334  34.978  32.092  1.00  0.00    -0.744 OA
ENDBRANCH  78  82
ENDBRANCH  51  75
BRANCH  63  86
ATOM     86  C   UNL A   1      40.613  31.800  33.649  1.00  0.00     0.023 A 
ATOM     87  C   UNL A   1      40.283  32.396  34.887  1.00  0.00     0.031 A 
ATOM     88  C   UNL A   1      40.280  30.448  33.463  1.00  0.00     0.131 A 
ATOM     89  C   UNL A   1      39.648  31.639  35.887  1.00  0.00     0.055 A 
ATOM     90  C   UNL A   1      39.624  29.708  34.445  1.00  0.00     0.041 A 
ATOM     91  F   UNL A   1      40.539  29.837  32.295  1.00  0.00    -0.206 F 
ATOM     92  C   UNL A   1      39.306  30.301  35.662  1.00  0.00     0.022 A 
BRANCH  89  93
ATOM     93  S   UNL A   1      39.226  32.406  37.484  1.00  0.00     0.124 S 
ATOM     94  O   UNL A   1      38.830  33.758  37.112  1.00  0.00    -0.237 OA
ATOM     95  O   UNL A   1      38.164  31.546  37.997  1.00  0.00    -0.237 OA
ATOM     96  O   UNL A   1      40.481  32.328  38.240  1.00  0.00    -0.744 OA
ENDBRANCH  89  93
ENDBRANCH  63  86
ENDBRANCH  37  38
ENDBRANCH  29  32
ENDBRANCH  27  28
ENDBRANCH   1  27
TORSDOF 15
ENDMDL
MODEL 3
REMARK VINA RESULT:     -13.2      1.833      2.221
REMARK SMILES C[C@H]1CCc2sc3ncn4nc(/C=C\C(=O)NCCCCNC(=O)c5ccc(-c6c7nc(c(-c8cc(S(=O)(=O)[O-])ccc8F)c8ccc([nH]8)c(-c8cc(S(=O)(=O)[O-])ccc8F)c8nc(c(-c9cc(S(=O)(=O)[O-])ccc9F)c9ccc6[nH]9)C=C8)C=C7)cc5)nc4c3c2C1
REMARK SMILES IDX 20 1 19 2 18 3 17 4 15 5 16 6 14 8 13 9 12 10 1 11 2 12 3 13
REMARK SMILES IDX 92 14 4 15 91 16 5 17 90 18 6 19 7 20 89 21 8 22 10 23 88 24
REMARK SMILES IDX 9 25 11 26 21 27 22 28 23 29 24 31 25 32 26 33 87 34 27 35
REMARK SMILES IDX 86 36 28 37 29 38 30 39 80 40 31 41 85 42 79 43 81 44 32 45
REMARK SMILES IDX 84 46 78 47 77 48 33 50 65 51 45 52 64 53 46 54 49 55 63 56
REMARK SMILES IDX 82 57 47 58 48 59 62 61 83 62 50 63 34 64 35 65 43 66 36 67
REMARK SMILES IDX 42 68 44 69 41 70 37 71 38 72 39 73 40 74 66 75 67 76 75 77
REMARK SMILES IDX 68 78 74 79 76 80 73 81 69 82 70 83 71 84 72 85 51 86 52 87
REMARK SMILES IDX 60 88 53 89 59 90 61 91 58 92 54 93 55 94 56 95 57 96
REMARK H PARENT 17 7 22 30 81 49 49 60
REMARK Flexibility Score: inf
ROOT
ATOM      1  C   UNL A   1      33.650  30.015  26.321  1.00  0.00     0.023 C 
ENDROOT
BRANCH   1   2
ATOM      2  C   UNL A   1      32.791  28.953  25.529  1.00  0.00     0.023 C 
BRANCH   2   3
ATOM      3  C   UNL A   1      32.502  29.233  24.042  1.00  0.00     0.116 C 
BRANCH   3   4
ATOM      4  N   UNL A   1      31.088  29.397  23.684  1.00  0.00    -0.353 N 
ATOM      5  C   UNL A   1      30.155  28.530  23.183  1.00  0.00     0.244 C 
ATOM      6  O   UNL A   1      28.963  28.841  23.240  1.00  0.00    -0.270 OA
ATOM      7  H   UNL A   1      30.743  30.306  23.834  1.00  0.00     0.163 HD
BRANCH   5   8
ATOM      8  C   UNL A   1      30.510  27.321  22.395  1.00  0.00     0.075 C 
ATOM      9  C   UNL A   1      31.045  26.168  22.826  1.00  0.00     0.057 C 
BRANCH   9  10
ATOM     10  C   UNL A   1      31.481  25.898  24.144  1.00  0.00     0.175 A 
ATOM     11  C   UNL A   1      37.645  23.611  26.221  1.00  0.00     0.008 C 
ATOM     12  C   UNL A   1      37.205  23.259  24.790  1.00  0.00    -0.009 C 
ATOM     13  C   UNL A   1      37.186  21.726  24.557  1.00  0.00     0.009 C 
ATOM     14  C   UNL A   1      35.815  23.872  24.470  1.00  0.00     0.041 C 
ATOM     15  C   UNL A   1      36.107  20.978  25.338  1.00  0.00     0.047 C 
ATOM     16  C   UNL A   1      34.790  23.197  25.306  1.00  0.00    -0.020 A 
ATOM     17  C   UNL A   1      34.972  21.881  25.681  1.00  0.00     0.011 A 
ATOM     18  C   UNL A   1      33.567  23.700  25.822  1.00  0.00     0.060 A 
ATOM     19  S   UNL A   1      33.772  21.357  26.709  1.00  0.00    -0.120 S 
ATOM     20  C   UNL A   1      32.911  22.822  26.655  1.00  0.00     0.129 A 
ATOM     21  C   UNL A   1      32.722  24.849  25.438  1.00  0.00     0.168 A 
ATOM     22  N   UNL A   1      31.662  22.956  27.207  1.00  0.00    -0.225 NA
ATOM     23  N   UNL A   1      31.449  24.911  25.949  1.00  0.00    -0.201 N 
ATOM     24  N   UNL A   1      32.793  25.558  24.343  1.00  0.00    -0.207 NA
ATOM     25  C   UNL A   1      30.943  23.976  26.838  1.00  0.00     0.227 A 
ATOM     26  N   UNL A   1      30.646  25.652  25.164  1.00  0.00    -0.145 NA
ENDBRANCH   9  10
ENDBRANCH   5   8
ENDBRANCH   3   4
ENDBRANCH   2   3
ENDBRANCH   1   2
BRANCH   1  27
ATOM     27  C   UNL A   1      32.940  31.069  27.233  1.00  0.00     0.116 C 
BRANCH  27  28
ATOM     28  N   UNL A   1      33.773  32.246  27.670  1.00  0.00    -0.352 N 
ATOM     29  C   UNL A   1      35.114  32.596  27.919  1.00  0.00     0.251 C 
ATOM     30  H   UNL A   1      33.191  33.022  27.837  1.00  0.00     0.163 HD
ATOM     31  O   UNL A   1      35.395  33.775  27.660  1.00  0.00    -0.269 OA
BRANCH  29  32
ATOM     32  C   UNL A   1      36.183  31.834  28.668  1.00  0.00     0.039 A 
ATOM     33  C   UNL A   1      36.024  30.451  28.845  1.00  0.00     0.014 A 
ATOM     34  C   UNL A   1      37.289  32.382  29.312  1.00  0.00     0.014 A 
ATOM     35  C   UNL A   1      37.087  29.633  29.331  1.00  0.00     0.010 A 
ATOM     36  C   UNL A   1      38.380  31.550  29.753  1.00  0.00     0.010 A 
ATOM     37  C   UNL A   1      38.364  30.150  29.640  1.00  0.00    -0.014 A 
BRANCH  37  38
ATOM     38  C   UNL A   1      39.577  29.211  29.739  1.00  0.00     0.031 A 
ATOM     39  C   UNL A   1      40.034  28.805  31.137  1.00  0.00     0.074 A 
ATOM     40  C   UNL A   1      40.214  28.441  28.801  1.00  0.00     0.049 A 
ATOM     41  N   UNL A   1      41.127  29.112  31.766  1.00  0.00    -0.248 NA
ATOM     42  C   UNL A   1      39.158  27.935  31.931  1.00  0.00     0.031 C 
ATOM     43  C   UNL A   1      39.931  28.250  27.375  1.00  0.00     0.029 A 
ATOM     44  N   UNL A   1      41.283  27.568  28.984  1.00  0.00    -0.354 N 
ATOM     45  C   UNL A   1      41.148  28.388  32.969  1.00  0.00     0.074 A 
ATOM     46  C   UNL A   1      39.861  27.747  33.053  1.00  0.00     0.031 C 
ATOM     47  C   UNL A   1      40.666  27.228  26.874  1.00  0.00     0.029 A 
ATOM     48  C   UNL A   1      41.592  26.757  27.887  1.00  0.00     0.049 A 
ATOM     49  H   UNL A   1      41.787  27.523  29.829  1.00  0.00     0.167 HD
ATOM     50  C   UNL A   1      42.262  28.288  33.762  1.00  0.00     0.034 A 
ATOM     51  C   UNL A   1      42.569  25.813  27.751  1.00  0.00     0.034 A 
ATOM     52  C   UNL A   1      43.286  29.209  33.340  1.00  0.00     0.049 A 
ATOM     53  C   UNL A   1      43.640  26.165  28.706  1.00  0.00     0.074 A 
ATOM     54  C   UNL A   1      43.361  30.578  33.171  1.00  0.00     0.029 A 
ATOM     55  N   UNL A   1      44.383  28.710  32.678  1.00  0.00    -0.354 N 
ATOM     56  N   UNL A   1      44.367  27.241  28.602  1.00  0.00    -0.248 NA
ATOM     57  C   UNL A   1      43.700  25.495  29.993  1.00  0.00     0.031 C 
ATOM     58  C   UNL A   1      44.119  30.746  31.974  1.00  0.00     0.029 A 
ATOM     59  C   UNL A   1      44.502  29.473  31.545  1.00  0.00     0.049 A 
ATOM     60  H   UNL A   1      44.959  27.962  32.957  1.00  0.00     0.167 HD
ATOM     61  C   UNL A   1      44.617  27.624  29.906  1.00  0.00     0.074 A 
ATOM     62  C   UNL A   1      44.304  26.446  30.710  1.00  0.00     0.031 C 
ATOM     63  C   UNL A   1      44.787  28.938  30.232  1.00  0.00     0.034 A 
BRANCH  50  64
ATOM     64  C   UNL A   1      42.592  27.231  34.803  1.00  0.00     0.023 A 
ATOM     65  C   UNL A   1      43.411  26.140  34.411  1.00  0.00     0.031 A 
ATOM     66  C   UNL A   1      41.951  27.086  36.049  1.00  0.00     0.131 A 
ATOM     67  C   UNL A   1      43.502  24.967  35.184  1.00  0.00     0.055 A 
ATOM     68  C   UNL A   1      42.095  25.942  36.849  1.00  0.00     0.041 A 
ATOM     69  F   UNL A   1      41.091  28.000  36.514  1.00  0.00    -0.206 F 
ATOM     70  C   UNL A   1      42.849  24.863  36.407  1.00  0.00     0.022 A 
BRANCH  67  71
ATOM     71  S   UNL A   1      44.347  23.518  34.485  1.00  0.00     0.124 S 
ATOM     72  O   UNL A   1      43.615  23.316  33.240  1.00  0.00    -0.237 OA
ATOM     73  O   UNL A   1      45.718  24.000  34.355  1.00  0.00    -0.237 OA
ATOM     74  O   UNL A   1      44.146  22.485  35.498  1.00  0.00    -0.744 OA
ENDBRANCH  67  71
ENDBRANCH  50  64
BRANCH  51  75
ATOM     75  C   UNL A   1      42.650  24.597  26.882  1.00  0.00     0.023 A 
ATOM     76  C   UNL A   1      43.783  24.280  26.089  1.00  0.00     0.031 A 
ATOM     77  C   UNL A   1      41.683  23.580  27.019  1.00  0.00     0.131 A 
ATOM     78  C   UNL A   1      43.906  23.005  25.481  1.00  0.00     0.055 A 
ATOM     79  C   UNL A   1      41.807  22.325  26.414  1.00  0.00     0.041 A 
ATOM     80  F   UNL A   1      40.619  23.745  27.821  1.00  0.00    -0.206 F 
ATOM     81  C   UNL A   1      42.924  22.028  25.649  1.00  0.00     0.022 A 
BRANCH  78  82
ATOM     82  S   UNL A   1      45.418  22.533  24.569  1.00  0.00     0.124 S 
ATOM     83  O   UNL A   1      46.246  21.955  25.622  1.00  0.00    -0.237 OA
ATOM     84  O   UNL A   1      44.915  21.608  23.560  1.00  0.00    -0.237 OA
ATOM     85  O   UNL A   1      45.902  23.808  24.037  1.00  0.00    -0.744 OA
ENDBRANCH  78  82
ENDBRANCH  51  75
BRANCH  63  86
ATOM     86  C   UNL A   1      44.981  29.950  29.124  1.00  0.00     0.023 A 
ATOM     87  C   UNL A   1      46.242  30.404  28.680  1.00  0.00     0.031 A 
ATOM     88  C   UNL A   1      43.850  30.326  28.380  1.00  0.00     0.131 A 
ATOM     89  C   UNL A   1      46.338  31.210  27.532  1.00  0.00     0.055 A 
ATOM     90  C   UNL A   1      43.950  31.101  27.226  1.00  0.00     0.041 A 
ATOM     91  F   UNL A   1      42.627  29.897  28.735  1.00  0.00    -0.206 F 
ATOM     92  C   UNL A   1      45.196  31.547  26.798  1.00  0.00     0.022 A 
BRANCH  89  93
ATOM     93  S   UNL A   1      47.964  31.799  26.962  1.00  0.00     0.124 S 
ATOM     94  O   UNL A   1      48.598  30.591  26.450  1.00  0.00    -0.237 OA
ATOM     95  O   UNL A   1      47.623  32.813  25.968  1.00  0.00    -0.237 OA
ATOM     96  O   UNL A   1      48.578  32.336  28.182  1.00  0.00    -0.744 OA
ENDBRANCH  89  93
ENDBRANCH  63  86
ENDBRANCH  37  38
ENDBRANCH  29  32
ENDBRANCH  27  28
ENDBRANCH   1  27
TORSDOF 15
ENDMDL
