MODEL 1
REMARK VINA RESULT:     -14.6      0.000      0.000
REMARK SMILES Cc1c(C(=O)NCCCCNC(=O)c2ccc(-c3c4nc(c(-c5cc(S(=O)(=O)[O-])ccc5F)c5ccc([nH]5)c(-c5cc(S(=O)(=O)[O-])ccc5F)c5nc(c(-c6cc(S(=O)(=O)[O-])ccc6F)c6ccc3[nH]6)C=C5)C=C4)cc2)oc2c1/C(=N/NC(=O)C(c1ccccc1)c1ccccc1)CCC2
REMARK SMILES IDX 8 1 7 2 6 3 4 4 5 5 3 7 1 8 2 9 79 10 77 11 78 12 80 13
REMARK SMILES IDX 100 14 81 15 98 16 99 17 82 18 83 19 84 21 85 22 86 23 87 24
REMARK SMILES IDX 91 25 88 26 90 27 89 28 92 29 93 30 97 31 94 32 96 33 95 34
REMARK SMILES IDX 9 35 10 36 11 37 12 38 13 40 14 41 15 42 76 43 16 44 75 45
REMARK SMILES IDX 17 46 18 47 19 48 69 49 20 50 74 51 68 52 70 53 21 54 73 55
REMARK SMILES IDX 67 56 66 57 22 59 54 60 34 61 53 62 35 63 38 64 52 65 71 66
REMARK SMILES IDX 36 67 37 68 51 70 72 71 39 72 23 73 24 74 32 75 25 76 31 77
REMARK SMILES IDX 33 78 30 79 26 80 27 81 28 82 29 83 55 84 56 85 64 86 57 87
REMARK SMILES IDX 63 88 65 89 62 90 58 91 59 92 60 93 61 94 40 95 41 96 49 97
REMARK SMILES IDX 42 98 48 99 50 100 47 101 43 102 44 103 45 104 46 105
REMARK H PARENT 6 6 82 20 11 39 70 58 38 69
REMARK Flexibility Score: inf
ROOT
ATOM      1  C   UNL A   1      33.057  30.010  26.833  1.00  0.00     0.023 C 
ENDROOT
BRANCH   1   2
ATOM      2  C   UNL A   1      32.978  29.702  25.331  1.00  0.00     0.116 C 
BRANCH   2   3
ATOM      3  N   UNL A   1      31.653  29.965  24.772  1.00  0.00    -0.349 N 
ATOM      4  C   UNL A   1      30.744  29.093  24.188  1.00  0.00     0.287 C 
ATOM      5  O   UNL A   1      29.646  29.527  23.873  1.00  0.00    -0.266 OA
ATOM      6  H   UNL A   1      31.361  30.904  24.816  1.00  0.00     0.163 HD
BRANCH   4   7
ATOM      7  C   UNL A   1      31.132  27.705  24.038  1.00  0.00     0.195 A 
ATOM      8  C   UNL A   1      31.468  26.746  26.425  1.00  0.00     0.049 C 
ATOM      9  C   UNL A   1      31.490  26.703  24.938  1.00  0.00     0.010 A 
ATOM     10  C   UNL A   1      32.068  25.678  24.124  1.00  0.00     0.043 A 
ATOM     11  O   UNL A   1      31.265  27.241  22.766  1.00  0.00    -0.455 OA
ATOM     12  C   UNL A   1      31.965  26.115  22.828  1.00  0.00     0.114 A 
ATOM     13  C   UNL A   1      32.772  24.440  24.410  1.00  0.00     0.072 C 
ATOM     14  C   UNL A   1      32.594  25.636  21.589  1.00  0.00     0.076 C 
ATOM     15  N   UNL A   1      32.504  24.003  25.612  1.00  0.00    -0.177 NA
ATOM     16  C   UNL A   1      33.675  24.051  23.209  1.00  0.00     0.059 C 
ATOM     17  C   UNL A   1      33.028  24.205  21.820  1.00  0.00     0.014 C 
BRANCH  15  18
ATOM     18  N   UNL A   1      32.799  22.937  26.425  1.00  0.00    -0.246 N 
ATOM     19  C   UNL A   1      33.507  21.760  26.301  1.00  0.00     0.252 C 
ATOM     20  H   UNL A   1      32.407  23.038  27.322  1.00  0.00     0.193 HD
ATOM     21  O   UNL A   1      33.492  20.945  27.231  1.00  0.00    -0.272 OA
BRANCH  19  22
ATOM     22  C   UNL A   1      34.286  21.483  25.031  1.00  0.00     0.140 C 
BRANCH  22  23
ATOM     23  C   UNL A   1      35.809  21.908  25.291  1.00  0.00    -0.031 A 
ATOM     24  C   UNL A   1      36.899  21.052  25.083  1.00  0.00     0.005 A 
ATOM     25  C   UNL A   1      36.176  23.223  25.721  1.00  0.00     0.005 A 
ATOM     26  C   UNL A   1      38.223  21.458  25.401  1.00  0.00     0.000 A 
ATOM     27  C   UNL A   1      37.463  23.598  26.122  1.00  0.00     0.000 A 
ATOM     28  C   UNL A   1      38.497  22.705  25.966  1.00  0.00     0.000 A 
ENDBRANCH  22  23
BRANCH  22  29
ATOM     29  C   UNL A   1      33.757  20.085  24.460  1.00  0.00    -0.031 A 
ATOM     30  C   UNL A   1      34.478  18.860  24.628  1.00  0.00     0.005 A 
ATOM     31  C   UNL A   1      32.546  19.946  23.770  1.00  0.00     0.005 A 
ATOM     32  C   UNL A   1      34.165  17.661  23.979  1.00  0.00     0.000 A 
ATOM     33  C   UNL A   1      32.174  18.705  23.191  1.00  0.00     0.000 A 
ATOM     34  C   UNL A   1      33.007  17.585  23.243  1.00  0.00     0.000 A 
ENDBRANCH  22  29
ENDBRANCH  19  22
ENDBRANCH  15  18
ENDBRANCH   4   7
ENDBRANCH   2   3
ENDBRANCH   1   2
BRANCH   1  35
ATOM     35  C   UNL A   1      34.369  30.676  27.260  1.00  0.00     0.023 C 
BRANCH  35  36
ATOM     36  C   UNL A   1      35.336  29.745  27.984  1.00  0.00     0.116 C 
BRANCH  36  37
ATOM     37  N   UNL A   1      35.547  30.122  29.377  1.00  0.00    -0.352 N 
ATOM     38  C   UNL A   1      36.489  29.612  30.254  1.00  0.00     0.251 C 
ATOM     39  H   UNL A   1      34.952  30.819  29.734  1.00  0.00     0.163 HD
ATOM     40  O   UNL A   1      36.292  29.639  31.457  1.00  0.00    -0.269 OA
BRANCH  38  41
ATOM     41  C   UNL A   1      37.740  29.050  29.702  1.00  0.00     0.039 A 
ATOM     42  C   UNL A   1      38.317  29.570  28.541  1.00  0.00     0.014 A 
ATOM     43  C   UNL A   1      38.337  27.985  30.377  1.00  0.00     0.014 A 
ATOM     44  C   UNL A   1      39.548  29.068  28.117  1.00  0.00     0.010 A 
ATOM     45  C   UNL A   1      39.597  27.561  30.020  1.00  0.00     0.010 A 
ATOM     46  C   UNL A   1      40.197  28.079  28.876  1.00  0.00    -0.014 A 
BRANCH  46  47
ATOM     47  C   UNL A   1      41.584  27.706  28.595  1.00  0.00     0.031 A 
ATOM     48  C   UNL A   1      41.720  26.443  27.820  1.00  0.00     0.074 A 
ATOM     49  C   UNL A   1      42.642  28.523  28.799  1.00  0.00     0.049 A 
ATOM     50  N   UNL A   1      42.162  25.312  28.255  1.00  0.00    -0.248 NA
ATOM     51  C   UNL A   1      41.141  26.364  26.469  1.00  0.00     0.031 C 
ATOM     52  C   UNL A   1      42.632  29.897  29.305  1.00  0.00     0.029 A 
ATOM     53  N   UNL A   1      43.957  28.333  28.490  1.00  0.00    -0.354 N 
ATOM     54  C   UNL A   1      42.169  24.452  27.162  1.00  0.00     0.074 A 
ATOM     55  C   UNL A   1      41.328  25.075  26.176  1.00  0.00     0.031 C 
ATOM     56  C   UNL A   1      43.823  30.483  29.050  1.00  0.00     0.029 A 
ATOM     57  C   UNL A   1      44.731  29.495  28.493  1.00  0.00     0.049 A 
ATOM     58  H   UNL A   1      44.331  27.445  28.283  1.00  0.00     0.167 HD
ATOM     59  C   UNL A   1      43.072  23.434  27.083  1.00  0.00     0.034 A 
ATOM     60  C   UNL A   1      46.012  29.644  28.048  1.00  0.00     0.034 A 
ATOM     61  C   UNL A   1      43.732  23.239  28.358  1.00  0.00     0.049 A 
ATOM     62  C   UNL A   1      46.630  28.294  28.091  1.00  0.00     0.074 A 
ATOM     63  C   UNL A   1      43.294  22.963  29.640  1.00  0.00     0.029 A 
ATOM     64  N   UNL A   1      45.011  23.734  28.501  1.00  0.00    -0.354 N 
ATOM     65  N   UNL A   1      46.847  27.650  29.206  1.00  0.00    -0.248 NA
ATOM     66  C   UNL A   1      46.530  27.454  26.905  1.00  0.00     0.031 C 
ATOM     67  C   UNL A   1      44.103  23.780  30.482  1.00  0.00     0.029 A 
ATOM     68  C   UNL A   1      45.059  24.418  29.690  1.00  0.00     0.049 A 
ATOM     69  H   UNL A   1      45.754  23.617  27.866  1.00  0.00     0.167 HD
ATOM     70  C   UNL A   1      46.440  26.350  28.947  1.00  0.00     0.074 A 
ATOM     71  C   UNL A   1      46.358  26.264  27.488  1.00  0.00     0.031 C 
ATOM     72  C   UNL A   1      45.919  25.562  29.936  1.00  0.00     0.034 A 
BRANCH  59  73
ATOM     73  C   UNL A   1      43.652  22.859  25.809  1.00  0.00     0.023 A 
ATOM     74  C   UNL A   1      43.711  21.454  25.716  1.00  0.00     0.031 A 
ATOM     75  C   UNL A   1      44.400  23.567  24.843  1.00  0.00     0.131 A 
ATOM     76  C   UNL A   1      44.573  20.823  24.805  1.00  0.00     0.055 A 
ATOM     77  C   UNL A   1      45.199  22.931  23.887  1.00  0.00     0.041 A 
ATOM     78  F   UNL A   1      44.479  24.901  24.821  1.00  0.00    -0.206 F 
ATOM     79  C   UNL A   1      45.320  21.552  23.887  1.00  0.00     0.022 A 
BRANCH  76  80
ATOM     80  S   UNL A   1      44.839  19.040  24.979  1.00  0.00     0.124 S 
ATOM     81  O   UNL A   1      44.494  18.565  23.644  1.00  0.00    -0.237 OA
ATOM     82  O   UNL A   1      46.251  18.980  25.340  1.00  0.00    -0.237 OA
ATOM     83  O   UNL A   1      43.907  18.662  26.038  1.00  0.00    -0.744 OA
ENDBRANCH  76  80
ENDBRANCH  59  73
BRANCH  60  84
ATOM     84  C   UNL A   1      46.639  30.816  27.358  1.00  0.00     0.023 A 
ATOM     85  C   UNL A   1      45.891  31.902  26.838  1.00  0.00     0.031 A 
ATOM     86  C   UNL A   1      48.038  31.002  27.429  1.00  0.00     0.131 A 
ATOM     87  C   UNL A   1      46.542  33.096  26.433  1.00  0.00     0.055 A 
ATOM     88  C   UNL A   1      48.673  32.182  27.028  1.00  0.00     0.041 A 
ATOM     89  F   UNL A   1      48.839  30.075  27.975  1.00  0.00    -0.206 F 
ATOM     90  C   UNL A   1      47.926  33.240  26.541  1.00  0.00     0.022 A 
BRANCH  87  91
ATOM     91  S   UNL A   1      45.588  34.543  25.854  1.00  0.00     0.124 S 
ATOM     92  O   UNL A   1      46.528  35.638  26.062  1.00  0.00    -0.237 OA
ATOM     93  O   UNL A   1      45.291  34.195  24.469  1.00  0.00    -0.237 OA
ATOM     94  O   UNL A   1      44.422  34.560  26.739  1.00  0.00    -0.744 OA
ENDBRANCH  87  91
ENDBRANCH  60  84
BRANCH  72  95
ATOM     95  C   UNL A   1      46.065  26.007  31.380  1.00  0.00     0.023 A 
ATOM     96  C   UNL A   1      47.219  25.828  32.179  1.00  0.00     0.031 A 
ATOM     97  C   UNL A   1      45.012  26.766  31.924  1.00  0.00     0.131 A 
ATOM     98  C   UNL A   1      47.278  26.392  33.470  1.00  0.00     0.055 A 
ATOM     99  C   UNL A   1      45.087  27.347  33.188  1.00  0.00     0.041 A 
ATOM    100  F   UNL A   1      43.897  26.992  31.210  1.00  0.00    -0.206 F 
ATOM    101  C   UNL A   1      46.219  27.156  33.969  1.00  0.00     0.022 A 
BRANCH  98 102
ATOM    102  S   UNL A   1      48.729  26.124  34.541  1.00  0.00     0.124 S 
ATOM    103  O   UNL A   1      49.826  25.953  33.595  1.00  0.00    -0.237 OA
ATOM    104  O   UNL A   1      48.762  27.343  35.344  1.00  0.00    -0.237 OA
ATOM    105  O   UNL A   1      48.379  24.914  35.289  1.00  0.00    -0.744 OA
ENDBRANCH  98 102
ENDBRANCH  72  95
ENDBRANCH  46  47
ENDBRANCH  38  41
ENDBRANCH  36  37
ENDBRANCH  35  36
ENDBRANCH   1  35
TORSDOF 18
ENDMDL
MODEL 2
REMARK VINA RESULT:     -14.4      4.346      9.585
REMARK SMILES Cc1c(C(=O)NCCCCNC(=O)c2ccc(-c3c4nc(c(-c5cc(S(=O)(=O)[O-])ccc5F)c5ccc([nH]5)c(-c5cc(S(=O)(=O)[O-])ccc5F)c5nc(c(-c6cc(S(=O)(=O)[O-])ccc6F)c6ccc3[nH]6)C=C5)C=C4)cc2)oc2c1/C(=N/NC(=O)C(c1ccccc1)c1ccccc1)CCC2
REMARK SMILES IDX 8 1 7 2 6 3 4 4 5 5 3 7 1 8 2 9 79 10 77 11 78 12 80 13
REMARK SMILES IDX 100 14 81 15 98 16 99 17 82 18 83 19 84 21 85 22 86 23 87 24
REMARK SMILES IDX 91 25 88 26 90 27 89 28 92 29 93 30 97 31 94 32 96 33 95 34
REMARK SMILES IDX 9 35 10 36 11 37 12 38 13 40 14 41 15 42 76 43 16 44 75 45
REMARK SMILES IDX 17 46 18 47 19 48 69 49 20 50 74 51 68 52 70 53 21 54 73 55
REMARK SMILES IDX 67 56 66 57 22 59 54 60 34 61 53 62 35 63 38 64 52 65 71 66
REMARK SMILES IDX 36 67 37 68 51 70 72 71 39 72 23 73 24 74 32 75 25 76 31 77
REMARK SMILES IDX 33 78 30 79 26 80 27 81 28 82 29 83 55 84 56 85 64 86 57 87
REMARK SMILES IDX 63 88 65 89 62 90 58 91 59 92 60 93 61 94 40 95 41 96 49 97
REMARK SMILES IDX 42 98 48 99 50 100 47 101 43 102 44 103 45 104 46 105
REMARK H PARENT 6 6 82 20 11 39 70 58 38 69
REMARK Flexibility Score: inf
ROOT
ATOM      1  C   UNL A   1      36.920  21.528  25.229  1.00  0.00     0.023 C 
ENDROOT
BRANCH   1   2
ATOM      2  C   UNL A   1      35.571  21.270  25.916  1.00  0.00     0.116 C 
BRANCH   2   3
ATOM      3  N   UNL A   1      34.808  20.201  25.273  1.00  0.00    -0.349 N 
ATOM      4  C   UNL A   1      33.584  20.251  24.620  1.00  0.00     0.287 C 
ATOM      5  O   UNL A   1      33.179  19.236  24.072  1.00  0.00    -0.266 OA
ATOM      6  H   UNL A   1      35.225  19.311  25.311  1.00  0.00     0.163 HD
BRANCH   4   7
ATOM      7  C   UNL A   1      32.885  21.519  24.578  1.00  0.00     0.195 A 
ATOM      8  C   UNL A   1      34.282  23.108  23.076  1.00  0.00     0.049 C 
ATOM      9  C   UNL A   1      33.162  22.751  23.988  1.00  0.00     0.010 A 
ATOM     10  C   UNL A   1      32.240  23.658  24.600  1.00  0.00     0.043 A 
ATOM     11  O   UNL A   1      31.744  21.615  25.312  1.00  0.00    -0.455 OA
ATOM     12  C   UNL A   1      31.469  22.905  25.448  1.00  0.00     0.114 A 
ATOM     13  C   UNL A   1      32.072  25.101  24.567  1.00  0.00     0.072 C 
ATOM     14  C   UNL A   1      30.543  23.295  26.522  1.00  0.00     0.076 C 
ATOM     15  N   UNL A   1      32.625  25.624  23.506  1.00  0.00    -0.177 NA
ATOM     16  C   UNL A   1      31.334  25.580  25.846  1.00  0.00     0.059 C 
ATOM     17  C   UNL A   1      30.123  24.726  26.267  1.00  0.00     0.014 C 
BRANCH  15  18
ATOM     18  N   UNL A   1      32.777  26.848  22.903  1.00  0.00    -0.246 N 
ATOM     19  C   UNL A   1      32.284  28.121  23.103  1.00  0.00     0.252 C 
ATOM     20  H   UNL A   1      33.394  26.808  22.137  1.00  0.00     0.193 HD
ATOM     21  O   UNL A   1      32.559  29.010  22.288  1.00  0.00    -0.272 OA
BRANCH  19  22
ATOM     22  C   UNL A   1      31.415  28.408  24.310  1.00  0.00     0.140 C 
BRANCH  22  23
ATOM     23  C   UNL A   1      32.366  28.962  25.475  1.00  0.00    -0.031 A 
ATOM     24  C   UNL A   1      32.012  30.014  26.330  1.00  0.00     0.005 A 
ATOM     25  C   UNL A   1      33.646  28.388  25.758  1.00  0.00     0.005 A 
ATOM     26  C   UNL A   1      32.924  30.513  27.298  1.00  0.00     0.000 A 
ATOM     27  C   UNL A   1      34.583  28.932  26.644  1.00  0.00     0.000 A 
ATOM     28  C   UNL A   1      34.221  30.010  27.419  1.00  0.00     0.000 A 
ENDBRANCH  22  23
BRANCH  22  29
ATOM     29  C   UNL A   1      30.069  29.078  23.761  1.00  0.00    -0.031 A 
ATOM     30  C   UNL A   1      29.819  30.485  23.842  1.00  0.00     0.005 A 
ATOM     31  C   UNL A   1      29.043  28.348  23.147  1.00  0.00     0.005 A 
ATOM     32  C   UNL A   1      28.587  31.087  23.567  1.00  0.00     0.000 A 
ATOM     33  C   UNL A   1      27.824  28.973  22.776  1.00  0.00     0.000 A 
ATOM     34  C   UNL A   1      27.575  30.321  23.039  1.00  0.00     0.000 A 
ENDBRANCH  22  29
ENDBRANCH  19  22
ENDBRANCH  15  18
ENDBRANCH   4   7
ENDBRANCH   2   3
ENDBRANCH   1   2
BRANCH   1  35
ATOM     35  C   UNL A   1      37.260  23.014  25.073  1.00  0.00     0.023 C 
BRANCH  35  36
ATOM     36  C   UNL A   1      37.900  23.641  26.308  1.00  0.00     0.116 C 
BRANCH  36  37
ATOM     37  N   UNL A   1      39.084  22.918  26.758  1.00  0.00    -0.352 N 
ATOM     38  C   UNL A   1      40.260  23.455  27.254  1.00  0.00     0.251 C 
ATOM     39  H   UNL A   1      39.043  21.937  26.704  1.00  0.00     0.163 HD
ATOM     40  O   UNL A   1      41.309  22.840  27.161  1.00  0.00    -0.269 OA
BRANCH  38  41
ATOM     41  C   UNL A   1      40.213  24.779  27.909  1.00  0.00     0.039 A 
ATOM     42  C   UNL A   1      41.246  25.211  28.745  1.00  0.00     0.014 A 
ATOM     43  C   UNL A   1      39.108  25.596  27.664  1.00  0.00     0.014 A 
ATOM     44  C   UNL A   1      41.199  26.508  29.259  1.00  0.00     0.010 A 
ATOM     45  C   UNL A   1      39.112  26.907  28.086  1.00  0.00     0.010 A 
ATOM     46  C   UNL A   1      40.140  27.361  28.906  1.00  0.00    -0.014 A 
BRANCH  46  47
ATOM     47  C   UNL A   1      40.186  28.787  29.230  1.00  0.00     0.031 A 
ATOM     48  C   UNL A   1      41.366  29.494  28.663  1.00  0.00     0.074 A 
ATOM     49  C   UNL A   1      39.158  29.469  29.786  1.00  0.00     0.049 A 
ATOM     50  N   UNL A   1      42.380  29.952  29.314  1.00  0.00    -0.248 NA
ATOM     51  C   UNL A   1      41.537  29.544  27.202  1.00  0.00     0.031 C 
ATOM     52  C   UNL A   1      37.835  28.960  30.150  1.00  0.00     0.029 A 
ATOM     53  N   UNL A   1      39.042  30.803  30.044  1.00  0.00    -0.354 N 
ATOM     54  C   UNL A   1      43.188  30.587  28.377  1.00  0.00     0.074 A 
ATOM     55  C   UNL A   1      42.744  30.106  27.096  1.00  0.00     0.031 C 
ATOM     56  C   UNL A   1      36.991  29.995  30.356  1.00  0.00     0.029 A 
ATOM     57  C   UNL A   1      37.736  31.240  30.278  1.00  0.00     0.049 A 
ATOM     58  H   UNL A   1      39.818  31.410  30.065  1.00  0.00     0.167 HD
ATOM     59  C   UNL A   1      43.976  31.640  28.736  1.00  0.00     0.034 A 
ATOM     60  C   UNL A   1      37.293  32.527  30.375  1.00  0.00     0.034 A 
ATOM     61  C   UNL A   1      44.052  31.750  30.178  1.00  0.00     0.049 A 
ATOM     62  C   UNL A   1      38.471  33.349  30.754  1.00  0.00     0.074 A 
ATOM     63  C   UNL A   1      44.452  30.900  31.192  1.00  0.00     0.029 A 
ATOM     64  N   UNL A   1      43.287  32.722  30.788  1.00  0.00    -0.354 N 
ATOM     65  N   UNL A   1      39.080  33.227  31.903  1.00  0.00    -0.248 NA
ATOM     66  C   UNL A   1      39.281  33.921  29.687  1.00  0.00     0.031 C 
ATOM     67  C   UNL A   1      43.496  31.102  32.230  1.00  0.00     0.029 A 
ATOM     68  C   UNL A   1      42.641  32.136  31.848  1.00  0.00     0.049 A 
ATOM     69  H   UNL A   1      43.218  33.666  30.514  1.00  0.00     0.167 HD
ATOM     70  C   UNL A   1      40.430  33.249  31.591  1.00  0.00     0.074 A 
ATOM     71  C   UNL A   1      40.495  33.787  30.232  1.00  0.00     0.031 C 
ATOM     72  C   UNL A   1      41.341  32.554  32.340  1.00  0.00     0.034 A 
BRANCH  59  73
ATOM     73  C   UNL A   1      44.373  32.796  27.843  1.00  0.00     0.023 A 
ATOM     74  C   UNL A   1      43.827  34.057  28.158  1.00  0.00     0.031 A 
ATOM     75  C   UNL A   1      44.985  32.695  26.574  1.00  0.00     0.131 A 
ATOM     76  C   UNL A   1      43.783  35.086  27.205  1.00  0.00     0.055 A 
ATOM     77  C   UNL A   1      45.005  33.750  25.656  1.00  0.00     0.041 A 
ATOM     78  F   UNL A   1      45.512  31.558  26.111  1.00  0.00    -0.206 F 
ATOM     79  C   UNL A   1      44.368  34.943  25.952  1.00  0.00     0.022 A 
BRANCH  76  80
ATOM     80  S   UNL A   1      42.773  36.545  27.574  1.00  0.00     0.124 S 
ATOM     81  O   UNL A   1      41.426  36.010  27.419  1.00  0.00    -0.237 OA
ATOM     82  O   UNL A   1      43.189  36.862  28.936  1.00  0.00    -0.237 OA
ATOM     83  O   UNL A   1      43.187  37.507  26.555  1.00  0.00    -0.744 OA
ENDBRANCH  76  80
ENDBRANCH  59  73
BRANCH  60  84
ATOM     84  C   UNL A   1      35.993  33.112  29.917  1.00  0.00     0.023 A 
ATOM     85  C   UNL A   1      35.177  33.930  30.738  1.00  0.00     0.031 A 
ATOM     86  C   UNL A   1      35.656  33.076  28.545  1.00  0.00     0.131 A 
ATOM     87  C   UNL A   1      34.100  34.666  30.178  1.00  0.00     0.055 A 
ATOM     88  C   UNL A   1      34.593  33.804  28.000  1.00  0.00     0.041 A 
ATOM     89  F   UNL A   1      36.404  32.400  27.660  1.00  0.00    -0.206 F 
ATOM     90  C   UNL A   1      33.819  34.613  28.812  1.00  0.00     0.022 A 
BRANCH  87  91
ATOM     91  S   UNL A   1      33.098  35.801  31.200  1.00  0.00     0.124 S 
ATOM     92  O   UNL A   1      32.240  36.436  30.208  1.00  0.00    -0.237 OA
ATOM     93  O   UNL A   1      32.447  34.895  32.140  1.00  0.00    -0.237 OA
ATOM     94  O   UNL A   1      34.096  36.687  31.804  1.00  0.00    -0.744 OA
ENDBRANCH  87  91
ENDBRANCH  60  84
BRANCH  72  95
ATOM     95  C   UNL A   1      40.912  32.002  33.687  1.00  0.00     0.023 A 
ATOM     96  C   UNL A   1      40.829  32.747  34.887  1.00  0.00     0.031 A 
ATOM     97  C   UNL A   1      40.442  30.676  33.714  1.00  0.00     0.131 A 
ATOM     98  C   UNL A   1      40.302  32.152  36.052  1.00  0.00     0.055 A 
ATOM     99  C   UNL A   1      39.894  30.102  34.859  1.00  0.00     0.041 A 
ATOM    100  F   UNL A   1      40.471  29.922  32.602  1.00  0.00    -0.206 F 
ATOM    101  C   UNL A   1      39.828  30.836  36.035  1.00  0.00     0.022 A 
BRANCH  98 102
ATOM    102  S   UNL A   1      40.242  33.070  37.626  1.00  0.00     0.124 S 
ATOM    103  O   UNL A   1      39.678  34.361  37.247  1.00  0.00    -0.237 OA
ATOM    104  O   UNL A   1      39.394  32.222  38.457  1.00  0.00    -0.237 OA
ATOM    105  O   UNL A   1      41.645  33.121  38.042  1.00  0.00    -0.744 OA
ENDBRANCH  98 102
ENDBRANCH  72  95
ENDBRANCH  46  47
ENDBRANCH  38  41
ENDBRANCH  36  37
ENDBRANCH  35  36
ENDBRANCH   1  35
TORSDOF 18
ENDMDL
MODEL 3
REMARK VINA RESULT:     -14.3      3.575      9.229
REMARK SMILES Cc1c(C(=O)NCCCCNC(=O)c2ccc(-c3c4nc(c(-c5cc(S(=O)(=O)[O-])ccc5F)c5ccc([nH]5)c(-c5cc(S(=O)(=O)[O-])ccc5F)c5nc(c(-c6cc(S(=O)(=O)[O-])ccc6F)c6ccc3[nH]6)C=C5)C=C4)cc2)oc2c1/C(=N/NC(=O)C(c1ccccc1)c1ccccc1)CCC2
REMARK SMILES IDX 8 1 7 2 6 3 4 4 5 5 3 7 1 8 2 9 79 10 77 11 78 12 80 13
REMARK SMILES IDX 100 14 81 15 98 16 99 17 82 18 83 19 84 21 85 22 86 23 87 24
REMARK SMILES IDX 91 25 88 26 90 27 89 28 92 29 93 30 97 31 94 32 96 33 95 34
REMARK SMILES IDX 9 35 10 36 11 37 12 38 13 40 14 41 15 42 76 43 16 44 75 45
REMARK SMILES IDX 17 46 18 47 19 48 69 49 20 50 74 51 68 52 70 53 21 54 73 55
REMARK SMILES IDX 67 56 66 57 22 59 54 60 34 61 53 62 35 63 38 64 52 65 71 66
REMARK SMILES IDX 36 67 37 68 51 70 72 71 39 72 23 73 24 74 32 75 25 76 31 77
REMARK SMILES IDX 33 78 30 79 26 80 27 81 28 82 29 83 55 84 56 85 64 86 57 87
REMARK SMILES IDX 63 88 65 89 62 90 58 91 59 92 60 93 61 94 40 95 41 96 49 97
REMARK SMILES IDX 42 98 48 99 50 100 47 101 43 102 44 103 45 104 46 105
REMARK H PARENT 6 6 82 20 11 39 70 58 38 69
REMARK Flexibility Score: inf
ROOT
ATOM      1  C   UNL A   1      37.006  22.013  25.264  1.00  0.00     0.023 C 
ENDROOT
BRANCH   1   2
ATOM      2  C   UNL A   1      35.822  21.473  26.080  1.00  0.00     0.116 C 
BRANCH   2   3
ATOM      3  N   UNL A   1      35.143  20.360  25.417  1.00  0.00    -0.349 N 
ATOM      4  C   UNL A   1      33.943  20.338  24.720  1.00  0.00     0.287 C 
ATOM      5  O   UNL A   1      33.616  19.299  24.165  1.00  0.00    -0.266 OA
ATOM      6  H   UNL A   1      35.609  19.495  25.476  1.00  0.00     0.163 HD
BRANCH   4   7
ATOM      7  C   UNL A   1      33.176  21.564  24.644  1.00  0.00     0.195 A 
ATOM      8  C   UNL A   1      34.517  23.208  23.150  1.00  0.00     0.049 C 
ATOM      9  C   UNL A   1      33.398  22.802  24.042  1.00  0.00     0.010 A 
ATOM     10  C   UNL A   1      32.413  23.665  24.620  1.00  0.00     0.043 A 
ATOM     11  O   UNL A   1      32.015  21.606  25.351  1.00  0.00    -0.455 OA
ATOM     12  C   UNL A   1      31.666  22.881  25.462  1.00  0.00     0.114 A 
ATOM     13  C   UNL A   1      32.167  25.095  24.562  1.00  0.00     0.072 C 
ATOM     14  C   UNL A   1      30.696  23.233  26.509  1.00  0.00     0.076 C 
ATOM     15  N   UNL A   1      32.714  25.634  23.506  1.00  0.00    -0.177 NA
ATOM     16  C   UNL A   1      31.374  25.550  25.817  1.00  0.00     0.059 C 
ATOM     17  C   UNL A   1      30.204  24.635  26.224  1.00  0.00     0.014 C 
BRANCH  15  18
ATOM     18  N   UNL A   1      32.812  26.856  22.889  1.00  0.00    -0.246 N 
ATOM     19  C   UNL A   1      32.271  28.111  23.079  1.00  0.00     0.252 C 
ATOM     20  H   UNL A   1      33.422  26.832  22.116  1.00  0.00     0.193 HD
ATOM     21  O   UNL A   1      32.503  29.000  22.252  1.00  0.00    -0.272 OA
BRANCH  19  22
ATOM     22  C   UNL A   1      31.403  28.377  24.292  1.00  0.00     0.140 C 
BRANCH  22  23
ATOM     23  C   UNL A   1      32.345  28.971  25.445  1.00  0.00    -0.031 A 
ATOM     24  C   UNL A   1      31.983  30.050  26.262  1.00  0.00     0.005 A 
ATOM     25  C   UNL A   1      33.623  28.409  25.756  1.00  0.00     0.005 A 
ATOM     26  C   UNL A   1      32.887  30.583  27.219  1.00  0.00     0.000 A 
ATOM     27  C   UNL A   1      34.553  28.984  26.630  1.00  0.00     0.000 A 
ATOM     28  C   UNL A   1      34.184  30.087  27.365  1.00  0.00     0.000 A 
ENDBRANCH  22  23
BRANCH  22  29
ATOM     29  C   UNL A   1      30.031  28.996  23.751  1.00  0.00    -0.031 A 
ATOM     30  C   UNL A   1      29.762  30.402  23.760  1.00  0.00     0.005 A 
ATOM     31  C   UNL A   1      28.996  28.219  23.213  1.00  0.00     0.005 A 
ATOM     32  C   UNL A   1      28.512  30.971  23.492  1.00  0.00     0.000 A 
ATOM     33  C   UNL A   1      27.757  28.805  22.847  1.00  0.00     0.000 A 
ATOM     34  C   UNL A   1      27.496  30.163  23.041  1.00  0.00     0.000 A 
ENDBRANCH  22  29
ENDBRANCH  19  22
ENDBRANCH  15  18
ENDBRANCH   4   7
ENDBRANCH   2   3
ENDBRANCH   1   2
BRANCH   1  35
ATOM     35  C   UNL A   1      38.367  21.477  25.721  1.00  0.00     0.023 C 
BRANCH  35  36
ATOM     36  C   UNL A   1      39.235  22.507  26.436  1.00  0.00     0.116 C 
BRANCH  36  37
ATOM     37  N   UNL A   1      40.657  22.340  26.155  1.00  0.00    -0.352 N 
ATOM     38  C   UNL A   1      41.632  23.322  26.136  1.00  0.00     0.251 C 
ATOM     39  H   UNL A   1      40.956  21.424  25.957  1.00  0.00     0.163 HD
ATOM     40  O   UNL A   1      42.639  23.180  25.463  1.00  0.00    -0.269 OA
BRANCH  38  41
ATOM     41  C   UNL A   1      41.433  24.535  26.956  1.00  0.00     0.039 A 
ATOM     42  C   UNL A   1      42.160  24.743  28.130  1.00  0.00     0.014 A 
ATOM     43  C   UNL A   1      40.499  25.477  26.522  1.00  0.00     0.014 A 
ATOM     44  C   UNL A   1      42.004  25.950  28.814  1.00  0.00     0.010 A 
ATOM     45  C   UNL A   1      40.421  26.706  27.137  1.00  0.00     0.010 A 
ATOM     46  C   UNL A   1      41.151  26.940  28.299  1.00  0.00    -0.014 A 
BRANCH  46  47
ATOM     47  C   UNL A   1      41.148  28.293  28.855  1.00  0.00     0.031 A 
ATOM     48  C   UNL A   1      42.223  29.167  28.311  1.00  0.00     0.074 A 
ATOM     49  C   UNL A   1      40.147  28.798  29.611  1.00  0.00     0.049 A 
ATOM     50  N   UNL A   1      43.271  29.585  28.934  1.00  0.00    -0.248 NA
ATOM     51  C   UNL A   1      42.240  29.468  26.870  1.00  0.00     0.031 C 
ATOM     52  C   UNL A   1      38.899  28.141  30.003  1.00  0.00     0.029 A 
ATOM     53  N   UNL A   1      39.982  30.060  30.102  1.00  0.00    -0.354 N 
ATOM     54  C   UNL A   1      43.941  30.422  28.048  1.00  0.00     0.074 A 
ATOM     55  C   UNL A   1      43.396  30.126  26.751  1.00  0.00     0.031 C 
ATOM     56  C   UNL A   1      38.023  29.064  30.458  1.00  0.00     0.029 A 
ATOM     57  C   UNL A   1      38.685  30.356  30.525  1.00  0.00     0.049 A 
ATOM     58  H   UNL A   1      40.721  30.710  30.154  1.00  0.00     0.167 HD
ATOM     59  C   UNL A   1      44.701  31.456  28.507  1.00  0.00     0.034 A 
ATOM     60  C   UNL A   1      38.182  31.574  30.880  1.00  0.00     0.034 A 
ATOM     61  C   UNL A   1      44.918  31.334  29.934  1.00  0.00     0.049 A 
ATOM     62  C   UNL A   1      39.345  32.406  31.283  1.00  0.00     0.074 A 
ATOM     63  C   UNL A   1      45.467  30.362  30.748  1.00  0.00     0.029 A 
ATOM     64  N   UNL A   1      44.167  32.136  30.768  1.00  0.00    -0.354 N 
ATOM     65  N   UNL A   1      40.074  32.143  32.334  1.00  0.00    -0.248 NA
ATOM     66  C   UNL A   1      40.007  33.203  30.259  1.00  0.00     0.031 C 
ATOM     67  C   UNL A   1      44.614  30.320  31.888  1.00  0.00     0.029 A 
ATOM     68  C   UNL A   1      43.666  31.338  31.767  1.00  0.00     0.049 A 
ATOM     69  H   UNL A   1      44.016  33.103  30.666  1.00  0.00     0.167 HD
ATOM     70  C   UNL A   1      41.382  32.314  31.908  1.00  0.00     0.074 A 
ATOM     71  C   UNL A   1      41.276  33.070  30.659  1.00  0.00     0.031 C 
ATOM     72  C   UNL A   1      42.402  31.574  32.441  1.00  0.00     0.034 A 
BRANCH  59  73
ATOM     73  C   UNL A   1      44.938  32.769  27.791  1.00  0.00     0.023 A 
ATOM     74  C   UNL A   1      44.138  33.860  28.187  1.00  0.00     0.031 A 
ATOM     75  C   UNL A   1      45.655  32.942  26.587  1.00  0.00     0.131 A 
ATOM     76  C   UNL A   1      43.972  34.977  27.353  1.00  0.00     0.055 A 
ATOM     77  C   UNL A   1      45.545  34.091  25.797  1.00  0.00     0.041 A 
ATOM     78  F   UNL A   1      46.425  31.986  26.057  1.00  0.00    -0.206 F 
ATOM     79  C   UNL A   1      44.671  35.102  26.157  1.00  0.00     0.022 A 
BRANCH  76  80
ATOM     80  S   UNL A   1      42.677  36.171  27.776  1.00  0.00     0.124 S 
ATOM     81  O   UNL A   1      43.275  36.855  28.916  1.00  0.00    -0.237 OA
ATOM     82  O   UNL A   1      42.568  36.945  26.544  1.00  0.00    -0.237 OA
ATOM     83  O   UNL A   1      41.527  35.325  28.085  1.00  0.00    -0.744 OA
ENDBRANCH  76  80
ENDBRANCH  59  73
BRANCH  60  84
ATOM     84  C   UNL A   1      36.811  32.130  30.649  1.00  0.00     0.023 A 
ATOM     85  C   UNL A   1      36.008  32.671  31.684  1.00  0.00     0.031 A 
ATOM     86  C   UNL A   1      36.367  32.368  29.329  1.00  0.00     0.131 A 
ATOM     87  C   UNL A   1      34.840  33.415  31.375  1.00  0.00     0.055 A 
ATOM     88  C   UNL A   1      35.215  33.103  29.031  1.00  0.00     0.041 A 
ATOM     89  F   UNL A   1      37.088  31.973  28.268  1.00  0.00    -0.206 F 
ATOM     90  C   UNL A   1      34.453  33.641  30.053  1.00  0.00     0.022 A 
BRANCH  87  91
ATOM     91  S   UNL A   1      33.845  34.204  32.689  1.00  0.00     0.124 S 
ATOM     92  O   UNL A   1      33.240  33.056  33.352  1.00  0.00    -0.237 OA
ATOM     93  O   UNL A   1      34.848  34.942  33.449  1.00  0.00    -0.237 OA
ATOM     94  O   UNL A   1      32.906  35.047  31.946  1.00  0.00    -0.744 OA
ENDBRANCH  87  91
ENDBRANCH  60  84
BRANCH  72  95
ATOM     95  C   UNL A   1      42.146  30.779  33.708  1.00  0.00     0.023 A 
ATOM     96  C   UNL A   1      41.961  29.378  33.772  1.00  0.00     0.031 A 
ATOM     97  C   UNL A   1      42.223  31.479  34.927  1.00  0.00     0.131 A 
ATOM     98  C   UNL A   1      41.850  28.737  35.023  1.00  0.00     0.055 A 
ATOM     99  C   UNL A   1      42.143  30.837  36.161  1.00  0.00     0.041 A 
ATOM    100  F   UNL A   1      42.420  32.807  34.937  1.00  0.00    -0.206 F 
ATOM    101  C   UNL A   1      41.949  29.463  36.214  1.00  0.00     0.022 A 
BRANCH  98 102
ATOM    102  S   UNL A   1      41.549  26.942  35.129  1.00  0.00     0.124 S 
ATOM    103  O   UNL A   1      40.476  26.717  34.167  1.00  0.00    -0.237 OA
ATOM    104  O   UNL A   1      42.850  26.380  34.778  1.00  0.00    -0.237 OA
ATOM    105  O   UNL A   1      41.160  26.745  36.527  1.00  0.00    -0.744 OA
ENDBRANCH  98 102
ENDBRANCH  72  95
ENDBRANCH  46  47
ENDBRANCH  38  41
ENDBRANCH  36  37
ENDBRANCH  35  36
ENDBRANCH   1  35
TORSDOF 18
ENDMDL
