MODEL 1
REMARK VINA RESULT:     -13.0      0.000      0.000
REMARK SMILES C/C(=N\Nc1nc(-c2ccc(Cl)cc2)cs1)c1nnn(-c2ccc(C(=O)NCCCCNC(=O)c3ccc(-c4c5nc(c(-c6cc(S(=O)(=O)[O-])ccc6F)c6ccc([nH]6)c(-c6cc(S(=O)(=O)[O-])ccc6F)c6nc(c(-c7cc(S(=O)(=O)[O-])ccc7F)c7ccc4[nH]7)C=C6)C=C5)cc3)cc2)c1C
REMARK SMILES IDX 28 1 27 2 25 3 26 4 24 6 21 7 22 8 99 9 23 10 98 11 20 12
REMARK SMILES IDX 17 13 18 14 100 15 19 16 101 17 2 18 1 19 3 20 4 21 5 23
REMARK SMILES IDX 6 24 16 25 7 26 15 27 8 28 9 29 14 30 10 31 13 32 11 33
REMARK SMILES IDX 12 34 29 35 30 36 31 37 32 38 33 39 34 41 35 42 36 43 97 44
REMARK SMILES IDX 37 45 96 46 38 47 39 48 40 49 90 50 41 51 95 52 89 53 91 54
REMARK SMILES IDX 42 55 94 56 88 57 87 58 43 60 75 61 55 62 74 63 56 64 59 65
REMARK SMILES IDX 73 66 92 67 57 68 58 69 72 71 93 72 60 73 44 74 45 75 53 76
REMARK SMILES IDX 46 77 52 78 54 79 51 80 47 81 48 82 49 83 50 84 76 85 77 86
REMARK SMILES IDX 85 87 78 88 84 89 86 90 83 91 79 92 80 93 81 94 82 95 61 96
REMARK SMILES IDX 62 97 70 98 63 99 69 100 71 101 68 102 64 103 65 104 66 105
REMARK SMILES IDX 67 106
REMARK H PARENT 27 5 4 22 32 40 91 59 59 70
REMARK Flexibility Score: inf
ROOT
ATOM      1  C   UNL A   1      36.284  34.268  32.656  1.00  0.00     0.116 C 
ENDROOT
BRANCH   1   2
ATOM      2  N   UNL A   1      37.432  34.516  31.799  1.00  0.00    -0.352 N 
ATOM      3  C   UNL A   1      37.675  34.300  30.463  1.00  0.00     0.251 C 
ATOM      4  O   UNL A   1      38.762  34.664  30.014  1.00  0.00    -0.269 OA
ATOM      5  H   UNL A   1      38.193  34.922  32.272  1.00  0.00     0.163 HD
BRANCH   3   6
ATOM      6  C   UNL A   1      36.682  33.697  29.525  1.00  0.00     0.039 A 
ATOM      7  C   UNL A   1      34.641  32.536  28.003  1.00  0.00     0.067 A 
ATOM      8  C   UNL A   1      34.389  33.738  28.660  1.00  0.00     0.029 A 
ATOM      9  C   UNL A   1      35.920  31.977  28.001  1.00  0.00     0.029 A 
ATOM     10  C   UNL A   1      35.409  34.300  29.439  1.00  0.00     0.016 A 
ATOM     11  C   UNL A   1      36.941  32.581  28.729  1.00  0.00     0.016 A 
BRANCH   7  12
ATOM     12  N   UNL A   1      33.580  31.785  27.471  1.00  0.00    -0.217 N 
ATOM     13  C   UNL A   1      32.318  30.179  26.724  1.00  0.00     0.132 A 
ATOM     14  N   UNL A   1      31.601  31.346  26.709  1.00  0.00    -0.128 NA
ATOM     15  C   UNL A   1      33.594  30.432  27.202  1.00  0.00     0.071 A 
ATOM     16  N   UNL A   1      32.352  32.300  27.253  1.00  0.00    -0.061 NA
ATOM     17  C   UNL A   1      34.716  29.518  27.551  1.00  0.00     0.069 C 
BRANCH  13  18
ATOM     18  C   UNL A   1      31.769  28.865  26.418  1.00  0.00     0.087 C 
ATOM     19  C   UNL A   1      31.521  27.983  27.618  1.00  0.00     0.071 C 
ATOM     20  N   UNL A   1      31.621  28.582  25.152  1.00  0.00    -0.176 NA
BRANCH  20  21
ATOM     21  N   UNL A   1      31.269  27.334  24.688  1.00  0.00    -0.252 N 
ATOM     22  H   UNL A   1      30.325  27.096  24.834  1.00  0.00     0.193 HD
BRANCH  21  23
ATOM     23  C   UNL A   1      32.003  26.379  24.062  1.00  0.00     0.203 A 
ATOM     24  N   UNL A   1      32.756  25.475  24.642  1.00  0.00    -0.219 NA
ATOM     25  S   UNL A   1      32.078  26.337  22.335  1.00  0.00    -0.103 S 
ATOM     26  C   UNL A   1      33.668  24.958  23.744  1.00  0.00     0.084 A 
ATOM     27  C   UNL A   1      33.457  25.314  22.430  1.00  0.00     0.097 A 
BRANCH  26  28
ATOM     28  C   UNL A   1      34.788  24.170  24.229  1.00  0.00     0.001 A 
ATOM     29  C   UNL A   1      35.277  24.399  25.521  1.00  0.00     0.012 A 
ATOM     30  C   UNL A   1      35.454  23.264  23.391  1.00  0.00     0.012 A 
ATOM     31  C   UNL A   1      36.399  23.708  25.986  1.00  0.00     0.021 A 
ATOM     32  C   UNL A   1      36.584  22.581  23.853  1.00  0.00     0.021 A 
ATOM     33  C   UNL A   1      37.047  22.800  25.150  1.00  0.00     0.041 A 
ATOM     34  Cl  UNL A   1      38.431  21.955  25.722  1.00  0.00    -0.084 Cl
ENDBRANCH  26  28
ENDBRANCH  21  23
ENDBRANCH  20  21
ENDBRANCH  13  18
ENDBRANCH   7  12
ENDBRANCH   3   6
ENDBRANCH   1   2
BRANCH   1  35
ATOM     35  C   UNL A   1      36.301  32.842  33.225  1.00  0.00     0.023 C 
BRANCH  35  36
ATOM     36  C   UNL A   1      37.694  32.247  33.472  1.00  0.00     0.023 C 
BRANCH  36  37
ATOM     37  C   UNL A   1      38.012  30.996  32.661  1.00  0.00     0.116 C 
BRANCH  37  38
ATOM     38  N   UNL A   1      36.813  30.294  32.203  1.00  0.00    -0.352 N 
ATOM     39  C   UNL A   1      36.647  29.567  31.035  1.00  0.00     0.251 C 
ATOM     40  H   UNL A   1      36.029  30.346  32.796  1.00  0.00     0.163 HD
ATOM     41  O   UNL A   1      35.535  29.390  30.566  1.00  0.00    -0.269 OA
BRANCH  39  42
ATOM     42  C   UNL A   1      37.846  29.003  30.386  1.00  0.00     0.039 A 
ATOM     43  C   UNL A   1      38.309  29.483  29.158  1.00  0.00     0.014 A 
ATOM     44  C   UNL A   1      38.532  27.999  31.064  1.00  0.00     0.014 A 
ATOM     45  C   UNL A   1      39.527  29.009  28.669  1.00  0.00     0.010 A 
ATOM     46  C   UNL A   1      39.791  27.635  30.652  1.00  0.00     0.010 A 
ATOM     47  C   UNL A   1      40.277  28.102  29.435  1.00  0.00    -0.014 A 
BRANCH  47  48
ATOM     48  C   UNL A   1      41.641  27.736  29.053  1.00  0.00     0.031 A 
ATOM     49  C   UNL A   1      41.744  26.493  28.240  1.00  0.00     0.074 A 
ATOM     50  C   UNL A   1      42.701  28.558  29.210  1.00  0.00     0.049 A 
ATOM     51  N   UNL A   1      42.255  25.364  28.600  1.00  0.00    -0.248 NA
ATOM     52  C   UNL A   1      41.077  26.444  26.928  1.00  0.00     0.031 C 
ATOM     53  C   UNL A   1      42.714  29.930  29.728  1.00  0.00     0.029 A 
ATOM     54  N   UNL A   1      43.994  28.380  28.820  1.00  0.00    -0.354 N 
ATOM     55  C   UNL A   1      42.201  24.537  27.482  1.00  0.00     0.074 A 
ATOM     56  C   UNL A   1      41.289  25.175  26.569  1.00  0.00     0.031 C 
ATOM     57  C   UNL A   1      43.878  30.532  29.393  1.00  0.00     0.029 A 
ATOM     58  C   UNL A   1      44.757  29.546  28.789  1.00  0.00     0.049 A 
ATOM     59  H   UNL A   1      44.360  27.498  28.580  1.00  0.00     0.167 HD
ATOM     60  C   UNL A   1      43.096  23.524  27.312  1.00  0.00     0.034 A 
ATOM     61  C   UNL A   1      46.011  29.701  28.281  1.00  0.00     0.034 A 
ATOM     62  C   UNL A   1      43.821  23.267  28.538  1.00  0.00     0.049 A 
ATOM     63  C   UNL A   1      46.634  28.355  28.284  1.00  0.00     0.074 A 
ATOM     64  C   UNL A   1      43.455  22.921  29.825  1.00  0.00     0.029 A 
ATOM     65  N   UNL A   1      45.104  23.762  28.643  1.00  0.00    -0.354 N 
ATOM     66  N   UNL A   1      46.890  27.692  29.380  1.00  0.00    -0.248 NA
ATOM     67  C   UNL A   1      46.507  27.537  27.087  1.00  0.00     0.031 C 
ATOM     68  C   UNL A   1      44.299  23.707  30.665  1.00  0.00     0.029 A 
ATOM     69  C   UNL A   1      45.199  24.404  29.854  1.00  0.00     0.049 A 
ATOM     70  H   UNL A   1      45.820  23.672  27.972  1.00  0.00     0.167 HD
ATOM     71  C   UNL A   1      46.497  26.391  29.110  1.00  0.00     0.074 A 
ATOM     72  C   UNL A   1      46.369  26.334  27.652  1.00  0.00     0.031 C 
ATOM     73  C   UNL A   1      46.032  25.568  30.098  1.00  0.00     0.034 A 
BRANCH  60  74
ATOM     74  C   UNL A   1      43.585  22.993  25.984  1.00  0.00     0.023 A 
ATOM     75  C   UNL A   1      43.561  21.597  25.796  1.00  0.00     0.031 A 
ATOM     76  C   UNL A   1      44.321  23.728  25.028  1.00  0.00     0.131 A 
ATOM     77  C   UNL A   1      44.314  20.989  24.776  1.00  0.00     0.055 A 
ATOM     78  C   UNL A   1      45.010  23.125  23.972  1.00  0.00     0.041 A 
ATOM     79  F   UNL A   1      44.500  25.051  25.117  1.00  0.00    -0.206 F 
ATOM     80  C   UNL A   1      45.036  21.746  23.858  1.00  0.00     0.022 A 
BRANCH  77  81
ATOM     81  S   UNL A   1      44.475  19.185  24.783  1.00  0.00     0.124 S 
ATOM     82  O   UNL A   1      44.584  18.895  23.358  1.00  0.00    -0.237 OA
ATOM     83  O   UNL A   1      45.686  18.995  25.574  1.00  0.00    -0.237 OA
ATOM     84  O   UNL A   1      43.239  18.736  25.419  1.00  0.00    -0.744 OA
ENDBRANCH  77  81
ENDBRANCH  60  74
BRANCH  61  85
ATOM     85  C   UNL A   1      46.543  30.861  27.506  1.00  0.00     0.023 A 
ATOM     86  C   UNL A   1      45.709  31.829  26.901  1.00  0.00     0.031 A 
ATOM     87  C   UNL A   1      47.921  31.172  27.570  1.00  0.00     0.131 A 
ATOM     88  C   UNL A   1      46.257  33.039  26.405  1.00  0.00     0.055 A 
ATOM     89  C   UNL A   1      48.455  32.367  27.080  1.00  0.00     0.041 A 
ATOM     90  F   UNL A   1      48.790  30.361  28.192  1.00  0.00    -0.206 F 
ATOM     91  C   UNL A   1      47.623  33.312  26.506  1.00  0.00     0.022 A 
BRANCH  88  92
ATOM     92  S   UNL A   1      45.180  34.336  25.705  1.00  0.00     0.124 S 
ATOM     93  O   UNL A   1      44.035  34.306  26.610  1.00  0.00    -0.237 OA
ATOM     94  O   UNL A   1      46.028  35.520  25.769  1.00  0.00    -0.237 OA
ATOM     95  O   UNL A   1      44.903  33.855  24.350  1.00  0.00    -0.744 OA
ENDBRANCH  88  92
ENDBRANCH  61  85
BRANCH  73  96
ATOM     96  C   UNL A   1      46.220  25.991  31.546  1.00  0.00     0.023 A 
ATOM     97  C   UNL A   1      45.203  26.496  32.389  1.00  0.00     0.031 A 
ATOM     98  C   UNL A   1      47.483  25.762  32.122  1.00  0.00     0.131 A 
ATOM     99  C   UNL A   1      45.477  26.766  33.747  1.00  0.00     0.055 A 
ATOM    100  C   UNL A   1      47.743  26.005  33.469  1.00  0.00     0.041 A 
ATOM    101  F   UNL A   1      48.488  25.261  31.384  1.00  0.00    -0.206 F 
ATOM    102  C   UNL A   1      46.742  26.516  34.286  1.00  0.00     0.022 A 
BRANCH  99 103
ATOM    103  S   UNL A   1      44.202  27.483  34.836  1.00  0.00     0.124 S 
ATOM    104  O   UNL A   1      44.673  28.842  35.073  1.00  0.00    -0.237 OA
ATOM    105  O   UNL A   1      42.990  27.359  34.030  1.00  0.00    -0.237 OA
ATOM    106  O   UNL A   1      44.235  26.613  36.015  1.00  0.00    -0.744 OA
ENDBRANCH  99 103
ENDBRANCH  73  96
ENDBRANCH  47  48
ENDBRANCH  39  42
ENDBRANCH  37  38
ENDBRANCH  36  37
ENDBRANCH  35  36
ENDBRANCH   1  35
TORSDOF 19
ENDMDL
MODEL 2
REMARK VINA RESULT:     -11.3      3.766      8.397
REMARK SMILES C/C(=N\Nc1nc(-c2ccc(Cl)cc2)cs1)c1nnn(-c2ccc(C(=O)NCCCCNC(=O)c3ccc(-c4c5nc(c(-c6cc(S(=O)(=O)[O-])ccc6F)c6ccc([nH]6)c(-c6cc(S(=O)(=O)[O-])ccc6F)c6nc(c(-c7cc(S(=O)(=O)[O-])ccc7F)c7ccc4[nH]7)C=C6)C=C5)cc3)cc2)c1C
REMARK SMILES IDX 28 1 27 2 25 3 26 4 24 6 21 7 22 8 99 9 23 10 98 11 20 12
REMARK SMILES IDX 17 13 18 14 100 15 19 16 101 17 2 18 1 19 3 20 4 21 5 23
REMARK SMILES IDX 6 24 16 25 7 26 15 27 8 28 9 29 14 30 10 31 13 32 11 33
REMARK SMILES IDX 12 34 29 35 30 36 31 37 32 38 33 39 34 41 35 42 36 43 97 44
REMARK SMILES IDX 37 45 96 46 38 47 39 48 40 49 90 50 41 51 95 52 89 53 91 54
REMARK SMILES IDX 42 55 94 56 88 57 87 58 43 60 75 61 55 62 74 63 56 64 59 65
REMARK SMILES IDX 73 66 92 67 57 68 58 69 72 71 93 72 60 73 44 74 45 75 53 76
REMARK SMILES IDX 46 77 52 78 54 79 51 80 47 81 48 82 49 83 50 84 76 85 77 86
REMARK SMILES IDX 85 87 78 88 84 89 86 90 83 91 79 92 80 93 81 94 82 95 61 96
REMARK SMILES IDX 62 97 70 98 63 99 69 100 71 101 68 102 64 103 65 104 66 105
REMARK SMILES IDX 67 106
REMARK H PARENT 27 5 4 22 32 40 91 59 59 70
REMARK Flexibility Score: inf
ROOT
ATOM      1  C   UNL A   1      36.657  32.651  33.316  1.00  0.00     0.116 C 
ENDROOT
BRANCH   1   2
ATOM      2  N   UNL A   1      37.816  33.312  32.740  1.00  0.00    -0.352 N 
ATOM      3  C   UNL A   1      39.168  33.077  32.813  1.00  0.00     0.251 C 
ATOM      4  O   UNL A   1      39.912  33.812  32.162  1.00  0.00    -0.269 OA
ATOM      5  H   UNL A   1      37.585  34.090  32.182  1.00  0.00     0.163 HD
BRANCH   3   6
ATOM      6  C   UNL A   1      39.776  31.958  33.593  1.00  0.00     0.039 A 
ATOM      7  C   UNL A   1      41.129  30.056  35.135  1.00  0.00     0.067 A 
ATOM      8  C   UNL A   1      40.627  31.194  35.760  1.00  0.00     0.029 A 
ATOM      9  C   UNL A   1      40.864  29.805  33.787  1.00  0.00     0.029 A 
ATOM     10  C   UNL A   1      39.971  32.153  34.977  1.00  0.00     0.016 A 
ATOM     11  C   UNL A   1      40.157  30.738  33.035  1.00  0.00     0.016 A 
BRANCH   7  12
ATOM     12  N   UNL A   1      42.046  29.228  35.804  1.00  0.00    -0.217 N 
ATOM     13  C   UNL A   1      43.852  28.338  36.627  1.00  0.00     0.132 A 
ATOM     14  N   UNL A   1      42.770  27.616  37.056  1.00  0.00    -0.128 NA
ATOM     15  C   UNL A   1      43.418  29.375  35.817  1.00  0.00     0.071 A 
ATOM     16  N   UNL A   1      41.669  28.223  36.621  1.00  0.00    -0.061 NA
ATOM     17  C   UNL A   1      44.145  30.524  35.211  1.00  0.00     0.069 C 
BRANCH  13  18
ATOM     18  C   UNL A   1      45.221  28.124  37.076  1.00  0.00     0.087 C 
ATOM     19  C   UNL A   1      45.419  28.189  38.571  1.00  0.00     0.071 C 
ATOM     20  N   UNL A   1      46.118  27.972  36.139  1.00  0.00    -0.176 NA
BRANCH  20  21
ATOM     21  N   UNL A   1      47.472  27.921  36.383  1.00  0.00    -0.252 N 
ATOM     22  H   UNL A   1      47.752  28.356  37.221  1.00  0.00     0.193 HD
BRANCH  21  23
ATOM     23  C   UNL A   1      48.485  27.371  35.666  1.00  0.00     0.203 A 
ATOM     24  N   UNL A   1      48.782  27.634  34.416  1.00  0.00    -0.219 NA
ATOM     25  S   UNL A   1      49.468  26.132  36.365  1.00  0.00    -0.103 S 
ATOM     26  C   UNL A   1      49.560  26.627  33.883  1.00  0.00     0.084 A 
ATOM     27  C   UNL A   1      50.034  25.711  34.797  1.00  0.00     0.097 A 
BRANCH  26  28
ATOM     28  C   UNL A   1      49.759  26.555  32.446  1.00  0.00     0.001 A 
ATOM     29  C   UNL A   1      49.667  25.314  31.804  1.00  0.00     0.012 A 
ATOM     30  C   UNL A   1      50.146  27.683  31.709  1.00  0.00     0.012 A 
ATOM     31  C   UNL A   1      49.927  25.203  30.435  1.00  0.00     0.021 A 
ATOM     32  C   UNL A   1      50.417  27.571  30.341  1.00  0.00     0.021 A 
ATOM     33  C   UNL A   1      50.298  26.333  29.710  1.00  0.00     0.041 A 
ATOM     34  Cl  UNL A   1      50.623  26.195  28.026  1.00  0.00    -0.084 Cl
ENDBRANCH  26  28
ENDBRANCH  21  23
ENDBRANCH  20  21
ENDBRANCH  13  18
ENDBRANCH   7  12
ENDBRANCH   3   6
ENDBRANCH   1   2
BRANCH   1  35
ATOM     35  C   UNL A   1      36.245  31.418  32.500  1.00  0.00     0.023 C 
BRANCH  35  36
ATOM     36  C   UNL A   1      35.538  31.714  31.170  1.00  0.00     0.023 C 
BRANCH  36  37
ATOM     37  C   UNL A   1      36.361  31.412  29.923  1.00  0.00     0.116 C 
BRANCH  37  38
ATOM     38  N   UNL A   1      35.759  30.381  29.078  1.00  0.00    -0.352 N 
ATOM     39  C   UNL A   1      36.404  29.465  28.262  1.00  0.00     0.251 C 
ATOM     40  H   UNL A   1      34.775  30.333  29.090  1.00  0.00     0.163 HD
ATOM     41  O   UNL A   1      35.823  28.957  27.318  1.00  0.00    -0.269 OA
BRANCH  39  42
ATOM     42  C   UNL A   1      37.802  29.114  28.574  1.00  0.00     0.039 A 
ATOM     43  C   UNL A   1      38.132  28.334  29.686  1.00  0.00     0.014 A 
ATOM     44  C   UNL A   1      38.787  29.551  27.692  1.00  0.00     0.014 A 
ATOM     45  C   UNL A   1      39.454  27.917  29.844  1.00  0.00     0.010 A 
ATOM     46  C   UNL A   1      40.054  29.030  27.772  1.00  0.00     0.010 A 
ATOM     47  C   UNL A   1      40.408  28.247  28.867  1.00  0.00    -0.014 A 
BRANCH  47  48
ATOM     48  C   UNL A   1      41.750  27.666  28.893  1.00  0.00     0.031 A 
ATOM     49  C   UNL A   1      41.976  26.583  27.898  1.00  0.00     0.074 A 
ATOM     50  C   UNL A   1      42.778  28.206  29.584  1.00  0.00     0.049 A 
ATOM     51  N   UNL A   1      42.152  25.327  28.137  1.00  0.00    -0.248 NA
ATOM     52  C   UNL A   1      41.847  26.895  26.465  1.00  0.00     0.031 C 
ATOM     53  C   UNL A   1      42.788  29.438  30.379  1.00  0.00     0.029 A 
ATOM     54  N   UNL A   1      44.085  27.823  29.622  1.00  0.00    -0.354 N 
ATOM     55  C   UNL A   1      42.405  24.728  26.906  1.00  0.00     0.074 A 
ATOM     56  C   UNL A   1      41.999  25.687  25.914  1.00  0.00     0.031 C 
ATOM     57  C   UNL A   1      44.064  29.825  30.604  1.00  0.00     0.029 A 
ATOM     58  C   UNL A   1      44.958  28.788  30.120  1.00  0.00     0.049 A 
ATOM     59  H   UNL A   1      44.388  26.935  29.321  1.00  0.00     0.167 HD
ATOM     60  C   UNL A   1      43.149  23.589  26.818  1.00  0.00     0.034 A 
ATOM     61  C   UNL A   1      46.320  28.754  30.114  1.00  0.00     0.034 A 
ATOM     62  C   UNL A   1      43.321  22.984  28.121  1.00  0.00     0.049 A 
ATOM     63  C   UNL A   1      46.703  27.324  30.015  1.00  0.00     0.074 A 
ATOM     64  C   UNL A   1      42.456  22.516  29.092  1.00  0.00     0.029 A 
ATOM     65  N   UNL A   1      44.527  23.170  28.763  1.00  0.00    -0.354 N 
ATOM     66  N   UNL A   1      46.437  26.450  30.948  1.00  0.00    -0.248 NA
ATOM     67  C   UNL A   1      46.920  26.762  28.690  1.00  0.00     0.031 C 
ATOM     68  C   UNL A   1      43.026  22.953  30.326  1.00  0.00     0.029 A 
ATOM     69  C   UNL A   1      44.251  23.566  30.049  1.00  0.00     0.049 A 
ATOM     70  H   UNL A   1      45.421  23.041  28.371  1.00  0.00     0.167 HD
ATOM     71  C   UNL A   1      45.996  25.326  30.267  1.00  0.00     0.074 A 
ATOM     72  C   UNL A   1      46.415  25.540  28.880  1.00  0.00     0.031 C 
ATOM     73  C   UNL A   1      45.086  24.469  30.822  1.00  0.00     0.034 A 
BRANCH  60  74
ATOM     74  C   UNL A   1      44.020  23.193  25.647  1.00  0.00     0.023 A 
ATOM     75  C   UNL A   1      43.968  21.850  25.227  1.00  0.00     0.031 A 
ATOM     76  C   UNL A   1      45.080  23.962  25.118  1.00  0.00     0.131 A 
ATOM     77  C   UNL A   1      44.978  21.305  24.415  1.00  0.00     0.055 A 
ATOM     78  C   UNL A   1      46.043  23.435  24.253  1.00  0.00     0.041 A 
ATOM     79  F   UNL A   1      45.306  25.230  25.483  1.00  0.00    -0.206 F 
ATOM     80  C   UNL A   1      46.015  22.091  23.920  1.00  0.00     0.022 A 
BRANCH  77  81
ATOM     81  S   UNL A   1      45.009  19.511  24.166  1.00  0.00     0.124 S 
ATOM     82  O   UNL A   1      44.100  19.054  25.211  1.00  0.00    -0.237 OA
ATOM     83  O   UNL A   1      44.528  19.389  22.794  1.00  0.00    -0.237 OA
ATOM     84  O   UNL A   1      46.415  19.165  24.366  1.00  0.00    -0.744 OA
ENDBRANCH  77  81
ENDBRANCH  60  74
BRANCH  61  85
ATOM     85  C   UNL A   1      47.259  29.885  29.855  1.00  0.00     0.023 A 
ATOM     86  C   UNL A   1      47.336  30.551  28.609  1.00  0.00     0.031 A 
ATOM     87  C   UNL A   1      47.928  30.501  30.937  1.00  0.00     0.131 A 
ATOM     88  C   UNL A   1      48.046  31.771  28.491  1.00  0.00     0.055 A 
ATOM     89  C   UNL A   1      48.626  31.706  30.815  1.00  0.00     0.041 A 
ATOM     90  F   UNL A   1      47.855  29.998  32.179  1.00  0.00    -0.206 F 
ATOM     91  C   UNL A   1      48.677  32.354  29.592  1.00  0.00     0.022 A 
BRANCH  88  92
ATOM     92  S   UNL A   1      48.076  32.687  26.912  1.00  0.00     0.124 S 
ATOM     93  O   UNL A   1      47.774  34.049  27.341  1.00  0.00    -0.237 OA
ATOM     94  O   UNL A   1      49.429  32.442  26.430  1.00  0.00    -0.237 OA
ATOM     95  O   UNL A   1      47.021  32.045  26.126  1.00  0.00    -0.744 OA
ENDBRANCH  88  92
ENDBRANCH  61  85
BRANCH  73  96
ATOM     96  C   UNL A   1      44.776  24.596  32.304  1.00  0.00     0.023 A 
ATOM     97  C   UNL A   1      45.404  23.862  33.338  1.00  0.00     0.031 A 
ATOM     98  C   UNL A   1      43.868  25.601  32.686  1.00  0.00     0.131 A 
ATOM     99  C   UNL A   1      45.099  24.135  34.688  1.00  0.00     0.055 A 
ATOM    100  C   UNL A   1      43.589  25.886  34.021  1.00  0.00     0.041 A 
ATOM    101  F   UNL A   1      43.254  26.352  31.757  1.00  0.00    -0.206 F 
ATOM    102  C   UNL A   1      44.197  25.149  35.028  1.00  0.00     0.022 A 
BRANCH  99 103
ATOM    103  S   UNL A   1      45.842  23.155  36.035  1.00  0.00     0.124 S 
ATOM    104  O   UNL A   1      45.276  21.825  35.847  1.00  0.00    -0.237 OA
ATOM    105  O   UNL A   1      47.272  23.284  35.768  1.00  0.00    -0.237 OA
ATOM    106  O   UNL A   1      45.389  23.844  37.245  1.00  0.00    -0.744 OA
ENDBRANCH  99 103
ENDBRANCH  73  96
ENDBRANCH  47  48
ENDBRANCH  39  42
ENDBRANCH  37  38
ENDBRANCH  36  37
ENDBRANCH  35  36
ENDBRANCH   1  35
TORSDOF 19
ENDMDL
MODEL 3
REMARK VINA RESULT:     -11.2      5.248     11.274
REMARK SMILES C/C(=N\Nc1nc(-c2ccc(Cl)cc2)cs1)c1nnn(-c2ccc(C(=O)NCCCCNC(=O)c3ccc(-c4c5nc(c(-c6cc(S(=O)(=O)[O-])ccc6F)c6ccc([nH]6)c(-c6cc(S(=O)(=O)[O-])ccc6F)c6nc(c(-c7cc(S(=O)(=O)[O-])ccc7F)c7ccc4[nH]7)C=C6)C=C5)cc3)cc2)c1C
REMARK SMILES IDX 28 1 27 2 25 3 26 4 24 6 21 7 22 8 99 9 23 10 98 11 20 12
REMARK SMILES IDX 17 13 18 14 100 15 19 16 101 17 2 18 1 19 3 20 4 21 5 23
REMARK SMILES IDX 6 24 16 25 7 26 15 27 8 28 9 29 14 30 10 31 13 32 11 33
REMARK SMILES IDX 12 34 29 35 30 36 31 37 32 38 33 39 34 41 35 42 36 43 97 44
REMARK SMILES IDX 37 45 96 46 38 47 39 48 40 49 90 50 41 51 95 52 89 53 91 54
REMARK SMILES IDX 42 55 94 56 88 57 87 58 43 60 75 61 55 62 74 63 56 64 59 65
REMARK SMILES IDX 73 66 92 67 57 68 58 69 72 71 93 72 60 73 44 74 45 75 53 76
REMARK SMILES IDX 46 77 52 78 54 79 51 80 47 81 48 82 49 83 50 84 76 85 77 86
REMARK SMILES IDX 85 87 78 88 84 89 86 90 83 91 79 92 80 93 81 94 82 95 61 96
REMARK SMILES IDX 62 97 70 98 63 99 69 100 71 101 68 102 64 103 65 104 66 105
REMARK SMILES IDX 67 106
REMARK H PARENT 27 5 4 22 32 40 91 59 59 70
REMARK Flexibility Score: inf
ROOT
ATOM      1  C   UNL A   1      41.223  40.566  29.090  1.00  0.00     0.116 C 
ENDROOT
BRANCH   1   2
ATOM      2  N   UNL A   1      41.905  41.027  27.891  1.00  0.00    -0.352 N 
ATOM      3  C   UNL A   1      42.637  40.387  26.918  1.00  0.00     0.251 C 
ATOM      4  O   UNL A   1      43.062  41.068  25.984  1.00  0.00    -0.269 OA
ATOM      5  H   UNL A   1      41.827  41.997  27.745  1.00  0.00     0.163 HD
BRANCH   3   6
ATOM      6  C   UNL A   1      42.900  38.918  26.908  1.00  0.00     0.039 A 
ATOM      7  C   UNL A   1      43.545  36.209  26.633  1.00  0.00     0.067 A 
ATOM      8  C   UNL A   1      44.576  37.135  26.773  1.00  0.00     0.029 A 
ATOM      9  C   UNL A   1      42.211  36.603  26.746  1.00  0.00     0.029 A 
ATOM     10  C   UNL A   1      44.245  38.492  26.886  1.00  0.00     0.016 A 
ATOM     11  C   UNL A   1      41.898  37.947  26.921  1.00  0.00     0.016 A 
BRANCH   7  12
ATOM     12  N   UNL A   1      43.825  34.898  26.214  1.00  0.00    -0.217 N 
ATOM     13  C   UNL A   1      44.410  32.805  26.132  1.00  0.00     0.132 A 
ATOM     14  N   UNL A   1      43.940  33.180  24.901  1.00  0.00    -0.128 NA
ATOM     15  C   UNL A   1      44.353  33.889  26.993  1.00  0.00     0.071 A 
ATOM     16  N   UNL A   1      43.502  34.433  24.990  1.00  0.00    -0.061 NA
ATOM     17  C   UNL A   1      44.602  34.001  28.456  1.00  0.00     0.069 C 
BRANCH  13  18
ATOM     18  C   UNL A   1      44.772  31.443  26.501  1.00  0.00     0.087 C 
ATOM     19  C   UNL A   1      44.107  30.924  27.753  1.00  0.00     0.071 C 
ATOM     20  N   UNL A   1      45.670  30.862  25.753  1.00  0.00    -0.176 NA
BRANCH  20  21
ATOM     21  N   UNL A   1      46.239  29.645  26.054  1.00  0.00    -0.252 N 
ATOM     22  H   UNL A   1      47.098  29.703  26.533  1.00  0.00     0.193 HD
BRANCH  21  23
ATOM     23  C   UNL A   1      45.816  28.380  25.804  1.00  0.00     0.203 A 
ATOM     24  N   UNL A   1      44.573  27.995  25.645  1.00  0.00    -0.219 NA
ATOM     25  S   UNL A   1      46.954  27.078  25.763  1.00  0.00    -0.103 S 
ATOM     26  C   UNL A   1      44.462  26.631  25.832  1.00  0.00     0.084 A 
ATOM     27  C   UNL A   1      45.660  25.956  25.913  1.00  0.00     0.097 A 
BRANCH  26  28
ATOM     28  C   UNL A   1      43.150  26.032  26.001  1.00  0.00     0.001 A 
ATOM     29  C   UNL A   1      42.040  26.861  26.202  1.00  0.00     0.012 A 
ATOM     30  C   UNL A   1      42.991  24.641  26.073  1.00  0.00     0.012 A 
ATOM     31  C   UNL A   1      40.778  26.310  26.441  1.00  0.00     0.021 A 
ATOM     32  C   UNL A   1      41.730  24.089  26.323  1.00  0.00     0.021 A 
ATOM     33  C   UNL A   1      40.629  24.926  26.499  1.00  0.00     0.041 A 
ATOM     34  Cl  UNL A   1      39.076  24.249  26.799  1.00  0.00    -0.084 Cl
ENDBRANCH  26  28
ENDBRANCH  21  23
ENDBRANCH  20  21
ENDBRANCH  13  18
ENDBRANCH   7  12
ENDBRANCH   3   6
ENDBRANCH   1   2
BRANCH   1  35
ATOM     35  C   UNL A   1      42.034  40.877  30.356  1.00  0.00     0.023 C 
BRANCH  35  36
ATOM     36  C   UNL A   1      43.352  40.105  30.501  1.00  0.00     0.023 C 
BRANCH  36  37
ATOM     37  C   UNL A   1      43.828  39.908  31.935  1.00  0.00     0.116 C 
BRANCH  37  38
ATOM     38  N   UNL A   1      45.251  39.578  32.024  1.00  0.00    -0.352 N 
ATOM     39  C   UNL A   1      45.843  38.548  32.736  1.00  0.00     0.251 C 
ATOM     40  H   UNL A   1      45.862  40.160  31.515  1.00  0.00     0.163 HD
ATOM     41  O   UNL A   1      47.013  38.616  33.072  1.00  0.00    -0.269 OA
BRANCH  39  42
ATOM     42  C   UNL A   1      45.025  37.365  33.065  1.00  0.00     0.039 A 
ATOM     43  C   UNL A   1      44.024  37.412  34.039  1.00  0.00     0.014 A 
ATOM     44  C   UNL A   1      45.254  36.201  32.334  1.00  0.00     0.014 A 
ATOM     45  C   UNL A   1      43.192  36.304  34.199  1.00  0.00     0.010 A 
ATOM     46  C   UNL A   1      44.353  35.168  32.397  1.00  0.00     0.010 A 
ATOM     47  C   UNL A   1      43.344  35.192  33.356  1.00  0.00    -0.014 A 
BRANCH  47  48
ATOM     48  C   UNL A   1      42.372  34.100  33.359  1.00  0.00     0.031 A 
ATOM     49  C   UNL A   1      41.322  34.201  32.309  1.00  0.00     0.074 A 
ATOM     50  C   UNL A   1      42.527  32.970  34.084  1.00  0.00     0.049 A 
ATOM     51  N   UNL A   1      40.064  34.431  32.481  1.00  0.00    -0.248 NA
ATOM     52  C   UNL A   1      41.729  34.193  30.893  1.00  0.00     0.031 C 
ATOM     53  C   UNL A   1      43.655  32.594  34.943  1.00  0.00     0.029 A 
ATOM     54  N   UNL A   1      41.753  31.850  34.110  1.00  0.00    -0.354 N 
ATOM     55  C   UNL A   1      39.477  34.351  31.222  1.00  0.00     0.074 A 
ATOM     56  C   UNL A   1      40.563  34.414  30.280  1.00  0.00     0.031 C 
ATOM     57  C   UNL A   1      43.610  31.266  35.197  1.00  0.00     0.029 A 
ATOM     58  C   UNL A   1      42.371  30.730  34.664  1.00  0.00     0.049 A 
ATOM     59  H   UNL A   1      40.831  31.833  33.764  1.00  0.00     0.167 HD
ATOM     60  C   UNL A   1      38.168  33.998  31.078  1.00  0.00     0.034 A 
ATOM     61  C   UNL A   1      41.912  29.448  34.665  1.00  0.00     0.034 A 
ATOM     62  C   UNL A   1      37.477  34.054  32.348  1.00  0.00     0.049 A 
ATOM     63  C   UNL A   1      40.441  29.529  34.492  1.00  0.00     0.074 A 
ATOM     64  C   UNL A   1      37.257  35.043  33.287  1.00  0.00     0.029 A 
ATOM     65  N   UNL A   1      37.244  32.865  33.006  1.00  0.00    -0.354 N 
ATOM     66  N   UNL A   1      39.650  30.076  35.375  1.00  0.00    -0.248 NA
ATOM     67  C   UNL A   1      39.905  29.468  33.140  1.00  0.00     0.031 C 
ATOM     68  C   UNL A   1      37.433  34.394  34.545  1.00  0.00     0.029 A 
ATOM     69  C   UNL A   1      37.644  33.033  34.310  1.00  0.00     0.049 A 
ATOM     70  H   UNL A   1      36.861  32.047  32.614  1.00  0.00     0.167 HD
ATOM     71  C   UNL A   1      38.755  30.830  34.633  1.00  0.00     0.074 A 
ATOM     72  C   UNL A   1      38.894  30.334  33.262  1.00  0.00     0.031 C 
ATOM     73  C   UNL A   1      38.200  31.975  35.135  1.00  0.00     0.034 A 
BRANCH  60  74
ATOM     74  C   UNL A   1      37.577  33.269  29.892  1.00  0.00     0.023 A 
ATOM     75  C   UNL A   1      36.359  33.752  29.376  1.00  0.00     0.031 A 
ATOM     76  C   UNL A   1      37.975  31.993  29.435  1.00  0.00     0.131 A 
ATOM     77  C   UNL A   1      35.558  32.954  28.540  1.00  0.00     0.055 A 
ATOM     78  C   UNL A   1      37.210  31.232  28.546  1.00  0.00     0.041 A 
ATOM     79  F   UNL A   1      39.067  31.369  29.893  1.00  0.00    -0.206 F 
ATOM     80  C   UNL A   1      35.979  31.696  28.117  1.00  0.00     0.022 A 
BRANCH  77  81
ATOM     81  S   UNL A   1      33.878  33.518  28.163  1.00  0.00     0.124 S 
ATOM     82  O   UNL A   1      33.409  33.941  29.478  1.00  0.00    -0.237 OA
ATOM     83  O   UNL A   1      34.128  34.580  27.195  1.00  0.00    -0.237 OA
ATOM     84  O   UNL A   1      33.233  32.323  27.625  1.00  0.00    -0.744 OA
ENDBRANCH  77  81
ENDBRANCH  60  74
BRANCH  61  85
ATOM     85  C   UNL A   1      42.704  28.197  34.473  1.00  0.00     0.023 A 
ATOM     86  C   UNL A   1      42.594  27.078  35.331  1.00  0.00     0.031 A 
ATOM     87  C   UNL A   1      43.410  27.993  33.265  1.00  0.00     0.131 A 
ATOM     88  C   UNL A   1      43.163  25.834  34.963  1.00  0.00     0.055 A 
ATOM     89  C   UNL A   1      43.968  26.763  32.907  1.00  0.00     0.041 A 
ATOM     90  F   UNL A   1      43.507  28.964  32.343  1.00  0.00    -0.206 F 
ATOM     91  C   UNL A   1      43.836  25.673  33.750  1.00  0.00     0.022 A 
BRANCH  88  92
ATOM     92  S   UNL A   1      42.949  24.359  36.017  1.00  0.00     0.124 S 
ATOM     93  O   UNL A   1      43.412  24.838  37.315  1.00  0.00    -0.237 OA
ATOM     94  O   UNL A   1      41.522  24.088  35.896  1.00  0.00    -0.237 OA
ATOM     95  O   UNL A   1      43.816  23.361  35.387  1.00  0.00    -0.744 OA
ENDBRANCH  88  92
ENDBRANCH  61  85
BRANCH  73  96
ATOM     96  C   UNL A   1      38.346  32.263  36.620  1.00  0.00     0.023 A 
ATOM     97  C   UNL A   1      37.486  31.781  37.635  1.00  0.00     0.031 A 
ATOM     98  C   UNL A   1      39.487  32.979  37.026  1.00  0.00     0.131 A 
ATOM     99  C   UNL A   1      37.778  32.038  38.992  1.00  0.00     0.055 A 
ATOM    100  C   UNL A   1      39.786  33.208  38.367  1.00  0.00     0.041 A 
ATOM    101  F   UNL A   1      40.358  33.445  36.115  1.00  0.00    -0.206 F 
ATOM    102  C   UNL A   1      38.928  32.745  39.357  1.00  0.00     0.022 A 
BRANCH  99 103
ATOM    103  S   UNL A   1      36.649  31.487  40.315  1.00  0.00     0.124 S 
ATOM    104  O   UNL A   1      36.423  32.695  41.101  1.00  0.00    -0.237 OA
ATOM    105  O   UNL A   1      35.500  30.990  39.563  1.00  0.00    -0.237 OA
ATOM    106  O   UNL A   1      37.417  30.448  41.004  1.00  0.00    -0.744 OA
ENDBRANCH  99 103
ENDBRANCH  73  96
ENDBRANCH  47  48
ENDBRANCH  39  42
ENDBRANCH  37  38
ENDBRANCH  36  37
ENDBRANCH  35  36
ENDBRANCH   1  35
TORSDOF 19
ENDMDL
