MODEL 1
REMARK VINA RESULT:     -11.9      0.000      0.000
REMARK SMILES O=C(Cc1ccccc1Nc1c(F)cccc1C(F)(F)F)NCCCCNC(=O)c1ccc(-c2c3nc(c(-c4cc(S(=O)(=O)[O-])ccc4F)c4ccc([nH]4)c(-c4cc(S(=O)(=O)[O-])ccc4F)c4nc(c(-c5cc(S(=O)(=O)[O-])ccc5F)c5ccc2[nH]5)C=C4)C=C3)cc1
REMARK SMILES IDX 24 1 23 2 22 3 1 4 2 5 3 7 4 8 5 9 9 10 6 11 8 12 7 13 10 14
REMARK SMILES IDX 11 16 12 17 17 18 13 19 14 20 16 21 15 22 18 23 19 24 20 25
REMARK SMILES IDX 21 26 25 27 26 28 27 29 28 30 29 32 30 33 31 34 92 35 32 36
REMARK SMILES IDX 91 37 33 38 34 39 35 40 85 41 36 42 90 43 84 44 86 45 37 46
REMARK SMILES IDX 89 47 83 48 82 49 38 51 70 52 50 53 69 54 51 55 54 56 68 57
REMARK SMILES IDX 87 58 52 59 53 60 67 62 88 63 55 64 39 65 40 66 48 67 41 68
REMARK SMILES IDX 47 69 49 70 46 71 42 72 43 73 44 74 45 75 71 76 72 77 80 78
REMARK SMILES IDX 73 79 79 80 81 81 78 82 74 83 75 84 76 85 77 86 56 87 57 88
REMARK SMILES IDX 65 89 58 90 64 91 66 92 63 93 59 94 60 95 61 96 62 97
REMARK H PARENT 22 6 10 15 27 31 86 50 54 61
REMARK Flexibility Score: inf
ROOT
ATOM      1  C   UNL A   1      34.056  23.886  25.025  1.00  0.00     0.023 C 
ENDROOT
BRANCH   1   2
ATOM      2  C   UNL A   1      33.340  24.548  23.850  1.00  0.00     0.116 C 
BRANCH   2   3
ATOM      3  N   UNL A   1      33.392  25.994  23.926  1.00  0.00    -0.356 N 
ATOM      4  O   UNL A   1      33.842  26.333  21.698  1.00  0.00    -0.275 OA
ATOM      5  C   UNL A   1      33.653  26.780  22.827  1.00  0.00     0.224 C 
ATOM      6  H   UNL A   1      33.236  26.429  24.796  1.00  0.00     0.163 HD
BRANCH   5   7
ATOM      7  C   UNL A   1      33.781  28.262  23.123  1.00  0.00     0.137 C 
BRANCH   7   8
ATOM      8  C   UNL A   1      33.341  28.666  24.514  1.00  0.00    -0.015 A 
ATOM      9  C   UNL A   1      34.196  28.350  25.590  1.00  0.00     0.006 A 
ATOM     10  C   UNL A   1      32.116  29.319  24.772  1.00  0.00     0.042 A 
ATOM     11  C   UNL A   1      33.847  28.662  26.902  1.00  0.00     0.000 A 
ATOM     12  C   UNL A   1      31.778  29.602  26.106  1.00  0.00     0.026 A 
ATOM     13  C   UNL A   1      32.632  29.280  27.161  1.00  0.00     0.002 A 
BRANCH  10  14
ATOM     14  N   UNL A   1      31.269  29.713  23.712  1.00  0.00    -0.352 N 
ATOM     15  H   UNL A   1      31.731  30.112  22.939  1.00  0.00     0.167 HD
BRANCH  14  16
ATOM     16  C   UNL A   1      29.863  29.626  23.586  1.00  0.00     0.087 A 
ATOM     17  C   UNL A   1      29.146  30.842  23.580  1.00  0.00     0.147 A 
ATOM     18  C   UNL A   1      29.145  28.432  23.395  1.00  0.00     0.082 A 
ATOM     19  F   UNL A   1      29.812  31.989  23.796  1.00  0.00    -0.205 F 
ATOM     20  C   UNL A   1      27.778  30.903  23.342  1.00  0.00     0.041 A 
ATOM     21  C   UNL A   1      27.758  28.506  23.126  1.00  0.00     0.015 A 
ATOM     22  C   UNL A   1      27.081  29.728  23.096  1.00  0.00     0.004 A 
BRANCH  18  23
ATOM     23  C   UNL A   1      29.763  27.059  23.499  1.00  0.00     0.418 C 
ATOM     24  F   UNL A   1      28.824  26.065  23.500  1.00  0.00    -0.166 F 
ATOM     25  F   UNL A   1      30.584  26.767  22.451  1.00  0.00    -0.166 F 
ATOM     26  F   UNL A   1      30.488  26.835  24.635  1.00  0.00    -0.166 F 
ENDBRANCH  18  23
ENDBRANCH  14  16
ENDBRANCH  10  14
ENDBRANCH   7   8
ENDBRANCH   5   7
ENDBRANCH   2   3
ENDBRANCH   1   2
BRANCH   1  27
ATOM     27  C   UNL A   1      35.556  23.661  24.821  1.00  0.00     0.023 C 
BRANCH  27  28
ATOM     28  C   UNL A   1      36.399  23.681  26.093  1.00  0.00     0.116 C 
BRANCH  28  29
ATOM     29  N   UNL A   1      37.400  22.624  26.124  1.00  0.00    -0.352 N 
ATOM     30  C   UNL A   1      38.742  22.700  26.411  1.00  0.00     0.251 C 
ATOM     31  H   UNL A   1      37.065  21.724  25.910  1.00  0.00     0.163 HD
ATOM     32  O   UNL A   1      39.452  21.711  26.242  1.00  0.00    -0.269 OA
BRANCH  30  33
ATOM     33  C   UNL A   1      39.339  23.973  26.880  1.00  0.00     0.039 A 
ATOM     34  C   UNL A   1      39.925  24.828  25.943  1.00  0.00     0.014 A 
ATOM     35  C   UNL A   1      39.319  24.330  28.231  1.00  0.00     0.014 A 
ATOM     36  C   UNL A   1      40.420  26.071  26.348  1.00  0.00     0.010 A 
ATOM     37  C   UNL A   1      39.742  25.600  28.621  1.00  0.00     0.010 A 
ATOM     38  C   UNL A   1      40.294  26.487  27.683  1.00  0.00    -0.014 A 
BRANCH  38  39
ATOM     39  C   UNL A   1      40.724  27.846  28.112  1.00  0.00     0.031 A 
ATOM     40  C   UNL A   1      42.183  28.218  28.105  1.00  0.00     0.074 A 
ATOM     41  C   UNL A   1      39.807  28.724  28.567  1.00  0.00     0.049 A 
ATOM     42  N   UNL A   1      42.758  29.318  28.519  1.00  0.00    -0.248 NA
ATOM     43  C   UNL A   1      43.118  27.207  27.591  1.00  0.00     0.031 C 
ATOM     44  C   UNL A   1      38.368  28.471  28.655  1.00  0.00     0.029 A 
ATOM     45  N   UNL A   1      39.947  30.004  29.047  1.00  0.00    -0.354 N 
ATOM     46  C   UNL A   1      44.122  29.131  28.320  1.00  0.00     0.074 A 
ATOM     47  C   UNL A   1      44.288  27.786  27.811  1.00  0.00     0.031 C 
ATOM     48  C   UNL A   1      37.757  29.566  29.136  1.00  0.00     0.029 A 
ATOM     49  C   UNL A   1      38.761  30.580  29.442  1.00  0.00     0.049 A 
ATOM     50  H   UNL A   1      40.815  30.465  29.105  1.00  0.00     0.167 HD
ATOM     51  C   UNL A   1      45.140  30.008  28.520  1.00  0.00     0.034 A 
ATOM     52  C   UNL A   1      38.509  31.781  30.002  1.00  0.00     0.034 A 
ATOM     53  C   UNL A   1      44.957  31.348  29.025  1.00  0.00     0.049 A 
ATOM     54  C   UNL A   1      39.661  32.724  30.253  1.00  0.00     0.074 A 
ATOM     55  C   UNL A   1      45.912  32.330  29.226  1.00  0.00     0.029 A 
ATOM     56  N   UNL A   1      43.742  31.894  29.419  1.00  0.00    -0.354 N 
ATOM     57  N   UNL A   1      40.941  32.545  30.022  1.00  0.00    -0.248 NA
ATOM     58  C   UNL A   1      39.331  34.031  30.833  1.00  0.00     0.031 C 
ATOM     59  C   UNL A   1      45.289  33.438  29.810  1.00  0.00     0.029 A 
ATOM     60  C   UNL A   1      43.930  33.185  29.893  1.00  0.00     0.049 A 
ATOM     61  H   UNL A   1      42.873  31.433  29.367  1.00  0.00     0.167 HD
ATOM     62  C   UNL A   1      41.563  33.733  30.396  1.00  0.00     0.074 A 
ATOM     63  C   UNL A   1      40.516  34.623  30.855  1.00  0.00     0.031 C 
ATOM     64  C   UNL A   1      42.880  34.060  30.361  1.00  0.00     0.034 A 
BRANCH  51  65
ATOM     65  C   UNL A   1      46.540  29.529  28.214  1.00  0.00     0.023 A 
ATOM     66  C   UNL A   1      47.335  28.900  29.189  1.00  0.00     0.031 A 
ATOM     67  C   UNL A   1      47.099  29.722  26.938  1.00  0.00     0.131 A 
ATOM     68  C   UNL A   1      48.664  28.560  28.898  1.00  0.00     0.055 A 
ATOM     69  C   UNL A   1      48.394  29.301  26.629  1.00  0.00     0.041 A 
ATOM     70  F   UNL A   1      46.398  30.335  25.971  1.00  0.00    -0.206 F 
ATOM     71  C   UNL A   1      49.191  28.731  27.617  1.00  0.00     0.022 A 
BRANCH  68  72
ATOM     72  S   UNL A   1      49.740  28.032  30.260  1.00  0.00     0.124 S 
ATOM     73  O   UNL A   1      50.055  26.659  29.872  1.00  0.00    -0.237 OA
ATOM     74  O   UNL A   1      50.840  28.987  30.181  1.00  0.00    -0.237 OA
ATOM     75  O   UNL A   1      48.887  28.158  31.439  1.00  0.00    -0.744 OA
ENDBRANCH  68  72
ENDBRANCH  51  65
BRANCH  52  76
ATOM     76  C   UNL A   1      37.118  32.159  30.385  1.00  0.00     0.023 A 
ATOM     77  C   UNL A   1      36.223  32.687  29.440  1.00  0.00     0.031 A 
ATOM     78  C   UNL A   1      36.677  32.044  31.716  1.00  0.00     0.131 A 
ATOM     79  C   UNL A   1      34.953  33.126  29.847  1.00  0.00     0.055 A 
ATOM     80  C   UNL A   1      35.393  32.426  32.104  1.00  0.00     0.041 A 
ATOM     81  F   UNL A   1      37.491  31.547  32.661  1.00  0.00    -0.206 F 
ATOM     82  C   UNL A   1      34.526  32.985  31.169  1.00  0.00     0.022 A 
BRANCH  79  83
ATOM     83  S   UNL A   1      33.901  33.978  28.641  1.00  0.00     0.124 S 
ATOM     84  O   UNL A   1      33.462  32.872  27.798  1.00  0.00    -0.237 OA
ATOM     85  O   UNL A   1      32.883  34.577  29.497  1.00  0.00    -0.237 OA
ATOM     86  O   UNL A   1      34.814  34.926  28.004  1.00  0.00    -0.744 OA
ENDBRANCH  79  83
ENDBRANCH  52  76
BRANCH  64  87
ATOM     87  C   UNL A   1      43.254  35.460  30.787  1.00  0.00     0.023 A 
ATOM     88  C   UNL A   1      43.376  36.511  29.862  1.00  0.00     0.031 A 
ATOM     89  C   UNL A   1      43.504  35.742  32.142  1.00  0.00     0.131 A 
ATOM     90  C   UNL A   1      43.791  37.779  30.295  1.00  0.00     0.055 A 
ATOM     91  C   UNL A   1      43.853  37.021  32.577  1.00  0.00     0.041 A 
ATOM     92  F   UNL A   1      43.408  34.776  33.071  1.00  0.00    -0.206 F 
ATOM     93  C   UNL A   1      44.013  38.047  31.649  1.00  0.00     0.022 A 
BRANCH  90  94
ATOM     94  S   UNL A   1      44.135  39.055  29.051  1.00  0.00     0.124 S 
ATOM     95  O   UNL A   1      42.825  39.675  28.881  1.00  0.00    -0.237 OA
ATOM     96  O   UNL A   1      45.146  39.872  29.714  1.00  0.00    -0.237 OA
ATOM     97  O   UNL A   1      44.614  38.291  27.900  1.00  0.00    -0.744 OA
ENDBRANCH  90  94
ENDBRANCH  64  87
ENDBRANCH  38  39
ENDBRANCH  30  33
ENDBRANCH  28  29
ENDBRANCH  27  28
ENDBRANCH   1  27
TORSDOF 18
ENDMDL
MODEL 2
REMARK VINA RESULT:     -11.7      2.686      3.169
REMARK SMILES O=C(Cc1ccccc1Nc1c(F)cccc1C(F)(F)F)NCCCCNC(=O)c1ccc(-c2c3nc(c(-c4cc(S(=O)(=O)[O-])ccc4F)c4ccc([nH]4)c(-c4cc(S(=O)(=O)[O-])ccc4F)c4nc(c(-c5cc(S(=O)(=O)[O-])ccc5F)c5ccc2[nH]5)C=C4)C=C3)cc1
REMARK SMILES IDX 24 1 23 2 22 3 1 4 2 5 3 7 4 8 5 9 9 10 6 11 8 12 7 13 10 14
REMARK SMILES IDX 11 16 12 17 17 18 13 19 14 20 16 21 15 22 18 23 19 24 20 25
REMARK SMILES IDX 21 26 25 27 26 28 27 29 28 30 29 32 30 33 31 34 92 35 32 36
REMARK SMILES IDX 91 37 33 38 34 39 35 40 85 41 36 42 90 43 84 44 86 45 37 46
REMARK SMILES IDX 89 47 83 48 82 49 38 51 70 52 50 53 69 54 51 55 54 56 68 57
REMARK SMILES IDX 87 58 52 59 53 60 67 62 88 63 55 64 39 65 40 66 48 67 41 68
REMARK SMILES IDX 47 69 49 70 46 71 42 72 43 73 44 74 45 75 71 76 72 77 80 78
REMARK SMILES IDX 73 79 79 80 81 81 78 82 74 83 75 84 76 85 77 86 56 87 57 88
REMARK SMILES IDX 65 89 58 90 64 91 66 92 63 93 59 94 60 95 61 96 62 97
REMARK H PARENT 22 6 10 15 27 31 86 50 54 61
REMARK Flexibility Score: inf
ROOT
ATOM      1  C   UNL A   1      35.261  23.044  23.629  1.00  0.00     0.023 C 
ENDROOT
BRANCH   1   2
ATOM      2  C   UNL A   1      34.239  23.853  24.424  1.00  0.00     0.116 C 
BRANCH   2   3
ATOM      3  N   UNL A   1      34.265  25.258  24.072  1.00  0.00    -0.356 N 
ATOM      4  O   UNL A   1      32.954  25.966  25.822  1.00  0.00    -0.275 OA
ATOM      5  C   UNL A   1      33.601  26.214  24.807  1.00  0.00     0.224 C 
ATOM      6  H   UNL A   1      34.776  25.540  23.278  1.00  0.00     0.163 HD
BRANCH   5   7
ATOM      7  C   UNL A   1      33.649  27.612  24.221  1.00  0.00     0.137 C 
BRANCH   7   8
ATOM      8  C   UNL A   1      33.242  28.711  25.180  1.00  0.00    -0.015 A 
ATOM      9  C   UNL A   1      34.030  28.898  26.335  1.00  0.00     0.006 A 
ATOM     10  C   UNL A   1      32.110  29.528  24.974  1.00  0.00     0.042 A 
ATOM     11  C   UNL A   1      33.702  29.868  27.280  1.00  0.00     0.000 A 
ATOM     12  C   UNL A   1      31.789  30.483  25.954  1.00  0.00     0.026 A 
ATOM     13  C   UNL A   1      32.576  30.655  27.093  1.00  0.00     0.002 A 
BRANCH  10  14
ATOM     14  N   UNL A   1      31.340  29.415  23.795  1.00  0.00    -0.352 N 
ATOM     15  H   UNL A   1      31.862  29.393  22.960  1.00  0.00     0.167 HD
BRANCH  14  16
ATOM     16  C   UNL A   1      29.938  29.330  23.624  1.00  0.00     0.087 A 
ATOM     17  C   UNL A   1      29.233  30.548  23.515  1.00  0.00     0.147 A 
ATOM     18  C   UNL A   1      29.217  28.130  23.483  1.00  0.00     0.082 A 
ATOM     19  F   UNL A   1      29.902  31.702  23.681  1.00  0.00    -0.205 F 
ATOM     20  C   UNL A   1      27.876  30.602  23.223  1.00  0.00     0.041 A 
ATOM     21  C   UNL A   1      27.841  28.197  23.159  1.00  0.00     0.015 A 
ATOM     22  C   UNL A   1      27.177  29.419  23.027  1.00  0.00     0.004 A 
BRANCH  18  23
ATOM     23  C   UNL A   1      29.819  26.763  23.696  1.00  0.00     0.418 C 
ATOM     24  F   UNL A   1      28.911  25.760  23.496  1.00  0.00    -0.166 F 
ATOM     25  F   UNL A   1      30.839  26.492  22.835  1.00  0.00    -0.166 F 
ATOM     26  F   UNL A   1      30.300  26.532  24.954  1.00  0.00    -0.166 F 
ENDBRANCH  18  23
ENDBRANCH  14  16
ENDBRANCH  10  14
ENDBRANCH   7   8
ENDBRANCH   5   7
ENDBRANCH   2   3
ENDBRANCH   1   2
BRANCH   1  27
ATOM     27  C   UNL A   1      35.751  21.768  24.319  1.00  0.00     0.023 C 
BRANCH  27  28
ATOM     28  C   UNL A   1      36.600  21.985  25.568  1.00  0.00     0.116 C 
BRANCH  28  29
ATOM     29  N   UNL A   1      37.637  20.977  25.729  1.00  0.00    -0.352 N 
ATOM     30  C   UNL A   1      38.955  21.129  26.088  1.00  0.00     0.251 C 
ATOM     31  H   UNL A   1      37.352  20.051  25.555  1.00  0.00     0.163 HD
ATOM     32  O   UNL A   1      39.713  20.163  26.027  1.00  0.00    -0.269 OA
BRANCH  30  33
ATOM     33  C   UNL A   1      39.471  22.454  26.506  1.00  0.00     0.039 A 
ATOM     34  C   UNL A   1      40.572  22.507  27.366  1.00  0.00     0.014 A 
ATOM     35  C   UNL A   1      38.884  23.639  26.055  1.00  0.00     0.014 A 
ATOM     36  C   UNL A   1      41.129  23.743  27.709  1.00  0.00     0.010 A 
ATOM     37  C   UNL A   1      39.486  24.865  26.335  1.00  0.00     0.010 A 
ATOM     38  C   UNL A   1      40.618  24.930  27.162  1.00  0.00    -0.014 A 
BRANCH  38  39
ATOM     39  C   UNL A   1      41.260  26.246  27.436  1.00  0.00     0.031 A 
ATOM     40  C   UNL A   1      42.639  26.542  26.911  1.00  0.00     0.074 A 
ATOM     41  C   UNL A   1      40.624  27.150  28.209  1.00  0.00     0.049 A 
ATOM     42  N   UNL A   1      43.393  27.592  27.112  1.00  0.00    -0.248 NA
ATOM     43  C   UNL A   1      43.261  25.507  26.072  1.00  0.00     0.031 C 
ATOM     44  C   UNL A   1      39.299  26.968  28.805  1.00  0.00     0.029 A 
ATOM     45  N   UNL A   1      41.008  28.399  28.634  1.00  0.00    -0.354 N 
ATOM     46  C   UNL A   1      44.580  27.344  26.431  1.00  0.00     0.074 A 
ATOM     47  C   UNL A   1      44.467  26.014  25.868  1.00  0.00     0.031 C 
ATOM     48  C   UNL A   1      38.973  28.071  29.497  1.00  0.00     0.029 A 
ATOM     49  C   UNL A   1      40.082  29.018  29.441  1.00  0.00     0.049 A 
ATOM     50  H   UNL A   1      41.866  28.812  28.384  1.00  0.00     0.167 HD
ATOM     51  C   UNL A   1      45.655  28.157  26.269  1.00  0.00     0.034 A 
ATOM     52  C   UNL A   1      40.125  30.205  30.080  1.00  0.00     0.034 A 
ATOM     53  C   UNL A   1      45.752  29.483  26.833  1.00  0.00     0.049 A 
ATOM     54  C   UNL A   1      41.347  31.076  29.919  1.00  0.00     0.074 A 
ATOM     55  C   UNL A   1      46.776  30.404  26.698  1.00  0.00     0.029 A 
ATOM     56  N   UNL A   1      44.796  30.074  27.651  1.00  0.00    -0.354 N 
ATOM     57  N   UNL A   1      42.445  30.842  29.237  1.00  0.00    -0.248 NA
ATOM     58  C   UNL A   1      41.331  32.373  30.606  1.00  0.00     0.031 C 
ATOM     59  C   UNL A   1      46.475  31.517  27.490  1.00  0.00     0.029 A 
ATOM     60  C   UNL A   1      45.223  31.331  28.052  1.00  0.00     0.049 A 
ATOM     61  H   UNL A   1      43.939  29.660  27.906  1.00  0.00     0.167 HD
ATOM     62  C   UNL A   1      43.234  31.979  29.387  1.00  0.00     0.074 A 
ATOM     63  C   UNL A   1      42.480  32.901  30.211  1.00  0.00     0.031 C 
ATOM     64  C   UNL A   1      44.468  32.239  28.886  1.00  0.00     0.034 A 
BRANCH  51  65
ATOM     65  C   UNL A   1      46.819  27.620  25.468  1.00  0.00     0.023 A 
ATOM     66  C   UNL A   1      47.056  28.031  24.144  1.00  0.00     0.031 A 
ATOM     67  C   UNL A   1      47.692  26.669  26.025  1.00  0.00     0.131 A 
ATOM     68  C   UNL A   1      48.085  27.436  23.399  1.00  0.00     0.055 A 
ATOM     69  C   UNL A   1      48.768  26.146  25.307  1.00  0.00     0.041 A 
ATOM     70  F   UNL A   1      47.505  26.222  27.278  1.00  0.00    -0.206 F 
ATOM     71  C   UNL A   1      48.961  26.516  23.979  1.00  0.00     0.022 A 
BRANCH  68  72
ATOM     72  S   UNL A   1      48.168  27.770  21.618  1.00  0.00     0.124 S 
ATOM     73  O   UNL A   1      49.229  28.771  21.554  1.00  0.00    -0.237 OA
ATOM     74  O   UNL A   1      48.492  26.459  21.066  1.00  0.00    -0.237 OA
ATOM     75  O   UNL A   1      46.831  28.267  21.300  1.00  0.00    -0.744 OA
ENDBRANCH  68  72
ENDBRANCH  51  65
BRANCH  52  76
ATOM     76  C   UNL A   1      38.990  30.639  30.947  1.00  0.00     0.023 A 
ATOM     77  C   UNL A   1      37.889  31.326  30.412  1.00  0.00     0.031 A 
ATOM     78  C   UNL A   1      39.014  30.415  32.335  1.00  0.00     0.131 A 
ATOM     79  C   UNL A   1      36.883  31.808  31.264  1.00  0.00     0.055 A 
ATOM     80  C   UNL A   1      37.983  30.843  33.171  1.00  0.00     0.041 A 
ATOM     81  F   UNL A   1      40.044  29.763  32.901  1.00  0.00    -0.206 F 
ATOM     82  C   UNL A   1      36.914  31.558  32.637  1.00  0.00     0.022 A 
BRANCH  79  83
ATOM     83  S   UNL A   1      35.579  32.856  30.563  1.00  0.00     0.124 S 
ATOM     84  O   UNL A   1      35.710  32.576  29.137  1.00  0.00    -0.237 OA
ATOM     85  O   UNL A   1      34.385  32.330  31.214  1.00  0.00    -0.237 OA
ATOM     86  O   UNL A   1      35.970  34.203  30.974  1.00  0.00    -0.744 OA
ENDBRANCH  79  83
ENDBRANCH  52  76
BRANCH  64  87
ATOM     87  C   UNL A   1      45.059  33.598  29.178  1.00  0.00     0.023 A 
ATOM     88  C   UNL A   1      44.849  34.698  28.328  1.00  0.00     0.031 A 
ATOM     89  C   UNL A   1      45.855  33.791  30.322  1.00  0.00     0.131 A 
ATOM     90  C   UNL A   1      45.472  35.924  28.604  1.00  0.00     0.055 A 
ATOM     91  C   UNL A   1      46.419  35.031  30.626  1.00  0.00     0.041 A 
ATOM     92  F   UNL A   1      46.094  32.776  31.168  1.00  0.00    -0.206 F 
ATOM     93  C   UNL A   1      46.241  36.103  29.757  1.00  0.00     0.022 A 
BRANCH  90  94
ATOM     94  S   UNL A   1      45.347  37.259  27.381  1.00  0.00     0.124 S 
ATOM     95  O   UNL A   1      43.916  37.277  27.097  1.00  0.00    -0.237 OA
ATOM     96  O   UNL A   1      45.865  38.407  28.119  1.00  0.00    -0.237 OA
ATOM     97  O   UNL A   1      46.193  36.797  26.282  1.00  0.00    -0.744 OA
ENDBRANCH  90  94
ENDBRANCH  64  87
ENDBRANCH  38  39
ENDBRANCH  30  33
ENDBRANCH  28  29
ENDBRANCH  27  28
ENDBRANCH   1  27
TORSDOF 18
ENDMDL
MODEL 3
REMARK VINA RESULT:     -11.7      4.574      9.901
REMARK SMILES O=C(Cc1ccccc1Nc1c(F)cccc1C(F)(F)F)NCCCCNC(=O)c1ccc(-c2c3nc(c(-c4cc(S(=O)(=O)[O-])ccc4F)c4ccc([nH]4)c(-c4cc(S(=O)(=O)[O-])ccc4F)c4nc(c(-c5cc(S(=O)(=O)[O-])ccc5F)c5ccc2[nH]5)C=C4)C=C3)cc1
REMARK SMILES IDX 24 1 23 2 22 3 1 4 2 5 3 7 4 8 5 9 9 10 6 11 8 12 7 13 10 14
REMARK SMILES IDX 11 16 12 17 17 18 13 19 14 20 16 21 15 22 18 23 19 24 20 25
REMARK SMILES IDX 21 26 25 27 26 28 27 29 28 30 29 32 30 33 31 34 92 35 32 36
REMARK SMILES IDX 91 37 33 38 34 39 35 40 85 41 36 42 90 43 84 44 86 45 37 46
REMARK SMILES IDX 89 47 83 48 82 49 38 51 70 52 50 53 69 54 51 55 54 56 68 57
REMARK SMILES IDX 87 58 52 59 53 60 67 62 88 63 55 64 39 65 40 66 48 67 41 68
REMARK SMILES IDX 47 69 49 70 46 71 42 72 43 73 44 74 45 75 71 76 72 77 80 78
REMARK SMILES IDX 73 79 79 80 81 81 78 82 74 83 75 84 76 85 77 86 56 87 57 88
REMARK SMILES IDX 65 89 58 90 64 91 66 92 63 93 59 94 60 95 61 96 62 97
REMARK H PARENT 22 6 10 15 27 31 86 50 54 61
REMARK Flexibility Score: inf
ROOT
ATOM      1  C   UNL A   1      31.819  27.301  26.156  1.00  0.00     0.023 C 
ENDROOT
BRANCH   1   2
ATOM      2  C   UNL A   1      33.122  26.786  25.549  1.00  0.00     0.116 C 
BRANCH   2   3
ATOM      3  N   UNL A   1      33.494  25.490  26.080  1.00  0.00    -0.356 N 
ATOM      4  O   UNL A   1      33.718  24.454  24.041  1.00  0.00    -0.275 OA
ATOM      5  C   UNL A   1      33.757  24.410  25.268  1.00  0.00     0.224 C 
ATOM      6  H   UNL A   1      33.561  25.379  27.056  1.00  0.00     0.163 HD
BRANCH   5   7
ATOM      7  C   UNL A   1      34.017  23.111  26.006  1.00  0.00     0.137 C 
BRANCH   7   8
ATOM      8  C   UNL A   1      35.360  22.477  25.711  1.00  0.00    -0.015 A 
ATOM      9  C   UNL A   1      36.499  23.308  25.751  1.00  0.00     0.006 A 
ATOM     10  C   UNL A   1      35.508  21.112  25.383  1.00  0.00     0.042 A 
ATOM     11  C   UNL A   1      37.766  22.805  25.461  1.00  0.00     0.000 A 
ATOM     12  C   UNL A   1      36.794  20.637  25.073  1.00  0.00     0.026 A 
ATOM     13  C   UNL A   1      37.912  21.470  25.113  1.00  0.00     0.002 A 
BRANCH  10  14
ATOM     14  N   UNL A   1      34.399  20.238  25.403  1.00  0.00    -0.352 N 
ATOM     15  H   UNL A   1      33.892  20.231  26.247  1.00  0.00     0.167 HD
BRANCH  14  16
ATOM     16  C   UNL A   1      33.903  19.369  24.403  1.00  0.00     0.087 A 
ATOM     17  C   UNL A   1      34.420  18.057  24.382  1.00  0.00     0.147 A 
ATOM     18  C   UNL A   1      32.888  19.697  23.485  1.00  0.00     0.082 A 
ATOM     19  F   UNL A   1      35.414  17.738  25.229  1.00  0.00    -0.205 F 
ATOM     20  C   UNL A   1      33.931  17.072  23.532  1.00  0.00     0.041 A 
ATOM     21  C   UNL A   1      32.378  18.681  22.643  1.00  0.00     0.015 A 
ATOM     22  C   UNL A   1      32.890  17.382  22.668  1.00  0.00     0.004 A 
BRANCH  18  23
ATOM     23  C   UNL A   1      32.332  21.090  23.315  1.00  0.00     0.418 C 
ATOM     24  F   UNL A   1      31.398  21.157  22.319  1.00  0.00    -0.166 F 
ATOM     25  F   UNL A   1      31.693  21.545  24.429  1.00  0.00    -0.166 F 
ATOM     26  F   UNL A   1      33.251  22.043  22.978  1.00  0.00    -0.166 F 
ENDBRANCH  18  23
ENDBRANCH  14  16
ENDBRANCH  10  14
ENDBRANCH   7   8
ENDBRANCH   5   7
ENDBRANCH   2   3
ENDBRANCH   1   2
BRANCH   1  27
ATOM     27  C   UNL A   1      31.990  28.400  27.209  1.00  0.00     0.023 C 
BRANCH  27  28
ATOM     28  C   UNL A   1      33.426  28.846  27.462  1.00  0.00     0.116 C 
BRANCH  28  29
ATOM     29  N   UNL A   1      33.546  30.281  27.666  1.00  0.00    -0.352 N 
ATOM     30  C   UNL A   1      34.585  31.005  28.200  1.00  0.00     0.251 C 
ATOM     31  H   UNL A   1      32.768  30.812  27.379  1.00  0.00     0.163 HD
ATOM     32  O   UNL A   1      34.435  32.205  28.422  1.00  0.00    -0.269 OA
BRANCH  30  33
ATOM     33  C   UNL A   1      35.864  30.340  28.545  1.00  0.00     0.039 A 
ATOM     34  C   UNL A   1      36.939  30.447  27.658  1.00  0.00     0.014 A 
ATOM     35  C   UNL A   1      36.012  29.620  29.733  1.00  0.00     0.014 A 
ATOM     36  C   UNL A   1      38.180  29.900  27.998  1.00  0.00     0.010 A 
ATOM     37  C   UNL A   1      37.268  29.142  30.106  1.00  0.00     0.010 A 
ATOM     38  C   UNL A   1      38.367  29.281  29.244  1.00  0.00    -0.014 A 
BRANCH  38  39
ATOM     39  C   UNL A   1      39.705  28.781  29.665  1.00  0.00     0.031 A 
ATOM     40  C   UNL A   1      40.480  29.497  30.737  1.00  0.00     0.074 A 
ATOM     41  C   UNL A   1      40.248  27.717  29.038  1.00  0.00     0.049 A 
ATOM     42  N   UNL A   1      41.690  29.265  31.180  1.00  0.00    -0.248 NA
ATOM     43  C   UNL A   1      39.817  30.644  31.375  1.00  0.00     0.031 C 
ATOM     44  C   UNL A   1      39.612  26.957  27.960  1.00  0.00     0.029 A 
ATOM     45  N   UNL A   1      41.461  27.093  29.209  1.00  0.00    -0.354 N 
ATOM     46  C   UNL A   1      41.935  30.237  32.144  1.00  0.00     0.074 A 
ATOM     47  C   UNL A   1      40.772  31.100  32.170  1.00  0.00     0.031 C 
ATOM     48  C   UNL A   1      40.427  25.960  27.583  1.00  0.00     0.029 A 
ATOM     49  C   UNL A   1      41.666  26.037  28.351  1.00  0.00     0.049 A 
ATOM     50  H   UNL A   1      42.121  27.377  29.882  1.00  0.00     0.167 HD
ATOM     51  C   UNL A   1      43.018  30.383  32.950  1.00  0.00     0.034 A 
ATOM     52  C   UNL A   1      42.735  25.231  28.188  1.00  0.00     0.034 A 
ATOM     53  C   UNL A   1      44.168  29.512  32.915  1.00  0.00     0.049 A 
ATOM     54  C   UNL A   1      43.944  25.437  29.067  1.00  0.00     0.074 A 
ATOM     55  C   UNL A   1      45.299  29.545  33.713  1.00  0.00     0.029 A 
ATOM     56  N   UNL A   1      44.343  28.456  32.029  1.00  0.00    -0.354 N 
ATOM     57  N   UNL A   1      44.143  26.338  30.001  1.00  0.00    -0.248 NA
ATOM     58  C   UNL A   1      45.068  24.513  28.873  1.00  0.00     0.031 C 
ATOM     59  C   UNL A   1      46.186  28.562  33.262  1.00  0.00     0.029 A 
ATOM     60  C   UNL A   1      45.576  27.855  32.240  1.00  0.00     0.049 A 
ATOM     61  H   UNL A   1      43.686  28.174  31.351  1.00  0.00     0.167 HD
ATOM     62  C   UNL A   1      45.402  26.064  30.530  1.00  0.00     0.074 A 
ATOM     63  C   UNL A   1      45.908  24.908  29.819  1.00  0.00     0.031 C 
ATOM     64  C   UNL A   1      46.077  26.709  31.516  1.00  0.00     0.034 A 
BRANCH  51  65
ATOM     65  C   UNL A   1      43.013  31.544  33.917  1.00  0.00     0.023 A 
ATOM     66  C   UNL A   1      42.463  31.429  35.206  1.00  0.00     0.031 A 
ATOM     67  C   UNL A   1      43.545  32.790  33.541  1.00  0.00     0.131 A 
ATOM     68  C   UNL A   1      42.385  32.555  36.040  1.00  0.00     0.055 A 
ATOM     69  C   UNL A   1      43.544  33.884  34.408  1.00  0.00     0.041 A 
ATOM     70  F   UNL A   1      44.066  32.969  32.317  1.00  0.00    -0.206 F 
ATOM     71  C   UNL A   1      42.947  33.776  35.661  1.00  0.00     0.022 A 
BRANCH  68  72
ATOM     72  S   UNL A   1      41.405  32.439  37.562  1.00  0.00     0.124 S 
ATOM     73  O   UNL A   1      40.150  31.883  37.062  1.00  0.00    -0.237 OA
ATOM     74  O   UNL A   1      42.214  31.552  38.390  1.00  0.00    -0.237 OA
ATOM     75  O   UNL A   1      41.325  33.823  38.023  1.00  0.00    -0.744 OA
ENDBRANCH  68  72
ENDBRANCH  51  65
BRANCH  52  76
ATOM     76  C   UNL A   1      42.727  24.167  27.142  1.00  0.00     0.023 A 
ATOM     77  C   UNL A   1      42.116  22.925  27.374  1.00  0.00     0.031 A 
ATOM     78  C   UNL A   1      43.374  24.362  25.908  1.00  0.00     0.131 A 
ATOM     79  C   UNL A   1      42.208  21.908  26.410  1.00  0.00     0.055 A 
ATOM     80  C   UNL A   1      43.411  23.369  24.928  1.00  0.00     0.041 A 
ATOM     81  F   UNL A   1      43.975  25.531  25.633  1.00  0.00    -0.206 F 
ATOM     82  C   UNL A   1      42.838  22.127  25.183  1.00  0.00     0.022 A 
BRANCH  79  83
ATOM     83  S   UNL A   1      41.578  20.259  26.824  1.00  0.00     0.124 S 
ATOM     84  O   UNL A   1      40.302  20.580  27.456  1.00  0.00    -0.237 OA
ATOM     85  O   UNL A   1      41.504  19.625  25.513  1.00  0.00    -0.237 OA
ATOM     86  O   UNL A   1      42.600  19.720  27.719  1.00  0.00    -0.744 OA
ENDBRANCH  79  83
ENDBRANCH  52  76
BRANCH  64  87
ATOM     87  C   UNL A   1      47.419  26.143  31.916  1.00  0.00     0.023 A 
ATOM     88  C   UNL A   1      47.557  25.241  32.985  1.00  0.00     0.031 A 
ATOM     89  C   UNL A   1      48.581  26.523  31.220  1.00  0.00     0.131 A 
ATOM     90  C   UNL A   1      48.832  24.794  33.363  1.00  0.00     0.055 A 
ATOM     91  C   UNL A   1      49.839  26.023  31.558  1.00  0.00     0.041 A 
ATOM     92  F   UNL A   1      48.511  27.385  30.192  1.00  0.00    -0.206 F 
ATOM     93  C   UNL A   1      49.972  25.164  32.646  1.00  0.00     0.022 A 
BRANCH  90  94
ATOM     94  S   UNL A   1      48.993  23.797  34.871  1.00  0.00     0.124 S 
ATOM     95  O   UNL A   1      49.885  24.618  35.683  1.00  0.00    -0.237 OA
ATOM     96  O   UNL A   1      47.612  23.705  35.333  1.00  0.00    -0.237 OA
ATOM     97  O   UNL A   1      49.571  22.542  34.392  1.00  0.00    -0.744 OA
ENDBRANCH  90  94
ENDBRANCH  64  87
ENDBRANCH  38  39
ENDBRANCH  30  33
ENDBRANCH  28  29
ENDBRANCH  27  28
ENDBRANCH   1  27
TORSDOF 18
ENDMDL
