MODEL 1
REMARK VINA RESULT:     -11.8      0.000      0.000
REMARK SMILES CC(C)Cc1ccc(C[N@@H+]2CCO[C@@H](C(=O)NCCCCNC(=O)c3ccc(-c4c5nc(c(-c6cc(S(=O)(=O)[O-])ccc6F)c6ccc([nH]6)c(-c6cc(S(=O)(=O)[O-])ccc6F)c6nc(c(-c7cc(S(=O)(=O)[O-])ccc7F)c7ccc4[nH]7)C=C6)C=C5)cc3)C2)cc1
REMARK SMILES IDX 19 1 18 2 17 3 15 4 16 5 14 7 10 8 11 9 88 10 12 12 13 13
REMARK SMILES IDX 9 14 8 15 5 16 6 17 90 18 7 19 89 20 4 21 2 22 1 23 3 24
REMARK SMILES IDX 20 25 21 26 22 27 23 28 24 30 25 31 26 32 87 33 27 34 86 35
REMARK SMILES IDX 28 36 29 37 30 38 80 39 31 40 85 41 79 42 81 43 32 44 84 45
REMARK SMILES IDX 78 46 77 47 33 49 65 50 45 51 64 52 46 53 49 54 63 55 82 56
REMARK SMILES IDX 47 57 48 58 62 60 83 61 50 62 34 63 35 64 43 65 36 66 42 67
REMARK SMILES IDX 44 68 41 69 37 70 38 71 39 72 40 73 66 74 67 75 75 76 68 77
REMARK SMILES IDX 74 78 76 79 73 80 69 81 70 82 71 83 72 84 51 85 52 86 60 87
REMARK SMILES IDX 53 88 59 89 61 90 58 91 54 92 55 93 56 94 57 95
REMARK H PARENT 17 6 10 11 22 29 81 48 49 59
REMARK Flexibility Score: inf
ROOT
ATOM      1  C   UNL A   1      31.072  31.427  25.760  1.00  0.00     0.023 C 
ENDROOT
BRANCH   1   2
ATOM      2  C   UNL A   1      31.781  30.085  25.653  1.00  0.00     0.116 C 
BRANCH   2   3
ATOM      3  N   UNL A   1      31.868  29.424  26.941  1.00  0.00    -0.354 N 
ATOM      4  C   UNL A   1      31.594  28.121  27.248  1.00  0.00     0.255 C 
ATOM      5  O   UNL A   1      31.672  27.772  28.428  1.00  0.00    -0.272 OA
ATOM      6  H   UNL A   1      32.161  29.987  27.693  1.00  0.00     0.163 HD
BRANCH   4   7
ATOM      7  C   UNL A   1      31.129  27.149  26.154  1.00  0.00     0.261 C 
ATOM      8  N   UNL A   1      32.105  25.743  24.255  1.00  0.00    -0.327 N 
ATOM      9  C   UNL A   1      31.312  24.644  24.824  1.00  0.00     0.291 C 
ATOM     10  C   UNL A   1      32.347  26.783  25.272  1.00  0.00     0.305 C 
ATOM     11  H   UNL A   1      33.012  25.343  24.014  1.00  0.00     0.348 HD
ATOM     12  C   UNL A   1      30.132  25.044  25.726  1.00  0.00     0.222 C 
ATOM     13  O   UNL A   1      30.495  25.995  26.722  1.00  0.00    -0.357 OA
BRANCH   8  14
ATOM     14  C   UNL A   1      31.695  26.227  22.929  1.00  0.00     0.299 C 
BRANCH  14  15
ATOM     15  C   UNL A   1      30.813  27.453  22.910  1.00  0.00     0.006 A 
ATOM     16  C   UNL A   1      29.045  29.535  22.261  1.00  0.00    -0.048 A 
ATOM     17  C   UNL A   1      30.425  29.705  22.104  1.00  0.00     0.004 A 
ATOM     18  C   UNL A   1      28.577  28.385  22.905  1.00  0.00     0.004 A 
ATOM     19  C   UNL A   1      31.307  28.683  22.461  1.00  0.00     0.010 A 
ATOM     20  C   UNL A   1      29.450  27.344  23.213  1.00  0.00     0.010 A 
BRANCH  16  21
ATOM     21  C   UNL A   1      28.074  30.526  21.660  1.00  0.00     0.038 C 
BRANCH  21  22
ATOM     22  C   UNL A   1      27.780  31.741  22.576  1.00  0.00    -0.013 C 
ATOM     23  C   UNL A   1      27.437  31.343  24.015  1.00  0.00     0.008 C 
ATOM     24  C   UNL A   1      28.989  32.680  22.600  1.00  0.00     0.008 C 
ENDBRANCH  21  22
ENDBRANCH  16  21
ENDBRANCH  14  15
ENDBRANCH   8  14
ENDBRANCH   4   7
ENDBRANCH   2   3
ENDBRANCH   1   2
BRANCH   1  25
ATOM     25  C   UNL A   1      31.330  32.175  27.064  1.00  0.00     0.023 C 
BRANCH  25  26
ATOM     26  C   UNL A   1      32.663  32.907  27.125  1.00  0.00     0.116 C 
BRANCH  26  27
ATOM     27  N   UNL A   1      32.554  34.232  27.717  1.00  0.00    -0.352 N 
ATOM     28  C   UNL A   1      33.283  34.768  28.751  1.00  0.00     0.251 C 
ATOM     29  H   UNL A   1      31.869  34.821  27.326  1.00  0.00     0.163 HD
ATOM     30  O   UNL A   1      32.974  35.855  29.229  1.00  0.00    -0.269 OA
BRANCH  28  31
ATOM     31  C   UNL A   1      34.415  33.995  29.296  1.00  0.00     0.039 A 
ATOM     32  C   UNL A   1      35.707  34.278  28.851  1.00  0.00     0.014 A 
ATOM     33  C   UNL A   1      34.200  33.043  30.296  1.00  0.00     0.014 A 
ATOM     34  C   UNL A   1      36.795  33.656  29.463  1.00  0.00     0.010 A 
ATOM     35  C   UNL A   1      35.287  32.483  30.956  1.00  0.00     0.010 A 
ATOM     36  C   UNL A   1      36.596  32.783  30.547  1.00  0.00    -0.014 A 
BRANCH  36  37
ATOM     37  C   UNL A   1      37.743  32.173  31.266  1.00  0.00     0.031 A 
ATOM     38  C   UNL A   1      38.505  31.042  30.631  1.00  0.00     0.074 A 
ATOM     39  C   UNL A   1      38.049  32.589  32.511  1.00  0.00     0.049 A 
ATOM     40  N   UNL A   1      39.479  30.323  31.124  1.00  0.00    -0.248 NA
ATOM     41  C   UNL A   1      38.091  30.648  29.277  1.00  0.00     0.031 C 
ATOM     42  C   UNL A   1      37.348  33.644  33.247  1.00  0.00     0.029 A 
ATOM     43  N   UNL A   1      39.020  32.167  33.385  1.00  0.00    -0.354 N 
ATOM     44  C   UNL A   1      39.783  29.379  30.147  1.00  0.00     0.074 A 
ATOM     45  C   UNL A   1      38.846  29.583  29.063  1.00  0.00     0.031 C 
ATOM     46  C   UNL A   1      37.925  33.801  34.449  1.00  0.00     0.029 A 
ATOM     47  C   UNL A   1      39.006  32.829  34.591  1.00  0.00     0.049 A 
ATOM     48  H   UNL A   1      39.665  31.456  33.169  1.00  0.00     0.167 HD
ATOM     49  C   UNL A   1      40.767  28.446  30.148  1.00  0.00     0.034 A 
ATOM     50  C   UNL A   1      39.768  32.664  35.690  1.00  0.00     0.034 A 
ATOM     51  C   UNL A   1      41.703  28.273  31.231  1.00  0.00     0.049 A 
ATOM     52  C   UNL A   1      40.850  31.613  35.670  1.00  0.00     0.074 A 
ATOM     53  C   UNL A   1      42.782  27.410  31.308  1.00  0.00     0.029 A 
ATOM     54  N   UNL A   1      41.667  28.971  32.432  1.00  0.00    -0.354 N 
ATOM     55  N   UNL A   1      41.167  30.772  34.712  1.00  0.00    -0.248 NA
ATOM     56  C   UNL A   1      41.683  31.496  36.873  1.00  0.00     0.031 C 
ATOM     57  C   UNL A   1      43.355  27.536  32.578  1.00  0.00     0.029 A 
ATOM     58  C   UNL A   1      42.684  28.533  33.267  1.00  0.00     0.049 A 
ATOM     59  H   UNL A   1      41.015  29.673  32.657  1.00  0.00     0.167 HD
ATOM     60  C   UNL A   1      42.258  30.050  35.188  1.00  0.00     0.074 A 
ATOM     61  C   UNL A   1      42.551  30.564  36.510  1.00  0.00     0.031 C 
ATOM     62  C   UNL A   1      42.957  29.053  34.588  1.00  0.00     0.034 A 
BRANCH  49  63
ATOM     63  C   UNL A   1      40.857  27.530  28.950  1.00  0.00     0.023 A 
ATOM     64  C   UNL A   1      41.823  27.716  27.946  1.00  0.00     0.031 A 
ATOM     65  C   UNL A   1      39.947  26.469  28.797  1.00  0.00     0.131 A 
ATOM     66  C   UNL A   1      41.808  26.908  26.800  1.00  0.00     0.055 A 
ATOM     67  C   UNL A   1      39.991  25.615  27.694  1.00  0.00     0.041 A 
ATOM     68  F   UNL A   1      38.989  26.253  29.711  1.00  0.00    -0.206 F 
ATOM     69  C   UNL A   1      40.915  25.842  26.678  1.00  0.00     0.022 A 
BRANCH  66  70
ATOM     70  S   UNL A   1      42.880  27.361  25.407  1.00  0.00     0.124 S 
ATOM     71  O   UNL A   1      44.074  27.840  26.098  1.00  0.00    -0.237 OA
ATOM     72  O   UNL A   1      43.018  26.097  24.692  1.00  0.00    -0.237 OA
ATOM     73  O   UNL A   1      42.116  28.393  24.709  1.00  0.00    -0.744 OA
ENDBRANCH  66  70
ENDBRANCH  49  63
BRANCH  50  74
ATOM     74  C   UNL A   1      39.537  33.496  36.907  1.00  0.00     0.023 A 
ATOM     75  C   UNL A   1      40.304  34.646  37.153  1.00  0.00     0.031 A 
ATOM     76  C   UNL A   1      38.580  33.126  37.868  1.00  0.00     0.131 A 
ATOM     77  C   UNL A   1      40.139  35.355  38.354  1.00  0.00     0.055 A 
ATOM     78  C   UNL A   1      38.380  33.865  39.035  1.00  0.00     0.041 A 
ATOM     79  F   UNL A   1      37.816  32.037  37.680  1.00  0.00    -0.206 F 
ATOM     80  C   UNL A   1      39.173  34.980  39.290  1.00  0.00     0.022 A 
BRANCH  77  81
ATOM     81  S   UNL A   1      41.272  36.724  38.717  1.00  0.00     0.124 S 
ATOM     82  O   UNL A   1      40.353  37.753  39.188  1.00  0.00    -0.237 OA
ATOM     83  O   UNL A   1      42.146  36.134  39.725  1.00  0.00    -0.237 OA
ATOM     84  O   UNL A   1      41.904  36.993  37.427  1.00  0.00    -0.744 OA
ENDBRANCH  77  81
ENDBRANCH  50  74
BRANCH  62  85
ATOM     85  C   UNL A   1      44.137  28.492  35.343  1.00  0.00     0.023 A 
ATOM     86  C   UNL A   1      43.985  27.486  36.313  1.00  0.00     0.031 A 
ATOM     87  C   UNL A   1      45.431  28.982  35.093  1.00  0.00     0.131 A 
ATOM     88  C   UNL A   1      45.102  27.040  37.036  1.00  0.00     0.055 A 
ATOM     89  C   UNL A   1      46.546  28.491  35.773  1.00  0.00     0.041 A 
ATOM     90  F   UNL A   1      45.633  29.945  34.179  1.00  0.00    -0.206 F 
ATOM     91  C   UNL A   1      46.383  27.524  36.761  1.00  0.00     0.022 A 
BRANCH  88  92
ATOM     92  S   UNL A   1      44.843  25.882  38.408  1.00  0.00     0.124 S 
ATOM     93  O   UNL A   1      44.398  24.680  37.711  1.00  0.00    -0.237 OA
ATOM     94  O   UNL A   1      46.169  25.814  39.014  1.00  0.00    -0.237 OA
ATOM     95  O   UNL A   1      43.823  26.539  39.224  1.00  0.00    -0.744 OA
ENDBRANCH  88  92
ENDBRANCH  62  85
ENDBRANCH  36  37
ENDBRANCH  28  31
ENDBRANCH  26  27
ENDBRANCH  25  26
ENDBRANCH   1  25
TORSDOF 18
ENDMDL
MODEL 2
REMARK VINA RESULT:     -11.8      2.090      7.958
REMARK SMILES CC(C)Cc1ccc(C[N@@H+]2CCO[C@@H](C(=O)NCCCCNC(=O)c3ccc(-c4c5nc(c(-c6cc(S(=O)(=O)[O-])ccc6F)c6ccc([nH]6)c(-c6cc(S(=O)(=O)[O-])ccc6F)c6nc(c(-c7cc(S(=O)(=O)[O-])ccc7F)c7ccc4[nH]7)C=C6)C=C5)cc3)C2)cc1
REMARK SMILES IDX 19 1 18 2 17 3 15 4 16 5 14 7 10 8 11 9 88 10 12 12 13 13
REMARK SMILES IDX 9 14 8 15 5 16 6 17 90 18 7 19 89 20 4 21 2 22 1 23 3 24
REMARK SMILES IDX 20 25 21 26 22 27 23 28 24 30 25 31 26 32 87 33 27 34 86 35
REMARK SMILES IDX 28 36 29 37 30 38 80 39 31 40 85 41 79 42 81 43 32 44 84 45
REMARK SMILES IDX 78 46 77 47 33 49 65 50 45 51 64 52 46 53 49 54 63 55 82 56
REMARK SMILES IDX 47 57 48 58 62 60 83 61 50 62 34 63 35 64 43 65 36 66 42 67
REMARK SMILES IDX 44 68 41 69 37 70 38 71 39 72 40 73 66 74 67 75 75 76 68 77
REMARK SMILES IDX 74 78 76 79 73 80 69 81 70 82 71 83 72 84 51 85 52 86 60 87
REMARK SMILES IDX 53 88 59 89 61 90 58 91 54 92 55 93 56 94 57 95
REMARK H PARENT 17 6 10 11 22 29 81 48 49 59
REMARK Flexibility Score: inf
ROOT
ATOM      1  C   UNL A   1      31.496  27.849  26.926  1.00  0.00     0.023 C 
ENDROOT
BRANCH   1   2
ATOM      2  C   UNL A   1      31.322  26.586  26.095  1.00  0.00     0.116 C 
BRANCH   2   3
ATOM      3  N   UNL A   1      31.374  25.393  26.920  1.00  0.00    -0.354 N 
ATOM      4  C   UNL A   1      31.797  24.141  26.576  1.00  0.00     0.255 C 
ATOM      5  O   UNL A   1      31.701  23.243  27.416  1.00  0.00    -0.272 OA
ATOM      6  H   UNL A   1      31.063  25.500  27.847  1.00  0.00     0.163 HD
BRANCH   4   7
ATOM      7  C   UNL A   1      32.304  23.858  25.155  1.00  0.00     0.261 C 
ATOM      8  N   UNL A   1      34.072  24.703  23.513  1.00  0.00    -0.327 N 
ATOM      9  C   UNL A   1      34.423  23.286  23.348  1.00  0.00     0.291 C 
ATOM     10  C   UNL A   1      33.375  24.916  24.795  1.00  0.00     0.305 C 
ATOM     11  H   UNL A   1      34.956  25.211  23.565  1.00  0.00     0.348 HD
ATOM     12  C   UNL A   1      33.348  22.261  23.751  1.00  0.00     0.222 C 
ATOM     13  O   UNL A   1      32.796  22.516  25.039  1.00  0.00    -0.357 OA
BRANCH   8  14
ATOM     14  C   UNL A   1      33.480  25.372  22.345  1.00  0.00     0.299 C 
BRANCH  14  15
ATOM     15  C   UNL A   1      32.574  26.545  22.635  1.00  0.00     0.006 A 
ATOM     16  C   UNL A   1      30.867  28.771  22.520  1.00  0.00    -0.048 A 
ATOM     17  C   UNL A   1      32.248  28.945  22.660  1.00  0.00     0.004 A 
ATOM     18  C   UNL A   1      30.338  27.479  22.613  1.00  0.00     0.004 A 
ATOM     19  C   UNL A   1      33.093  27.838  22.755  1.00  0.00     0.010 A 
ATOM     20  C   UNL A   1      31.184  26.372  22.654  1.00  0.00     0.010 A 
BRANCH  16  21
ATOM     21  C   UNL A   1      29.973  29.941  22.178  1.00  0.00     0.038 C 
BRANCH  21  22
ATOM     22  C   UNL A   1      28.924  30.264  23.272  1.00  0.00    -0.013 C 
ATOM     23  C   UNL A   1      28.773  31.766  23.537  1.00  0.00     0.008 C 
ATOM     24  C   UNL A   1      27.561  29.696  22.869  1.00  0.00     0.008 C 
ENDBRANCH  21  22
ENDBRANCH  16  21
ENDBRANCH  14  15
ENDBRANCH   8  14
ENDBRANCH   4   7
ENDBRANCH   2   3
ENDBRANCH   1   2
BRANCH   1  25
ATOM     25  C   UNL A   1      31.410  29.146  26.129  1.00  0.00     0.023 C 
BRANCH  25  26
ATOM     26  C   UNL A   1      32.689  29.971  26.113  1.00  0.00     0.116 C 
BRANCH  26  27
ATOM     27  N   UNL A   1      32.469  31.364  26.472  1.00  0.00    -0.352 N 
ATOM     28  C   UNL A   1      33.227  32.165  27.291  1.00  0.00     0.251 C 
ATOM     29  H   UNL A   1      31.674  31.788  26.076  1.00  0.00     0.163 HD
ATOM     30  O   UNL A   1      32.830  33.281  27.607  1.00  0.00    -0.269 OA
BRANCH  28  31
ATOM     31  C   UNL A   1      34.505  31.639  27.811  1.00  0.00     0.039 A 
ATOM     32  C   UNL A   1      35.545  32.530  28.078  1.00  0.00     0.014 A 
ATOM     33  C   UNL A   1      34.641  30.278  28.097  1.00  0.00     0.014 A 
ATOM     34  C   UNL A   1      36.702  32.064  28.703  1.00  0.00     0.010 A 
ATOM     35  C   UNL A   1      35.760  29.832  28.789  1.00  0.00     0.010 A 
ATOM     36  C   UNL A   1      36.802  30.719  29.100  1.00  0.00    -0.014 A 
BRANCH  36  37
ATOM     37  C   UNL A   1      37.990  30.221  29.841  1.00  0.00     0.031 A 
ATOM     38  C   UNL A   1      38.238  30.682  31.250  1.00  0.00     0.074 A 
ATOM     39  C   UNL A   1      38.874  29.415  29.220  1.00  0.00     0.049 A 
ATOM     40  N   UNL A   1      39.252  30.432  32.036  1.00  0.00    -0.248 NA
ATOM     41  C   UNL A   1      37.225  31.572  31.839  1.00  0.00     0.031 C 
ATOM     42  C   UNL A   1      38.763  28.942  27.838  1.00  0.00     0.029 A 
ATOM     43  N   UNL A   1      40.048  28.860  29.664  1.00  0.00    -0.354 N 
ATOM     44  C   UNL A   1      39.010  31.146  33.206  1.00  0.00     0.074 A 
ATOM     45  C   UNL A   1      37.783  31.886  32.998  1.00  0.00     0.031 C 
ATOM     46  C   UNL A   1      39.813  28.154  27.557  1.00  0.00     0.029 A 
ATOM     47  C   UNL A   1      40.695  28.099  28.718  1.00  0.00     0.049 A 
ATOM     48  H   UNL A   1      40.396  28.996  30.576  1.00  0.00     0.167 HD
ATOM     49  C   UNL A   1      39.733  31.164  34.352  1.00  0.00     0.034 A 
ATOM     50  C   UNL A   1      41.871  27.444  28.776  1.00  0.00     0.034 A 
ATOM     51  C   UNL A   1      40.943  30.403  34.545  1.00  0.00     0.049 A 
ATOM     52  C   UNL A   1      42.662  27.486  30.060  1.00  0.00     0.074 A 
ATOM     53  C   UNL A   1      41.716  30.289  35.688  1.00  0.00     0.029 A 
ATOM     54  N   UNL A   1      41.562  29.632  33.569  1.00  0.00    -0.354 N 
ATOM     55  N   UNL A   1      42.386  28.114  31.181  1.00  0.00    -0.248 NA
ATOM     56  C   UNL A   1      43.916  26.723  30.091  1.00  0.00     0.031 C 
ATOM     57  C   UNL A   1      42.835  29.507  35.383  1.00  0.00     0.029 A 
ATOM     58  C   UNL A   1      42.724  29.068  34.074  1.00  0.00     0.049 A 
ATOM     59  H   UNL A   1      41.225  29.504  32.653  1.00  0.00     0.167 HD
ATOM     60  C   UNL A   1      43.417  27.792  32.059  1.00  0.00     0.074 A 
ATOM     61  C   UNL A   1      44.310  26.906  31.342  1.00  0.00     0.031 C 
ATOM     62  C   UNL A   1      43.609  28.191  33.342  1.00  0.00     0.034 A 
BRANCH  49  63
ATOM     63  C   UNL A   1      39.242  32.053  35.469  1.00  0.00     0.023 A 
ATOM     64  C   UNL A   1      39.644  33.397  35.579  1.00  0.00     0.031 A 
ATOM     65  C   UNL A   1      38.378  31.545  36.456  1.00  0.00     0.131 A 
ATOM     66  C   UNL A   1      39.248  34.160  36.687  1.00  0.00     0.055 A 
ATOM     67  C   UNL A   1      37.919  32.335  37.511  1.00  0.00     0.041 A 
ATOM     68  F   UNL A   1      37.976  30.265  36.418  1.00  0.00    -0.206 F 
ATOM     69  C   UNL A   1      38.367  33.646  37.641  1.00  0.00     0.022 A 
BRANCH  66  70
ATOM     70  S   UNL A   1      40.014  35.785  36.938  1.00  0.00     0.124 S 
ATOM     71  O   UNL A   1      41.417  35.424  37.122  1.00  0.00    -0.237 OA
ATOM     72  O   UNL A   1      39.691  36.481  35.698  1.00  0.00    -0.237 OA
ATOM     73  O   UNL A   1      39.347  36.297  38.133  1.00  0.00    -0.744 OA
ENDBRANCH  66  70
ENDBRANCH  49  63
BRANCH  50  74
ATOM     74  C   UNL A   1      42.386  26.702  27.589  1.00  0.00     0.023 A 
ATOM     75  C   UNL A   1      42.057  25.352  27.380  1.00  0.00     0.031 A 
ATOM     76  C   UNL A   1      43.256  27.316  26.671  1.00  0.00     0.131 A 
ATOM     77  C   UNL A   1      42.635  24.647  26.312  1.00  0.00     0.055 A 
ATOM     78  C   UNL A   1      43.785  26.626  25.579  1.00  0.00     0.041 A 
ATOM     79  F   UNL A   1      43.600  28.605  26.820  1.00  0.00    -0.206 F 
ATOM     80  C   UNL A   1      43.486  25.278  25.403  1.00  0.00     0.022 A 
BRANCH  77  81
ATOM     81  S   UNL A   1      42.329  22.863  26.183  1.00  0.00     0.124 S 
ATOM     82  O   UNL A   1      40.893  22.790  26.419  1.00  0.00    -0.237 OA
ATOM     83  O   UNL A   1      42.772  22.579  24.823  1.00  0.00    -0.237 OA
ATOM     84  O   UNL A   1      43.166  22.298  27.240  1.00  0.00    -0.744 OA
ENDBRANCH  77  81
ENDBRANCH  50  74
BRANCH  62  85
ATOM     85  C   UNL A   1      44.809  27.628  34.063  1.00  0.00     0.023 A 
ATOM     86  C   UNL A   1      44.752  26.402  34.749  1.00  0.00     0.031 A 
ATOM     87  C   UNL A   1      46.023  28.336  34.071  1.00  0.00     0.131 A 
ATOM     88  C   UNL A   1      45.873  25.948  35.459  1.00  0.00     0.055 A 
ATOM     89  C   UNL A   1      47.153  27.849  34.728  1.00  0.00     0.041 A 
ATOM     90  F   UNL A   1      46.132  29.513  33.434  1.00  0.00    -0.206 F 
ATOM     91  C   UNL A   1      47.078  26.655  35.439  1.00  0.00     0.022 A 
BRANCH  88  92
ATOM     92  S   UNL A   1      45.708  24.462  36.487  1.00  0.00     0.124 S 
ATOM     93  O   UNL A   1      45.855  25.006  37.833  1.00  0.00    -0.237 OA
ATOM     94  O   UNL A   1      44.376  23.983  36.133  1.00  0.00    -0.237 OA
ATOM     95  O   UNL A   1      46.811  23.612  36.039  1.00  0.00    -0.744 OA
ENDBRANCH  88  92
ENDBRANCH  62  85
ENDBRANCH  36  37
ENDBRANCH  28  31
ENDBRANCH  26  27
ENDBRANCH  25  26
ENDBRANCH   1  25
TORSDOF 18
ENDMDL
MODEL 3
REMARK VINA RESULT:     -11.7      2.680      4.620
REMARK SMILES CC(C)Cc1ccc(C[N@@H+]2CCO[C@@H](C(=O)NCCCCNC(=O)c3ccc(-c4c5nc(c(-c6cc(S(=O)(=O)[O-])ccc6F)c6ccc([nH]6)c(-c6cc(S(=O)(=O)[O-])ccc6F)c6nc(c(-c7cc(S(=O)(=O)[O-])ccc7F)c7ccc4[nH]7)C=C6)C=C5)cc3)C2)cc1
REMARK SMILES IDX 19 1 18 2 17 3 15 4 16 5 14 7 10 8 11 9 88 10 12 12 13 13
REMARK SMILES IDX 9 14 8 15 5 16 6 17 90 18 7 19 89 20 4 21 2 22 1 23 3 24
REMARK SMILES IDX 20 25 21 26 22 27 23 28 24 30 25 31 26 32 87 33 27 34 86 35
REMARK SMILES IDX 28 36 29 37 30 38 80 39 31 40 85 41 79 42 81 43 32 44 84 45
REMARK SMILES IDX 78 46 77 47 33 49 65 50 45 51 64 52 46 53 49 54 63 55 82 56
REMARK SMILES IDX 47 57 48 58 62 60 83 61 50 62 34 63 35 64 43 65 36 66 42 67
REMARK SMILES IDX 44 68 41 69 37 70 38 71 39 72 40 73 66 74 67 75 75 76 68 77
REMARK SMILES IDX 74 78 76 79 73 80 69 81 70 82 71 83 72 84 51 85 52 86 60 87
REMARK SMILES IDX 53 88 59 89 61 90 58 91 54 92 55 93 56 94 57 95
REMARK H PARENT 17 6 10 11 22 29 81 48 49 59
REMARK Flexibility Score: inf
ROOT
ATOM      1  C   UNL A   1      32.130  29.627  26.932  1.00  0.00     0.023 C 
ENDROOT
BRANCH   1   2
ATOM      2  C   UNL A   1      32.249  28.853  25.627  1.00  0.00     0.116 C 
BRANCH   2   3
ATOM      3  N   UNL A   1      30.964  28.335  25.196  1.00  0.00    -0.354 N 
ATOM      4  C   UNL A   1      30.708  27.277  24.371  1.00  0.00     0.255 C 
ATOM      5  O   UNL A   1      29.535  27.038  24.077  1.00  0.00    -0.272 OA
ATOM      6  H   UNL A   1      30.173  28.809  25.541  1.00  0.00     0.163 HD
BRANCH   4   7
ATOM      7  C   UNL A   1      31.866  26.464  23.773  1.00  0.00     0.261 C 
ATOM      8  N   UNL A   1      32.460  24.041  23.218  1.00  0.00    -0.327 N 
ATOM      9  C   UNL A   1      32.852  24.564  21.903  1.00  0.00     0.291 C 
ATOM     10  C   UNL A   1      31.515  24.960  23.879  1.00  0.00     0.305 C 
ATOM     11  H   UNL A   1      31.956  23.171  23.039  1.00  0.00     0.348 HD
ATOM     12  C   UNL A   1      33.156  26.071  21.827  1.00  0.00     0.222 C 
ATOM     13  O   UNL A   1      32.142  26.871  22.426  1.00  0.00    -0.357 OA
BRANCH   8  14
ATOM     14  C   UNL A   1      33.544  23.520  24.065  1.00  0.00     0.299 C 
BRANCH  14  15
ATOM     15  C   UNL A   1      33.518  22.035  24.343  1.00  0.00     0.006 A 
ATOM     16  C   UNL A   1      33.798  19.242  24.292  1.00  0.00    -0.048 A 
ATOM     17  C   UNL A   1      32.638  19.847  23.792  1.00  0.00     0.004 A 
ATOM     18  C   UNL A   1      34.731  20.034  24.970  1.00  0.00     0.004 A 
ATOM     19  C   UNL A   1      32.484  21.233  23.851  1.00  0.00     0.010 A 
ATOM     20  C   UNL A   1      34.602  21.422  24.983  1.00  0.00     0.010 A 
BRANCH  16  21
ATOM     21  C   UNL A   1      34.084  17.783  24.020  1.00  0.00     0.038 C 
BRANCH  21  22
ATOM     22  C   UNL A   1      34.042  16.894  25.288  1.00  0.00    -0.013 C 
ATOM     23  C   UNL A   1      32.626  16.441  25.661  1.00  0.00     0.008 C 
ATOM     24  C   UNL A   1      34.917  15.654  25.084  1.00  0.00     0.008 C 
ENDBRANCH  21  22
ENDBRANCH  16  21
ENDBRANCH  14  15
ENDBRANCH   8  14
ENDBRANCH   4   7
ENDBRANCH   2   3
ENDBRANCH   1   2
BRANCH   1  25
ATOM     25  C   UNL A   1      31.945  31.131  26.759  1.00  0.00     0.023 C 
BRANCH  25  26
ATOM     26  C   UNL A   1      33.078  31.981  27.316  1.00  0.00     0.116 C 
BRANCH  26  27
ATOM     27  N   UNL A   1      32.696  33.371  27.520  1.00  0.00    -0.352 N 
ATOM     28  C   UNL A   1      33.183  34.264  28.443  1.00  0.00     0.251 C 
ATOM     29  H   UNL A   1      31.997  33.715  26.919  1.00  0.00     0.163 HD
ATOM     30  O   UNL A   1      32.656  35.363  28.582  1.00  0.00    -0.269 OA
BRANCH  28  31
ATOM     31  C   UNL A   1      34.325  33.859  29.287  1.00  0.00     0.039 A 
ATOM     32  C   UNL A   1      34.098  33.013  30.373  1.00  0.00     0.014 A 
ATOM     33  C   UNL A   1      35.621  34.263  28.957  1.00  0.00     0.014 A 
ATOM     34  C   UNL A   1      35.186  32.511  31.088  1.00  0.00     0.010 A 
ATOM     35  C   UNL A   1      36.705  33.701  29.621  1.00  0.00     0.010 A 
ATOM     36  C   UNL A   1      36.499  32.819  30.693  1.00  0.00    -0.014 A 
BRANCH  36  37
ATOM     37  C   UNL A   1      37.672  32.229  31.389  1.00  0.00     0.031 A 
ATOM     38  C   UNL A   1      38.437  31.108  30.741  1.00  0.00     0.074 A 
ATOM     39  C   UNL A   1      37.998  32.654  32.625  1.00  0.00     0.049 A 
ATOM     40  N   UNL A   1      39.433  30.406  31.215  1.00  0.00    -0.248 NA
ATOM     41  C   UNL A   1      37.999  30.702  29.397  1.00  0.00     0.031 C 
ATOM     42  C   UNL A   1      37.297  33.701  33.373  1.00  0.00     0.029 A 
ATOM     43  N   UNL A   1      38.994  32.251  33.479  1.00  0.00    -0.354 N 
ATOM     44  C   UNL A   1      39.730  29.463  30.235  1.00  0.00     0.074 A 
ATOM     45  C   UNL A   1      38.766  29.648  29.170  1.00  0.00     0.031 C 
ATOM     46  C   UNL A   1      37.897  33.871  34.561  1.00  0.00     0.029 A 
ATOM     47  C   UNL A   1      38.996  32.917  34.683  1.00  0.00     0.049 A 
ATOM     48  H   UNL A   1      39.646  31.549  33.252  1.00  0.00     0.167 HD
ATOM     49  C   UNL A   1      40.727  28.545  30.217  1.00  0.00     0.034 A 
ATOM     50  C   UNL A   1      39.784  32.767  35.766  1.00  0.00     0.034 A 
ATOM     51  C   UNL A   1      41.690  28.391  31.280  1.00  0.00     0.049 A 
ATOM     52  C   UNL A   1      40.882  31.733  35.725  1.00  0.00     0.074 A 
ATOM     53  C   UNL A   1      42.783  27.544  31.336  1.00  0.00     0.029 A 
ATOM     54  N   UNL A   1      41.669  29.092  32.479  1.00  0.00    -0.354 N 
ATOM     55  N   UNL A   1      41.191  30.893  34.763  1.00  0.00    -0.248 NA
ATOM     56  C   UNL A   1      41.742  31.634  36.911  1.00  0.00     0.031 C 
ATOM     57  C   UNL A   1      43.382  27.684  32.593  1.00  0.00     0.029 A 
ATOM     58  C   UNL A   1      42.710  28.674  33.294  1.00  0.00     0.049 A 
ATOM     59  H   UNL A   1      41.011  29.785  32.717  1.00  0.00     0.167 HD
ATOM     60  C   UNL A   1      42.303  30.190  35.218  1.00  0.00     0.074 A 
ATOM     61  C   UNL A   1      42.616  30.714  36.531  1.00  0.00     0.031 C 
ATOM     62  C   UNL A   1      43.004  29.202  34.606  1.00  0.00     0.034 A 
BRANCH  49  63
ATOM     63  C   UNL A   1      40.805  27.627  29.021  1.00  0.00     0.023 A 
ATOM     64  C   UNL A   1      41.768  27.804  28.011  1.00  0.00     0.031 A 
ATOM     65  C   UNL A   1      39.888  26.570  28.875  1.00  0.00     0.131 A 
ATOM     66  C   UNL A   1      41.742  26.994  26.867  1.00  0.00     0.055 A 
ATOM     67  C   UNL A   1      39.922  25.714  27.773  1.00  0.00     0.041 A 
ATOM     68  F   UNL A   1      38.934  26.362  29.794  1.00  0.00    -0.206 F 
ATOM     69  C   UNL A   1      40.841  25.933  26.752  1.00  0.00     0.022 A 
BRANCH  66  70
ATOM     70  S   UNL A   1      42.808  27.437  25.467  1.00  0.00     0.124 S 
ATOM     71  O   UNL A   1      44.021  27.880  26.150  1.00  0.00    -0.237 OA
ATOM     72  O   UNL A   1      42.909  26.180  24.736  1.00  0.00    -0.237 OA
ATOM     73  O   UNL A   1      42.063  28.496  24.790  1.00  0.00    -0.744 OA
ENDBRANCH  66  70
ENDBRANCH  49  63
BRANCH  50  74
ATOM     74  C   UNL A   1      39.567  33.600  36.985  1.00  0.00     0.023 A 
ATOM     75  C   UNL A   1      38.884  33.087  38.099  1.00  0.00     0.031 A 
ATOM     76  C   UNL A   1      39.997  34.937  37.035  1.00  0.00     0.131 A 
ATOM     77  C   UNL A   1      38.603  33.921  39.193  1.00  0.00     0.055 A 
ATOM     78  C   UNL A   1      39.765  35.747  38.148  1.00  0.00     0.041 A 
ATOM     79  F   UNL A   1      40.660  35.477  35.998  1.00  0.00    -0.206 F 
ATOM     80  C   UNL A   1      39.050  35.243  39.231  1.00  0.00     0.022 A 
BRANCH  77  81
ATOM     81  S   UNL A   1      37.561  33.276  40.532  1.00  0.00     0.124 S 
ATOM     82  O   UNL A   1      37.462  34.432  41.414  1.00  0.00    -0.237 OA
ATOM     83  O   UNL A   1      36.344  32.909  39.816  1.00  0.00    -0.237 OA
ATOM     84  O   UNL A   1      38.337  32.155  41.056  1.00  0.00    -0.744 OA
ENDBRANCH  77  81
ENDBRANCH  50  74
BRANCH  62  85
ATOM     85  C   UNL A   1      44.209  28.662  35.337  1.00  0.00     0.023 A 
ATOM     86  C   UNL A   1      44.102  27.615  36.269  1.00  0.00     0.031 A 
ATOM     87  C   UNL A   1      45.481  29.214  35.103  1.00  0.00     0.131 A 
ATOM     88  C   UNL A   1      45.238  27.189  36.972  1.00  0.00     0.055 A 
ATOM     89  C   UNL A   1      46.617  28.744  35.762  1.00  0.00     0.041 A 
ATOM     90  F   UNL A   1      45.640  30.218  34.226  1.00  0.00    -0.206 F 
ATOM     91  C   UNL A   1      46.498  27.735  36.713  1.00  0.00     0.022 A 
BRANCH  88  92
ATOM     92  S   UNL A   1      45.033  25.970  38.301  1.00  0.00     0.124 S 
ATOM     93  O   UNL A   1      44.337  24.887  37.614  1.00  0.00    -0.237 OA
ATOM     94  O   UNL A   1      46.412  25.697  38.691  1.00  0.00    -0.237 OA
ATOM     95  O   UNL A   1      44.237  26.683  39.299  1.00  0.00    -0.744 OA
ENDBRANCH  88  92
ENDBRANCH  62  85
ENDBRANCH  36  37
ENDBRANCH  28  31
ENDBRANCH  26  27
ENDBRANCH  25  26
ENDBRANCH   1  25
TORSDOF 18
ENDMDL
