MODEL 1
REMARK VINA RESULT:     -12.5      0.000      0.000
REMARK SMILES Cc1ccc(S(=O)(=O)n2cc(C(=O)C(=O)NCC(=O)NCCCCNC(=O)c3ccc(-c4c5nc(c(-c6cc(S(=O)(=O)[O-])ccc6F)c6ccc([nH]6)c(-c6cc(S(=O)(=O)[O-])ccc6F)c6nc(c(-c7cc(S(=O)(=O)[O-])ccc7F)c7ccc4[nH]7)C=C6)C=C5)cc3)c3ccccc32)cc1
REMARK SMILES IDX 21 1 20 2 18 3 19 4 17 6 16 7 14 8 15 9 12 11 13 12 11 13
REMARK SMILES IDX 9 14 10 15 96 16 91 17 95 18 92 19 94 20 93 21 6 22 7 23
REMARK SMILES IDX 8 24 5 25 1 26 2 27 3 28 98 29 4 30 97 31 22 32 23 33 24 34
REMARK SMILES IDX 25 35 26 36 27 38 28 39 29 40 90 41 30 42 89 43 31 44 32 45
REMARK SMILES IDX 33 46 83 47 34 48 88 49 82 50 84 51 35 52 87 53 81 54 80 55
REMARK SMILES IDX 36 57 68 58 48 59 67 60 49 61 52 62 66 63 85 64 50 65 51 66
REMARK SMILES IDX 65 68 86 69 53 70 37 71 38 72 46 73 39 74 45 75 47 76 44 77
REMARK SMILES IDX 40 78 41 79 42 80 43 81 69 82 70 83 78 84 71 85 77 86 79 87
REMARK SMILES IDX 76 88 72 89 73 90 74 91 75 92 54 93 55 94 63 95 56 96 62 97
REMARK SMILES IDX 64 98 61 99 57 100 58 101 59 102 60 103
REMARK H PARENT 20 5 16 10 25 37 84 56 52 67
REMARK Flexibility Score: inf
ROOT
ATOM      1  C   UNL A   1      40.190  20.202  25.788  1.00  0.00     0.116 C 
ENDROOT
BRANCH   1   2
ATOM      2  N   UNL A   1      39.065  19.363  25.393  1.00  0.00    -0.355 N 
ATOM      3  C   UNL A   1      37.797  19.743  25.055  1.00  0.00     0.239 C 
ATOM      4  O   UNL A   1      36.973  18.877  24.755  1.00  0.00    -0.273 OA
ATOM      5  H   UNL A   1      39.241  18.395  25.367  1.00  0.00     0.163 HD
BRANCH   3   6
ATOM      6  C   UNL A   1      37.453  21.232  24.971  1.00  0.00     0.216 C 
BRANCH   6   7
ATOM      7  N   UNL A   1      36.671  21.698  26.108  1.00  0.00    -0.340 N 
ATOM      8  C   UNL A   1      35.329  22.016  26.199  1.00  0.00     0.292 C 
ATOM      9  O   UNL A   1      34.885  22.335  27.298  1.00  0.00    -0.265 OA
ATOM     10  H   UNL A   1      37.178  21.803  26.945  1.00  0.00     0.164 HD
BRANCH   8  11
ATOM     11  C   UNL A   1      34.399  21.915  24.962  1.00  0.00     0.252 C 
ATOM     12  O   UNL A   1      34.357  20.831  24.379  1.00  0.00    -0.283 OA
BRANCH  11  13
ATOM     13  C   UNL A   1      33.517  23.019  24.557  1.00  0.00     0.054 A 
ATOM     14  N   UNL A   1      32.677  24.811  23.511  1.00  0.00    -0.240 N 
ATOM     15  C   UNL A   1      33.719  23.915  23.522  1.00  0.00     0.117 A 
ATOM     16  C   UNL A   1      31.796  24.560  24.542  1.00  0.00     0.065 A 
ATOM     17  C   UNL A   1      32.285  23.418  25.195  1.00  0.00     0.012 A 
ATOM     18  C   UNL A   1      30.623  25.215  24.962  1.00  0.00     0.028 A 
ATOM     19  C   UNL A   1      31.542  22.902  26.279  1.00  0.00     0.011 A 
ATOM     20  C   UNL A   1      29.930  24.694  26.057  1.00  0.00     0.002 A 
ATOM     21  C   UNL A   1      30.375  23.546  26.701  1.00  0.00     0.001 A 
BRANCH  14  22
ATOM     22  S   UNL A   1      32.676  26.209  22.536  1.00  0.00     0.268 S 
ATOM     23  O   UNL A   1      31.440  26.221  21.768  1.00  0.00    -0.201 OA
ATOM     24  O   UNL A   1      33.982  26.294  21.915  1.00  0.00    -0.201 OA
BRANCH  22  25
ATOM     25  C   UNL A   1      32.565  27.631  23.611  1.00  0.00     0.088 A 
ATOM     26  C   UNL A   1      31.839  30.854  26.367  1.00  0.00     0.044 C 
ATOM     27  C   UNL A   1      32.112  29.754  25.386  1.00  0.00    -0.051 A 
ATOM     28  C   UNL A   1      31.135  29.401  24.448  1.00  0.00     0.005 A 
ATOM     29  C   UNL A   1      33.330  29.060  25.399  1.00  0.00     0.005 A 
ATOM     30  C   UNL A   1      31.357  28.341  23.568  1.00  0.00     0.022 A 
ATOM     31  C   UNL A   1      33.565  28.007  24.507  1.00  0.00     0.022 A 
ENDBRANCH  22  25
ENDBRANCH  14  22
ENDBRANCH  11  13
ENDBRANCH   8  11
ENDBRANCH   6   7
ENDBRANCH   3   6
ENDBRANCH   1   2
BRANCH   1  32
ATOM     32  C   UNL A   1      40.915  19.631  27.012  1.00  0.00     0.023 C 
BRANCH  32  33
ATOM     33  C   UNL A   1      42.279  19.019  26.707  1.00  0.00     0.023 C 
BRANCH  33  34
ATOM     34  C   UNL A   1      42.955  19.565  25.457  1.00  0.00     0.116 C 
BRANCH  34  35
ATOM     35  N   UNL A   1      44.313  20.064  25.641  1.00  0.00    -0.352 N 
ATOM     36  C   UNL A   1      44.773  21.374  25.628  1.00  0.00     0.251 C 
ATOM     37  H   UNL A   1      44.999  19.375  25.795  1.00  0.00     0.163 HD
ATOM     38  O   UNL A   1      45.972  21.644  25.596  1.00  0.00    -0.269 OA
BRANCH  36  39
ATOM     39  C   UNL A   1      43.808  22.475  25.886  1.00  0.00     0.039 A 
ATOM     40  C   UNL A   1      44.030  23.663  25.171  1.00  0.00     0.014 A 
ATOM     41  C   UNL A   1      43.052  22.485  27.046  1.00  0.00     0.014 A 
ATOM     42  C   UNL A   1      43.802  24.877  25.797  1.00  0.00     0.010 A 
ATOM     43  C   UNL A   1      42.996  23.660  27.743  1.00  0.00     0.010 A 
ATOM     44  C   UNL A   1      43.435  24.837  27.133  1.00  0.00    -0.014 A 
BRANCH  44  45
ATOM     45  C   UNL A   1      43.383  25.985  28.004  1.00  0.00     0.031 A 
ATOM     46  C   UNL A   1      42.235  26.875  27.821  1.00  0.00     0.074 A 
ATOM     47  C   UNL A   1      44.251  26.039  29.035  1.00  0.00     0.049 A 
ATOM     48  N   UNL A   1      42.155  28.062  28.287  1.00  0.00    -0.248 NA
ATOM     49  C   UNL A   1      41.070  26.495  27.021  1.00  0.00     0.031 C 
ATOM     50  C   UNL A   1      44.219  26.878  30.226  1.00  0.00     0.029 A 
ATOM     51  N   UNL A   1      45.519  25.460  29.060  1.00  0.00    -0.354 N 
ATOM     52  C   UNL A   1      40.844  28.465  28.156  1.00  0.00     0.074 A 
ATOM     53  C   UNL A   1      40.246  27.517  27.255  1.00  0.00     0.031 C 
ATOM     54  C   UNL A   1      45.474  26.999  30.701  1.00  0.00     0.029 A 
ATOM     55  C   UNL A   1      46.356  26.372  29.730  1.00  0.00     0.049 A 
ATOM     56  H   UNL A   1      45.778  24.589  28.683  1.00  0.00     0.167 HD
ATOM     57  C   UNL A   1      40.410  29.462  28.973  1.00  0.00     0.034 A 
ATOM     58  C   UNL A   1      47.322  27.024  29.014  1.00  0.00     0.034 A 
ATOM     59  C   UNL A   1      41.548  29.999  29.728  1.00  0.00     0.049 A 
ATOM     60  C   UNL A   1      47.047  28.515  28.918  1.00  0.00     0.074 A 
ATOM     61  C   UNL A   1      42.030  29.777  31.008  1.00  0.00     0.029 A 
ATOM     62  N   UNL A   1      42.587  30.585  29.019  1.00  0.00    -0.354 N 
ATOM     63  N   UNL A   1      45.882  29.081  29.107  1.00  0.00    -0.248 NA
ATOM     64  C   UNL A   1      48.097  29.485  28.654  1.00  0.00     0.031 C 
ATOM     65  C   UNL A   1      43.397  30.187  31.033  1.00  0.00     0.029 A 
ATOM     66  C   UNL A   1      43.729  30.690  29.786  1.00  0.00     0.049 A 
ATOM     67  H   UNL A   1      42.518  30.887  28.085  1.00  0.00     0.167 HD
ATOM     68  C   UNL A   1      45.999  30.452  29.029  1.00  0.00     0.074 A 
ATOM     69  C   UNL A   1      47.415  30.641  28.739  1.00  0.00     0.031 C 
ATOM     70  C   UNL A   1      44.927  31.298  29.210  1.00  0.00     0.034 A 
BRANCH  57  71
ATOM     71  C   UNL A   1      38.972  29.782  29.301  1.00  0.00     0.023 A 
ATOM     72  C   UNL A   1      38.504  31.077  28.996  1.00  0.00     0.031 A 
ATOM     73  C   UNL A   1      38.032  28.946  29.938  1.00  0.00     0.131 A 
ATOM     74  C   UNL A   1      37.219  31.509  29.364  1.00  0.00     0.055 A 
ATOM     75  C   UNL A   1      36.755  29.379  30.324  1.00  0.00     0.041 A 
ATOM     76  F   UNL A   1      38.273  27.657  30.196  1.00  0.00    -0.206 F 
ATOM     77  C   UNL A   1      36.342  30.670  30.043  1.00  0.00     0.022 A 
BRANCH  74  78
ATOM     78  S   UNL A   1      36.718  33.198  28.948  1.00  0.00     0.124 S 
ATOM     79  O   UNL A   1      35.881  33.557  30.087  1.00  0.00    -0.237 OA
ATOM     80  O   UNL A   1      38.002  33.884  28.846  1.00  0.00    -0.237 OA
ATOM     81  O   UNL A   1      36.004  33.036  27.682  1.00  0.00    -0.744 OA
ENDBRANCH  74  78
ENDBRANCH  57  71
BRANCH  58  82
ATOM     82  C   UNL A   1      47.919  26.132  27.956  1.00  0.00     0.023 A 
ATOM     83  C   UNL A   1      47.608  26.466  26.611  1.00  0.00     0.031 A 
ATOM     84  C   UNL A   1      49.085  25.390  28.183  1.00  0.00     0.131 A 
ATOM     85  C   UNL A   1      48.576  26.317  25.605  1.00  0.00     0.055 A 
ATOM     86  C   UNL A   1      49.990  25.126  27.142  1.00  0.00     0.041 A 
ATOM     87  F   UNL A   1      49.445  25.041  29.428  1.00  0.00    -0.206 F 
ATOM     88  C   UNL A   1      49.772  25.652  25.865  1.00  0.00     0.022 A 
BRANCH  85  89
ATOM     89  S   UNL A   1      48.409  27.325  24.093  1.00  0.00     0.124 S 
ATOM     90  O   UNL A   1      47.218  28.116  24.365  1.00  0.00    -0.237 OA
ATOM     91  O   UNL A   1      49.672  28.065  24.046  1.00  0.00    -0.237 OA
ATOM     92  O   UNL A   1      48.275  26.347  23.015  1.00  0.00    -0.744 OA
ENDBRANCH  85  89
ENDBRANCH  58  82
BRANCH  70  93
ATOM     93  C   UNL A   1      44.873  32.795  28.891  1.00  0.00     0.023 A 
ATOM     94  C   UNL A   1      45.543  33.376  27.814  1.00  0.00     0.031 A 
ATOM     95  C   UNL A   1      44.099  33.714  29.655  1.00  0.00     0.131 A 
ATOM     96  C   UNL A   1      45.438  34.746  27.512  1.00  0.00     0.055 A 
ATOM     97  C   UNL A   1      43.967  35.071  29.343  1.00  0.00     0.041 A 
ATOM     98  F   UNL A   1      43.409  33.350  30.745  1.00  0.00    -0.206 F 
ATOM     99  C   UNL A   1      44.641  35.600  28.260  1.00  0.00     0.022 A 
BRANCH  96 100
ATOM    100  S   UNL A   1      46.408  35.366  26.117  1.00  0.00     0.124 S 
ATOM    101  O   UNL A   1      45.833  34.627  24.996  1.00  0.00    -0.237 OA
ATOM    102  O   UNL A   1      46.108  36.795  26.149  1.00  0.00    -0.237 OA
ATOM    103  O   UNL A   1      47.780  35.007  26.463  1.00  0.00    -0.744 OA
ENDBRANCH  96 100
ENDBRANCH  70  93
ENDBRANCH  44  45
ENDBRANCH  36  39
ENDBRANCH  34  35
ENDBRANCH  33  34
ENDBRANCH  32  33
ENDBRANCH   1  32
TORSDOF 19
ENDMDL
MODEL 2
REMARK VINA RESULT:     -12.1      1.640      2.197
REMARK SMILES Cc1ccc(S(=O)(=O)n2cc(C(=O)C(=O)NCC(=O)NCCCCNC(=O)c3ccc(-c4c5nc(c(-c6cc(S(=O)(=O)[O-])ccc6F)c6ccc([nH]6)c(-c6cc(S(=O)(=O)[O-])ccc6F)c6nc(c(-c7cc(S(=O)(=O)[O-])ccc7F)c7ccc4[nH]7)C=C6)C=C5)cc3)c3ccccc32)cc1
REMARK SMILES IDX 21 1 20 2 18 3 19 4 17 6 16 7 14 8 15 9 12 11 13 12 11 13
REMARK SMILES IDX 9 14 10 15 96 16 91 17 95 18 92 19 94 20 93 21 6 22 7 23
REMARK SMILES IDX 8 24 5 25 1 26 2 27 3 28 98 29 4 30 97 31 22 32 23 33 24 34
REMARK SMILES IDX 25 35 26 36 27 38 28 39 29 40 90 41 30 42 89 43 31 44 32 45
REMARK SMILES IDX 33 46 83 47 34 48 88 49 82 50 84 51 35 52 87 53 81 54 80 55
REMARK SMILES IDX 36 57 68 58 48 59 67 60 49 61 52 62 66 63 85 64 50 65 51 66
REMARK SMILES IDX 65 68 86 69 53 70 37 71 38 72 46 73 39 74 45 75 47 76 44 77
REMARK SMILES IDX 40 78 41 79 42 80 43 81 69 82 70 83 78 84 71 85 77 86 79 87
REMARK SMILES IDX 76 88 72 89 73 90 74 91 75 92 54 93 55 94 63 95 56 96 62 97
REMARK SMILES IDX 64 98 61 99 57 100 58 101 59 102 60 103
REMARK H PARENT 20 5 16 10 25 37 84 56 52 67
REMARK Flexibility Score: inf
ROOT
ATOM      1  C   UNL A   1      40.024  20.855  26.045  1.00  0.00     0.116 C 
ENDROOT
BRANCH   1   2
ATOM      2  N   UNL A   1      39.028  19.981  25.436  1.00  0.00    -0.355 N 
ATOM      3  C   UNL A   1      37.723  20.254  25.141  1.00  0.00     0.239 C 
ATOM      4  O   UNL A   1      37.029  19.373  24.631  1.00  0.00    -0.273 OA
ATOM      5  H   UNL A   1      39.336  19.074  25.208  1.00  0.00     0.163 HD
BRANCH   3   6
ATOM      6  C   UNL A   1      37.178  21.666  25.368  1.00  0.00     0.216 C 
BRANCH   6   7
ATOM      7  N   UNL A   1      36.263  21.745  26.500  1.00  0.00    -0.340 N 
ATOM      8  C   UNL A   1      34.893  21.915  26.531  1.00  0.00     0.292 C 
ATOM      9  O   UNL A   1      34.332  21.891  27.622  1.00  0.00    -0.265 OA
ATOM     10  H   UNL A   1      36.690  21.665  27.383  1.00  0.00     0.164 HD
BRANCH   8  11
ATOM     11  C   UNL A   1      34.078  22.070  25.219  1.00  0.00     0.252 C 
ATOM     12  O   UNL A   1      33.931  21.062  24.527  1.00  0.00    -0.283 OA
BRANCH  11  13
ATOM     13  C   UNL A   1      33.410  23.330  24.860  1.00  0.00     0.054 A 
ATOM     14  N   UNL A   1      32.256  25.244  24.970  1.00  0.00    -0.240 N 
ATOM     15  C   UNL A   1      32.785  24.219  25.717  1.00  0.00     0.117 A 
ATOM     16  C   UNL A   1      32.480  25.044  23.624  1.00  0.00     0.065 A 
ATOM     17  C   UNL A   1      33.231  23.863  23.531  1.00  0.00     0.012 A 
ATOM     18  C   UNL A   1      32.103  25.780  22.485  1.00  0.00     0.028 A 
ATOM     19  C   UNL A   1      33.647  23.438  22.251  1.00  0.00     0.011 A 
ATOM     20  C   UNL A   1      32.506  25.314  21.232  1.00  0.00     0.002 A 
ATOM     21  C   UNL A   1      33.278  24.165  21.114  1.00  0.00     0.001 A 
BRANCH  14  22
ATOM     22  S   UNL A   1      31.210  26.417  25.629  1.00  0.00     0.268 S 
ATOM     23  O   UNL A   1      30.537  25.825  26.776  1.00  0.00    -0.201 OA
ATOM     24  O   UNL A   1      30.490  27.013  24.523  1.00  0.00    -0.201 OA
BRANCH  22  25
ATOM     25  C   UNL A   1      32.211  27.730  26.310  1.00  0.00     0.088 A 
ATOM     26  C   UNL A   1      34.877  30.895  27.486  1.00  0.00     0.044 C 
ATOM     27  C   UNL A   1      33.945  29.783  27.111  1.00  0.00    -0.051 A 
ATOM     28  C   UNL A   1      34.460  28.585  26.604  1.00  0.00     0.005 A 
ATOM     29  C   UNL A   1      32.557  29.925  27.250  1.00  0.00     0.005 A 
ATOM     30  C   UNL A   1      33.599  27.565  26.199  1.00  0.00     0.022 A 
ATOM     31  C   UNL A   1      31.688  28.898  26.862  1.00  0.00     0.022 A 
ENDBRANCH  22  25
ENDBRANCH  14  22
ENDBRANCH  11  13
ENDBRANCH   8  11
ENDBRANCH   6   7
ENDBRANCH   3   6
ENDBRANCH   1   2
BRANCH   1  32
ATOM     32  C   UNL A   1      40.838  20.119  27.116  1.00  0.00     0.023 C 
BRANCH  32  33
ATOM     33  C   UNL A   1      41.900  19.175  26.562  1.00  0.00     0.023 C 
BRANCH  33  34
ATOM     34  C   UNL A   1      42.716  19.742  25.408  1.00  0.00     0.116 C 
BRANCH  34  35
ATOM     35  N   UNL A   1      44.051  20.216  25.753  1.00  0.00    -0.352 N 
ATOM     36  C   UNL A   1      44.493  21.517  25.952  1.00  0.00     0.251 C 
ATOM     37  H   UNL A   1      44.734  19.516  25.858  1.00  0.00     0.163 HD
ATOM     38  O   UNL A   1      45.687  21.794  26.041  1.00  0.00    -0.269 OA
BRANCH  36  39
ATOM     39  C   UNL A   1      43.499  22.568  26.291  1.00  0.00     0.039 A 
ATOM     40  C   UNL A   1      43.444  23.665  25.415  1.00  0.00     0.014 A 
ATOM     41  C   UNL A   1      43.008  22.676  27.581  1.00  0.00     0.014 A 
ATOM     42  C   UNL A   1      43.232  24.931  25.934  1.00  0.00     0.010 A 
ATOM     43  C   UNL A   1      42.982  23.927  28.136  1.00  0.00     0.010 A 
ATOM     44  C   UNL A   1      43.161  25.041  27.314  1.00  0.00    -0.014 A 
BRANCH  44  45
ATOM     45  C   UNL A   1      43.179  26.287  28.039  1.00  0.00     0.031 A 
ATOM     46  C   UNL A   1      41.952  27.084  27.972  1.00  0.00     0.074 A 
ATOM     47  C   UNL A   1      44.212  26.521  28.875  1.00  0.00     0.049 A 
ATOM     48  N   UNL A   1      41.866  28.315  28.302  1.00  0.00    -0.248 NA
ATOM     49  C   UNL A   1      40.695  26.542  27.454  1.00  0.00     0.031 C 
ATOM     50  C   UNL A   1      44.330  27.504  29.943  1.00  0.00     0.029 A 
ATOM     51  N   UNL A   1      45.504  26.019  28.728  1.00  0.00    -0.354 N 
ATOM     52  C   UNL A   1      40.526  28.627  28.373  1.00  0.00     0.074 A 
ATOM     53  C   UNL A   1      39.850  27.540  27.719  1.00  0.00     0.031 C 
ATOM     54  C   UNL A   1      45.637  27.752  30.157  1.00  0.00     0.029 A 
ATOM     55  C   UNL A   1      46.375  27.053  29.118  1.00  0.00     0.049 A 
ATOM     56  H   UNL A   1      45.756  25.121  28.414  1.00  0.00     0.167 HD
ATOM     57  C   UNL A   1      40.172  29.697  29.135  1.00  0.00     0.034 A 
ATOM     58  C   UNL A   1      47.144  27.657  28.162  1.00  0.00     0.034 A 
ATOM     59  C   UNL A   1      41.382  30.387  29.595  1.00  0.00     0.049 A 
ATOM     60  C   UNL A   1      46.743  29.106  27.945  1.00  0.00     0.074 A 
ATOM     61  C   UNL A   1      42.102  30.358  30.778  1.00  0.00     0.029 A 
ATOM     62  N   UNL A   1      42.229  30.930  28.639  1.00  0.00    -0.354 N 
ATOM     63  N   UNL A   1      45.591  29.630  28.282  1.00  0.00    -0.248 NA
ATOM     64  C   UNL A   1      47.651  30.090  27.378  1.00  0.00     0.031 C 
ATOM     65  C   UNL A   1      43.415  30.841  30.498  1.00  0.00     0.029 A 
ATOM     66  C   UNL A   1      43.479  31.195  29.160  1.00  0.00     0.049 A 
ATOM     67  H   UNL A   1      41.970  31.106  27.706  1.00  0.00     0.167 HD
ATOM     68  C   UNL A   1      45.588  30.983  28.023  1.00  0.00     0.074 A 
ATOM     69  C   UNL A   1      46.910  31.209  27.453  1.00  0.00     0.031 C 
ATOM     70  C   UNL A   1      44.504  31.787  28.302  1.00  0.00     0.034 A 
BRANCH  57  71
ATOM     71  C   UNL A   1      38.796  29.978  29.688  1.00  0.00     0.023 A 
ATOM     72  C   UNL A   1      38.331  31.309  29.638  1.00  0.00     0.031 A 
ATOM     73  C   UNL A   1      37.919  29.066  30.310  1.00  0.00     0.131 A 
ATOM     74  C   UNL A   1      37.116  31.695  30.227  1.00  0.00     0.055 A 
ATOM     75  C   UNL A   1      36.713  29.450  30.916  1.00  0.00     0.041 A 
ATOM     76  F   UNL A   1      38.152  27.752  30.343  1.00  0.00    -0.206 F 
ATOM     77  C   UNL A   1      36.306  30.773  30.882  1.00  0.00     0.022 A 
BRANCH  74  78
ATOM     78  S   UNL A   1      36.617  33.432  30.131  1.00  0.00     0.124 S 
ATOM     79  O   UNL A   1      35.169  33.326  29.980  1.00  0.00    -0.237 OA
ATOM     80  O   UNL A   1      37.098  33.963  31.402  1.00  0.00    -0.237 OA
ATOM     81  O   UNL A   1      37.327  33.922  28.951  1.00  0.00    -0.744 OA
ENDBRANCH  74  78
ENDBRANCH  57  71
BRANCH  58  82
ATOM     82  C   UNL A   1      47.607  26.670  27.122  1.00  0.00     0.023 A 
ATOM     83  C   UNL A   1      47.341  27.016  25.771  1.00  0.00     0.031 A 
ATOM     84  C   UNL A   1      48.660  25.778  27.365  1.00  0.00     0.131 A 
ATOM     85  C   UNL A   1      48.276  26.713  24.767  1.00  0.00     0.055 A 
ATOM     86  C   UNL A   1      49.516  25.369  26.328  1.00  0.00     0.041 A 
ATOM     87  F   UNL A   1      48.973  25.408  28.616  1.00  0.00    -0.206 F 
ATOM     88  C   UNL A   1      49.369  25.894  25.040  1.00  0.00     0.022 A 
BRANCH  85  89
ATOM     89  S   UNL A   1      48.245  27.703  23.235  1.00  0.00     0.124 S 
ATOM     90  O   UNL A   1      49.537  28.372  23.260  1.00  0.00    -0.237 OA
ATOM     91  O   UNL A   1      48.067  26.692  22.191  1.00  0.00    -0.237 OA
ATOM     92  O   UNL A   1      47.086  28.580  23.390  1.00  0.00    -0.744 OA
ENDBRANCH  85  89
ENDBRANCH  58  82
BRANCH  70  93
ATOM     93  C   UNL A   1      44.279  33.225  27.826  1.00  0.00     0.023 A 
ATOM     94  C   UNL A   1      44.226  34.321  28.689  1.00  0.00     0.031 A 
ATOM     95  C   UNL A   1      44.140  33.563  26.450  1.00  0.00     0.131 A 
ATOM     96  C   UNL A   1      44.067  35.638  28.222  1.00  0.00     0.055 A 
ATOM     97  C   UNL A   1      44.011  34.874  25.978  1.00  0.00     0.041 A 
ATOM     98  F   UNL A   1      44.135  32.645  25.474  1.00  0.00    -0.206 F 
ATOM     99  C   UNL A   1      43.974  35.929  26.868  1.00  0.00     0.022 A 
BRANCH  96 100
ATOM    100  S   UNL A   1      43.962  36.951  29.462  1.00  0.00     0.124 S 
ATOM    101  O   UNL A   1      45.343  37.424  29.521  1.00  0.00    -0.237 OA
ATOM    102  O   UNL A   1      43.007  37.871  28.850  1.00  0.00    -0.237 OA
ATOM    103  O   UNL A   1      43.486  36.260  30.657  1.00  0.00    -0.744 OA
ENDBRANCH  96 100
ENDBRANCH  70  93
ENDBRANCH  44  45
ENDBRANCH  36  39
ENDBRANCH  34  35
ENDBRANCH  33  34
ENDBRANCH  32  33
ENDBRANCH   1  32
TORSDOF 19
ENDMDL
MODEL 3
REMARK VINA RESULT:     -11.6      1.876      2.391
REMARK SMILES Cc1ccc(S(=O)(=O)n2cc(C(=O)C(=O)NCC(=O)NCCCCNC(=O)c3ccc(-c4c5nc(c(-c6cc(S(=O)(=O)[O-])ccc6F)c6ccc([nH]6)c(-c6cc(S(=O)(=O)[O-])ccc6F)c6nc(c(-c7cc(S(=O)(=O)[O-])ccc7F)c7ccc4[nH]7)C=C6)C=C5)cc3)c3ccccc32)cc1
REMARK SMILES IDX 21 1 20 2 18 3 19 4 17 6 16 7 14 8 15 9 12 11 13 12 11 13
REMARK SMILES IDX 9 14 10 15 96 16 91 17 95 18 92 19 94 20 93 21 6 22 7 23
REMARK SMILES IDX 8 24 5 25 1 26 2 27 3 28 98 29 4 30 97 31 22 32 23 33 24 34
REMARK SMILES IDX 25 35 26 36 27 38 28 39 29 40 90 41 30 42 89 43 31 44 32 45
REMARK SMILES IDX 33 46 83 47 34 48 88 49 82 50 84 51 35 52 87 53 81 54 80 55
REMARK SMILES IDX 36 57 68 58 48 59 67 60 49 61 52 62 66 63 85 64 50 65 51 66
REMARK SMILES IDX 65 68 86 69 53 70 37 71 38 72 46 73 39 74 45 75 47 76 44 77
REMARK SMILES IDX 40 78 41 79 42 80 43 81 69 82 70 83 78 84 71 85 77 86 79 87
REMARK SMILES IDX 76 88 72 89 73 90 74 91 75 92 54 93 55 94 63 95 56 96 62 97
REMARK SMILES IDX 64 98 61 99 57 100 58 101 59 102 60 103
REMARK H PARENT 20 5 16 10 25 37 84 56 52 67
REMARK Flexibility Score: inf
ROOT
ATOM      1  C   UNL A   1      41.269  19.198  26.082  1.00  0.00     0.116 C 
ENDROOT
BRANCH   1   2
ATOM      2  N   UNL A   1      41.199  20.147  27.187  1.00  0.00    -0.355 N 
ATOM      3  C   UNL A   1      40.441  21.279  27.290  1.00  0.00     0.239 C 
ATOM      4  O   UNL A   1      40.528  21.964  28.311  1.00  0.00    -0.273 OA
ATOM      5  H   UNL A   1      41.775  19.947  27.960  1.00  0.00     0.163 HD
BRANCH   3   6
ATOM      6  C   UNL A   1      39.443  21.622  26.182  1.00  0.00     0.216 C 
BRANCH   6   7
ATOM      7  N   UNL A   1      39.149  23.047  26.106  1.00  0.00    -0.340 N 
ATOM      8  C   UNL A   1      37.946  23.702  25.927  1.00  0.00     0.292 C 
ATOM      9  O   UNL A   1      37.947  24.930  25.956  1.00  0.00    -0.265 OA
ATOM     10  H   UNL A   1      39.931  23.637  26.197  1.00  0.00     0.164 HD
BRANCH   8  11
ATOM     11  C   UNL A   1      36.623  22.910  25.755  1.00  0.00     0.252 C 
ATOM     12  O   UNL A   1      36.670  21.693  25.936  1.00  0.00    -0.283 OA
BRANCH  11  13
ATOM     13  C   UNL A   1      35.340  23.581  25.497  1.00  0.00     0.054 A 
ATOM     14  N   UNL A   1      33.637  25.032  25.555  1.00  0.00    -0.240 N 
ATOM     15  C   UNL A   1      34.908  24.788  26.017  1.00  0.00     0.117 A 
ATOM     16  C   UNL A   1      33.189  23.994  24.765  1.00  0.00     0.065 A 
ATOM     17  C   UNL A   1      34.254  23.084  24.687  1.00  0.00     0.012 A 
ATOM     18  C   UNL A   1      31.964  23.766  24.111  1.00  0.00     0.028 A 
ATOM     19  C   UNL A   1      34.087  21.930  23.890  1.00  0.00     0.011 A 
ATOM     20  C   UNL A   1      31.823  22.599  23.356  1.00  0.00     0.002 A 
ATOM     21  C   UNL A   1      32.872  21.697  23.236  1.00  0.00     0.001 A 
BRANCH  14  22
ATOM     22  S   UNL A   1      32.669  26.301  26.151  1.00  0.00     0.268 S 
ATOM     23  O   UNL A   1      33.538  27.240  26.847  1.00  0.00    -0.201 OA
ATOM     24  O   UNL A   1      31.513  25.695  26.777  1.00  0.00    -0.201 OA
BRANCH  22  25
ATOM     25  C   UNL A   1      32.033  27.213  24.753  1.00  0.00     0.088 A 
ATOM     26  C   UNL A   1      30.185  29.656  21.732  1.00  0.00     0.044 C 
ATOM     27  C   UNL A   1      30.836  28.779  22.759  1.00  0.00    -0.051 A 
ATOM     28  C   UNL A   1      30.043  28.024  23.631  1.00  0.00     0.005 A 
ATOM     29  C   UNL A   1      32.232  28.710  22.872  1.00  0.00     0.005 A 
ATOM     30  C   UNL A   1      30.637  27.249  24.626  1.00  0.00     0.022 A 
ATOM     31  C   UNL A   1      32.834  27.921  23.858  1.00  0.00     0.022 A 
ENDBRANCH  22  25
ENDBRANCH  14  22
ENDBRANCH  11  13
ENDBRANCH   8  11
ENDBRANCH   6   7
ENDBRANCH   3   6
ENDBRANCH   1   2
BRANCH   1  32
ATOM     32  C   UNL A   1      42.242  18.053  26.384  1.00  0.00     0.023 C 
BRANCH  32  33
ATOM     33  C   UNL A   1      43.598  18.181  25.693  1.00  0.00     0.023 C 
BRANCH  33  34
ATOM     34  C   UNL A   1      43.832  19.513  24.995  1.00  0.00     0.116 C 
BRANCH  34  35
ATOM     35  N   UNL A   1      45.134  20.127  25.228  1.00  0.00    -0.352 N 
ATOM     36  C   UNL A   1      45.460  21.472  25.345  1.00  0.00     0.251 C 
ATOM     37  H   UNL A   1      45.888  19.499  25.313  1.00  0.00     0.163 HD
ATOM     38  O   UNL A   1      46.625  21.863  25.340  1.00  0.00    -0.269 OA
BRANCH  36  39
ATOM     39  C   UNL A   1      44.392  22.438  25.710  1.00  0.00     0.039 A 
ATOM     40  C   UNL A   1      44.279  23.568  24.883  1.00  0.00     0.014 A 
ATOM     41  C   UNL A   1      43.871  22.454  26.994  1.00  0.00     0.014 A 
ATOM     42  C   UNL A   1      43.974  24.792  25.455  1.00  0.00     0.010 A 
ATOM     43  C   UNL A   1      43.753  23.672  27.603  1.00  0.00     0.010 A 
ATOM     44  C   UNL A   1      43.872  24.833  26.837  1.00  0.00    -0.014 A 
BRANCH  44  45
ATOM     45  C   UNL A   1      43.794  26.043  27.617  1.00  0.00     0.031 A 
ATOM     46  C   UNL A   1      42.551  26.806  27.491  1.00  0.00     0.074 A 
ATOM     47  C   UNL A   1      44.751  26.265  28.541  1.00  0.00     0.049 A 
ATOM     48  N   UNL A   1      42.400  28.017  27.869  1.00  0.00    -0.248 NA
ATOM     49  C   UNL A   1      41.355  26.255  26.852  1.00  0.00     0.031 C 
ATOM     50  C   UNL A   1      44.755  27.198  29.660  1.00  0.00     0.029 A 
ATOM     51  N   UNL A   1      46.066  25.808  28.473  1.00  0.00    -0.354 N 
ATOM     52  C   UNL A   1      41.049  28.287  27.850  1.00  0.00     0.074 A 
ATOM     53  C   UNL A   1      40.461  27.214  27.095  1.00  0.00     0.031 C 
ATOM     54  C   UNL A   1      46.033  27.473  29.986  1.00  0.00     0.029 A 
ATOM     55  C   UNL A   1      46.871  26.846  28.978  1.00  0.00     0.049 A 
ATOM     56  H   UNL A   1      46.371  24.933  28.139  1.00  0.00     0.167 HD
ATOM     57  C   UNL A   1      40.603  29.308  28.630  1.00  0.00     0.034 A 
ATOM     58  C   UNL A   1      47.691  27.518  28.113  1.00  0.00     0.034 A 
ATOM     59  C   UNL A   1      41.752  30.009  29.215  1.00  0.00     0.049 A 
ATOM     60  C   UNL A   1      47.262  28.964  27.933  1.00  0.00     0.074 A 
ATOM     61  C   UNL A   1      42.379  29.944  30.448  1.00  0.00     0.029 A 
ATOM     62  N   UNL A   1      42.651  30.622  28.354  1.00  0.00    -0.354 N 
ATOM     63  N   UNL A   1      46.072  29.437  28.202  1.00  0.00    -0.248 NA
ATOM     64  C   UNL A   1      48.179  29.999  27.484  1.00  0.00     0.031 C 
ATOM     65  C   UNL A   1      43.694  30.477  30.294  1.00  0.00     0.029 A 
ATOM     66  C   UNL A   1      43.849  30.897  28.983  1.00  0.00     0.049 A 
ATOM     67  H   UNL A   1      42.460  30.835  27.413  1.00  0.00     0.167 HD
ATOM     68  C   UNL A   1      46.044  30.800  28.006  1.00  0.00     0.074 A 
ATOM     69  C   UNL A   1      47.398  31.091  27.552  1.00  0.00     0.031 C 
ATOM     70  C   UNL A   1      44.917  31.559  28.237  1.00  0.00     0.034 A 
BRANCH  57  71
ATOM     71  C   UNL A   1      39.180  29.523  29.086  1.00  0.00     0.023 A 
ATOM     72  C   UNL A   1      38.607  30.792  28.862  1.00  0.00     0.031 A 
ATOM     73  C   UNL A   1      38.352  28.610  29.771  1.00  0.00     0.131 A 
ATOM     74  C   UNL A   1      37.333  31.129  29.349  1.00  0.00     0.055 A 
ATOM     75  C   UNL A   1      37.088  28.948  30.274  1.00  0.00     0.041 A 
ATOM     76  F   UNL A   1      38.695  27.334  29.966  1.00  0.00    -0.206 F 
ATOM     77  C   UNL A   1      36.571  30.216  30.070  1.00  0.00     0.022 A 
BRANCH  74  78
ATOM     78  S   UNL A   1      36.693  32.792  29.030  1.00  0.00     0.124 S 
ATOM     79  O   UNL A   1      35.970  32.606  27.776  1.00  0.00    -0.237 OA
ATOM     80  O   UNL A   1      35.881  33.044  30.215  1.00  0.00    -0.237 OA
ATOM     81  O   UNL A   1      37.904  33.606  28.929  1.00  0.00    -0.744 OA
ENDBRANCH  74  78
ENDBRANCH  57  71
BRANCH  58  82
ATOM     82  C   UNL A   1      48.265  26.595  27.069  1.00  0.00     0.023 A 
ATOM     83  C   UNL A   1      47.853  26.835  25.731  1.00  0.00     0.031 A 
ATOM     84  C   UNL A   1      49.480  25.924  27.260  1.00  0.00     0.131 A 
ATOM     85  C   UNL A   1      48.763  26.674  24.673  1.00  0.00     0.055 A 
ATOM     86  C   UNL A   1      50.329  25.643  26.177  1.00  0.00     0.041 A 
ATOM     87  F   UNL A   1      49.935  25.665  28.495  1.00  0.00    -0.206 F 
ATOM     88  C   UNL A   1      50.005  26.082  24.890  1.00  0.00     0.022 A 
BRANCH  85  89
ATOM     89  S   UNL A   1      48.449  27.583  23.122  1.00  0.00     0.124 S 
ATOM     90  O   UNL A   1      48.270  26.512  22.154  1.00  0.00    -0.237 OA
ATOM     91  O   UNL A   1      47.255  28.370  23.435  1.00  0.00    -0.237 OA
ATOM     92  O   UNL A   1      49.645  28.403  22.932  1.00  0.00    -0.744 OA
ENDBRANCH  85  89
ENDBRANCH  58  82
BRANCH  70  93
ATOM     93  C   UNL A   1      44.683  33.011  27.811  1.00  0.00     0.023 A 
ATOM     94  C   UNL A   1      44.622  34.075  28.711  1.00  0.00     0.031 A 
ATOM     95  C   UNL A   1      44.543  33.397  26.447  1.00  0.00     0.131 A 
ATOM     96  C   UNL A   1      44.455  35.407  28.291  1.00  0.00     0.055 A 
ATOM     97  C   UNL A   1      44.407  34.723  26.021  1.00  0.00     0.041 A 
ATOM     98  F   UNL A   1      44.546  32.514  25.440  1.00  0.00    -0.206 F 
ATOM     99  C   UNL A   1      44.361  35.745  26.948  1.00  0.00     0.022 A 
BRANCH  96 100
ATOM    100  S   UNL A   1      44.338  36.675  29.576  1.00  0.00     0.124 S 
ATOM    101  O   UNL A   1      45.742  36.890  29.918  1.00  0.00    -0.237 OA
ATOM    102  O   UNL A   1      43.689  37.772  28.864  1.00  0.00    -0.237 OA
ATOM    103  O   UNL A   1      43.532  36.041  30.615  1.00  0.00    -0.744 OA
ENDBRANCH  96 100
ENDBRANCH  70  93
ENDBRANCH  44  45
ENDBRANCH  36  39
ENDBRANCH  34  35
ENDBRANCH  33  34
ENDBRANCH  32  33
ENDBRANCH   1  32
TORSDOF 19
ENDMDL
