MODEL 1
REMARK VINA RESULT:     -11.4      0.000      0.000
REMARK SMILES Cc1ccc(NC(=O)c2ccccc2NC(=O)[C@H]2CCCC[C@H]2C(=O)NCCCCNC(=O)c2ccc(-c3c4nc(c(-c5cc(S(=O)(=O)[O-])ccc5F)c5ccc([nH]5)c(-c5cc(S(=O)(=O)[O-])ccc5F)c5nc(c(-c6cc(S(=O)(=O)[O-])ccc6F)c6ccc3[nH]6)C=C5)C=C4)cc2)cc1
REMARK SMILES IDX 28 1 27 2 26 3 24 4 25 5 23 7 18 8 19 9 20 10 22 11 21 12
REMARK SMILES IDX 16 13 15 14 17 16 14 17 9 18 10 19 11 20 13 21 12 22 7 23
REMARK SMILES IDX 6 24 8 26 5 27 1 28 2 29 3 30 98 31 4 32 97 33 29 34 30 35
REMARK SMILES IDX 31 36 32 37 33 39 34 40 35 41 96 42 36 43 95 44 37 45 38 46
REMARK SMILES IDX 39 47 89 48 40 49 94 50 88 51 90 52 41 53 93 54 87 55 86 56
REMARK SMILES IDX 42 58 74 59 54 60 73 61 55 62 58 63 72 64 91 65 56 66 57 67
REMARK SMILES IDX 71 69 92 70 59 71 43 72 44 73 52 74 45 75 51 76 53 77 50 78
REMARK SMILES IDX 46 79 47 80 48 81 49 82 75 83 76 84 84 85 77 86 83 87 85 88
REMARK SMILES IDX 82 89 78 90 79 91 80 92 81 93 60 94 61 95 69 96 62 97 68 98
REMARK SMILES IDX 70 99 67 100 63 101 64 102 65 103 66 104
REMARK H PARENT 26 6 15 15 6 25 31 38 90 57 58 68
REMARK Flexibility Score: inf
ROOT
ATOM      1  C   UNL A   1      43.931  24.189  30.711  1.00  0.00     0.023 C 
ENDROOT
BRANCH   1   2
ATOM      2  C   UNL A   1      44.449  23.496  31.975  1.00  0.00     0.116 C 
BRANCH   2   3
ATOM      3  N   UNL A   1      45.216  24.424  32.801  1.00  0.00    -0.356 N 
ATOM      4  C   UNL A   1      44.882  25.305  33.775  1.00  0.00     0.223 C 
ATOM      5  O   UNL A   1      45.782  26.083  34.127  1.00  0.00    -0.275 OA
ATOM      6  H   UNL A   1      46.182  24.406  32.610  1.00  0.00     0.163 HD
BRANCH   4   7
ATOM      7  C   UNL A   1      43.504  25.449  34.430  1.00  0.00     0.091 C 
ATOM      8  C   UNL A   1      43.165  24.310  35.419  1.00  0.00     0.091 C 
ATOM      9  C   UNL A   1      41.706  24.415  35.911  1.00  0.00     0.014 C 
ATOM     10  C   UNL A   1      41.293  25.831  36.334  1.00  0.00     0.001 C 
ATOM     11  C   UNL A   1      43.064  26.851  34.850  1.00  0.00     0.014 C 
ATOM     12  C   UNL A   1      41.589  26.864  35.251  1.00  0.00     0.001 C 
BRANCH   8  13
ATOM     13  C   UNL A   1      44.056  24.309  36.635  1.00  0.00     0.228 C 
ATOM     14  N   UNL A   1      44.973  23.356  36.934  1.00  0.00    -0.325 N 
ATOM     15  H   UNL A   1      45.538  23.651  37.685  1.00  0.00     0.169 HD
ATOM     16  O   UNL A   1      44.005  25.259  37.421  1.00  0.00    -0.274 OA
BRANCH  14  17
ATOM     17  C   UNL A   1      45.365  22.080  36.504  1.00  0.00     0.054 A 
ATOM     18  C   UNL A   1      46.013  21.186  37.402  1.00  0.00     0.063 A 
ATOM     19  C   UNL A   1      46.459  19.933  36.922  1.00  0.00     0.016 A 
ATOM     20  C   UNL A   1      46.249  19.543  35.605  1.00  0.00     0.001 A 
ATOM     21  C   UNL A   1      45.108  21.635  35.202  1.00  0.00     0.027 A 
ATOM     22  C   UNL A   1      45.561  20.390  34.749  1.00  0.00     0.002 A 
BRANCH  18  23
ATOM     23  C   UNL A   1      46.473  21.458  38.801  1.00  0.00     0.257 C 
ATOM     24  N   UNL A   1      47.748  21.312  39.292  1.00  0.00    -0.322 N 
ATOM     25  H   UNL A   1      47.798  21.441  40.267  1.00  0.00     0.170 HD
ATOM     26  O   UNL A   1      45.611  21.819  39.613  1.00  0.00    -0.269 OA
BRANCH  24  27
ATOM     27  C   UNL A   1      48.991  21.019  38.718  1.00  0.00     0.041 A 
ATOM     28  C   UNL A   1      51.975  19.203  36.251  1.00  0.00     0.044 C 
ATOM     29  C   UNL A   1      51.058  19.910  37.207  1.00  0.00    -0.051 A 
ATOM     30  C   UNL A   1      50.597  21.204  36.933  1.00  0.00     0.005 A 
ATOM     31  C   UNL A   1      50.576  19.239  38.332  1.00  0.00     0.005 A 
ATOM     32  C   UNL A   1      49.574  21.768  37.700  1.00  0.00     0.026 A 
ATOM     33  C   UNL A   1      49.567  19.806  39.105  1.00  0.00     0.026 A 
ENDBRANCH  24  27
ENDBRANCH  18  23
ENDBRANCH  14  17
ENDBRANCH   8  13
ENDBRANCH   4   7
ENDBRANCH   2   3
ENDBRANCH   1   2
BRANCH   1  34
ATOM     34  C   UNL A   1      43.758  23.339  29.468  1.00  0.00     0.023 C 
BRANCH  34  35
ATOM     35  C   UNL A   1      42.945  24.011  28.385  1.00  0.00     0.116 C 
BRANCH  35  36
ATOM     36  N   UNL A   1      42.453  23.134  27.325  1.00  0.00    -0.352 N 
ATOM     37  C   UNL A   1      41.260  23.226  26.615  1.00  0.00     0.251 C 
ATOM     38  H   UNL A   1      43.042  22.383  27.080  1.00  0.00     0.163 HD
ATOM     39  O   UNL A   1      40.944  22.377  25.798  1.00  0.00    -0.269 OA
BRANCH  37  40
ATOM     40  C   UNL A   1      40.434  24.451  26.786  1.00  0.00     0.039 A 
ATOM     41  C   UNL A   1      40.933  25.648  26.263  1.00  0.00     0.014 A 
ATOM     42  C   UNL A   1      39.437  24.468  27.750  1.00  0.00     0.014 A 
ATOM     43  C   UNL A   1      40.648  26.840  26.924  1.00  0.00     0.010 A 
ATOM     44  C   UNL A   1      39.316  25.607  28.516  1.00  0.00     0.010 A 
ATOM     45  C   UNL A   1      39.963  26.788  28.137  1.00  0.00    -0.014 A 
BRANCH  45  46
ATOM     46  C   UNL A   1      40.008  27.861  29.133  1.00  0.00     0.031 A 
ATOM     47  C   UNL A   1      39.062  29.000  29.058  1.00  0.00     0.074 A 
ATOM     48  C   UNL A   1      40.871  27.792  30.174  1.00  0.00     0.049 A 
ATOM     49  N   UNL A   1      39.274  30.158  29.586  1.00  0.00    -0.248 NA
ATOM     50  C   UNL A   1      37.800  28.942  28.328  1.00  0.00     0.031 C 
ATOM     51  C   UNL A   1      40.858  28.610  31.386  1.00  0.00     0.029 A 
ATOM     52  N   UNL A   1      42.082  27.104  30.241  1.00  0.00    -0.354 N 
ATOM     53  C   UNL A   1      38.107  30.885  29.513  1.00  0.00     0.074 A 
ATOM     54  C   UNL A   1      37.234  30.098  28.679  1.00  0.00     0.031 C 
ATOM     55  C   UNL A   1      42.075  28.579  31.949  1.00  0.00     0.029 A 
ATOM     56  C   UNL A   1      42.953  27.850  31.052  1.00  0.00     0.049 A 
ATOM     57  H   UNL A   1      42.289  26.249  29.800  1.00  0.00     0.167 HD
ATOM     58  C   UNL A   1      37.970  32.016  30.263  1.00  0.00     0.034 A 
ATOM     59  C   UNL A   1      44.140  28.320  30.573  1.00  0.00     0.034 A 
ATOM     60  C   UNL A   1      39.199  32.324  30.994  1.00  0.00     0.049 A 
ATOM     61  C   UNL A   1      44.247  29.829  30.568  1.00  0.00     0.074 A 
ATOM     62  C   UNL A   1      39.587  32.130  32.309  1.00  0.00     0.029 A 
ATOM     63  N   UNL A   1      40.347  32.674  30.293  1.00  0.00    -0.354 N 
ATOM     64  N   UNL A   1      43.238  30.639  30.741  1.00  0.00    -0.248 NA
ATOM     65  C   UNL A   1      45.498  30.543  30.337  1.00  0.00     0.031 C 
ATOM     66  C   UNL A   1      40.992  32.317  32.383  1.00  0.00     0.029 A 
ATOM     67  C   UNL A   1      41.452  32.653  31.122  1.00  0.00     0.049 A 
ATOM     68  H   UNL A   1      40.370  32.905  29.335  1.00  0.00     0.167 HD
ATOM     69  C   UNL A   1      43.657  31.937  30.584  1.00  0.00     0.074 A 
ATOM     70  C   UNL A   1      45.090  31.822  30.378  1.00  0.00     0.031 C 
ATOM     71  C   UNL A   1      42.776  32.985  30.609  1.00  0.00     0.034 A 
BRANCH  58  72
ATOM     72  C   UNL A   1      36.644  32.687  30.568  1.00  0.00     0.023 A 
ATOM     73  C   UNL A   1      35.981  33.385  29.535  1.00  0.00     0.031 A 
ATOM     74  C   UNL A   1      36.004  32.730  31.820  1.00  0.00     0.131 A 
ATOM     75  C   UNL A   1      34.832  34.159  29.784  1.00  0.00     0.055 A 
ATOM     76  C   UNL A   1      34.897  33.550  32.086  1.00  0.00     0.041 A 
ATOM     77  F   UNL A   1      36.373  31.937  32.833  1.00  0.00    -0.206 F 
ATOM     78  C   UNL A   1      34.312  34.283  31.066  1.00  0.00     0.022 A 
BRANCH  75  79
ATOM     79  S   UNL A   1      34.023  35.004  28.399  1.00  0.00     0.124 S 
ATOM     80  O   UNL A   1      34.769  34.502  27.250  1.00  0.00    -0.237 OA
ATOM     81  O   UNL A   1      32.643  34.549  28.525  1.00  0.00    -0.237 OA
ATOM     82  O   UNL A   1      34.232  36.421  28.699  1.00  0.00    -0.744 OA
ENDBRANCH  75  79
ENDBRANCH  58  72
BRANCH  59  83
ATOM     83  C   UNL A   1      44.783  27.412  29.587  1.00  0.00     0.023 A 
ATOM     84  C   UNL A   1      44.310  27.454  28.261  1.00  0.00     0.031 A 
ATOM     85  C   UNL A   1      46.044  26.844  29.820  1.00  0.00     0.131 A 
ATOM     86  C   UNL A   1      45.144  27.066  27.203  1.00  0.00     0.055 A 
ATOM     87  C   UNL A   1      46.857  26.421  28.760  1.00  0.00     0.041 A 
ATOM     88  F   UNL A   1      46.563  26.818  31.056  1.00  0.00    -0.206 F 
ATOM     89  C   UNL A   1      46.424  26.566  27.442  1.00  0.00     0.022 A 
BRANCH  86  90
ATOM     90  S   UNL A   1      44.597  27.433  25.513  1.00  0.00     0.124 S 
ATOM     91  O   UNL A   1      43.517  28.387  25.737  1.00  0.00    -0.237 OA
ATOM     92  O   UNL A   1      45.814  27.973  24.914  1.00  0.00    -0.237 OA
ATOM     93  O   UNL A   1      44.183  26.133  24.990  1.00  0.00    -0.744 OA
ENDBRANCH  86  90
ENDBRANCH  59  83
BRANCH  71  94
ATOM     94  C   UNL A   1      43.084  34.423  30.228  1.00  0.00     0.023 A 
ATOM     95  C   UNL A   1      43.113  34.890  28.906  1.00  0.00     0.031 A 
ATOM     96  C   UNL A   1      43.296  35.412  31.222  1.00  0.00     0.131 A 
ATOM     97  C   UNL A   1      43.424  36.230  28.607  1.00  0.00     0.055 A 
ATOM     98  C   UNL A   1      43.525  36.761  30.927  1.00  0.00     0.041 A 
ATOM     99  F   UNL A   1      43.280  35.116  32.531  1.00  0.00    -0.206 F 
ATOM    100  C   UNL A   1      43.610  37.175  29.609  1.00  0.00     0.022 A 
BRANCH  97 101
ATOM    101  S   UNL A   1      43.653  36.689  26.868  1.00  0.00     0.124 S 
ATOM    102  O   UNL A   1      44.992  36.173  26.594  1.00  0.00    -0.237 OA
ATOM    103  O   UNL A   1      42.557  35.984  26.212  1.00  0.00    -0.237 OA
ATOM    104  O   UNL A   1      43.540  38.145  26.876  1.00  0.00    -0.744 OA
ENDBRANCH  97 101
ENDBRANCH  71  94
ENDBRANCH  45  46
ENDBRANCH  37  40
ENDBRANCH  35  36
ENDBRANCH  34  35
ENDBRANCH   1  34
TORSDOF 18
ENDMDL
MODEL 2
REMARK VINA RESULT:     -11.0      4.790     12.342
REMARK SMILES Cc1ccc(NC(=O)c2ccccc2NC(=O)[C@H]2CCCC[C@H]2C(=O)NCCCCNC(=O)c2ccc(-c3c4nc(c(-c5cc(S(=O)(=O)[O-])ccc5F)c5ccc([nH]5)c(-c5cc(S(=O)(=O)[O-])ccc5F)c5nc(c(-c6cc(S(=O)(=O)[O-])ccc6F)c6ccc3[nH]6)C=C5)C=C4)cc2)cc1
REMARK SMILES IDX 28 1 27 2 26 3 24 4 25 5 23 7 18 8 19 9 20 10 22 11 21 12
REMARK SMILES IDX 16 13 15 14 17 16 14 17 9 18 10 19 11 20 13 21 12 22 7 23
REMARK SMILES IDX 6 24 8 26 5 27 1 28 2 29 3 30 98 31 4 32 97 33 29 34 30 35
REMARK SMILES IDX 31 36 32 37 33 39 34 40 35 41 96 42 36 43 95 44 37 45 38 46
REMARK SMILES IDX 39 47 89 48 40 49 94 50 88 51 90 52 41 53 93 54 87 55 86 56
REMARK SMILES IDX 42 58 74 59 54 60 73 61 55 62 58 63 72 64 91 65 56 66 57 67
REMARK SMILES IDX 71 69 92 70 59 71 43 72 44 73 52 74 45 75 51 76 53 77 50 78
REMARK SMILES IDX 46 79 47 80 48 81 49 82 75 83 76 84 84 85 77 86 83 87 85 88
REMARK SMILES IDX 82 89 78 90 79 91 80 92 81 93 60 94 61 95 69 96 62 97 68 98
REMARK SMILES IDX 70 99 67 100 63 101 64 102 65 103 66 104
REMARK H PARENT 26 6 15 15 6 25 31 38 90 57 58 68
REMARK Flexibility Score: inf
ROOT
ATOM      1  C   UNL A   1      41.118  31.491  32.554  1.00  0.00     0.023 C 
ENDROOT
BRANCH   1   2
ATOM      2  C   UNL A   1      39.687  31.941  32.246  1.00  0.00     0.116 C 
BRANCH   2   3
ATOM      3  N   UNL A   1      38.774  31.538  33.312  1.00  0.00    -0.356 N 
ATOM      4  C   UNL A   1      37.645  32.079  33.831  1.00  0.00     0.223 C 
ATOM      5  O   UNL A   1      37.232  31.558  34.878  1.00  0.00    -0.275 OA
ATOM      6  H   UNL A   1      39.033  30.693  33.747  1.00  0.00     0.163 HD
BRANCH   4   7
ATOM      7  C   UNL A   1      36.879  33.282  33.270  1.00  0.00     0.091 C 
ATOM      8  C   UNL A   1      36.438  33.107  31.799  1.00  0.00     0.091 C 
ATOM      9  C   UNL A   1      35.828  34.409  31.240  1.00  0.00     0.014 C 
ATOM     10  C   UNL A   1      34.814  35.074  32.180  1.00  0.00     0.001 C 
ATOM     11  C   UNL A   1      35.871  33.970  34.191  1.00  0.00     0.014 C 
ATOM     12  C   UNL A   1      35.381  35.283  33.581  1.00  0.00     0.001 C 
BRANCH   8  13
ATOM     13  C   UNL A   1      35.415  32.013  31.622  1.00  0.00     0.228 C 
ATOM     14  N   UNL A   1      35.627  30.836  30.984  1.00  0.00    -0.325 N 
ATOM     15  H   UNL A   1      34.870  30.226  31.135  1.00  0.00     0.169 HD
ATOM     16  O   UNL A   1      34.296  32.148  32.125  1.00  0.00    -0.274 OA
BRANCH  14  17
ATOM     17  C   UNL A   1      36.592  30.220  30.174  1.00  0.00     0.054 A 
ATOM     18  C   UNL A   1      36.698  30.559  28.796  1.00  0.00     0.063 A 
ATOM     19  C   UNL A   1      37.633  29.872  27.989  1.00  0.00     0.016 A 
ATOM     20  C   UNL A   1      38.473  28.899  28.518  1.00  0.00     0.001 A 
ATOM     21  C   UNL A   1      37.495  29.285  30.694  1.00  0.00     0.027 A 
ATOM     22  C   UNL A   1      38.412  28.617  29.874  1.00  0.00     0.002 A 
BRANCH  18  23
ATOM     23  C   UNL A   1      35.800  31.452  27.996  1.00  0.00     0.257 C 
ATOM     24  N   UNL A   1      34.680  31.078  27.293  1.00  0.00    -0.322 N 
ATOM     25  H   UNL A   1      34.308  31.810  26.750  1.00  0.00     0.170 HD
ATOM     26  O   UNL A   1      36.116  32.646  27.928  1.00  0.00    -0.269 OA
BRANCH  24  27
ATOM     27  C   UNL A   1      33.950  29.889  27.174  1.00  0.00     0.041 A 
ATOM     28  C   UNL A   1      31.378  26.870  25.573  1.00  0.00     0.044 C 
ATOM     29  C   UNL A   1      32.270  27.845  26.285  1.00  0.00    -0.051 A 
ATOM     30  C   UNL A   1      33.657  27.659  26.313  1.00  0.00     0.005 A 
ATOM     31  C   UNL A   1      31.728  29.004  26.842  1.00  0.00     0.005 A 
ATOM     32  C   UNL A   1      34.500  28.674  26.774  1.00  0.00     0.026 A 
ATOM     33  C   UNL A   1      32.565  30.011  27.315  1.00  0.00     0.026 A 
ENDBRANCH  24  27
ENDBRANCH  18  23
ENDBRANCH  14  17
ENDBRANCH   8  13
ENDBRANCH   4   7
ENDBRANCH   2   3
ENDBRANCH   1   2
BRANCH   1  34
ATOM     34  C   UNL A   1      41.349  30.726  33.842  1.00  0.00     0.023 C 
BRANCH  34  35
ATOM     35  C   UNL A   1      42.801  30.674  34.263  1.00  0.00     0.116 C 
BRANCH  35  36
ATOM     36  N   UNL A   1      43.046  30.315  35.657  1.00  0.00    -0.352 N 
ATOM     37  C   UNL A   1      43.373  29.068  36.181  1.00  0.00     0.251 C 
ATOM     38  H   UNL A   1      42.971  31.049  36.310  1.00  0.00     0.163 HD
ATOM     39  O   UNL A   1      43.481  28.898  37.385  1.00  0.00    -0.269 OA
BRANCH  37  40
ATOM     40  C   UNL A   1      43.709  27.974  35.232  1.00  0.00     0.039 A 
ATOM     41  C   UNL A   1      44.936  28.047  34.566  1.00  0.00     0.014 A 
ATOM     42  C   UNL A   1      42.695  27.161  34.748  1.00  0.00     0.014 A 
ATOM     43  C   UNL A   1      45.028  27.547  33.271  1.00  0.00     0.010 A 
ATOM     44  C   UNL A   1      42.722  26.846  33.407  1.00  0.00     0.010 A 
ATOM     45  C   UNL A   1      43.870  27.085  32.645  1.00  0.00    -0.014 A 
BRANCH  45  46
ATOM     46  C   UNL A   1      43.728  26.980  31.191  1.00  0.00     0.031 A 
ATOM     47  C   UNL A   1      43.940  25.683  30.505  1.00  0.00     0.074 A 
ATOM     48  C   UNL A   1      43.337  28.052  30.463  1.00  0.00     0.049 A 
ATOM     49  N   UNL A   1      44.256  25.562  29.259  1.00  0.00    -0.248 NA
ATOM     50  C   UNL A   1      43.858  24.396  31.188  1.00  0.00     0.031 C 
ATOM     51  C   UNL A   1      42.880  28.055  29.074  1.00  0.00     0.029 A 
ATOM     52  N   UNL A   1      43.487  29.403  30.776  1.00  0.00    -0.354 N 
ATOM     53  C   UNL A   1      44.151  24.233  28.916  1.00  0.00     0.074 A 
ATOM     54  C   UNL A   1      43.945  23.544  30.165  1.00  0.00     0.031 C 
ATOM     55  C   UNL A   1      43.015  29.291  28.571  1.00  0.00     0.029 A 
ATOM     56  C   UNL A   1      43.687  30.099  29.572  1.00  0.00     0.049 A 
ATOM     57  H   UNL A   1      43.456  29.797  31.676  1.00  0.00     0.167 HD
ATOM     58  C   UNL A   1      44.133  23.877  27.599  1.00  0.00     0.034 A 
ATOM     59  C   UNL A   1      44.821  30.826  29.353  1.00  0.00     0.034 A 
ATOM     60  C   UNL A   1      44.329  25.037  26.730  1.00  0.00     0.049 A 
ATOM     61  C   UNL A   1      45.655  30.327  28.194  1.00  0.00     0.074 A 
ATOM     62  C   UNL A   1      43.457  25.817  25.990  1.00  0.00     0.029 A 
ATOM     63  N   UNL A   1      45.542  25.715  26.749  1.00  0.00    -0.354 N 
ATOM     64  N   UNL A   1      45.488  29.173  27.610  1.00  0.00    -0.248 NA
ATOM     65  C   UNL A   1      46.766  31.083  27.624  1.00  0.00     0.031 C 
ATOM     66  C   UNL A   1      44.144  26.997  25.604  1.00  0.00     0.029 A 
ATOM     67  C   UNL A   1      45.439  26.922  26.085  1.00  0.00     0.049 A 
ATOM     68  H   UNL A   1      46.364  25.380  27.178  1.00  0.00     0.167 HD
ATOM     69  C   UNL A   1      46.467  28.989  26.664  1.00  0.00     0.074 A 
ATOM     70  C   UNL A   1      47.213  30.235  26.683  1.00  0.00     0.031 C 
ATOM     71  C   UNL A   1      46.589  27.813  25.974  1.00  0.00     0.034 A 
BRANCH  58  72
ATOM     72  C   UNL A   1      43.654  22.535  27.080  1.00  0.00     0.023 A 
ATOM     73  C   UNL A   1      44.520  21.770  26.269  1.00  0.00     0.031 A 
ATOM     74  C   UNL A   1      42.382  21.970  27.288  1.00  0.00     0.131 A 
ATOM     75  C   UNL A   1      44.088  20.594  25.627  1.00  0.00     0.055 A 
ATOM     76  C   UNL A   1      41.927  20.835  26.601  1.00  0.00     0.041 A 
ATOM     77  F   UNL A   1      41.537  22.447  28.210  1.00  0.00    -0.206 F 
ATOM     78  C   UNL A   1      42.778  20.147  25.753  1.00  0.00     0.022 A 
BRANCH  75  79
ATOM     79  S   UNL A   1      45.269  19.653  24.623  1.00  0.00     0.124 S 
ATOM     80  O   UNL A   1      44.660  19.705  23.298  1.00  0.00    -0.237 OA
ATOM     81  O   UNL A   1      46.500  20.414  24.802  1.00  0.00    -0.237 OA
ATOM     82  O   UNL A   1      45.267  18.331  25.251  1.00  0.00    -0.744 OA
ENDBRANCH  75  79
ENDBRANCH  58  72
BRANCH  59  83
ATOM     83  C   UNL A   1      45.356  31.473  30.580  1.00  0.00     0.023 A 
ATOM     84  C   UNL A   1      44.830  32.731  30.932  1.00  0.00     0.031 A 
ATOM     85  C   UNL A   1      46.028  30.739  31.568  1.00  0.00     0.131 A 
ATOM     86  C   UNL A   1      44.861  33.158  32.268  1.00  0.00     0.055 A 
ATOM     87  C   UNL A   1      46.091  31.190  32.892  1.00  0.00     0.041 A 
ATOM     88  F   UNL A   1      46.508  29.516  31.300  1.00  0.00    -0.206 F 
ATOM     89  C   UNL A   1      45.473  32.387  33.256  1.00  0.00     0.022 A 
BRANCH  86  90
ATOM     90  S   UNL A   1      43.901  34.633  32.709  1.00  0.00     0.124 S 
ATOM     91  O   UNL A   1      43.851  34.546  34.164  1.00  0.00    -0.237 OA
ATOM     92  O   UNL A   1      44.726  35.704  32.159  1.00  0.00    -0.237 OA
ATOM     93  O   UNL A   1      42.624  34.434  32.028  1.00  0.00    -0.744 OA
ENDBRANCH  86  90
ENDBRANCH  59  83
BRANCH  71  94
ATOM     94  C   UNL A   1      47.750  27.416  25.080  1.00  0.00     0.023 A 
ATOM     95  C   UNL A   1      47.838  27.751  23.721  1.00  0.00     0.031 A 
ATOM     96  C   UNL A   1      48.873  26.725  25.605  1.00  0.00     0.131 A 
ATOM     97  C   UNL A   1      48.929  27.340  22.931  1.00  0.00     0.055 A 
ATOM     98  C   UNL A   1      49.994  26.388  24.838  1.00  0.00     0.041 A 
ATOM     99  F   UNL A   1      48.938  26.355  26.892  1.00  0.00    -0.206 F 
ATOM    100  C   UNL A   1      50.020  26.678  23.485  1.00  0.00     0.022 A 
BRANCH  97 101
ATOM    101  S   UNL A   1      48.850  27.629  21.143  1.00  0.00     0.124 S 
ATOM    102  O   UNL A   1      49.665  28.832  20.997  1.00  0.00    -0.237 OA
ATOM    103  O   UNL A   1      49.428  26.404  20.602  1.00  0.00    -0.237 OA
ATOM    104  O   UNL A   1      47.424  27.812  20.885  1.00  0.00    -0.744 OA
ENDBRANCH  97 101
ENDBRANCH  71  94
ENDBRANCH  45  46
ENDBRANCH  37  40
ENDBRANCH  35  36
ENDBRANCH  34  35
ENDBRANCH   1  34
TORSDOF 18
ENDMDL
MODEL 3
REMARK VINA RESULT:     -10.8      5.223     11.812
REMARK SMILES Cc1ccc(NC(=O)c2ccccc2NC(=O)[C@H]2CCCC[C@H]2C(=O)NCCCCNC(=O)c2ccc(-c3c4nc(c(-c5cc(S(=O)(=O)[O-])ccc5F)c5ccc([nH]5)c(-c5cc(S(=O)(=O)[O-])ccc5F)c5nc(c(-c6cc(S(=O)(=O)[O-])ccc6F)c6ccc3[nH]6)C=C5)C=C4)cc2)cc1
REMARK SMILES IDX 28 1 27 2 26 3 24 4 25 5 23 7 18 8 19 9 20 10 22 11 21 12
REMARK SMILES IDX 16 13 15 14 17 16 14 17 9 18 10 19 11 20 13 21 12 22 7 23
REMARK SMILES IDX 6 24 8 26 5 27 1 28 2 29 3 30 98 31 4 32 97 33 29 34 30 35
REMARK SMILES IDX 31 36 32 37 33 39 34 40 35 41 96 42 36 43 95 44 37 45 38 46
REMARK SMILES IDX 39 47 89 48 40 49 94 50 88 51 90 52 41 53 93 54 87 55 86 56
REMARK SMILES IDX 42 58 74 59 54 60 73 61 55 62 58 63 72 64 91 65 56 66 57 67
REMARK SMILES IDX 71 69 92 70 59 71 43 72 44 73 52 74 45 75 51 76 53 77 50 78
REMARK SMILES IDX 46 79 47 80 48 81 49 82 75 83 76 84 84 85 77 86 83 87 85 88
REMARK SMILES IDX 82 89 78 90 79 91 80 92 81 93 60 94 61 95 69 96 62 97 68 98
REMARK SMILES IDX 70 99 67 100 63 101 64 102 65 103 66 104
REMARK H PARENT 26 6 15 15 6 25 31 38 90 57 58 68
REMARK Flexibility Score: inf
ROOT
ATOM      1  C   UNL A   1      33.600  26.966  24.467  1.00  0.00     0.023 C 
ENDROOT
BRANCH   1   2
ATOM      2  C   UNL A   1      33.542  26.651  25.965  1.00  0.00     0.116 C 
BRANCH   2   3
ATOM      3  N   UNL A   1      32.233  26.121  26.335  1.00  0.00    -0.356 N 
ATOM      4  C   UNL A   1      31.473  25.099  25.872  1.00  0.00     0.223 C 
ATOM      5  O   UNL A   1      30.310  25.058  26.301  1.00  0.00    -0.275 OA
ATOM      6  H   UNL A   1      31.814  26.609  27.080  1.00  0.00     0.163 HD
BRANCH   4   7
ATOM      7  C   UNL A   1      31.906  24.041  24.852  1.00  0.00     0.091 C 
ATOM      8  C   UNL A   1      33.373  23.582  25.016  1.00  0.00     0.091 C 
ATOM      9  C   UNL A   1      33.799  22.652  23.862  1.00  0.00     0.014 C 
ATOM     10  C   UNL A   1      32.775  21.556  23.536  1.00  0.00     0.001 C 
ATOM     11  C   UNL A   1      30.899  22.944  24.501  1.00  0.00     0.014 C 
ATOM     12  C   UNL A   1      31.379  22.125  23.303  1.00  0.00     0.001 C 
BRANCH   8  13
ATOM     13  C   UNL A   1      33.611  22.842  26.308  1.00  0.00     0.228 C 
ATOM     14  N   UNL A   1      34.680  22.050  26.573  1.00  0.00    -0.325 N 
ATOM     15  H   UNL A   1      34.695  21.808  27.527  1.00  0.00     0.169 HD
ATOM     16  O   UNL A   1      32.812  22.981  27.239  1.00  0.00    -0.274 OA
BRANCH  14  17
ATOM     17  C   UNL A   1      35.768  21.470  25.907  1.00  0.00     0.054 A 
ATOM     18  C   UNL A   1      36.963  22.214  25.698  1.00  0.00     0.063 A 
ATOM     19  C   UNL A   1      38.018  21.627  24.962  1.00  0.00     0.016 A 
ATOM     20  C   UNL A   1      37.927  20.331  24.468  1.00  0.00     0.001 A 
ATOM     21  C   UNL A   1      35.729  20.145  25.456  1.00  0.00     0.027 A 
ATOM     22  C   UNL A   1      36.787  19.586  24.728  1.00  0.00     0.002 A 
BRANCH  18  23
ATOM     23  C   UNL A   1      37.214  23.658  26.003  1.00  0.00     0.257 C 
ATOM     24  N   UNL A   1      38.346  24.198  26.565  1.00  0.00    -0.322 N 
ATOM     25  H   UNL A   1      38.248  25.154  26.778  1.00  0.00     0.170 HD
ATOM     26  O   UNL A   1      36.294  24.449  25.760  1.00  0.00    -0.269 OA
BRANCH  24  27
ATOM     27  C   UNL A   1      39.607  23.693  26.904  1.00  0.00     0.041 A 
ATOM     28  C   UNL A   1      43.086  22.715  29.191  1.00  0.00     0.044 C 
ATOM     29  C   UNL A   1      41.957  23.013  28.249  1.00  0.00    -0.051 A 
ATOM     30  C   UNL A   1      41.020  22.026  27.918  1.00  0.00     0.005 A 
ATOM     31  C   UNL A   1      41.774  24.312  27.772  1.00  0.00     0.005 A 
ATOM     32  C   UNL A   1      39.850  22.361  27.230  1.00  0.00     0.026 A 
ATOM     33  C   UNL A   1      40.617  24.644  27.073  1.00  0.00     0.026 A 
ENDBRANCH  24  27
ENDBRANCH  18  23
ENDBRANCH  14  17
ENDBRANCH   8  13
ENDBRANCH   4   7
ENDBRANCH   2   3
ENDBRANCH   1   2
BRANCH   1  34
ATOM     34  C   UNL A   1      34.155  28.315  24.057  1.00  0.00     0.023 C 
BRANCH  34  35
ATOM     35  C   UNL A   1      34.138  29.339  25.169  1.00  0.00     0.116 C 
BRANCH  35  36
ATOM     36  N   UNL A   1      32.961  30.204  25.218  1.00  0.00    -0.352 N 
ATOM     37  C   UNL A   1      32.424  30.867  26.317  1.00  0.00     0.251 C 
ATOM     38  H   UNL A   1      32.488  30.335  24.364  1.00  0.00     0.163 HD
ATOM     39  O   UNL A   1      31.388  31.505  26.226  1.00  0.00    -0.269 OA
BRANCH  37  40
ATOM     40  C   UNL A   1      33.209  30.883  27.580  1.00  0.00     0.039 A 
ATOM     41  C   UNL A   1      33.478  32.125  28.162  1.00  0.00     0.014 A 
ATOM     42  C   UNL A   1      33.959  29.769  27.926  1.00  0.00     0.014 A 
ATOM     43  C   UNL A   1      34.677  32.301  28.846  1.00  0.00     0.010 A 
ATOM     44  C   UNL A   1      35.225  29.987  28.425  1.00  0.00     0.010 A 
ATOM     45  C   UNL A   1      35.612  31.266  28.839  1.00  0.00    -0.014 A 
BRANCH  45  46
ATOM     46  C   UNL A   1      37.040  31.469  29.096  1.00  0.00     0.031 A 
ATOM     47  C   UNL A   1      38.019  30.394  28.805  1.00  0.00     0.074 A 
ATOM     48  C   UNL A   1      37.491  32.665  29.542  1.00  0.00     0.049 A 
ATOM     49  N   UNL A   1      39.178  30.295  29.364  1.00  0.00    -0.248 NA
ATOM     50  C   UNL A   1      37.748  29.298  27.882  1.00  0.00     0.031 C 
ATOM     51  C   UNL A   1      38.879  33.125  29.580  1.00  0.00     0.029 A 
ATOM     52  N   UNL A   1      36.791  33.633  30.261  1.00  0.00    -0.354 N 
ATOM     53  C   UNL A   1      39.894  29.324  28.700  1.00  0.00     0.074 A 
ATOM     54  C   UNL A   1      38.940  28.703  27.816  1.00  0.00     0.031 C 
ATOM     55  C   UNL A   1      38.984  34.125  30.469  1.00  0.00     0.029 A 
ATOM     56  C   UNL A   1      37.700  34.257  31.132  1.00  0.00     0.049 A 
ATOM     57  H   UNL A   1      35.834  33.842  30.174  1.00  0.00     0.167 HD
ATOM     58  C   UNL A   1      41.242  29.234  28.889  1.00  0.00     0.034 A 
ATOM     59  C   UNL A   1      37.516  34.238  32.483  1.00  0.00     0.034 A 
ATOM     60  C   UNL A   1      41.705  30.190  29.895  1.00  0.00     0.049 A 
ATOM     61  C   UNL A   1      38.615  33.527  33.242  1.00  0.00     0.074 A 
ATOM     62  C   UNL A   1      42.329  31.423  29.806  1.00  0.00     0.029 A 
ATOM     63  N   UNL A   1      41.296  30.051  31.216  1.00  0.00    -0.354 N 
ATOM     64  N   UNL A   1      39.519  32.767  32.688  1.00  0.00    -0.248 NA
ATOM     65  C   UNL A   1      38.758  33.594  34.693  1.00  0.00     0.031 C 
ATOM     66  C   UNL A   1      42.249  32.048  31.077  1.00  0.00     0.029 A 
ATOM     67  C   UNL A   1      41.602  31.185  31.944  1.00  0.00     0.049 A 
ATOM     68  H   UNL A   1      40.850  29.253  31.584  1.00  0.00     0.167 HD
ATOM     69  C   UNL A   1      40.304  32.200  33.662  1.00  0.00     0.074 A 
ATOM     70  C   UNL A   1      39.813  32.787  34.896  1.00  0.00     0.031 C 
ATOM     71  C   UNL A   1      41.267  31.274  33.361  1.00  0.00     0.034 A 
BRANCH  58  72
ATOM     72  C   UNL A   1      42.189  28.490  27.968  1.00  0.00     0.023 A 
ATOM     73  C   UNL A   1      43.173  27.651  28.536  1.00  0.00     0.031 A 
ATOM     74  C   UNL A   1      42.224  28.580  26.564  1.00  0.00     0.131 A 
ATOM     75  C   UNL A   1      44.180  27.056  27.753  1.00  0.00     0.055 A 
ATOM     76  C   UNL A   1      43.261  28.040  25.788  1.00  0.00     0.041 A 
ATOM     77  F   UNL A   1      41.229  29.137  25.864  1.00  0.00    -0.206 F 
ATOM     78  C   UNL A   1      44.256  27.285  26.385  1.00  0.00     0.022 A 
BRANCH  75  79
ATOM     79  S   UNL A   1      45.393  25.972  28.554  1.00  0.00     0.124 S 
ATOM     80  O   UNL A   1      46.578  26.821  28.611  1.00  0.00    -0.237 OA
ATOM     81  O   UNL A   1      44.746  25.675  29.827  1.00  0.00    -0.237 OA
ATOM     82  O   UNL A   1      45.490  24.838  27.635  1.00  0.00    -0.744 OA
ENDBRANCH  75  79
ENDBRANCH  58  72
BRANCH  59  83
ATOM     83  C   UNL A   1      36.086  34.285  32.887  1.00  0.00     0.023 A 
ATOM     84  C   UNL A   1      35.412  35.513  32.746  1.00  0.00     0.031 A 
ATOM     85  C   UNL A   1      35.315  33.120  33.009  1.00  0.00     0.131 A 
ATOM     86  C   UNL A   1      34.018  35.539  32.591  1.00  0.00     0.055 A 
ATOM     87  C   UNL A   1      33.920  33.157  32.894  1.00  0.00     0.041 A 
ATOM     88  F   UNL A   1      35.904  31.919  33.100  1.00  0.00    -0.206 F 
ATOM     89  C   UNL A   1      33.267  34.364  32.646  1.00  0.00     0.022 A 
BRANCH  86  90
ATOM     90  S   UNL A   1      33.247  37.107  32.106  1.00  0.00     0.124 S 
ATOM     91  O   UNL A   1      31.998  37.084  32.858  1.00  0.00    -0.237 OA
ATOM     92  O   UNL A   1      34.242  38.079  32.546  1.00  0.00    -0.237 OA
ATOM     93  O   UNL A   1      33.104  36.992  30.656  1.00  0.00    -0.744 OA
ENDBRANCH  86  90
ENDBRANCH  59  83
BRANCH  71  94
ATOM     94  C   UNL A   1      42.033  30.423  34.359  1.00  0.00     0.023 A 
ATOM     95  C   UNL A   1      41.676  29.110  34.699  1.00  0.00     0.031 A 
ATOM     96  C   UNL A   1      43.224  30.900  34.963  1.00  0.00     0.131 A 
ATOM     97  C   UNL A   1      42.410  28.371  35.646  1.00  0.00     0.055 A 
ATOM     98  C   UNL A   1      43.999  30.135  35.842  1.00  0.00     0.041 A 
ATOM     99  F   UNL A   1      43.699  32.131  34.718  1.00  0.00    -0.206 F 
ATOM    100  C   UNL A   1      43.583  28.866  36.206  1.00  0.00     0.022 A 
BRANCH  97 101
ATOM    101  S   UNL A   1      41.749  26.770  36.183  1.00  0.00     0.124 S 
ATOM    102  O   UNL A   1      40.839  27.166  37.255  1.00  0.00    -0.237 OA
ATOM    103  O   UNL A   1      41.116  26.270  34.968  1.00  0.00    -0.237 OA
ATOM    104  O   UNL A   1      42.934  26.035  36.618  1.00  0.00    -0.744 OA
ENDBRANCH  97 101
ENDBRANCH  71  94
ENDBRANCH  45  46
ENDBRANCH  37  40
ENDBRANCH  35  36
ENDBRANCH  34  35
ENDBRANCH   1  34
TORSDOF 18
ENDMDL
