MODEL 1
REMARK VINA RESULT:     -12.3      0.000      0.000
REMARK SMILES C[C@]12CCC(=O)N1[C@@H](C(=O)N1C[C@H](O)C[C@@H]1C(=O)NCCCCNC(=O)c1ccc(-c3c4nc(c(-c5cc(S(=O)(=O)[O-])ccc5F)c5ccc([nH]5)c(-c5cc(S(=O)(=O)[O-])ccc5F)c5nc(c(-c6cc(S(=O)(=O)[O-])ccc6F)c6ccc3[nH]6)C=C5)C=C4)cc1)CS2
REMARK SMILES IDX 22 1 21 2 20 3 19 4 17 5 18 6 16 8 11 9 12 10 13 11 15 12
REMARK SMILES IDX 9 13 10 14 8 15 1 16 2 17 3 18 7 19 91 20 4 21 5 22 90 23
REMARK SMILES IDX 6 24 14 25 23 27 24 28 25 29 26 31 27 32 28 33 89 34 29 35
REMARK SMILES IDX 88 36 30 37 31 38 32 39 82 40 33 41 87 42 81 43 83 44 34 45
REMARK SMILES IDX 86 46 80 47 79 48 35 50 67 51 47 52 66 53 48 54 51 55 65 56
REMARK SMILES IDX 84 57 49 58 50 59 64 61 85 62 52 63 36 64 37 65 45 66 38 67
REMARK SMILES IDX 44 68 46 69 43 70 39 71 40 72 41 73 42 74 68 75 69 76 77 77
REMARK SMILES IDX 70 78 76 79 78 80 75 81 71 82 72 83 73 84 74 85 53 86 54 87
REMARK SMILES IDX 62 88 55 89 61 90 63 91 60 92 56 93 57 94 58 95 59 96
REMARK H PARENT 19 7 14 26 24 30 83 49 51 60
REMARK Flexibility Score: inf
ROOT
ATOM      1  C   UNL A   1      31.354  29.433  26.503  1.00  0.00     0.023 C 
ENDROOT
BRANCH   1   2
ATOM      2  C   UNL A   1      31.936  28.238  27.234  1.00  0.00     0.023 C 
BRANCH   2   3
ATOM      3  C   UNL A   1      31.859  26.892  26.498  1.00  0.00     0.116 C 
BRANCH   3   4
ATOM      4  N   UNL A   1      33.003  26.758  25.609  1.00  0.00    -0.354 N 
ATOM      5  C   UNL A   1      33.238  25.947  24.542  1.00  0.00     0.242 C 
ATOM      6  O   UNL A   1      34.423  25.832  24.199  1.00  0.00    -0.273 OA
ATOM      7  H   UNL A   1      33.746  27.370  25.819  1.00  0.00     0.163 HD
BRANCH   5   8
ATOM      8  C   UNL A   1      32.103  25.270  23.715  1.00  0.00     0.177 C 
ATOM      9  N   UNL A   1      32.658  24.301  22.741  1.00  0.00    -0.326 N 
ATOM     10  C   UNL A   1      32.893  24.953  21.453  1.00  0.00     0.152 C 
ATOM     11  C   UNL A   1      32.352  26.377  21.567  1.00  0.00     0.136 C 
ATOM     12  C   UNL A   1      31.475  26.356  22.820  1.00  0.00     0.069 C 
BRANCH   9  13
ATOM     13  C   UNL A   1      32.861  22.930  22.772  1.00  0.00     0.247 C 
ATOM     14  O   UNL A   1      32.597  22.250  21.770  1.00  0.00    -0.272 OA
BRANCH  13  15
ATOM     15  C   UNL A   1      33.245  22.167  24.065  1.00  0.00     0.186 C 
ATOM     16  C   UNL A   1      34.472  21.758  26.991  1.00  0.00     0.047 C 
ATOM     17  C   UNL A   1      34.972  21.354  25.604  1.00  0.00     0.087 C 
ATOM     18  C   UNL A   1      36.492  21.256  25.564  1.00  0.00     0.049 C 
ATOM     19  N   UNL A   1      34.624  22.285  24.559  1.00  0.00    -0.315 N 
ATOM     20  S   UNL A   1      34.126  19.826  25.098  1.00  0.00    -0.131 SA
ATOM     21  C   UNL A   1      36.885  21.766  24.190  1.00  0.00     0.103 C 
ATOM     22  C   UNL A   1      35.702  22.574  23.740  1.00  0.00     0.224 C 
ATOM     23  C   UNL A   1      32.855  20.707  24.124  1.00  0.00     0.107 C 
ATOM     24  O   UNL A   1      35.707  23.278  22.741  1.00  0.00    -0.275 OA
ENDBRANCH  13  15
ENDBRANCH   9  13
BRANCH  11  25
ATOM     25  O   UNL A   1      33.395  27.340  21.685  1.00  0.00    -0.391 OA
ATOM     26  H   UNL A   1      33.130  28.160  21.240  1.00  0.00     0.211 HD
ENDBRANCH  11  25
ENDBRANCH   5   8
ENDBRANCH   3   4
ENDBRANCH   2   3
ENDBRANCH   1   2
BRANCH   1  27
ATOM     27  C   UNL A   1      32.390  30.486  26.134  1.00  0.00     0.116 C 
BRANCH  27  28
ATOM     28  N   UNL A   1      32.151  31.809  26.717  1.00  0.00    -0.352 N 
ATOM     29  C   UNL A   1      32.999  32.605  27.461  1.00  0.00     0.251 C 
ATOM     30  H   UNL A   1      31.257  32.184  26.555  1.00  0.00     0.163 HD
ATOM     31  O   UNL A   1      32.610  33.677  27.914  1.00  0.00    -0.269 OA
BRANCH  29  32
ATOM     32  C   UNL A   1      34.361  32.113  27.758  1.00  0.00     0.039 A 
ATOM     33  C   UNL A   1      35.398  33.032  27.928  1.00  0.00     0.014 A 
ATOM     34  C   UNL A   1      34.563  30.761  28.023  1.00  0.00     0.014 A 
ATOM     35  C   UNL A   1      36.596  32.610  28.507  1.00  0.00     0.010 A 
ATOM     36  C   UNL A   1      35.696  30.377  28.725  1.00  0.00     0.010 A 
ATOM     37  C   UNL A   1      36.723  31.297  28.991  1.00  0.00    -0.014 A 
BRANCH  37  38
ATOM     38  C   UNL A   1      37.898  30.853  29.790  1.00  0.00     0.031 A 
ATOM     39  C   UNL A   1      38.892  29.898  29.180  1.00  0.00     0.074 A 
ATOM     40  C   UNL A   1      38.007  31.200  31.090  1.00  0.00     0.049 A 
ATOM     41  N   UNL A   1      39.867  29.237  29.748  1.00  0.00    -0.248 NA
ATOM     42  C   UNL A   1      38.717  29.597  27.751  1.00  0.00     0.031 C 
ATOM     43  C   UNL A   1      37.071  32.054  31.827  1.00  0.00     0.029 A 
ATOM     44  N   UNL A   1      38.951  30.866  32.030  1.00  0.00    -0.354 N 
ATOM     45  C   UNL A   1      40.381  28.405  28.759  1.00  0.00     0.074 A 
ATOM     46  C   UNL A   1      39.557  28.590  27.585  1.00  0.00     0.031 C 
ATOM     47  C   UNL A   1      37.508  32.209  33.087  1.00  0.00     0.029 A 
ATOM     48  C   UNL A   1      38.726  31.428  33.267  1.00  0.00     0.049 A 
ATOM     49  H   UNL A   1      39.717  30.280  31.837  1.00  0.00     0.167 HD
ATOM     50  C   UNL A   1      41.464  27.590  28.812  1.00  0.00     0.034 A 
ATOM     51  C   UNL A   1      39.420  31.318  34.418  1.00  0.00     0.034 A 
ATOM     52  C   UNL A   1      42.316  27.474  29.968  1.00  0.00     0.049 A 
ATOM     53  C   UNL A   1      40.654  30.451  34.441  1.00  0.00     0.074 A 
ATOM     54  C   UNL A   1      43.491  26.757  30.107  1.00  0.00     0.029 A 
ATOM     55  N   UNL A   1      42.089  28.106  31.185  1.00  0.00    -0.354 N 
ATOM     56  N   UNL A   1      41.159  29.712  33.481  1.00  0.00    -0.248 NA
ATOM     57  C   UNL A   1      41.412  30.410  35.698  1.00  0.00     0.031 C 
ATOM     58  C   UNL A   1      43.950  26.919  31.420  1.00  0.00     0.029 A 
ATOM     59  C   UNL A   1      43.093  27.782  32.083  1.00  0.00     0.049 A 
ATOM     60  H   UNL A   1      41.326  28.696  31.379  1.00  0.00     0.167 HD
ATOM     61  C   UNL A   1      42.310  29.137  34.013  1.00  0.00     0.074 A 
ATOM     62  C   UNL A   1      42.431  29.628  35.371  1.00  0.00     0.031 C 
ATOM     63  C   UNL A   1      43.189  28.282  33.433  1.00  0.00     0.034 A 
BRANCH  50  64
ATOM     64  C   UNL A   1      41.773  26.770  27.581  1.00  0.00     0.023 A 
ATOM     65  C   UNL A   1      41.392  25.420  27.482  1.00  0.00     0.031 A 
ATOM     66  C   UNL A   1      42.513  27.321  26.520  1.00  0.00     0.131 A 
ATOM     67  C   UNL A   1      41.844  24.641  26.408  1.00  0.00     0.055 A 
ATOM     68  C   UNL A   1      42.875  26.564  25.404  1.00  0.00     0.041 A 
ATOM     69  F   UNL A   1      42.922  28.599  26.563  1.00  0.00    -0.206 F 
ATOM     70  C   UNL A   1      42.560  25.208  25.353  1.00  0.00     0.022 A 
BRANCH  67  71
ATOM     71  S   UNL A   1      41.631  22.841  26.504  1.00  0.00     0.124 S 
ATOM     72  O   UNL A   1      42.337  22.530  27.745  1.00  0.00    -0.237 OA
ATOM     73  O   UNL A   1      40.181  22.695  26.539  1.00  0.00    -0.237 OA
ATOM     74  O   UNL A   1      42.280  22.355  25.288  1.00  0.00    -0.744 OA
ENDBRANCH  67  71
ENDBRANCH  50  64
BRANCH  51  75
ATOM     75  C   UNL A   1      38.982  32.046  35.644  1.00  0.00     0.023 A 
ATOM     76  C   UNL A   1      38.317  31.370  36.679  1.00  0.00     0.031 A 
ATOM     77  C   UNL A   1      39.185  33.430  35.784  1.00  0.00     0.131 A 
ATOM     78  C   UNL A   1      37.835  32.085  37.787  1.00  0.00     0.055 A 
ATOM     79  C   UNL A   1      38.745  34.129  36.909  1.00  0.00     0.041 A 
ATOM     80  F   UNL A   1      39.826  34.122  34.828  1.00  0.00    -0.206 F 
ATOM     81  C   UNL A   1      38.054  33.458  37.914  1.00  0.00     0.022 A 
BRANCH  78  82
ATOM     82  S   UNL A   1      36.848  31.202  39.028  1.00  0.00     0.124 S 
ATOM     83  O   UNL A   1      35.658  32.041  39.113  1.00  0.00    -0.237 OA
ATOM     84  O   UNL A   1      36.670  29.898  38.400  1.00  0.00    -0.237 OA
ATOM     85  O   UNL A   1      37.704  31.210  40.212  1.00  0.00    -0.744 OA
ENDBRANCH  78  82
ENDBRANCH  51  75
BRANCH  63  86
ATOM     86  C   UNL A   1      44.378  27.864  34.258  1.00  0.00     0.023 A 
ATOM     87  C   UNL A   1      44.341  26.723  35.077  1.00  0.00     0.031 A 
ATOM     88  C   UNL A   1      45.563  28.620  34.221  1.00  0.00     0.131 A 
ATOM     89  C   UNL A   1      45.454  26.394  35.863  1.00  0.00     0.055 A 
ATOM     90  C   UNL A   1      46.685  28.258  34.965  1.00  0.00     0.041 A 
ATOM     91  F   UNL A   1      45.648  29.718  33.454  1.00  0.00    -0.206 F 
ATOM     92  C   UNL A   1      46.632  27.145  35.800  1.00  0.00     0.022 A 
BRANCH  89  93
ATOM     93  S   UNL A   1      45.321  25.007  37.023  1.00  0.00     0.124 S 
ATOM     94  O   UNL A   1      45.063  25.691  38.285  1.00  0.00    -0.237 OA
ATOM     95  O   UNL A   1      44.206  24.244  36.471  1.00  0.00    -0.237 OA
ATOM     96  O   UNL A   1      46.626  24.353  36.928  1.00  0.00    -0.744 OA
ENDBRANCH  89  93
ENDBRANCH  63  86
ENDBRANCH  37  38
ENDBRANCH  29  32
ENDBRANCH  27  28
ENDBRANCH   1  27
TORSDOF 17
ENDMDL
MODEL 2
REMARK VINA RESULT:     -12.3      1.239      7.487
REMARK SMILES C[C@]12CCC(=O)N1[C@@H](C(=O)N1C[C@H](O)C[C@@H]1C(=O)NCCCCNC(=O)c1ccc(-c3c4nc(c(-c5cc(S(=O)(=O)[O-])ccc5F)c5ccc([nH]5)c(-c5cc(S(=O)(=O)[O-])ccc5F)c5nc(c(-c6cc(S(=O)(=O)[O-])ccc6F)c6ccc3[nH]6)C=C5)C=C4)cc1)CS2
REMARK SMILES IDX 22 1 21 2 20 3 19 4 17 5 18 6 16 8 11 9 12 10 13 11 15 12
REMARK SMILES IDX 9 13 10 14 8 15 1 16 2 17 3 18 7 19 91 20 4 21 5 22 90 23
REMARK SMILES IDX 6 24 14 25 23 27 24 28 25 29 26 31 27 32 28 33 89 34 29 35
REMARK SMILES IDX 88 36 30 37 31 38 32 39 82 40 33 41 87 42 81 43 83 44 34 45
REMARK SMILES IDX 86 46 80 47 79 48 35 50 67 51 47 52 66 53 48 54 51 55 65 56
REMARK SMILES IDX 84 57 49 58 50 59 64 61 85 62 52 63 36 64 37 65 45 66 38 67
REMARK SMILES IDX 44 68 46 69 43 70 39 71 40 72 41 73 42 74 68 75 69 76 77 77
REMARK SMILES IDX 70 78 76 79 78 80 75 81 71 82 72 83 73 84 74 85 53 86 54 87
REMARK SMILES IDX 62 88 55 89 61 90 63 91 60 92 56 93 57 94 58 95 59 96
REMARK H PARENT 19 7 14 26 24 30 83 49 51 60
REMARK Flexibility Score: inf
ROOT
ATOM      1  C   UNL A   1      31.653  29.597  26.944  1.00  0.00     0.023 C 
ENDROOT
BRANCH   1   2
ATOM      2  C   UNL A   1      31.874  28.250  27.604  1.00  0.00     0.023 C 
BRANCH   2   3
ATOM      3  C   UNL A   1      31.678  27.018  26.708  1.00  0.00     0.116 C 
BRANCH   3   4
ATOM      4  N   UNL A   1      32.781  26.923  25.764  1.00  0.00    -0.354 N 
ATOM      5  C   UNL A   1      33.018  26.081  24.721  1.00  0.00     0.242 C 
ATOM      6  O   UNL A   1      34.188  26.033  24.318  1.00  0.00    -0.273 OA
ATOM      7  H   UNL A   1      33.488  27.594  25.907  1.00  0.00     0.163 HD
BRANCH   5   8
ATOM      8  C   UNL A   1      31.892  25.289  23.988  1.00  0.00     0.177 C 
ATOM      9  N   UNL A   1      32.451  24.462  22.893  1.00  0.00    -0.326 N 
ATOM     10  C   UNL A   1      32.430  25.206  21.633  1.00  0.00     0.152 C 
ATOM     11  C   UNL A   1      31.716  26.528  21.906  1.00  0.00     0.136 C 
ATOM     12  C   UNL A   1      31.014  26.316  23.248  1.00  0.00     0.069 C 
BRANCH   9  13
ATOM     13  C   UNL A   1      32.843  23.136  22.806  1.00  0.00     0.247 C 
ATOM     14  O   UNL A   1      32.764  22.544  21.720  1.00  0.00    -0.272 OA
BRANCH  13  15
ATOM     15  C   UNL A   1      33.221  22.289  24.048  1.00  0.00     0.186 C 
ATOM     16  C   UNL A   1      34.443  21.686  26.942  1.00  0.00     0.047 C 
ATOM     17  C   UNL A   1      34.941  21.368  25.532  1.00  0.00     0.087 C 
ATOM     18  C   UNL A   1      36.461  21.262  25.487  1.00  0.00     0.049 C 
ATOM     19  N   UNL A   1      34.600  22.366  24.549  1.00  0.00    -0.315 N 
ATOM     20  S   UNL A   1      34.085  19.881  24.931  1.00  0.00    -0.131 SA
ATOM     21  C   UNL A   1      36.858  21.855  24.148  1.00  0.00     0.103 C 
ATOM     22  C   UNL A   1      35.681  22.698  23.750  1.00  0.00     0.224 C 
ATOM     23  C   UNL A   1      32.820  20.831  24.014  1.00  0.00     0.107 C 
ATOM     24  O   UNL A   1      35.691  23.464  22.798  1.00  0.00    -0.275 OA
ENDBRANCH  13  15
ENDBRANCH   9  13
BRANCH  11  25
ATOM     25  O   UNL A   1      32.622  27.626  21.967  1.00  0.00    -0.391 OA
ATOM     26  H   UNL A   1      32.293  28.349  21.412  1.00  0.00     0.211 HD
ENDBRANCH  11  25
ENDBRANCH   5   8
ENDBRANCH   3   4
ENDBRANCH   2   3
ENDBRANCH   1   2
BRANCH   1  27
ATOM     27  C   UNL A   1      32.937  30.378  26.705  1.00  0.00     0.116 C 
BRANCH  27  28
ATOM     28  N   UNL A   1      32.974  31.702  27.332  1.00  0.00    -0.352 N 
ATOM     29  C   UNL A   1      34.006  32.324  28.007  1.00  0.00     0.251 C 
ATOM     30  H   UNL A   1      32.143  32.223  27.262  1.00  0.00     0.163 HD
ATOM     31  O   UNL A   1      33.842  33.429  28.513  1.00  0.00    -0.269 OA
BRANCH  29  32
ATOM     32  C   UNL A   1      35.289  31.608  28.164  1.00  0.00     0.039 A 
ATOM     33  C   UNL A   1      36.476  32.339  28.234  1.00  0.00     0.014 A 
ATOM     34  C   UNL A   1      35.288  30.235  28.399  1.00  0.00     0.014 A 
ATOM     35  C   UNL A   1      37.638  31.712  28.689  1.00  0.00     0.010 A 
ATOM     36  C   UNL A   1      36.404  29.654  28.983  1.00  0.00     0.010 A 
ATOM     37  C   UNL A   1      37.591  30.386  29.150  1.00  0.00    -0.014 A 
BRANCH  37  38
ATOM     38  C   UNL A   1      38.748  29.736  29.826  1.00  0.00     0.031 A 
ATOM     39  C   UNL A   1      39.150  30.187  31.206  1.00  0.00     0.074 A 
ATOM     40  C   UNL A   1      39.507  28.839  29.161  1.00  0.00     0.049 A 
ATOM     41  N   UNL A   1      40.226  29.903  31.893  1.00  0.00    -0.248 NA
ATOM     42  C   UNL A   1      38.251  31.143  31.870  1.00  0.00     0.031 C 
ATOM     43  C   UNL A   1      39.276  28.374  27.790  1.00  0.00     0.029 A 
ATOM     44  N   UNL A   1      40.640  28.166  29.546  1.00  0.00    -0.354 N 
ATOM     45  C   UNL A   1      40.155  30.686  33.041  1.00  0.00     0.074 A 
ATOM     46  C   UNL A   1      38.974  31.511  32.913  1.00  0.00     0.031 C 
ATOM     47  C   UNL A   1      40.209  27.464  27.467  1.00  0.00     0.029 A 
ATOM     48  C   UNL A   1      41.136  27.315  28.582  1.00  0.00     0.049 A 
ATOM     49  H   UNL A   1      41.059  28.280  30.429  1.00  0.00     0.167 HD
ATOM     50  C   UNL A   1      40.977  30.690  34.120  1.00  0.00     0.034 A 
ATOM     51  C   UNL A   1      42.220  26.514  28.595  1.00  0.00     0.034 A 
ATOM     52  C   UNL A   1      42.108  29.809  34.261  1.00  0.00     0.049 A 
ATOM     53  C   UNL A   1      43.090  26.491  29.827  1.00  0.00     0.074 A 
ATOM     54  C   UNL A   1      42.953  29.655  35.345  1.00  0.00     0.029 A 
ATOM     55  N   UNL A   1      42.543  28.919  33.286  1.00  0.00    -0.354 N 
ATOM     56  N   UNL A   1      42.979  27.198  30.927  1.00  0.00    -0.248 NA
ATOM     57  C   UNL A   1      44.224  25.557  29.820  1.00  0.00     0.031 C 
ATOM     58  C   UNL A   1      43.926  28.705  35.010  1.00  0.00     0.029 A 
ATOM     59  C   UNL A   1      43.654  28.225  33.739  1.00  0.00     0.049 A 
ATOM     60  H   UNL A   1      42.124  28.799  32.404  1.00  0.00     0.167 HD
ATOM     61  C   UNL A   1      44.017  26.777  31.753  1.00  0.00     0.074 A 
ATOM     62  C   UNL A   1      44.731  25.743  31.030  1.00  0.00     0.031 C 
ATOM     63  C   UNL A   1      44.350  27.202  32.998  1.00  0.00     0.034 A 
BRANCH  50  64
ATOM     64  C   UNL A   1      40.670  31.681  35.219  1.00  0.00     0.023 A 
ATOM     65  C   UNL A   1      39.628  31.463  36.136  1.00  0.00     0.031 A 
ATOM     66  C   UNL A   1      41.384  32.888  35.312  1.00  0.00     0.131 A 
ATOM     67  C   UNL A   1      39.257  32.477  37.030  1.00  0.00     0.055 A 
ATOM     68  C   UNL A   1      41.073  33.854  36.272  1.00  0.00     0.041 A 
ATOM     69  F   UNL A   1      42.380  33.164  34.455  1.00  0.00    -0.206 F 
ATOM     70  C   UNL A   1      39.989  33.661  37.125  1.00  0.00     0.022 A 
BRANCH  67  71
ATOM     71  S   UNL A   1      37.697  32.293  37.938  1.00  0.00     0.124 S 
ATOM     72  O   UNL A   1      38.063  32.809  39.255  1.00  0.00    -0.237 OA
ATOM     73  O   UNL A   1      36.778  33.117  37.161  1.00  0.00    -0.237 OA
ATOM     74  O   UNL A   1      37.440  30.855  37.889  1.00  0.00    -0.744 OA
ENDBRANCH  67  71
ENDBRANCH  50  64
BRANCH  51  75
ATOM     75  C   UNL A   1      42.549  25.660  27.418  1.00  0.00     0.023 A 
ATOM     76  C   UNL A   1      42.109  24.328  27.352  1.00  0.00     0.031 A 
ATOM     77  C   UNL A   1      43.340  26.146  26.362  1.00  0.00     0.131 A 
ATOM     78  C   UNL A   1      42.501  23.513  26.279  1.00  0.00     0.055 A 
ATOM     79  C   UNL A   1      43.688  25.345  25.273  1.00  0.00     0.041 A 
ATOM     80  F   UNL A   1      43.777  27.416  26.370  1.00  0.00    -0.206 F 
ATOM     81  C   UNL A   1      43.278  24.015  25.232  1.00  0.00     0.022 A 
BRANCH  78  82
ATOM     82  S   UNL A   1      42.039  21.758  26.307  1.00  0.00     0.124 S 
ATOM     83  O   UNL A   1      42.903  21.207  25.269  1.00  0.00    -0.237 OA
ATOM     84  O   UNL A   1      42.365  21.383  27.679  1.00  0.00    -0.237 OA
ATOM     85  O   UNL A   1      40.613  21.775  25.989  1.00  0.00    -0.744 OA
ENDBRANCH  78  82
ENDBRANCH  51  75
BRANCH  63  86
ATOM     86  C   UNL A   1      45.513  26.513  33.664  1.00  0.00     0.023 A 
ATOM     87  C   UNL A   1      45.327  25.412  34.515  1.00  0.00     0.031 A 
ATOM     88  C   UNL A   1      46.825  26.968  33.438  1.00  0.00     0.131 A 
ATOM     89  C   UNL A   1      46.432  24.828  35.150  1.00  0.00     0.055 A 
ATOM     90  C   UNL A   1      47.925  26.350  34.031  1.00  0.00     0.041 A 
ATOM     91  F   UNL A   1      47.054  28.016  32.632  1.00  0.00    -0.206 F 
ATOM     92  C   UNL A   1      47.732  25.280  34.901  1.00  0.00     0.022 A 
BRANCH  89  93
ATOM     93  S   UNL A   1      46.145  23.510  36.361  1.00  0.00     0.124 S 
ATOM     94  O   UNL A   1      45.133  24.108  37.226  1.00  0.00    -0.237 OA
ATOM     95  O   UNL A   1      45.693  22.406  35.520  1.00  0.00    -0.237 OA
ATOM     96  O   UNL A   1      47.456  23.320  36.980  1.00  0.00    -0.744 OA
ENDBRANCH  89  93
ENDBRANCH  63  86
ENDBRANCH  37  38
ENDBRANCH  29  32
ENDBRANCH  27  28
ENDBRANCH   1  27
TORSDOF 17
ENDMDL
MODEL 3
REMARK VINA RESULT:     -12.2      1.425      7.579
REMARK SMILES C[C@]12CCC(=O)N1[C@@H](C(=O)N1C[C@H](O)C[C@@H]1C(=O)NCCCCNC(=O)c1ccc(-c3c4nc(c(-c5cc(S(=O)(=O)[O-])ccc5F)c5ccc([nH]5)c(-c5cc(S(=O)(=O)[O-])ccc5F)c5nc(c(-c6cc(S(=O)(=O)[O-])ccc6F)c6ccc3[nH]6)C=C5)C=C4)cc1)CS2
REMARK SMILES IDX 22 1 21 2 20 3 19 4 17 5 18 6 16 8 11 9 12 10 13 11 15 12
REMARK SMILES IDX 9 13 10 14 8 15 1 16 2 17 3 18 7 19 91 20 4 21 5 22 90 23
REMARK SMILES IDX 6 24 14 25 23 27 24 28 25 29 26 31 27 32 28 33 89 34 29 35
REMARK SMILES IDX 88 36 30 37 31 38 32 39 82 40 33 41 87 42 81 43 83 44 34 45
REMARK SMILES IDX 86 46 80 47 79 48 35 50 67 51 47 52 66 53 48 54 51 55 65 56
REMARK SMILES IDX 84 57 49 58 50 59 64 61 85 62 52 63 36 64 37 65 45 66 38 67
REMARK SMILES IDX 44 68 46 69 43 70 39 71 40 72 41 73 42 74 68 75 69 76 77 77
REMARK SMILES IDX 70 78 76 79 78 80 75 81 71 82 72 83 73 84 74 85 53 86 54 87
REMARK SMILES IDX 62 88 55 89 61 90 63 91 60 92 56 93 57 94 58 95 59 96
REMARK H PARENT 19 7 14 26 24 30 83 49 51 60
REMARK Flexibility Score: inf
ROOT
ATOM      1  C   UNL A   1      31.458  32.005  27.107  1.00  0.00     0.023 C 
ENDROOT
BRANCH   1   2
ATOM      2  C   UNL A   1      31.479  30.860  26.112  1.00  0.00     0.023 C 
BRANCH   2   3
ATOM      3  C   UNL A   1      32.774  30.037  26.054  1.00  0.00     0.116 C 
BRANCH   3   4
ATOM      4  N   UNL A   1      33.152  29.824  24.666  1.00  0.00    -0.354 N 
ATOM      5  C   UNL A   1      33.078  28.730  23.859  1.00  0.00     0.242 C 
ATOM      6  O   UNL A   1      33.779  28.760  22.839  1.00  0.00    -0.273 OA
ATOM      7  H   UNL A   1      33.533  30.620  24.228  1.00  0.00     0.163 HD
BRANCH   5   8
ATOM      8  C   UNL A   1      32.105  27.540  24.119  1.00  0.00     0.177 C 
ATOM      9  N   UNL A   1      32.253  26.494  23.079  1.00  0.00    -0.326 N 
ATOM     10  C   UNL A   1      31.310  26.727  21.985  1.00  0.00     0.152 C 
ATOM     11  C   UNL A   1      30.431  27.907  22.396  1.00  0.00     0.136 C 
ATOM     12  C   UNL A   1      30.671  28.061  23.899  1.00  0.00     0.069 C 
BRANCH   9  13
ATOM     13  C   UNL A   1      32.982  25.318  23.010  1.00  0.00     0.247 C 
ATOM     14  O   UNL A   1      33.989  25.263  22.289  1.00  0.00    -0.272 OA
BRANCH  13  15
ATOM     15  C   UNL A   1      32.504  23.994  23.660  1.00  0.00     0.186 C 
ATOM     16  C   UNL A   1      31.134  22.120  25.860  1.00  0.00     0.047 C 
ATOM     17  C   UNL A   1      32.598  22.402  25.522  1.00  0.00     0.087 C 
ATOM     18  C   UNL A   1      33.498  22.216  26.737  1.00  0.00     0.049 C 
ATOM     19  N   UNL A   1      32.847  23.748  25.067  1.00  0.00    -0.315 N 
ATOM     20  S   UNL A   1      33.076  21.385  24.093  1.00  0.00    -0.131 SA
ATOM     21  C   UNL A   1      34.557  23.295  26.614  1.00  0.00     0.103 C 
ATOM     22  C   UNL A   1      33.947  24.311  25.691  1.00  0.00     0.224 C 
ATOM     23  C   UNL A   1      32.784  22.726  22.886  1.00  0.00     0.107 C 
ATOM     24  O   UNL A   1      34.440  25.409  25.477  1.00  0.00    -0.275 OA
ENDBRANCH  13  15
ENDBRANCH   9  13
BRANCH  11  25
ATOM     25  O   UNL A   1      30.773  29.100  21.696  1.00  0.00    -0.391 OA
ATOM     26  H   UNL A   1      30.296  29.850  22.082  1.00  0.00     0.211 HD
ENDBRANCH  11  25
ENDBRANCH   5   8
ENDBRANCH   3   4
ENDBRANCH   2   3
ENDBRANCH   1   2
BRANCH   1  27
ATOM     27  C   UNL A   1      32.482  33.091  26.809  1.00  0.00     0.116 C 
BRANCH  27  28
ATOM     28  N   UNL A   1      32.535  34.170  27.798  1.00  0.00    -0.352 N 
ATOM     29  C   UNL A   1      33.482  34.423  28.771  1.00  0.00     0.251 C 
ATOM     30  H   UNL A   1      31.786  34.807  27.765  1.00  0.00     0.163 HD
ATOM     31  O   UNL A   1      33.339  35.357  29.552  1.00  0.00    -0.269 OA
BRANCH  29  32
ATOM     32  C   UNL A   1      34.637  33.509  28.895  1.00  0.00     0.039 A 
ATOM     33  C   UNL A   1      35.928  34.011  28.718  1.00  0.00     0.014 A 
ATOM     34  C   UNL A   1      34.440  32.205  29.340  1.00  0.00     0.014 A 
ATOM     35  C   UNL A   1      37.020  33.247  29.134  1.00  0.00     0.010 A 
ATOM     36  C   UNL A   1      35.512  31.511  29.881  1.00  0.00     0.010 A 
ATOM     37  C   UNL A   1      36.816  32.026  29.799  1.00  0.00    -0.014 A 
BRANCH  37  38
ATOM     38  C   UNL A   1      37.930  31.270  30.436  1.00  0.00     0.031 A 
ATOM     39  C   UNL A   1      38.337  31.599  31.849  1.00  0.00     0.074 A 
ATOM     40  C   UNL A   1      38.651  30.386  29.714  1.00  0.00     0.049 A 
ATOM     41  N   UNL A   1      39.388  31.211  32.523  1.00  0.00    -0.248 NA
ATOM     42  C   UNL A   1      37.479  32.549  32.572  1.00  0.00     0.031 C 
ATOM     43  C   UNL A   1      38.413  30.033  28.311  1.00  0.00     0.029 A 
ATOM     44  N   UNL A   1      39.743  29.629  30.059  1.00  0.00    -0.354 N 
ATOM     45  C   UNL A   1      39.343  31.911  33.724  1.00  0.00     0.074 A 
ATOM     46  C   UNL A   1      38.207  32.803  33.646  1.00  0.00     0.031 C 
ATOM     47  C   UNL A   1      39.303  29.102  27.930  1.00  0.00     0.029 A 
ATOM     48  C   UNL A   1      40.207  28.826  29.040  1.00  0.00     0.049 A 
ATOM     49  H   UNL A   1      40.157  29.657  30.951  1.00  0.00     0.167 HD
ATOM     50  C   UNL A   1      40.150  31.794  34.808  1.00  0.00     0.034 A 
ATOM     51  C   UNL A   1      41.248  27.970  29.004  1.00  0.00     0.034 A 
ATOM     52  C   UNL A   1      41.233  30.848  34.894  1.00  0.00     0.049 A 
ATOM     53  C   UNL A   1      42.101  27.814  30.239  1.00  0.00     0.074 A 
ATOM     54  C   UNL A   1      42.056  30.573  35.971  1.00  0.00     0.029 A 
ATOM     55  N   UNL A   1      41.635  30.009  33.861  1.00  0.00    -0.354 N 
ATOM     56  N   UNL A   1      42.013  28.444  31.387  1.00  0.00    -0.248 NA
ATOM     57  C   UNL A   1      43.186  26.826  30.173  1.00  0.00     0.031 C 
ATOM     58  C   UNL A   1      42.983  29.601  35.576  1.00  0.00     0.029 A 
ATOM     59  C   UNL A   1      42.703  29.228  34.272  1.00  0.00     0.049 A 
ATOM     60  H   UNL A   1      41.221  29.976  32.969  1.00  0.00     0.167 HD
ATOM     61  C   UNL A   1      43.017  27.911  32.189  1.00  0.00     0.074 A 
ATOM     62  C   UNL A   1      43.686  26.897  31.399  1.00  0.00     0.031 C 
ATOM     63  C   UNL A   1      43.356  28.227  33.464  1.00  0.00     0.034 A 
BRANCH  50  64
ATOM     64  C   UNL A   1      39.881  32.718  35.973  1.00  0.00     0.023 A 
ATOM     65  C   UNL A   1      39.107  32.308  37.073  1.00  0.00     0.031 A 
ATOM     66  C   UNL A   1      40.346  34.044  35.957  1.00  0.00     0.131 A 
ATOM     67  C   UNL A   1      38.730  33.239  38.051  1.00  0.00     0.055 A 
ATOM     68  C   UNL A   1      40.050  34.940  36.987  1.00  0.00     0.041 A 
ATOM     69  F   UNL A   1      41.075  34.502  34.927  1.00  0.00    -0.206 F 
ATOM     70  C   UNL A   1      39.218  34.546  38.032  1.00  0.00     0.022 A 
BRANCH  67  71
ATOM     71  S   UNL A   1      37.451  32.758  39.245  1.00  0.00     0.124 S 
ATOM     72  O   UNL A   1      37.899  31.422  39.631  1.00  0.00    -0.237 OA
ATOM     73  O   UNL A   1      37.568  33.792  40.267  1.00  0.00    -0.237 OA
ATOM     74  O   UNL A   1      36.219  32.792  38.459  1.00  0.00    -0.744 OA
ENDBRANCH  67  71
ENDBRANCH  50  64
BRANCH  51  75
ATOM     75  C   UNL A   1      41.549  27.188  27.771  1.00  0.00     0.023 A 
ATOM     76  C   UNL A   1      41.295  25.808  27.717  1.00  0.00     0.031 A 
ATOM     77  C   UNL A   1      42.130  27.796  26.644  1.00  0.00     0.131 A 
ATOM     78  C   UNL A   1      41.663  25.071  26.581  1.00  0.00     0.055 A 
ATOM     79  C   UNL A   1      42.452  27.067  25.498  1.00  0.00     0.041 A 
ATOM     80  F   UNL A   1      42.384  29.115  26.639  1.00  0.00    -0.206 F 
ATOM     81  C   UNL A   1      42.230  25.693  25.465  1.00  0.00     0.022 A 
BRANCH  78  82
ATOM     82  S   UNL A   1      41.458  23.269  26.610  1.00  0.00     0.124 S 
ATOM     83  O   UNL A   1      42.027  22.926  27.908  1.00  0.00    -0.237 OA
ATOM     84  O   UNL A   1      40.011  23.128  26.486  1.00  0.00    -0.237 OA
ATOM     85  O   UNL A   1      42.227  22.819  25.452  1.00  0.00    -0.744 OA
ENDBRANCH  78  82
ENDBRANCH  51  75
BRANCH  63  86
ATOM     86  C   UNL A   1      44.473  27.433  34.088  1.00  0.00     0.023 A 
ATOM     87  C   UNL A   1      44.220  26.289  34.864  1.00  0.00     0.031 A 
ATOM     88  C   UNL A   1      45.810  27.829  33.900  1.00  0.00     0.131 A 
ATOM     89  C   UNL A   1      45.287  25.605  35.463  1.00  0.00     0.055 A 
ATOM     90  C   UNL A   1      46.870  27.114  34.456  1.00  0.00     0.041 A 
ATOM     91  F   UNL A   1      46.103  28.914  33.167  1.00  0.00    -0.206 F 
ATOM     92  C   UNL A   1      46.611  26.001  35.251  1.00  0.00     0.022 A 
BRANCH  89  93
ATOM     93  S   UNL A   1      44.917  24.227  36.582  1.00  0.00     0.124 S 
ATOM     94  O   UNL A   1      43.946  24.826  37.491  1.00  0.00    -0.237 OA
ATOM     95  O   UNL A   1      44.397  23.214  35.670  1.00  0.00    -0.237 OA
ATOM     96  O   UNL A   1      46.215  23.913  37.180  1.00  0.00    -0.744 OA
ENDBRANCH  89  93
ENDBRANCH  63  86
ENDBRANCH  37  38
ENDBRANCH  29  32
ENDBRANCH  27  28
ENDBRANCH   1  27
TORSDOF 17
ENDMDL
