MODEL 1
REMARK VINA RESULT:     -10.0      0.000      0.000
REMARK SMILES CCCN(CC(=O)OC)C(=O)N1CC[C@H](C(=O)NCCCCNC(=O)c2ccc(-c3c4nc(c(-c5cc(S(=O)(=O)[O-])ccc5F)c5ccc([nH]5)c(-c5cc(S(=O)(=O)[O-])ccc5F)c5nc(c(-c6cc(S(=O)(=O)[O-])ccc6F)c6ccc3[nH]6)C=C5)C=C4)cc2)[C@H]1C
REMARK SMILES IDX 19 1 18 2 16 3 17 4 15 6 12 7 13 8 89 9 14 10 90 11 10 12
REMARK SMILES IDX 11 13 4 14 3 15 2 16 1 17 5 18 6 19 7 20 8 21 9 22 20 23
REMARK SMILES IDX 21 24 22 25 23 26 24 27 25 29 26 30 27 31 88 32 28 33 87 34
REMARK SMILES IDX 29 35 30 36 31 37 81 38 32 39 86 40 80 41 82 42 33 43 85 44
REMARK SMILES IDX 79 45 78 46 34 48 66 49 46 50 65 51 47 52 50 53 64 54 83 55
REMARK SMILES IDX 48 56 49 57 63 59 84 60 51 61 35 62 36 63 44 64 37 65 43 66
REMARK SMILES IDX 45 67 42 68 38 69 39 70 40 71 41 72 67 73 68 74 76 75 69 76
REMARK SMILES IDX 75 77 77 78 74 79 70 80 71 81 72 82 73 83 52 84 53 85 61 86
REMARK SMILES IDX 54 87 60 88 62 89 59 90 55 91 56 92 57 93 58 94
REMARK H PARENT 18 5 23 28 82 47 50 58
REMARK Flexibility Score: inf
ROOT
ATOM      1  C   UNL A   1      35.312  20.247  25.091  1.00  0.00     0.116 C 
ENDROOT
BRANCH   1   2
ATOM      2  N   UNL A   1      34.514  20.837  26.146  1.00  0.00    -0.356 N 
ATOM      3  C   UNL A   1      33.462  21.696  26.086  1.00  0.00     0.225 C 
ATOM      4  O   UNL A   1      33.002  22.103  27.155  1.00  0.00    -0.275 OA
ATOM      5  H   UNL A   1      34.778  20.573  27.056  1.00  0.00     0.163 HD
BRANCH   3   6
ATOM      6  C   UNL A   1      32.799  22.007  24.749  1.00  0.00     0.102 C 
ATOM      7  N   UNL A   1      32.883  24.363  24.318  1.00  0.00    -0.321 N 
ATOM      8  C   UNL A   1      31.698  24.081  25.129  1.00  0.00     0.122 C 
ATOM      9  C   UNL A   1      33.485  23.089  23.889  1.00  0.00     0.096 C 
ATOM     10  C   UNL A   1      31.400  22.604  24.942  1.00  0.00     0.037 C 
ATOM     11  C   UNL A   1      33.187  22.754  22.418  1.00  0.00     0.032 C 
BRANCH   7  12
ATOM     12  C   UNL A   1      33.669  25.417  24.773  1.00  0.00     0.320 C 
ATOM     13  O   UNL A   1      34.677  25.211  25.450  1.00  0.00    -0.248 OA
BRANCH  12  14
ATOM     14  N   UNL A   1      33.196  26.702  24.570  1.00  0.00    -0.314 N 
BRANCH  14  15
ATOM     15  C   UNL A   1      33.263  27.644  25.689  1.00  0.00     0.122 C 
BRANCH  15  16
ATOM     16  C   UNL A   1      32.582  28.981  25.357  1.00  0.00     0.018 C 
ATOM     17  C   UNL A   1      32.416  29.897  26.564  1.00  0.00     0.006 C 
ENDBRANCH  15  16
ENDBRANCH  14  15
BRANCH  14  18
ATOM     18  C   UNL A   1      32.591  27.203  23.340  1.00  0.00     0.243 C 
BRANCH  18  19
ATOM     19  C   UNL A   1      33.574  27.361  22.173  1.00  0.00     0.325 C 
ATOM     20  O   UNL A   1      34.261  28.365  22.011  1.00  0.00    -0.250 OA
BRANCH  19  21
ATOM     21  O   UNL A   1      33.606  26.272  21.357  1.00  0.00    -0.468 OA
ATOM     22  C   UNL A   1      32.327  25.770  20.968  1.00  0.00     0.282 C 
ENDBRANCH  19  21
ENDBRANCH  18  19
ENDBRANCH  14  18
ENDBRANCH  12  14
ENDBRANCH   7  12
ENDBRANCH   3   6
ENDBRANCH   1   2
BRANCH   1  23
ATOM     23  C   UNL A   1      36.651  20.973  24.966  1.00  0.00     0.023 C 
BRANCH  23  24
ATOM     24  C   UNL A   1      37.862  20.046  24.829  1.00  0.00     0.023 C 
BRANCH  24  25
ATOM     25  C   UNL A   1      39.066  20.444  25.673  1.00  0.00     0.116 C 
BRANCH  25  26
ATOM     26  N   UNL A   1      40.031  19.365  25.819  1.00  0.00    -0.352 N 
ATOM     27  C   UNL A   1      41.382  19.438  26.072  1.00  0.00     0.251 C 
ATOM     28  H   UNL A   1      39.667  18.455  25.723  1.00  0.00     0.163 HD
ATOM     29  O   UNL A   1      42.069  18.431  26.000  1.00  0.00    -0.269 OA
BRANCH  27  30
ATOM     30  C   UNL A   1      41.987  20.750  26.397  1.00  0.00     0.039 A 
ATOM     31  C   UNL A   1      42.232  21.658  25.364  1.00  0.00     0.014 A 
ATOM     32  C   UNL A   1      42.286  21.088  27.718  1.00  0.00     0.014 A 
ATOM     33  C   UNL A   1      42.713  22.934  25.669  1.00  0.00     0.010 A 
ATOM     34  C   UNL A   1      42.682  22.384  28.027  1.00  0.00     0.010 A 
ATOM     35  C   UNL A   1      42.906  23.320  27.005  1.00  0.00    -0.014 A 
BRANCH  35  36
ATOM     36  C   UNL A   1      43.368  24.686  27.362  1.00  0.00     0.031 A 
ATOM     37  C   UNL A   1      42.401  25.666  27.968  1.00  0.00     0.074 A 
ATOM     38  C   UNL A   1      44.629  25.066  27.075  1.00  0.00     0.049 A 
ATOM     39  N   UNL A   1      42.569  26.931  28.257  1.00  0.00    -0.248 NA
ATOM     40  C   UNL A   1      41.050  25.161  28.249  1.00  0.00     0.031 C 
ATOM     41  C   UNL A   1      45.647  24.219  26.450  1.00  0.00     0.029 A 
ATOM     42  N   UNL A   1      45.267  26.266  27.264  1.00  0.00    -0.354 N 
ATOM     43  C   UNL A   1      41.342  27.376  28.736  1.00  0.00     0.074 A 
ATOM     44  C   UNL A   1      40.422  26.264  28.621  1.00  0.00     0.031 C 
ATOM     45  C   UNL A   1      46.789  24.915  26.338  1.00  0.00     0.029 A 
ATOM     46  C   UNL A   1      46.574  26.269  26.837  1.00  0.00     0.049 A 
ATOM     47  H   UNL A   1      44.829  27.051  27.665  1.00  0.00     0.167 HD
ATOM     48  C   UNL A   1      41.019  28.588  29.253  1.00  0.00     0.034 A 
ATOM     49  C   UNL A   1      47.493  27.256  26.842  1.00  0.00     0.034 A 
ATOM     50  C   UNL A   1      41.954  29.680  29.368  1.00  0.00     0.049 A 
ATOM     51  C   UNL A   1      47.108  28.606  27.393  1.00  0.00     0.074 A 
ATOM     52  C   UNL A   1      41.754  30.938  29.911  1.00  0.00     0.029 A 
ATOM     53  N   UNL A   1      43.273  29.647  28.927  1.00  0.00    -0.354 N 
ATOM     54  N   UNL A   1      45.953  29.002  27.879  1.00  0.00    -0.248 NA
ATOM     55  C   UNL A   1      48.153  29.636  27.406  1.00  0.00     0.031 C 
ATOM     56  C   UNL A   1      42.926  31.683  29.741  1.00  0.00     0.029 A 
ATOM     57  C   UNL A   1      43.887  30.868  29.163  1.00  0.00     0.049 A 
ATOM     58  H   UNL A   1      43.707  28.868  28.508  1.00  0.00     0.167 HD
ATOM     59  C   UNL A   1      46.148  30.319  28.289  1.00  0.00     0.074 A 
ATOM     60  C   UNL A   1      47.530  30.642  28.001  1.00  0.00     0.031 C 
ATOM     61  C   UNL A   1      45.265  31.179  28.860  1.00  0.00     0.034 A 
BRANCH  48  62
ATOM     62  C   UNL A   1      39.589  28.785  29.703  1.00  0.00     0.023 A 
ATOM     63  C   UNL A   1      38.621  29.353  28.854  1.00  0.00     0.031 A 
ATOM     64  C   UNL A   1      39.199  28.465  31.016  1.00  0.00     0.131 A 
ATOM     65  C   UNL A   1      37.353  29.682  29.355  1.00  0.00     0.055 A 
ATOM     66  C   UNL A   1      37.903  28.704  31.479  1.00  0.00     0.041 A 
ATOM     67  F   UNL A   1      40.080  27.939  31.883  1.00  0.00    -0.206 F 
ATOM     68  C   UNL A   1      36.978  29.336  30.654  1.00  0.00     0.022 A 
BRANCH  65  69
ATOM     69  S   UNL A   1      36.274  30.733  28.344  1.00  0.00     0.124 S 
ATOM     70  O   UNL A   1      36.992  32.006  28.373  1.00  0.00    -0.237 OA
ATOM     71  O   UNL A   1      36.262  30.035  27.064  1.00  0.00    -0.237 OA
ATOM     72  O   UNL A   1      35.007  30.726  29.073  1.00  0.00    -0.744 OA
ENDBRANCH  65  69
ENDBRANCH  48  62
BRANCH  49  73
ATOM     73  C   UNL A   1      48.867  27.009  26.321  1.00  0.00     0.023 A 
ATOM     74  C   UNL A   1      49.216  27.376  25.012  1.00  0.00     0.031 A 
ATOM     75  C   UNL A   1      49.842  26.376  27.112  1.00  0.00     0.131 A 
ATOM     76  C   UNL A   1      50.493  27.072  24.517  1.00  0.00     0.055 A 
ATOM     77  C   UNL A   1      51.128  26.120  26.631  1.00  0.00     0.041 A 
ATOM     78  F   UNL A   1      49.562  26.011  28.373  1.00  0.00    -0.206 F 
ATOM     79  C   UNL A   1      51.456  26.458  25.321  1.00  0.00     0.022 A 
BRANCH  76  80
ATOM     80  S   UNL A   1      50.857  27.431  22.777  1.00  0.00     0.124 S 
ATOM     81  O   UNL A   1      52.199  26.881  22.633  1.00  0.00    -0.237 OA
ATOM     82  O   UNL A   1      49.790  26.711  22.089  1.00  0.00    -0.237 OA
ATOM     83  O   UNL A   1      50.767  28.888  22.704  1.00  0.00    -0.744 OA
ENDBRANCH  76  80
ENDBRANCH  49  73
BRANCH  61  84
ATOM     84  C   UNL A   1      45.794  32.535  29.259  1.00  0.00     0.023 A 
ATOM     85  C   UNL A   1      45.743  33.639  28.390  1.00  0.00     0.031 A 
ATOM     86  C   UNL A   1      46.368  32.720  30.531  1.00  0.00     0.131 A 
ATOM     87  C   UNL A   1      46.308  34.861  28.781  1.00  0.00     0.055 A 
ATOM     88  C   UNL A   1      46.872  33.955  30.936  1.00  0.00     0.041 A 
ATOM     89  F   UNL A   1      46.444  31.699  31.401  1.00  0.00    -0.206 F 
ATOM     90  C   UNL A   1      46.856  35.032  30.055  1.00  0.00     0.022 A 
BRANCH  87  91
ATOM     91  S   UNL A   1      46.402  36.207  27.568  1.00  0.00     0.124 S 
ATOM     92  O   UNL A   1      45.880  35.567  26.364  1.00  0.00    -0.237 OA
ATOM     93  O   UNL A   1      45.548  37.228  28.167  1.00  0.00    -0.237 OA
ATOM     94  O   UNL A   1      47.825  36.536  27.528  1.00  0.00    -0.744 OA
ENDBRANCH  87  91
ENDBRANCH  61  84
ENDBRANCH  35  36
ENDBRANCH  27  30
ENDBRANCH  25  26
ENDBRANCH  24  25
ENDBRANCH  23  24
ENDBRANCH   1  23
TORSDOF 21
ENDMDL
MODEL 2
REMARK VINA RESULT:      -9.9      1.871      2.216
REMARK SMILES CCCN(CC(=O)OC)C(=O)N1CC[C@H](C(=O)NCCCCNC(=O)c2ccc(-c3c4nc(c(-c5cc(S(=O)(=O)[O-])ccc5F)c5ccc([nH]5)c(-c5cc(S(=O)(=O)[O-])ccc5F)c5nc(c(-c6cc(S(=O)(=O)[O-])ccc6F)c6ccc3[nH]6)C=C5)C=C4)cc2)[C@H]1C
REMARK SMILES IDX 19 1 18 2 16 3 17 4 15 6 12 7 13 8 89 9 14 10 90 11 10 12
REMARK SMILES IDX 11 13 4 14 3 15 2 16 1 17 5 18 6 19 7 20 8 21 9 22 20 23
REMARK SMILES IDX 21 24 22 25 23 26 24 27 25 29 26 30 27 31 88 32 28 33 87 34
REMARK SMILES IDX 29 35 30 36 31 37 81 38 32 39 86 40 80 41 82 42 33 43 85 44
REMARK SMILES IDX 79 45 78 46 34 48 66 49 46 50 65 51 47 52 50 53 64 54 83 55
REMARK SMILES IDX 48 56 49 57 63 59 84 60 51 61 35 62 36 63 44 64 37 65 43 66
REMARK SMILES IDX 45 67 42 68 38 69 39 70 40 71 41 72 67 73 68 74 76 75 69 76
REMARK SMILES IDX 75 77 77 78 74 79 70 80 71 81 72 82 73 83 52 84 53 85 61 86
REMARK SMILES IDX 54 87 60 88 62 89 59 90 55 91 56 92 57 93 58 94
REMARK H PARENT 18 5 23 28 82 47 50 58
REMARK Flexibility Score: inf
ROOT
ATOM      1  C   UNL A   1      35.601  20.787  25.089  1.00  0.00     0.116 C 
ENDROOT
BRANCH   1   2
ATOM      2  N   UNL A   1      34.963  21.676  26.038  1.00  0.00    -0.356 N 
ATOM      3  C   UNL A   1      34.098  22.706  25.843  1.00  0.00     0.225 C 
ATOM      4  O   UNL A   1      33.756  23.352  26.836  1.00  0.00    -0.275 OA
ATOM      5  H   UNL A   1      35.196  21.506  26.979  1.00  0.00     0.163 HD
BRANCH   3   6
ATOM      6  C   UNL A   1      33.472  22.935  24.473  1.00  0.00     0.102 C 
ATOM      7  N   UNL A   1      31.662  24.496  24.648  1.00  0.00    -0.321 N 
ATOM      8  C   UNL A   1      31.150  23.156  24.939  1.00  0.00     0.122 C 
ATOM      9  C   UNL A   1      33.045  24.385  24.159  1.00  0.00     0.096 C 
ATOM     10  C   UNL A   1      32.143  22.183  24.329  1.00  0.00     0.037 C 
ATOM     11  C   UNL A   1      33.156  24.569  22.635  1.00  0.00     0.032 C 
BRANCH   7  12
ATOM     12  C   UNL A   1      31.295  25.476  25.564  1.00  0.00     0.320 C 
ATOM     13  O   UNL A   1      30.941  25.178  26.706  1.00  0.00    -0.248 OA
BRANCH  12  14
ATOM     14  N   UNL A   1      31.193  26.777  25.103  1.00  0.00    -0.314 N 
BRANCH  14  15
ATOM     15  C   UNL A   1      31.468  27.865  26.045  1.00  0.00     0.122 C 
BRANCH  15  16
ATOM     16  C   UNL A   1      32.031  29.108  25.339  1.00  0.00     0.018 C 
ATOM     17  C   UNL A   1      31.972  30.371  26.190  1.00  0.00     0.006 C 
ENDBRANCH  15  16
ENDBRANCH  14  15
BRANCH  14  18
ATOM     18  C   UNL A   1      30.793  27.176  23.757  1.00  0.00     0.243 C 
BRANCH  18  19
ATOM     19  C   UNL A   1      29.280  27.347  23.574  1.00  0.00     0.325 C 
ATOM     20  O   UNL A   1      28.464  26.504  23.936  1.00  0.00    -0.250 OA
BRANCH  19  21
ATOM     21  O   UNL A   1      28.947  28.529  22.986  1.00  0.00    -0.468 OA
ATOM     22  C   UNL A   1      30.021  29.194  22.319  1.00  0.00     0.282 C 
ENDBRANCH  19  21
ENDBRANCH  18  19
ENDBRANCH  14  18
ENDBRANCH  12  14
ENDBRANCH   7  12
ENDBRANCH   3   6
ENDBRANCH   1   2
BRANCH   1  23
ATOM     23  C   UNL A   1      37.044  21.222  24.837  1.00  0.00     0.023 C 
BRANCH  23  24
ATOM     24  C   UNL A   1      38.078  20.103  24.990  1.00  0.00     0.023 C 
BRANCH  24  25
ATOM     25  C   UNL A   1      39.343  20.505  25.737  1.00  0.00     0.116 C 
BRANCH  25  26
ATOM     26  N   UNL A   1      40.254  19.388  25.940  1.00  0.00    -0.352 N 
ATOM     27  C   UNL A   1      41.608  19.407  26.188  1.00  0.00     0.251 C 
ATOM     28  H   UNL A   1      39.844  18.494  25.893  1.00  0.00     0.163 HD
ATOM     29  O   UNL A   1      42.243  18.364  26.169  1.00  0.00    -0.269 OA
BRANCH  27  30
ATOM     30  C   UNL A   1      42.279  20.702  26.441  1.00  0.00     0.039 A 
ATOM     31  C   UNL A   1      42.601  21.522  25.358  1.00  0.00     0.014 A 
ATOM     32  C   UNL A   1      42.563  21.113  27.745  1.00  0.00     0.014 A 
ATOM     33  C   UNL A   1      43.147  22.788  25.589  1.00  0.00     0.010 A 
ATOM     34  C   UNL A   1      43.025  22.403  27.977  1.00  0.00     0.010 A 
ATOM     35  C   UNL A   1      43.328  23.253  26.902  1.00  0.00    -0.014 A 
BRANCH  35  36
ATOM     36  C   UNL A   1      43.859  24.612  27.180  1.00  0.00     0.031 A 
ATOM     37  C   UNL A   1      42.940  25.676  27.717  1.00  0.00     0.074 A 
ATOM     38  C   UNL A   1      45.139  24.909  26.881  1.00  0.00     0.049 A 
ATOM     39  N   UNL A   1      43.173  26.945  27.930  1.00  0.00    -0.248 NA
ATOM     40  C   UNL A   1      41.563  25.259  28.016  1.00  0.00     0.031 C 
ATOM     41  C   UNL A   1      46.115  23.974  26.318  1.00  0.00     0.029 A 
ATOM     42  N   UNL A   1      45.838  26.083  27.003  1.00  0.00    -0.354 N 
ATOM     43  C   UNL A   1      41.967  27.482  28.371  1.00  0.00     0.074 A 
ATOM     44  C   UNL A   1      40.991  26.414  28.315  1.00  0.00     0.031 C 
ATOM     45  C   UNL A   1      47.293  24.602  26.175  1.00  0.00     0.029 A 
ATOM     46  C   UNL A   1      47.146  25.993  26.589  1.00  0.00     0.049 A 
ATOM     47  H   UNL A   1      45.439  26.912  27.353  1.00  0.00     0.167 HD
ATOM     48  C   UNL A   1      41.705  28.738  28.811  1.00  0.00     0.034 A 
ATOM     49  C   UNL A   1      48.114  26.930  26.542  1.00  0.00     0.034 A 
ATOM     50  C   UNL A   1      42.695  29.785  28.869  1.00  0.00     0.049 A 
ATOM     51  C   UNL A   1      47.797  28.328  27.007  1.00  0.00     0.074 A 
ATOM     52  C   UNL A   1      42.558  31.082  29.333  1.00  0.00     0.029 A 
ATOM     53  N   UNL A   1      44.013  29.658  28.442  1.00  0.00    -0.354 N 
ATOM     54  N   UNL A   1      46.662  28.812  27.459  1.00  0.00    -0.248 NA
ATOM     55  C   UNL A   1      48.895  29.302  26.967  1.00  0.00     0.031 C 
ATOM     56  C   UNL A   1      43.768  31.754  29.128  1.00  0.00     0.029 A 
ATOM     57  C   UNL A   1      44.688  30.857  28.609  1.00  0.00     0.049 A 
ATOM     58  H   UNL A   1      44.408  28.834  28.074  1.00  0.00     0.167 HD
ATOM     59  C   UNL A   1      46.922  30.140  27.789  1.00  0.00     0.074 A 
ATOM     60  C   UNL A   1      48.322  30.373  27.494  1.00  0.00     0.031 C 
ATOM     61  C   UNL A   1      46.083  31.078  28.300  1.00  0.00     0.034 A 
BRANCH  48  62
ATOM     62  C   UNL A   1      40.285  29.035  29.236  1.00  0.00     0.023 A 
ATOM     63  C   UNL A   1      39.913  29.060  30.594  1.00  0.00     0.031 A 
ATOM     64  C   UNL A   1      39.274  29.229  28.279  1.00  0.00     0.131 A 
ATOM     65  C   UNL A   1      38.561  29.166  30.950  1.00  0.00     0.055 A 
ATOM     66  C   UNL A   1      37.942  29.434  28.645  1.00  0.00     0.041 A 
ATOM     67  F   UNL A   1      39.558  29.197  26.967  1.00  0.00    -0.206 F 
ATOM     68  C   UNL A   1      37.575  29.380  29.986  1.00  0.00     0.022 A 
BRANCH  65  69
ATOM     69  S   UNL A   1      38.095  28.829  32.671  1.00  0.00     0.124 S 
ATOM     70  O   UNL A   1      37.977  27.372  32.664  1.00  0.00    -0.237 OA
ATOM     71  O   UNL A   1      39.223  29.376  33.416  1.00  0.00    -0.237 OA
ATOM     72  O   UNL A   1      36.832  29.547  32.831  1.00  0.00    -0.744 OA
ENDBRANCH  65  69
ENDBRANCH  48  62
BRANCH  49  73
ATOM     73  C   UNL A   1      49.477  26.580  26.049  1.00  0.00     0.023 A 
ATOM     74  C   UNL A   1      49.922  27.024  24.794  1.00  0.00     0.031 A 
ATOM     75  C   UNL A   1      50.341  25.775  26.811  1.00  0.00     0.131 A 
ATOM     76  C   UNL A   1      51.181  26.627  24.318  1.00  0.00     0.055 A 
ATOM     77  C   UNL A   1      51.613  25.423  26.354  1.00  0.00     0.041 A 
ATOM     78  F   UNL A   1      49.967  25.330  28.021  1.00  0.00    -0.206 F 
ATOM     79  C   UNL A   1      52.035  25.840  25.094  1.00  0.00     0.022 A 
BRANCH  76  80
ATOM     80  S   UNL A   1      51.660  27.100  22.634  1.00  0.00     0.124 S 
ATOM     81  O   UNL A   1      50.414  26.903  21.903  1.00  0.00    -0.237 OA
ATOM     82  O   UNL A   1      52.085  28.484  22.817  1.00  0.00    -0.237 OA
ATOM     83  O   UNL A   1      52.731  26.161  22.308  1.00  0.00    -0.744 OA
ENDBRANCH  76  80
ENDBRANCH  49  73
BRANCH  61  84
ATOM     84  C   UNL A   1      46.679  32.426  28.621  1.00  0.00     0.023 A 
ATOM     85  C   UNL A   1      46.899  33.398  27.630  1.00  0.00     0.031 A 
ATOM     86  C   UNL A   1      47.042  32.737  29.945  1.00  0.00     0.131 A 
ATOM     87  C   UNL A   1      47.518  34.611  27.966  1.00  0.00     0.055 A 
ATOM     88  C   UNL A   1      47.601  33.970  30.282  1.00  0.00     0.041 A 
ATOM     89  F   UNL A   1      46.857  31.846  30.932  1.00  0.00    -0.206 F 
ATOM     90  C   UNL A   1      47.854  34.910  29.288  1.00  0.00     0.022 A 
BRANCH  87  91
ATOM     91  S   UNL A   1      47.965  35.761  26.635  1.00  0.00     0.124 S 
ATOM     92  O   UNL A   1      48.406  36.934  27.384  1.00  0.00    -0.237 OA
ATOM     93  O   UNL A   1      49.008  35.027  25.926  1.00  0.00    -0.237 OA
ATOM     94  O   UNL A   1      46.716  35.931  25.895  1.00  0.00    -0.744 OA
ENDBRANCH  87  91
ENDBRANCH  61  84
ENDBRANCH  35  36
ENDBRANCH  27  30
ENDBRANCH  25  26
ENDBRANCH  24  25
ENDBRANCH  23  24
ENDBRANCH   1  23
TORSDOF 21
ENDMDL
MODEL 3
REMARK VINA RESULT:      -9.9      1.812      2.375
REMARK SMILES CCCN(CC(=O)OC)C(=O)N1CC[C@H](C(=O)NCCCCNC(=O)c2ccc(-c3c4nc(c(-c5cc(S(=O)(=O)[O-])ccc5F)c5ccc([nH]5)c(-c5cc(S(=O)(=O)[O-])ccc5F)c5nc(c(-c6cc(S(=O)(=O)[O-])ccc6F)c6ccc3[nH]6)C=C5)C=C4)cc2)[C@H]1C
REMARK SMILES IDX 19 1 18 2 16 3 17 4 15 6 12 7 13 8 89 9 14 10 90 11 10 12
REMARK SMILES IDX 11 13 4 14 3 15 2 16 1 17 5 18 6 19 7 20 8 21 9 22 20 23
REMARK SMILES IDX 21 24 22 25 23 26 24 27 25 29 26 30 27 31 88 32 28 33 87 34
REMARK SMILES IDX 29 35 30 36 31 37 81 38 32 39 86 40 80 41 82 42 33 43 85 44
REMARK SMILES IDX 79 45 78 46 34 48 66 49 46 50 65 51 47 52 50 53 64 54 83 55
REMARK SMILES IDX 48 56 49 57 63 59 84 60 51 61 35 62 36 63 44 64 37 65 43 66
REMARK SMILES IDX 45 67 42 68 38 69 39 70 40 71 41 72 67 73 68 74 76 75 69 76
REMARK SMILES IDX 75 77 77 78 74 79 70 80 71 81 72 82 73 83 52 84 53 85 61 86
REMARK SMILES IDX 54 87 60 88 62 89 59 90 55 91 56 92 57 93 58 94
REMARK H PARENT 18 5 23 28 82 47 50 58
REMARK Flexibility Score: inf
ROOT
ATOM      1  C   UNL A   1      35.531  19.854  24.957  1.00  0.00     0.116 C 
ENDROOT
BRANCH   1   2
ATOM      2  N   UNL A   1      35.333  20.991  25.831  1.00  0.00    -0.356 N 
ATOM      3  C   UNL A   1      34.571  22.106  25.676  1.00  0.00     0.225 C 
ATOM      4  O   UNL A   1      34.638  22.965  26.557  1.00  0.00    -0.275 OA
ATOM      5  H   UNL A   1      35.834  20.950  26.677  1.00  0.00     0.163 HD
BRANCH   3   6
ATOM      6  C   UNL A   1      33.568  22.198  24.531  1.00  0.00     0.102 C 
ATOM      7  N   UNL A   1      31.707  23.561  25.178  1.00  0.00    -0.321 N 
ATOM      8  C   UNL A   1      31.456  22.191  25.624  1.00  0.00     0.122 C 
ATOM      9  C   UNL A   1      32.905  23.576  24.323  1.00  0.00     0.096 C 
ATOM     10  C   UNL A   1      32.349  21.301  24.778  1.00  0.00     0.037 C 
ATOM     11  C   UNL A   1      32.569  23.695  22.826  1.00  0.00     0.032 C 
BRANCH   7  12
ATOM     12  C   UNL A   1      31.495  24.541  26.142  1.00  0.00     0.320 C 
ATOM     13  O   UNL A   1      31.405  24.249  27.335  1.00  0.00    -0.248 OA
BRANCH  12  14
ATOM     14  N   UNL A   1      31.234  25.827  25.702  1.00  0.00    -0.314 N 
BRANCH  14  15
ATOM     15  C   UNL A   1      29.938  26.090  25.073  1.00  0.00     0.122 C 
BRANCH  15  16
ATOM     16  C   UNL A   1      30.091  26.564  23.619  1.00  0.00     0.018 C 
ATOM     17  C   UNL A   1      29.499  27.945  23.362  1.00  0.00     0.006 C 
ENDBRANCH  15  16
ENDBRANCH  14  15
BRANCH  14  18
ATOM     18  C   UNL A   1      32.157  26.956  25.772  1.00  0.00     0.243 C 
BRANCH  18  19
ATOM     19  C   UNL A   1      32.005  27.818  27.031  1.00  0.00     0.325 C 
ATOM     20  O   UNL A   1      31.190  27.571  27.915  1.00  0.00    -0.250 OA
BRANCH  19  21
ATOM     21  O   UNL A   1      32.873  28.867  27.064  1.00  0.00    -0.468 OA
ATOM     22  C   UNL A   1      32.827  29.725  25.923  1.00  0.00     0.282 C 
ENDBRANCH  19  21
ENDBRANCH  18  19
ENDBRANCH  14  18
ENDBRANCH  12  14
ENDBRANCH   7  12
ENDBRANCH   3   6
ENDBRANCH   1   2
BRANCH   1  23
ATOM     23  C   UNL A   1      37.004  19.448  24.935  1.00  0.00     0.023 C 
BRANCH  23  24
ATOM     24  C   UNL A   1      37.984  20.624  24.918  1.00  0.00     0.023 C 
BRANCH  24  25
ATOM     25  C   UNL A   1      38.961  20.654  26.086  1.00  0.00     0.116 C 
BRANCH  25  26
ATOM     26  N   UNL A   1      39.965  19.605  26.006  1.00  0.00    -0.352 N 
ATOM     27  C   UNL A   1      41.335  19.708  26.079  1.00  0.00     0.251 C 
ATOM     28  H   UNL A   1      39.615  18.692  25.882  1.00  0.00     0.163 HD
ATOM     29  O   UNL A   1      42.032  18.736  25.828  1.00  0.00    -0.269 OA
BRANCH  27  30
ATOM     30  C   UNL A   1      41.945  21.010  26.431  1.00  0.00     0.039 A 
ATOM     31  C   UNL A   1      42.184  21.943  25.419  1.00  0.00     0.014 A 
ATOM     32  C   UNL A   1      42.253  21.316  27.758  1.00  0.00     0.014 A 
ATOM     33  C   UNL A   1      42.669  23.211  25.751  1.00  0.00     0.010 A 
ATOM     34  C   UNL A   1      42.654  22.604  28.095  1.00  0.00     0.010 A 
ATOM     35  C   UNL A   1      42.872  23.564  27.095  1.00  0.00    -0.014 A 
BRANCH  35  36
ATOM     36  C   UNL A   1      43.339  24.920  27.481  1.00  0.00     0.031 A 
ATOM     37  C   UNL A   1      42.370  25.897  28.089  1.00  0.00     0.074 A 
ATOM     38  C   UNL A   1      44.607  25.295  27.219  1.00  0.00     0.049 A 
ATOM     39  N   UNL A   1      42.544  27.156  28.401  1.00  0.00    -0.248 NA
ATOM     40  C   UNL A   1      41.011  25.398  28.341  1.00  0.00     0.031 C 
ATOM     41  C   UNL A   1      45.628  24.451  26.595  1.00  0.00     0.029 A 
ATOM     42  N   UNL A   1      45.251  26.486  27.438  1.00  0.00    -0.354 N 
ATOM     43  C   UNL A   1      41.313  27.602  28.870  1.00  0.00     0.074 A 
ATOM     44  C   UNL A   1      40.386  26.500  28.723  1.00  0.00     0.031 C 
ATOM     45  C   UNL A   1      46.777  25.140  26.513  1.00  0.00     0.029 A 
ATOM     46  C   UNL A   1      46.565  26.487  27.031  1.00  0.00     0.049 A 
ATOM     47  H   UNL A   1      44.813  27.268  27.846  1.00  0.00     0.167 HD
ATOM     48  C   UNL A   1      40.991  28.808  29.402  1.00  0.00     0.034 A 
ATOM     49  C   UNL A   1      47.490  27.467  27.065  1.00  0.00     0.034 A 
ATOM     50  C   UNL A   1      41.932  29.891  29.550  1.00  0.00     0.049 A 
ATOM     51  C   UNL A   1      47.107  28.810  27.634  1.00  0.00     0.074 A 
ATOM     52  C   UNL A   1      41.734  31.141  30.110  1.00  0.00     0.029 A 
ATOM     53  N   UNL A   1      43.257  29.855  29.127  1.00  0.00    -0.354 N 
ATOM     54  N   UNL A   1      45.949  29.207  28.109  1.00  0.00    -0.248 NA
ATOM     55  C   UNL A   1      48.160  29.832  27.679  1.00  0.00     0.031 C 
ATOM     56  C   UNL A   1      42.914  31.880  29.970  1.00  0.00     0.029 A 
ATOM     57  C   UNL A   1      43.877  31.067  29.392  1.00  0.00     0.049 A 
ATOM     58  H   UNL A   1      43.692  29.080  28.702  1.00  0.00     0.167 HD
ATOM     59  C   UNL A   1      46.146  30.515  28.543  1.00  0.00     0.074 A 
ATOM     60  C   UNL A   1      47.535  30.833  28.281  1.00  0.00     0.031 C 
ATOM     61  C   UNL A   1      45.262  31.373  29.116  1.00  0.00     0.034 A 
BRANCH  48  62
ATOM     62  C   UNL A   1      39.556  29.008  29.834  1.00  0.00     0.023 A 
ATOM     63  C   UNL A   1      38.617  29.641  28.999  1.00  0.00     0.031 A 
ATOM     64  C   UNL A   1      39.133  28.625  31.119  1.00  0.00     0.131 A 
ATOM     65  C   UNL A   1      37.345  29.967  29.492  1.00  0.00     0.055 A 
ATOM     66  C   UNL A   1      37.832  28.864  31.569  1.00  0.00     0.041 A 
ATOM     67  F   UNL A   1      39.985  28.035  31.973  1.00  0.00    -0.206 F 
ATOM     68  C   UNL A   1      36.936  29.559  30.762  1.00  0.00     0.022 A 
BRANCH  65  69
ATOM     69  S   UNL A   1      36.307  31.094  28.519  1.00  0.00     0.124 S 
ATOM     70  O   UNL A   1      35.120  31.204  29.365  1.00  0.00    -0.237 OA
ATOM     71  O   UNL A   1      37.138  32.288  28.427  1.00  0.00    -0.237 OA
ATOM     72  O   UNL A   1      36.103  30.374  27.264  1.00  0.00    -0.744 OA
ENDBRANCH  65  69
ENDBRANCH  48  62
BRANCH  49  73
ATOM     73  C   UNL A   1      48.870  27.217  26.561  1.00  0.00     0.023 A 
ATOM     74  C   UNL A   1      49.219  27.533  25.239  1.00  0.00     0.031 A 
ATOM     75  C   UNL A   1      49.850  26.634  27.382  1.00  0.00     0.131 A 
ATOM     76  C   UNL A   1      50.503  27.227  24.762  1.00  0.00     0.055 A 
ATOM     77  C   UNL A   1      51.142  26.376  26.918  1.00  0.00     0.041 A 
ATOM     78  F   UNL A   1      49.570  26.320  28.657  1.00  0.00    -0.206 F 
ATOM     79  C   UNL A   1      51.471  26.662  25.596  1.00  0.00     0.022 A 
BRANCH  76  80
ATOM     80  S   UNL A   1      50.869  27.516  23.010  1.00  0.00     0.124 S 
ATOM     81  O   UNL A   1      49.696  26.944  22.361  1.00  0.00    -0.237 OA
ATOM     82  O   UNL A   1      50.985  28.970  22.960  1.00  0.00    -0.237 OA
ATOM     83  O   UNL A   1      52.118  26.787  22.798  1.00  0.00    -0.744 OA
ENDBRANCH  76  80
ENDBRANCH  49  73
BRANCH  61  84
ATOM     84  C   UNL A   1      45.794  32.718  29.545  1.00  0.00     0.023 A 
ATOM     85  C   UNL A   1      46.356  32.924  30.817  1.00  0.00     0.031 A 
ATOM     86  C   UNL A   1      45.728  33.814  28.666  1.00  0.00     0.131 A 
ATOM     87  C   UNL A   1      46.776  34.208  31.195  1.00  0.00     0.055 A 
ATOM     88  C   UNL A   1      46.204  35.074  29.026  1.00  0.00     0.041 A 
ATOM     89  F   UNL A   1      45.200  33.674  27.439  1.00  0.00    -0.206 F 
ATOM     90  C   UNL A   1      46.720  35.280  30.302  1.00  0.00     0.022 A 
BRANCH  87  91
ATOM     91  S   UNL A   1      47.313  34.482  32.906  1.00  0.00     0.124 S 
ATOM     92  O   UNL A   1      48.576  33.751  32.948  1.00  0.00    -0.237 OA
ATOM     93  O   UNL A   1      47.416  35.936  32.972  1.00  0.00    -0.237 OA
ATOM     94  O   UNL A   1      46.234  33.901  33.702  1.00  0.00    -0.744 OA
ENDBRANCH  87  91
ENDBRANCH  61  84
ENDBRANCH  35  36
ENDBRANCH  27  30
ENDBRANCH  25  26
ENDBRANCH  24  25
ENDBRANCH  23  24
ENDBRANCH   1  23
TORSDOF 21
ENDMDL
