MODEL 1
REMARK VINA RESULT:     -10.9      0.000      0.000
REMARK SMILES C/C(C(=O)NCCCCNC(=O)c1ccc(-c2c3nc(c(-c4cc(S(=O)(=O)[O-])ccc4F)c4ccc([nH]4)c(-c4cc(S(=O)(=O)[O-])ccc4F)c4nc(c(-c5cc(S(=O)(=O)[O-])ccc5F)c5ccc2[nH]5)C=C4)C=C3)cc1)=C1/CCCSC1
REMARK SMILES IDX 9 1 8 2 7 3 6 4 5 5 3 6 4 7 2 9 1 10 76 11 77 12 81 13 78 14
REMARK SMILES IDX 80 15 79 16 10 17 11 18 12 20 13 21 14 22 75 23 15 24 74 25
REMARK SMILES IDX 16 26 17 27 18 28 68 29 19 30 73 31 67 32 69 33 20 34 72 35
REMARK SMILES IDX 66 36 65 37 21 39 53 40 33 41 52 42 34 43 37 44 51 45 70 46
REMARK SMILES IDX 35 47 36 48 50 50 71 51 38 52 22 53 23 54 31 55 24 56 30 57
REMARK SMILES IDX 32 58 29 59 25 60 26 61 27 62 28 63 54 64 55 65 63 66 56 67
REMARK SMILES IDX 62 68 64 69 61 70 57 71 58 72 59 73 60 74 39 75 40 76 48 77
REMARK SMILES IDX 41 78 47 79 49 80 46 81 42 82 43 83 44 84 45 85
REMARK H PARENT 5 8 10 19 69 38 37 49
REMARK Flexibility Score: inf
ROOT
ATOM      1  C   UNL A   1      35.281  33.369  28.286  1.00  0.00     0.116 C 
ENDROOT
BRANCH   1   2
ATOM      2  C   UNL A   1      34.789  34.814  28.283  1.00  0.00     0.023 C 
BRANCH   2   3
ATOM      3  C   UNL A   1      33.384  35.028  28.861  1.00  0.00     0.023 C 
BRANCH   3   4
ATOM      4  C   UNL A   1      33.223  36.315  29.678  1.00  0.00     0.116 C 
BRANCH   4   5
ATOM      5  N   UNL A   1      32.239  36.123  30.727  1.00  0.00    -0.352 N 
ATOM      6  C   UNL A   1      32.305  35.829  32.052  1.00  0.00     0.246 C 
ATOM      7  O   UNL A   1      31.238  35.494  32.570  1.00  0.00    -0.270 OA
ATOM      8  H   UNL A   1      31.315  36.229  30.406  1.00  0.00     0.163 HD
BRANCH   6   9
ATOM      9  C   UNL A   1      33.582  35.892  32.855  1.00  0.00     0.014 C 
ATOM     10  C   UNL A   1      34.181  37.240  33.147  1.00  0.00     0.050 C 
ATOM     11  C   UNL A   1      34.253  34.751  33.187  1.00  0.00    -0.052 C 
ATOM     12  C   UNL A   1      33.873  33.329  32.811  1.00  0.00     0.033 C 
ATOM     13  C   UNL A   1      35.546  34.742  33.975  1.00  0.00     0.100 C 
ATOM     14  C   UNL A   1      34.840  32.806  31.744  1.00  0.00     0.015 C 
ATOM     15  S   UNL A   1      36.917  34.330  32.856  1.00  0.00    -0.158 SA
ATOM     16  C   UNL A   1      36.287  32.739  32.232  1.00  0.00     0.070 C 
ENDBRANCH   6   9
ENDBRANCH   4   5
ENDBRANCH   3   4
ENDBRANCH   2   3
ENDBRANCH   1   2
BRANCH   1  17
ATOM     17  N   UNL A   1      34.273  32.424  27.834  1.00  0.00    -0.352 N 
ATOM     18  C   UNL A   1      34.360  31.055  27.727  1.00  0.00     0.251 C 
ATOM     19  H   UNL A   1      33.410  32.816  27.569  1.00  0.00     0.163 HD
ATOM     20  O   UNL A   1      33.445  30.425  27.216  1.00  0.00    -0.269 OA
BRANCH  18  21
ATOM     21  C   UNL A   1      35.583  30.366  28.193  1.00  0.00     0.039 A 
ATOM     22  C   UNL A   1      36.669  30.263  27.319  1.00  0.00     0.014 A 
ATOM     23  C   UNL A   1      35.668  29.848  29.488  1.00  0.00     0.014 A 
ATOM     24  C   UNL A   1      37.865  29.702  27.769  1.00  0.00     0.010 A 
ATOM     25  C   UNL A   1      36.880  29.345  29.953  1.00  0.00     0.010 A 
ATOM     26  C   UNL A   1      37.993  29.273  29.100  1.00  0.00    -0.014 A 
BRANCH  26  27
ATOM     27  C   UNL A   1      39.283  28.755  29.623  1.00  0.00     0.031 A 
ATOM     28  C   UNL A   1      39.982  29.470  30.745  1.00  0.00     0.074 A 
ATOM     29  C   UNL A   1      39.856  27.685  29.037  1.00  0.00     0.049 A 
ATOM     30  N   UNL A   1      41.153  29.233  31.277  1.00  0.00    -0.248 NA
ATOM     31  C   UNL A   1      39.282  30.627  31.323  1.00  0.00     0.031 C 
ATOM     32  C   UNL A   1      39.292  26.934  27.914  1.00  0.00     0.029 A 
ATOM     33  N   UNL A   1      41.045  27.051  29.295  1.00  0.00    -0.354 N 
ATOM     34  C   UNL A   1      41.338  30.217  32.243  1.00  0.00     0.074 A 
ATOM     35  C   UNL A   1      40.182  31.086  32.179  1.00  0.00     0.031 C 
ATOM     36  C   UNL A   1      40.126  25.932  27.591  1.00  0.00     0.029 A 
ATOM     37  C   UNL A   1      41.303  25.995  28.452  1.00  0.00     0.049 A 
ATOM     38  H   UNL A   1      41.658  27.328  30.015  1.00  0.00     0.167 HD
ATOM     39  C   UNL A   1      42.367  30.368  33.114  1.00  0.00     0.034 A 
ATOM     40  C   UNL A   1      42.372  25.178  28.373  1.00  0.00     0.034 A 
ATOM     41  C   UNL A   1      43.505  29.483  33.170  1.00  0.00     0.049 A 
ATOM     42  C   UNL A   1      43.511  25.374  29.341  1.00  0.00     0.074 A 
ATOM     43  C   UNL A   1      44.575  29.509  34.048  1.00  0.00     0.029 A 
ATOM     44  N   UNL A   1      43.728  28.417  32.308  1.00  0.00    -0.354 N 
ATOM     45  N   UNL A   1      43.648  26.281  30.282  1.00  0.00    -0.248 NA
ATOM     46  C   UNL A   1      44.633  24.433  29.242  1.00  0.00     0.031 C 
ATOM     47  C   UNL A   1      45.471  28.500  33.679  1.00  0.00     0.029 A 
ATOM     48  C   UNL A   1      44.929  27.796  32.615  1.00  0.00     0.049 A 
ATOM     49  H   UNL A   1      43.120  28.142  31.583  1.00  0.00     0.167 HD
ATOM     50  C   UNL A   1      44.860  25.997  30.906  1.00  0.00     0.074 A 
ATOM     51  C   UNL A   1      45.405  24.830  30.242  1.00  0.00     0.031 C 
ATOM     52  C   UNL A   1      45.464  26.640  31.937  1.00  0.00     0.034 A 
BRANCH  39  53
ATOM     53  C   UNL A   1      42.310  31.549  34.054  1.00  0.00     0.023 A 
ATOM     54  C   UNL A   1      41.554  31.513  35.238  1.00  0.00     0.031 A 
ATOM     55  C   UNL A   1      42.994  32.738  33.747  1.00  0.00     0.131 A 
ATOM     56  C   UNL A   1      41.434  32.666  36.029  1.00  0.00     0.055 A 
ATOM     57  C   UNL A   1      42.938  33.857  34.581  1.00  0.00     0.041 A 
ATOM     58  F   UNL A   1      43.717  32.841  32.620  1.00  0.00    -0.206 F 
ATOM     59  C   UNL A   1      42.141  33.830  35.722  1.00  0.00     0.022 A 
BRANCH  56  60
ATOM     60  S   UNL A   1      40.223  32.666  37.379  1.00  0.00     0.124 S 
ATOM     61  O   UNL A   1      39.690  34.024  37.297  1.00  0.00    -0.237 OA
ATOM     62  O   UNL A   1      39.313  31.597  36.987  1.00  0.00    -0.237 OA
ATOM     63  O   UNL A   1      41.033  32.394  38.565  1.00  0.00    -0.744 OA
ENDBRANCH  56  60
ENDBRANCH  39  53
BRANCH  40  64
ATOM     64  C   UNL A   1      42.429  24.105  27.339  1.00  0.00     0.023 A 
ATOM     65  C   UNL A   1      41.856  22.846  27.573  1.00  0.00     0.031 A 
ATOM     66  C   UNL A   1      43.091  24.313  26.116  1.00  0.00     0.131 A 
ATOM     67  C   UNL A   1      41.995  21.826  26.619  1.00  0.00     0.055 A 
ATOM     68  C   UNL A   1      43.184  23.311  25.149  1.00  0.00     0.041 A 
ATOM     69  F   UNL A   1      43.650  25.502  25.839  1.00  0.00    -0.206 F 
ATOM     70  C   UNL A   1      42.644  22.053  25.403  1.00  0.00     0.022 A 
BRANCH  67  71
ATOM     71  S   UNL A   1      41.381  20.168  27.025  1.00  0.00     0.124 S 
ATOM     72  O   UNL A   1      40.448  19.920  25.930  1.00  0.00    -0.237 OA
ATOM     73  O   UNL A   1      42.609  19.380  27.012  1.00  0.00    -0.237 OA
ATOM     74  O   UNL A   1      40.768  20.344  28.339  1.00  0.00    -0.744 OA
ENDBRANCH  67  71
ENDBRANCH  40  64
BRANCH  52  75
ATOM     75  C   UNL A   1      46.765  26.059  32.436  1.00  0.00     0.023 A 
ATOM     76  C   UNL A   1      46.801  25.086  33.449  1.00  0.00     0.031 A 
ATOM     77  C   UNL A   1      47.986  26.498  31.894  1.00  0.00     0.131 A 
ATOM     78  C   UNL A   1      48.036  24.620  33.925  1.00  0.00     0.055 A 
ATOM     79  C   UNL A   1      49.209  25.990  32.332  1.00  0.00     0.041 A 
ATOM     80  F   UNL A   1      48.008  27.428  30.925  1.00  0.00    -0.206 F 
ATOM     81  C   UNL A   1      49.239  25.054  33.362  1.00  0.00     0.022 A 
BRANCH  78  82
ATOM     82  S   UNL A   1      48.054  23.498  35.350  1.00  0.00     0.124 S 
ATOM     83  O   UNL A   1      46.793  23.823  36.009  1.00  0.00    -0.237 OA
ATOM     84  O   UNL A   1      48.122  22.186  34.714  1.00  0.00    -0.237 OA
ATOM     85  O   UNL A   1      49.256  23.893  36.083  1.00  0.00    -0.744 OA
ENDBRANCH  78  82
ENDBRANCH  52  75
ENDBRANCH  26  27
ENDBRANCH  18  21
ENDBRANCH   1  17
TORSDOF 14
ENDMDL
MODEL 2
REMARK VINA RESULT:     -10.8      3.826      9.805
REMARK SMILES C/C(C(=O)NCCCCNC(=O)c1ccc(-c2c3nc(c(-c4cc(S(=O)(=O)[O-])ccc4F)c4ccc([nH]4)c(-c4cc(S(=O)(=O)[O-])ccc4F)c4nc(c(-c5cc(S(=O)(=O)[O-])ccc5F)c5ccc2[nH]5)C=C4)C=C3)cc1)=C1/CCCSC1
REMARK SMILES IDX 9 1 8 2 7 3 6 4 5 5 3 6 4 7 2 9 1 10 76 11 77 12 81 13 78 14
REMARK SMILES IDX 80 15 79 16 10 17 11 18 12 20 13 21 14 22 75 23 15 24 74 25
REMARK SMILES IDX 16 26 17 27 18 28 68 29 19 30 73 31 67 32 69 33 20 34 72 35
REMARK SMILES IDX 66 36 65 37 21 39 53 40 33 41 52 42 34 43 37 44 51 45 70 46
REMARK SMILES IDX 35 47 36 48 50 50 71 51 38 52 22 53 23 54 31 55 24 56 30 57
REMARK SMILES IDX 32 58 29 59 25 60 26 61 27 62 28 63 54 64 55 65 63 66 56 67
REMARK SMILES IDX 62 68 64 69 61 70 57 71 58 72 59 73 60 74 39 75 40 76 48 77
REMARK SMILES IDX 41 78 47 79 49 80 46 81 42 82 43 83 44 84 45 85
REMARK H PARENT 5 8 10 19 69 38 37 49
REMARK Flexibility Score: inf
ROOT
ATOM      1  C   UNL A   1      32.701  33.097  27.262  1.00  0.00     0.116 C 
ENDROOT
BRANCH   1   2
ATOM      2  C   UNL A   1      31.429  32.627  26.562  1.00  0.00     0.023 C 
BRANCH   2   3
ATOM      3  C   UNL A   1      31.334  31.115  26.324  1.00  0.00     0.023 C 
BRANCH   3   4
ATOM      4  C   UNL A   1      32.458  30.298  26.972  1.00  0.00     0.116 C 
BRANCH   4   5
ATOM      5  N   UNL A   1      31.970  28.985  27.348  1.00  0.00    -0.352 N 
ATOM      6  C   UNL A   1      31.586  27.878  26.659  1.00  0.00     0.246 C 
ATOM      7  O   UNL A   1      30.987  27.028  27.320  1.00  0.00    -0.270 OA
ATOM      8  H   UNL A   1      31.902  28.868  28.323  1.00  0.00     0.163 HD
BRANCH   6   9
ATOM      9  C   UNL A   1      31.854  27.682  25.186  1.00  0.00     0.014 C 
ATOM     10  C   UNL A   1      30.778  28.053  24.204  1.00  0.00     0.050 C 
ATOM     11  C   UNL A   1      32.989  27.052  24.763  1.00  0.00    -0.052 C 
ATOM     12  C   UNL A   1      34.082  26.460  25.636  1.00  0.00     0.033 C 
ATOM     13  C   UNL A   1      33.313  26.807  23.304  1.00  0.00     0.100 C 
ATOM     14  C   UNL A   1      34.002  24.931  25.591  1.00  0.00     0.015 C 
ATOM     15  S   UNL A   1      33.094  25.041  22.938  1.00  0.00    -0.158 SA
ATOM     16  C   UNL A   1      34.230  24.363  24.191  1.00  0.00     0.070 C 
ENDBRANCH   6   9
ENDBRANCH   4   5
ENDBRANCH   3   4
ENDBRANCH   2   3
ENDBRANCH   1   2
BRANCH   1  17
ATOM     17  N   UNL A   1      32.560  34.405  27.882  1.00  0.00    -0.352 N 
ATOM     18  C   UNL A   1      33.271  34.947  28.927  1.00  0.00     0.251 C 
ATOM     19  H   UNL A   1      31.858  34.982  27.502  1.00  0.00     0.163 HD
ATOM     20  O   UNL A   1      32.939  36.025  29.397  1.00  0.00    -0.269 OA
BRANCH  18  21
ATOM     21  C   UNL A   1      34.408  34.192  29.499  1.00  0.00     0.039 A 
ATOM     22  C   UNL A   1      35.693  34.442  29.011  1.00  0.00     0.014 A 
ATOM     23  C   UNL A   1      34.211  33.264  30.525  1.00  0.00     0.014 A 
ATOM     24  C   UNL A   1      36.790  33.812  29.601  1.00  0.00     0.010 A 
ATOM     25  C   UNL A   1      35.310  32.684  31.152  1.00  0.00     0.010 A 
ATOM     26  C   UNL A   1      36.611  32.957  30.701  1.00  0.00    -0.014 A 
BRANCH  26  27
ATOM     27  C   UNL A   1      37.771  32.345  31.399  1.00  0.00     0.031 A 
ATOM     28  C   UNL A   1      38.517  31.206  30.763  1.00  0.00     0.074 A 
ATOM     29  C   UNL A   1      38.103  32.769  32.634  1.00  0.00     0.049 A 
ATOM     30  N   UNL A   1      39.491  30.479  31.248  1.00  0.00    -0.248 NA
ATOM     31  C   UNL A   1      38.086  30.811  29.414  1.00  0.00     0.031 C 
ATOM     32  C   UNL A   1      37.426  33.840  33.370  1.00  0.00     0.029 A 
ATOM     33  N   UNL A   1      39.083  32.345  33.496  1.00  0.00    -0.354 N 
ATOM     34  C   UNL A   1      39.782  29.534  30.271  1.00  0.00     0.074 A 
ATOM     35  C   UNL A   1      38.839  29.745  29.192  1.00  0.00     0.031 C 
ATOM     36  C   UNL A   1      38.021  33.999  34.563  1.00  0.00     0.029 A 
ATOM     37  C   UNL A   1      39.091  33.016  34.697  1.00  0.00     0.049 A 
ATOM     38  H   UNL A   1      39.719  31.626  33.276  1.00  0.00     0.167 HD
ATOM     39  C   UNL A   1      40.757  28.591  30.266  1.00  0.00     0.034 A 
ATOM     40  C   UNL A   1      39.865  32.848  35.788  1.00  0.00     0.034 A 
ATOM     41  C   UNL A   1      41.695  28.404  31.346  1.00  0.00     0.049 A 
ATOM     42  C   UNL A   1      40.932  31.783  35.767  1.00  0.00     0.074 A 
ATOM     43  C   UNL A   1      42.757  27.519  31.423  1.00  0.00     0.029 A 
ATOM     44  N   UNL A   1      41.682  29.109  32.543  1.00  0.00    -0.354 N 
ATOM     45  N   UNL A   1      41.226  30.928  34.814  1.00  0.00    -0.248 NA
ATOM     46  C   UNL A   1      41.776  31.668  36.963  1.00  0.00     0.031 C 
ATOM     47  C   UNL A   1      43.345  27.646  32.686  1.00  0.00     0.029 A 
ATOM     48  C   UNL A   1      42.697  28.659  33.374  1.00  0.00     0.049 A 
ATOM     49  H   UNL A   1      41.043  29.823  32.769  1.00  0.00     0.167 HD
ATOM     50  C   UNL A   1      42.310  30.194  35.287  1.00  0.00     0.074 A 
ATOM     51  C   UNL A   1      42.623  30.716  36.602  1.00  0.00     0.031 C 
ATOM     52  C   UNL A   1      42.989  29.183  34.687  1.00  0.00     0.034 A 
BRANCH  39  53
ATOM     53  C   UNL A   1      40.833  27.680  29.064  1.00  0.00     0.023 A 
ATOM     54  C   UNL A   1      41.776  27.884  28.042  1.00  0.00     0.031 A 
ATOM     55  C   UNL A   1      39.931  26.610  28.921  1.00  0.00     0.131 A 
ATOM     56  C   UNL A   1      41.744  27.088  26.887  1.00  0.00     0.055 A 
ATOM     57  C   UNL A   1      39.958  25.768  27.808  1.00  0.00     0.041 A 
ATOM     58  F   UNL A   1      38.995  26.376  29.854  1.00  0.00    -0.206 F 
ATOM     59  C   UNL A   1      40.857  26.014  26.774  1.00  0.00     0.022 A 
BRANCH  56  60
ATOM     60  S   UNL A   1      42.776  27.568  25.475  1.00  0.00     0.124 S 
ATOM     61  O   UNL A   1      42.700  26.374  24.636  1.00  0.00    -0.237 OA
ATOM     62  O   UNL A   1      42.088  28.749  24.969  1.00  0.00    -0.237 OA
ATOM     63  O   UNL A   1      44.084  27.816  26.076  1.00  0.00    -0.744 OA
ENDBRANCH  56  60
ENDBRANCH  39  53
BRANCH  40  64
ATOM     64  C   UNL A   1      39.660  33.696  36.997  1.00  0.00     0.023 A 
ATOM     65  C   UNL A   1      38.989  33.197  38.124  1.00  0.00     0.031 A 
ATOM     66  C   UNL A   1      40.100  35.031  37.028  1.00  0.00     0.131 A 
ATOM     67  C   UNL A   1      38.734  34.039  39.217  1.00  0.00     0.055 A 
ATOM     68  C   UNL A   1      39.889  35.851  38.138  1.00  0.00     0.041 A 
ATOM     69  F   UNL A   1      40.755  35.555  35.979  1.00  0.00    -0.206 F 
ATOM     70  C   UNL A   1      39.190  35.359  39.237  1.00  0.00     0.022 A 
BRANCH  67  71
ATOM     71  S   UNL A   1      37.725  33.406  40.585  1.00  0.00     0.124 S 
ATOM     72  O   UNL A   1      38.584  32.359  41.128  1.00  0.00    -0.237 OA
ATOM     73  O   UNL A   1      37.561  34.596  41.414  1.00  0.00    -0.237 OA
ATOM     74  O   UNL A   1      36.510  32.937  39.923  1.00  0.00    -0.744 OA
ENDBRANCH  67  71
ENDBRANCH  40  64
BRANCH  52  75
ATOM     75  C   UNL A   1      44.167  28.612  35.437  1.00  0.00     0.023 A 
ATOM     76  C   UNL A   1      44.014  27.586  36.386  1.00  0.00     0.031 A 
ATOM     77  C   UNL A   1      45.460  29.113  35.205  1.00  0.00     0.131 A 
ATOM     78  C   UNL A   1      45.129  27.128  37.105  1.00  0.00     0.055 A 
ATOM     79  C   UNL A   1      46.573  28.614  35.883  1.00  0.00     0.041 A 
ATOM     80  F   UNL A   1      45.662  30.094  34.311  1.00  0.00    -0.206 F 
ATOM     81  C   UNL A   1      46.409  27.625  36.848  1.00  0.00     0.022 A 
BRANCH  78  82
ATOM     82  S   UNL A   1      44.872  25.931  38.442  1.00  0.00     0.124 S 
ATOM     83  O   UNL A   1      43.879  26.608  39.270  1.00  0.00    -0.237 OA
ATOM     84  O   UNL A   1      44.403  24.751  37.721  1.00  0.00    -0.237 OA
ATOM     85  O   UNL A   1      46.197  25.800  39.045  1.00  0.00    -0.744 OA
ENDBRANCH  78  82
ENDBRANCH  52  75
ENDBRANCH  26  27
ENDBRANCH  18  21
ENDBRANCH   1  17
TORSDOF 14
ENDMDL
MODEL 3
REMARK VINA RESULT:     -10.8      5.928     11.292
REMARK SMILES C/C(C(=O)NCCCCNC(=O)c1ccc(-c2c3nc(c(-c4cc(S(=O)(=O)[O-])ccc4F)c4ccc([nH]4)c(-c4cc(S(=O)(=O)[O-])ccc4F)c4nc(c(-c5cc(S(=O)(=O)[O-])ccc5F)c5ccc2[nH]5)C=C4)C=C3)cc1)=C1/CCCSC1
REMARK SMILES IDX 9 1 8 2 7 3 6 4 5 5 3 6 4 7 2 9 1 10 76 11 77 12 81 13 78 14
REMARK SMILES IDX 80 15 79 16 10 17 11 18 12 20 13 21 14 22 75 23 15 24 74 25
REMARK SMILES IDX 16 26 17 27 18 28 68 29 19 30 73 31 67 32 69 33 20 34 72 35
REMARK SMILES IDX 66 36 65 37 21 39 53 40 33 41 52 42 34 43 37 44 51 45 70 46
REMARK SMILES IDX 35 47 36 48 50 50 71 51 38 52 22 53 23 54 31 55 24 56 30 57
REMARK SMILES IDX 32 58 29 59 25 60 26 61 27 62 28 63 54 64 55 65 63 66 56 67
REMARK SMILES IDX 62 68 64 69 61 70 57 71 58 72 59 73 60 74 39 75 40 76 48 77
REMARK SMILES IDX 41 78 47 79 49 80 46 81 42 82 43 83 44 84 45 85
REMARK H PARENT 5 8 10 19 69 38 37 49
REMARK Flexibility Score: inf
ROOT
ATOM      1  C   UNL A   1      37.114  21.701  25.102  1.00  0.00     0.116 C 
ENDROOT
BRANCH   1   2
ATOM      2  C   UNL A   1      35.743  21.474  25.733  1.00  0.00     0.023 C 
BRANCH   2   3
ATOM      3  C   UNL A   1      34.712  20.787  24.829  1.00  0.00     0.023 C 
BRANCH   3   4
ATOM      4  C   UNL A   1      33.253  21.103  25.177  1.00  0.00     0.116 C 
BRANCH   4   5
ATOM      5  N   UNL A   1      33.127  21.396  26.592  1.00  0.00    -0.352 N 
ATOM      6  C   UNL A   1      32.657  22.451  27.308  1.00  0.00     0.246 C 
ATOM      7  O   UNL A   1      32.945  22.445  28.506  1.00  0.00    -0.270 OA
ATOM      8  H   UNL A   1      33.457  20.665  27.163  1.00  0.00     0.163 HD
BRANCH   6   9
ATOM      9  C   UNL A   1      31.843  23.569  26.702  1.00  0.00     0.014 C 
ATOM     10  C   UNL A   1      30.349  23.417  26.639  1.00  0.00     0.050 C 
ATOM     11  C   UNL A   1      32.456  24.629  26.099  1.00  0.00    -0.052 C 
ATOM     12  C   UNL A   1      33.951  24.838  25.923  1.00  0.00     0.033 C 
ATOM     13  C   UNL A   1      31.702  25.776  25.458  1.00  0.00     0.100 C 
ATOM     14  C   UNL A   1      34.327  24.625  24.454  1.00  0.00     0.015 C 
ATOM     15  S   UNL A   1      31.835  25.633  23.652  1.00  0.00    -0.158 SA
ATOM     16  C   UNL A   1      33.651  25.622  23.514  1.00  0.00     0.070 C 
ENDBRANCH   6   9
ENDBRANCH   4   5
ENDBRANCH   3   4
ENDBRANCH   2   3
ENDBRANCH   1   2
BRANCH   1  17
ATOM     17  N   UNL A   1      38.084  20.680  25.467  1.00  0.00    -0.352 N 
ATOM     18  C   UNL A   1      39.316  20.833  26.060  1.00  0.00     0.251 C 
ATOM     19  H   UNL A   1      37.825  19.753  25.260  1.00  0.00     0.163 HD
ATOM     20  O   UNL A   1      40.053  19.866  26.190  1.00  0.00    -0.269 OA
BRANCH  18  21
ATOM     21  C   UNL A   1      39.751  22.178  26.494  1.00  0.00     0.039 A 
ATOM     22  C   UNL A   1      40.798  22.281  27.413  1.00  0.00     0.014 A 
ATOM     23  C   UNL A   1      39.147  23.330  25.982  1.00  0.00     0.014 A 
ATOM     24  C   UNL A   1      41.288  23.540  27.765  1.00  0.00     0.010 A 
ATOM     25  C   UNL A   1      39.676  24.581  26.286  1.00  0.00     0.010 A 
ATOM     26  C   UNL A   1      40.756  24.698  27.175  1.00  0.00    -0.014 A 
BRANCH  26  27
ATOM     27  C   UNL A   1      41.320  26.041  27.468  1.00  0.00     0.031 A 
ATOM     28  C   UNL A   1      42.705  26.393  27.004  1.00  0.00     0.074 A 
ATOM     29  C   UNL A   1      40.612  26.912  28.215  1.00  0.00     0.049 A 
ATOM     30  N   UNL A   1      43.409  27.471  27.238  1.00  0.00    -0.248 NA
ATOM     31  C   UNL A   1      43.403  25.382  26.195  1.00  0.00     0.031 C 
ATOM     32  C   UNL A   1      39.273  26.665  28.756  1.00  0.00     0.029 A 
ATOM     33  N   UNL A   1      40.921  28.173  28.658  1.00  0.00    -0.354 N 
ATOM     34  C   UNL A   1      44.636  27.265  26.617  1.00  0.00     0.074 A 
ATOM     35  C   UNL A   1      44.598  25.933  26.048  1.00  0.00     0.031 C 
ATOM     36  C   UNL A   1      38.871  27.747  29.444  1.00  0.00     0.029 A 
ATOM     37  C   UNL A   1      39.936  28.744  29.430  1.00  0.00     0.049 A 
ATOM     38  H   UNL A   1      41.769  28.625  28.445  1.00  0.00     0.167 HD
ATOM     39  C   UNL A   1      45.689  28.115  26.514  1.00  0.00     0.034 A 
ATOM     40  C   UNL A   1      39.902  29.932  30.067  1.00  0.00     0.034 A 
ATOM     41  C   UNL A   1      45.703  29.443  27.077  1.00  0.00     0.049 A 
ATOM     42  C   UNL A   1      41.089  30.854  29.953  1.00  0.00     0.074 A 
ATOM     43  C   UNL A   1      46.691  30.408  26.986  1.00  0.00     0.029 A 
ATOM     44  N   UNL A   1      44.684  29.993  27.845  1.00  0.00    -0.354 N 
ATOM     45  N   UNL A   1      42.225  30.663  29.321  1.00  0.00    -0.248 NA
ATOM     46  C   UNL A   1      40.986  32.153  30.629  1.00  0.00     0.031 C 
ATOM     47  C   UNL A   1      46.298  31.514  27.747  1.00  0.00     0.029 A 
ATOM     48  C   UNL A   1      45.032  31.271  28.256  1.00  0.00     0.049 A 
ATOM     49  H   UNL A   1      43.837  29.541  28.065  1.00  0.00     0.167 HD
ATOM     50  C   UNL A   1      42.958  31.833  29.499  1.00  0.00     0.074 A 
ATOM     51  C   UNL A   1      42.131  32.725  30.287  1.00  0.00     0.031 C 
ATOM     52  C   UNL A   1      44.200  32.144  29.050  1.00  0.00     0.034 A 
BRANCH  39  53
ATOM     53  C   UNL A   1      46.914  27.615  25.787  1.00  0.00     0.023 A 
ATOM     54  C   UNL A   1      47.177  27.973  24.453  1.00  0.00     0.031 A 
ATOM     55  C   UNL A   1      47.815  26.743  26.422  1.00  0.00     0.131 A 
ATOM     56  C   UNL A   1      48.263  27.400  23.774  1.00  0.00     0.055 A 
ATOM     57  C   UNL A   1      48.941  26.240  25.767  1.00  0.00     0.041 A 
ATOM     58  F   UNL A   1      47.607  26.348  27.689  1.00  0.00    -0.206 F 
ATOM     59  C   UNL A   1      49.162  26.556  24.429  1.00  0.00     0.022 A 
BRANCH  56  60
ATOM     60  S   UNL A   1      48.397  27.657  21.983  1.00  0.00     0.124 S 
ATOM     61  O   UNL A   1      47.094  28.239  21.671  1.00  0.00    -0.237 OA
ATOM     62  O   UNL A   1      49.540  28.556  21.879  1.00  0.00    -0.237 OA
ATOM     63  O   UNL A   1      48.611  26.310  21.459  1.00  0.00    -0.744 OA
ENDBRANCH  56  60
ENDBRANCH  39  53
BRANCH  40  64
ATOM     64  C   UNL A   1      38.712  30.320  30.878  1.00  0.00     0.023 A 
ATOM     65  C   UNL A   1      37.648  31.031  30.303  1.00  0.00     0.031 A 
ATOM     66  C   UNL A   1      38.641  30.018  32.249  1.00  0.00     0.131 A 
ATOM     67  C   UNL A   1      36.579  31.459  31.105  1.00  0.00     0.055 A 
ATOM     68  C   UNL A   1      37.551  30.402  33.033  1.00  0.00     0.041 A 
ATOM     69  F   UNL A   1      39.629  29.332  32.847  1.00  0.00    -0.206 F 
ATOM     70  C   UNL A   1      36.517  31.139  32.463  1.00  0.00     0.022 A 
BRANCH  67  71
ATOM     71  S   UNL A   1      35.302  32.512  30.361  1.00  0.00     0.124 S 
ATOM     72  O   UNL A   1      36.073  33.692  29.985  1.00  0.00    -0.237 OA
ATOM     73  O   UNL A   1      34.826  31.679  29.262  1.00  0.00    -0.237 OA
ATOM     74  O   UNL A   1      34.348  32.711  31.449  1.00  0.00    -0.744 OA
ENDBRANCH  67  71
ENDBRANCH  40  64
BRANCH  52  75
ATOM     75  C   UNL A   1      44.714  33.527  29.365  1.00  0.00     0.023 A 
ATOM     76  C   UNL A   1      44.625  34.579  28.437  1.00  0.00     0.031 A 
ATOM     77  C   UNL A   1      45.313  33.789  30.609  1.00  0.00     0.131 A 
ATOM     78  C   UNL A   1      45.173  35.833  28.750  1.00  0.00     0.055 A 
ATOM     79  C   UNL A   1      45.806  35.053  30.936  1.00  0.00     0.041 A 
ATOM     80  F   UNL A   1      45.426  32.819  31.532  1.00  0.00    -0.206 F 
ATOM     81  C   UNL A   1      45.749  36.080  29.999  1.00  0.00     0.022 A 
BRANCH  78  82
ATOM     82  S   UNL A   1      45.199  37.116  27.469  1.00  0.00     0.124 S 
ATOM     83  O   UNL A   1      45.923  38.195  28.134  1.00  0.00    -0.237 OA
ATOM     84  O   UNL A   1      45.905  36.453  26.376  1.00  0.00    -0.237 OA
ATOM     85  O   UNL A   1      43.784  37.382  27.220  1.00  0.00    -0.744 OA
ENDBRANCH  78  82
ENDBRANCH  52  75
ENDBRANCH  26  27
ENDBRANCH  18  21
ENDBRANCH   1  17
TORSDOF 14
ENDMDL
