MODEL 1
REMARK VINA RESULT:     -14.2      0.000      0.000
REMARK SMILES O=C(NCCCCNC(=O)c1ccc(N2C(=O)[C@@H]3N=NC(c4ccccc4)=C3[C@H]2c2cccc(Br)c2)cc1)c1ccc(-c2c3nc(c(-c4cc(S(=O)(=O)[O-])ccc4F)c4ccc([nH]4)c(-c4cc(S(=O)(=O)[O-])ccc4F)c4nc(c(-c5cc(S(=O)(=O)[O-])ccc5F)c5ccc2[nH]5)C=C4)C=C3)cc1
REMARK SMILES IDX 5 1 4 2 3 3 1 4 2 5 39 7 40 8 101 9 41 10 100 11 42 12 43 13
REMARK SMILES IDX 44 14 94 15 45 16 99 17 93 18 95 19 46 20 98 21 92 22 91 23
REMARK SMILES IDX 47 25 79 26 59 27 78 28 60 29 63 30 77 31 96 32 61 33 62 34
REMARK SMILES IDX 76 36 97 37 64 38 48 39 49 40 57 41 50 42 56 43 58 44 55 45
REMARK SMILES IDX 51 46 52 47 53 48 54 49 80 50 81 51 89 52 82 53 88 54 90 55
REMARK SMILES IDX 87 56 83 57 84 58 85 59 86 60 65 61 66 62 74 63 67 64 73 65
REMARK SMILES IDX 75 66 72 67 68 68 69 69 70 70 71 71 6 72 7 73 8 74 9 75
REMARK SMILES IDX 10 77 11 78 12 79 38 80 13 81 37 82 14 83 15 84 16 85 29 86
REMARK SMILES IDX 18 87 17 88 28 89 19 90 21 91 20 92 30 93 31 94 36 95 32 96
REMARK SMILES IDX 34 97 33 98 35 99 22 100 23 101 27 102 24 103 26 104 25 105
REMARK H PARENT 3 6 95 24 63 35 8 76
REMARK Flexibility Score: inf
ROOT
ATOM      1  C   UNL A   1      36.885  22.637  24.779  1.00  0.00     0.023 C 
ENDROOT
BRANCH   1   2
ATOM      2  C   UNL A   1      37.751  23.389  25.789  1.00  0.00     0.116 C 
BRANCH   2   3
ATOM      3  N   UNL A   1      38.895  22.660  26.297  1.00  0.00    -0.352 N 
ATOM      4  O   UNL A   1      40.628  22.015  27.504  1.00  0.00    -0.269 OA
ATOM      5  C   UNL A   1      39.910  22.959  27.166  1.00  0.00     0.251 C 
ATOM      6  H   UNL A   1      38.956  21.746  25.937  1.00  0.00     0.163 HD
BRANCH   5   7
ATOM      7  C   UNL A   1      40.231  24.325  27.662  1.00  0.00     0.039 A 
ATOM      8  C   UNL A   1      41.389  24.685  28.353  1.00  0.00     0.014 A 
ATOM      9  C   UNL A   1      39.257  25.311  27.423  1.00  0.00     0.014 A 
ATOM     10  C   UNL A   1      41.525  25.960  28.896  1.00  0.00     0.010 A 
ATOM     11  C   UNL A   1      39.406  26.598  27.930  1.00  0.00     0.010 A 
ATOM     12  C   UNL A   1      40.522  26.908  28.707  1.00  0.00    -0.014 A 
BRANCH  12  13
ATOM     13  C   UNL A   1      40.724  28.253  29.253  1.00  0.00     0.031 A 
ATOM     14  C   UNL A   1      41.867  29.035  28.686  1.00  0.00     0.074 A 
ATOM     15  C   UNL A   1      39.816  28.832  30.063  1.00  0.00     0.049 A 
ATOM     16  N   UNL A   1      42.767  29.735  29.301  1.00  0.00    -0.248 NA
ATOM     17  C   UNL A   1      42.059  28.986  27.226  1.00  0.00     0.031 C 
ATOM     18  C   UNL A   1      38.510  28.291  30.455  1.00  0.00     0.029 A 
ATOM     19  N   UNL A   1      39.800  30.094  30.583  1.00  0.00    -0.354 N 
ATOM     20  C   UNL A   1      43.522  30.364  28.310  1.00  0.00     0.074 A 
ATOM     21  C   UNL A   1      43.121  29.773  27.062  1.00  0.00     0.031 C 
ATOM     22  C   UNL A   1      37.739  29.296  30.921  1.00  0.00     0.029 A 
ATOM     23  C   UNL A   1      38.532  30.514  30.972  1.00  0.00     0.049 A 
ATOM     24  H   UNL A   1      40.606  30.652  30.674  1.00  0.00     0.167 HD
ATOM     25  C   UNL A   1      44.308  31.450  28.560  1.00  0.00     0.034 A 
ATOM     26  C   UNL A   1      38.122  31.785  31.209  1.00  0.00     0.034 A 
ATOM     27  C   UNL A   1      44.681  31.528  29.948  1.00  0.00     0.049 A 
ATOM     28  C   UNL A   1      39.326  32.604  31.478  1.00  0.00     0.074 A 
ATOM     29  C   UNL A   1      45.365  30.696  30.815  1.00  0.00     0.029 A 
ATOM     30  N   UNL A   1      44.080  32.467  30.753  1.00  0.00    -0.354 N 
ATOM     31  N   UNL A   1      40.101  32.437  32.514  1.00  0.00    -0.248 NA
ATOM     32  C   UNL A   1      39.924  33.339  30.374  1.00  0.00     0.031 C 
ATOM     33  C   UNL A   1      44.717  30.861  32.073  1.00  0.00     0.029 A 
ATOM     34  C   UNL A   1      43.710  31.812  31.901  1.00  0.00     0.049 A 
ATOM     35  H   UNL A   1      43.942  33.419  30.546  1.00  0.00     0.167 HD
ATOM     36  C   UNL A   1      41.384  32.663  32.045  1.00  0.00     0.074 A 
ATOM     37  C   UNL A   1      41.203  33.325  30.756  1.00  0.00     0.031 C 
ATOM     38  C   UNL A   1      42.468  32.048  32.608  1.00  0.00     0.034 A 
BRANCH  25  39
ATOM     39  C   UNL A   1      44.504  32.610  27.603  1.00  0.00     0.023 A 
ATOM     40  C   UNL A   1      43.909  33.845  27.935  1.00  0.00     0.031 A 
ATOM     41  C   UNL A   1      44.977  32.500  26.276  1.00  0.00     0.131 A 
ATOM     42  C   UNL A   1      43.717  34.845  26.964  1.00  0.00     0.055 A 
ATOM     43  C   UNL A   1      44.850  33.525  25.333  1.00  0.00     0.041 A 
ATOM     44  F   UNL A   1      45.503  31.370  25.787  1.00  0.00    -0.206 F 
ATOM     45  C   UNL A   1      44.186  34.694  25.663  1.00  0.00     0.022 A 
BRANCH  42  46
ATOM     46  S   UNL A   1      42.660  36.260  27.375  1.00  0.00     0.124 S 
ATOM     47  O   UNL A   1      43.299  37.338  26.625  1.00  0.00    -0.237 OA
ATOM     48  O   UNL A   1      41.362  35.815  26.883  1.00  0.00    -0.237 OA
ATOM     49  O   UNL A   1      42.779  36.360  28.828  1.00  0.00    -0.744 OA
ENDBRANCH  42  46
ENDBRANCH  25  39
BRANCH  26  50
ATOM     50  C   UNL A   1      36.793  32.346  30.846  1.00  0.00     0.023 A 
ATOM     51  C   UNL A   1      35.930  32.940  31.785  1.00  0.00     0.031 A 
ATOM     52  C   UNL A   1      36.437  32.476  29.483  1.00  0.00     0.131 A 
ATOM     53  C   UNL A   1      34.757  33.603  31.349  1.00  0.00     0.055 A 
ATOM     54  C   UNL A   1      35.271  33.111  29.059  1.00  0.00     0.041 A 
ATOM     55  F   UNL A   1      37.256  32.052  28.506  1.00  0.00    -0.206 F 
ATOM     56  C   UNL A   1      34.424  33.682  29.994  1.00  0.00     0.022 A 
BRANCH  53  57
ATOM     57  S   UNL A   1      33.687  34.456  32.548  1.00  0.00     0.124 S 
ATOM     58  O   UNL A   1      34.630  35.322  33.245  1.00  0.00    -0.237 OA
ATOM     59  O   UNL A   1      32.715  35.118  31.685  1.00  0.00    -0.237 OA
ATOM     60  O   UNL A   1      33.142  33.364  33.357  1.00  0.00    -0.744 OA
ENDBRANCH  53  57
ENDBRANCH  26  50
BRANCH  38  61
ATOM     61  C   UNL A   1      42.289  31.327  33.926  1.00  0.00     0.023 A 
ATOM     62  C   UNL A   1      42.068  29.937  34.042  1.00  0.00     0.031 A 
ATOM     63  C   UNL A   1      42.510  32.055  35.107  1.00  0.00     0.131 A 
ATOM     64  C   UNL A   1      42.065  29.327  35.310  1.00  0.00     0.055 A 
ATOM     65  C   UNL A   1      42.520  31.445  36.361  1.00  0.00     0.041 A 
ATOM     66  F   UNL A   1      42.768  33.373  35.058  1.00  0.00    -0.206 F 
ATOM     67  C   UNL A   1      42.294  30.077  36.468  1.00  0.00     0.022 A 
BRANCH  64  68
ATOM     68  S   UNL A   1      41.776  27.535  35.471  1.00  0.00     0.124 S 
ATOM     69  O   UNL A   1      43.101  26.959  35.275  1.00  0.00    -0.237 OA
ATOM     70  O   UNL A   1      41.218  27.423  36.816  1.00  0.00    -0.237 OA
ATOM     71  O   UNL A   1      40.823  27.246  34.396  1.00  0.00    -0.744 OA
ENDBRANCH  64  68
ENDBRANCH  38  61
ENDBRANCH  12  13
ENDBRANCH   5   7
ENDBRANCH   2   3
ENDBRANCH   1   2
BRANCH   1  72
ATOM     72  C   UNL A   1      36.752  21.127  25.002  1.00  0.00     0.023 C 
BRANCH  72  73
ATOM     73  C   UNL A   1      35.337  20.557  24.981  1.00  0.00     0.116 C 
BRANCH  73  74
ATOM     74  N   UNL A   1      34.669  20.622  26.269  1.00  0.00    -0.352 N 
ATOM     75  C   UNL A   1      33.762  21.551  26.727  1.00  0.00     0.251 C 
ATOM     76  H   UNL A   1      34.895  19.903  26.901  1.00  0.00     0.163 HD
ATOM     77  O   UNL A   1      33.318  21.482  27.859  1.00  0.00    -0.269 OA
BRANCH  75  78
ATOM     78  C   UNL A   1      33.360  22.680  25.857  1.00  0.00     0.039 A 
ATOM     79  C   UNL A   1      32.372  22.430  24.908  1.00  0.00     0.016 A 
ATOM     80  C   UNL A   1      33.939  23.952  25.950  1.00  0.00     0.016 A 
ATOM     81  C   UNL A   1      31.917  23.471  24.101  1.00  0.00     0.027 A 
ATOM     82  C   UNL A   1      33.487  24.999  25.125  1.00  0.00     0.027 A 
ATOM     83  C   UNL A   1      32.455  24.768  24.214  1.00  0.00     0.045 A 
BRANCH  83  84
ATOM     84  N   UNL A   1      31.851  25.840  23.481  1.00  0.00    -0.299 N 
ATOM     85  C   UNL A   1      32.522  26.174  22.256  1.00  0.00     0.259 C 
ATOM     86  C   UNL A   1      31.425  27.067  24.192  1.00  0.00     0.152 C 
ATOM     87  C   UNL A   1      32.649  27.667  22.181  1.00  0.00     0.248 C 
ATOM     88  O   UNL A   1      32.969  25.383  21.437  1.00  0.00    -0.271 OA
ATOM     89  C   UNL A   1      32.435  27.971  23.610  1.00  0.00     0.021 C 
ATOM     90  N   UNL A   1      34.003  28.204  21.968  1.00  0.00    -0.170 NA
ATOM     91  C   UNL A   1      33.415  28.785  23.984  1.00  0.00     0.097 C 
ATOM     92  N   UNL A   1      34.325  28.935  22.957  1.00  0.00    -0.154 NA
BRANCH  86  93
ATOM     93  C   UNL A   1      30.001  27.552  23.857  1.00  0.00    -0.020 A 
ATOM     94  C   UNL A   1      28.889  26.676  23.923  1.00  0.00     0.006 A 
ATOM     95  C   UNL A   1      29.758  28.857  23.403  1.00  0.00     0.022 A 
ATOM     96  C   UNL A   1      27.596  27.081  23.589  1.00  0.00     0.002 A 
ATOM     97  C   UNL A   1      28.459  29.253  23.043  1.00  0.00     0.018 A 
ATOM     98  C   UNL A   1      27.379  28.375  23.140  1.00  0.00     0.016 A 
ATOM     99  Br  UNL A   1      28.151  30.999  22.384  1.00  0.00    -0.051 Br
ENDBRANCH  86  93
BRANCH  91 100
ATOM    100  C   UNL A   1      33.679  29.348  25.304  1.00  0.00     0.002 A 
ATOM    101  C   UNL A   1      34.769  28.888  26.057  1.00  0.00     0.010 A 
ATOM    102  C   UNL A   1      32.773  30.238  25.891  1.00  0.00     0.010 A 
ATOM    103  C   UNL A   1      34.912  29.262  27.395  1.00  0.00     0.001 A 
ATOM    104  C   UNL A   1      32.923  30.619  27.227  1.00  0.00     0.001 A 
ATOM    105  C   UNL A   1      33.980  30.116  27.983  1.00  0.00     0.000 A 
ENDBRANCH  91 100
ENDBRANCH  83  84
ENDBRANCH  75  78
ENDBRANCH  73  74
ENDBRANCH  72  73
ENDBRANCH   1  72
TORSDOF 17
ENDMDL
MODEL 2
REMARK VINA RESULT:     -12.9      5.482     11.731
REMARK SMILES O=C(NCCCCNC(=O)c1ccc(N2C(=O)[C@@H]3N=NC(c4ccccc4)=C3[C@H]2c2cccc(Br)c2)cc1)c1ccc(-c2c3nc(c(-c4cc(S(=O)(=O)[O-])ccc4F)c4ccc([nH]4)c(-c4cc(S(=O)(=O)[O-])ccc4F)c4nc(c(-c5cc(S(=O)(=O)[O-])ccc5F)c5ccc2[nH]5)C=C4)C=C3)cc1
REMARK SMILES IDX 5 1 4 2 3 3 1 4 2 5 39 7 40 8 101 9 41 10 100 11 42 12 43 13
REMARK SMILES IDX 44 14 94 15 45 16 99 17 93 18 95 19 46 20 98 21 92 22 91 23
REMARK SMILES IDX 47 25 79 26 59 27 78 28 60 29 63 30 77 31 96 32 61 33 62 34
REMARK SMILES IDX 76 36 97 37 64 38 48 39 49 40 57 41 50 42 56 43 58 44 55 45
REMARK SMILES IDX 51 46 52 47 53 48 54 49 80 50 81 51 89 52 82 53 88 54 90 55
REMARK SMILES IDX 87 56 83 57 84 58 85 59 86 60 65 61 66 62 74 63 67 64 73 65
REMARK SMILES IDX 75 66 72 67 68 68 69 69 70 70 71 71 6 72 7 73 8 74 9 75
REMARK SMILES IDX 10 77 11 78 12 79 38 80 13 81 37 82 14 83 15 84 16 85 29 86
REMARK SMILES IDX 18 87 17 88 28 89 19 90 21 91 20 92 30 93 31 94 36 95 32 96
REMARK SMILES IDX 34 97 33 98 35 99 22 100 23 101 27 102 24 103 26 104 25 105
REMARK H PARENT 3 6 95 24 63 35 8 76
REMARK Flexibility Score: inf
ROOT
ATOM      1  C   UNL A   1      37.024  32.421  30.305  1.00  0.00     0.023 C 
ENDROOT
BRANCH   1   2
ATOM      2  C   UNL A   1      36.569  32.462  28.847  1.00  0.00     0.116 C 
BRANCH   2   3
ATOM      3  N   UNL A   1      35.775  31.333  28.408  1.00  0.00    -0.352 N 
ATOM      4  O   UNL A   1      35.027  29.289  28.032  1.00  0.00    -0.269 OA
ATOM      5  C   UNL A   1      36.012  29.991  28.278  1.00  0.00     0.251 C 
ATOM      6  H   UNL A   1      34.862  31.588  28.143  1.00  0.00     0.163 HD
BRANCH   5   7
ATOM      7  C   UNL A   1      37.354  29.353  28.349  1.00  0.00     0.039 A 
ATOM      8  C   UNL A   1      37.810  28.538  29.387  1.00  0.00     0.014 A 
ATOM      9  C   UNL A   1      38.226  29.631  27.282  1.00  0.00     0.014 A 
ATOM     10  C   UNL A   1      39.134  28.107  29.423  1.00  0.00     0.010 A 
ATOM     11  C   UNL A   1      39.539  29.171  27.294  1.00  0.00     0.010 A 
ATOM     12  C   UNL A   1      40.005  28.446  28.390  1.00  0.00    -0.014 A 
BRANCH  12  13
ATOM     13  C   UNL A   1      41.377  27.933  28.440  1.00  0.00     0.031 A 
ATOM     14  C   UNL A   1      41.607  26.589  27.824  1.00  0.00     0.074 A 
ATOM     15  C   UNL A   1      42.408  28.709  28.829  1.00  0.00     0.049 A 
ATOM     16  N   UNL A   1      42.276  25.580  28.284  1.00  0.00    -0.248 NA
ATOM     17  C   UNL A   1      40.953  26.319  26.532  1.00  0.00     0.031 C 
ATOM     18  C   UNL A   1      42.362  30.134  29.171  1.00  0.00     0.029 A 
ATOM     19  N   UNL A   1      43.744  28.426  28.850  1.00  0.00    -0.354 N 
ATOM     20  C   UNL A   1      42.288  24.620  27.270  1.00  0.00     0.074 A 
ATOM     21  C   UNL A   1      41.361  25.079  26.271  1.00  0.00     0.031 C 
ATOM     22  C   UNL A   1      43.611  30.642  29.112  1.00  0.00     0.029 A 
ATOM     23  C   UNL A   1      44.548  29.560  28.850  1.00  0.00     0.049 A 
ATOM     24  H   UNL A   1      44.102  27.509  28.864  1.00  0.00     0.167 HD
ATOM     25  C   UNL A   1      43.186  23.594  27.237  1.00  0.00     0.034 A 
ATOM     26  C   UNL A   1      45.867  29.636  28.544  1.00  0.00     0.034 A 
ATOM     27  C   UNL A   1      43.714  23.308  28.545  1.00  0.00     0.049 A 
ATOM     28  C   UNL A   1      46.442  28.279  28.691  1.00  0.00     0.074 A 
ATOM     29  C   UNL A   1      43.157  22.928  29.752  1.00  0.00     0.029 A 
ATOM     30  N   UNL A   1      44.999  23.692  28.849  1.00  0.00    -0.354 N 
ATOM     31  N   UNL A   1      46.526  27.647  29.830  1.00  0.00    -0.248 NA
ATOM     32  C   UNL A   1      46.539  27.436  27.510  1.00  0.00     0.031 C 
ATOM     33  C   UNL A   1      43.937  23.592  30.743  1.00  0.00     0.029 A 
ATOM     34  C   UNL A   1      44.941  24.298  30.079  1.00  0.00     0.049 A 
ATOM     35  H   UNL A   1      45.801  23.560  28.294  1.00  0.00     0.167 HD
ATOM     36  C   UNL A   1      46.265  26.321  29.526  1.00  0.00     0.074 A 
ATOM     37  C   UNL A   1      46.396  26.234  28.075  1.00  0.00     0.031 C 
ATOM     38  C   UNL A   1      45.698  25.479  30.441  1.00  0.00     0.034 A 
BRANCH  25  39
ATOM     39  C   UNL A   1      43.808  23.035  25.972  1.00  0.00     0.023 A 
ATOM     40  C   UNL A   1      43.774  21.638  25.784  1.00  0.00     0.031 A 
ATOM     41  C   UNL A   1      44.671  23.745  25.107  1.00  0.00     0.131 A 
ATOM     42  C   UNL A   1      44.628  21.007  24.861  1.00  0.00     0.055 A 
ATOM     43  C   UNL A   1      45.465  23.120  24.140  1.00  0.00     0.041 A 
ATOM     44  F   UNL A   1      44.867  25.065  25.205  1.00  0.00    -0.206 F 
ATOM     45  C   UNL A   1      45.474  21.740  24.034  1.00  0.00     0.022 A 
BRANCH  42  46
ATOM     46  S   UNL A   1      44.767  19.199  24.905  1.00  0.00     0.124 S 
ATOM     47  O   UNL A   1      43.529  18.820  25.578  1.00  0.00    -0.237 OA
ATOM     48  O   UNL A   1      44.856  18.872  23.487  1.00  0.00    -0.237 OA
ATOM     49  O   UNL A   1      45.987  18.973  25.677  1.00  0.00    -0.744 OA
ENDBRANCH  42  46
ENDBRANCH  25  39
BRANCH  26  50
ATOM     50  C   UNL A   1      46.518  30.742  27.792  1.00  0.00     0.023 A 
ATOM     51  C   UNL A   1      45.800  31.652  26.993  1.00  0.00     0.031 A 
ATOM     52  C   UNL A   1      47.883  31.035  28.021  1.00  0.00     0.131 A 
ATOM     53  C   UNL A   1      46.456  32.779  26.441  1.00  0.00     0.055 A 
ATOM     54  C   UNL A   1      48.530  32.135  27.458  1.00  0.00     0.041 A 
ATOM     55  F   UNL A   1      48.621  30.298  28.867  1.00  0.00    -0.206 F 
ATOM     56  C   UNL A   1      47.815  33.016  26.665  1.00  0.00     0.022 A 
BRANCH  53  57
ATOM     57  S   UNL A   1      45.514  34.010  25.488  1.00  0.00     0.124 S 
ATOM     58  O   UNL A   1      44.650  33.172  24.665  1.00  0.00    -0.237 OA
ATOM     59  O   UNL A   1      44.860  34.784  26.537  1.00  0.00    -0.237 OA
ATOM     60  O   UNL A   1      46.550  34.735  24.749  1.00  0.00    -0.744 OA
ENDBRANCH  53  57
ENDBRANCH  26  50
BRANCH  38  61
ATOM     61  C   UNL A   1      45.604  25.929  31.882  1.00  0.00     0.023 A 
ATOM     62  C   UNL A   1      44.448  26.500  32.458  1.00  0.00     0.031 A 
ATOM     63  C   UNL A   1      46.676  25.621  32.737  1.00  0.00     0.131 A 
ATOM     64  C   UNL A   1      44.399  26.750  33.842  1.00  0.00     0.055 A 
ATOM     65  C   UNL A   1      46.619  25.857  34.111  1.00  0.00     0.041 A 
ATOM     66  F   UNL A   1      47.788  25.039  32.255  1.00  0.00    -0.206 F 
ATOM     67  C   UNL A   1      45.480  26.426  34.669  1.00  0.00     0.022 A 
BRANCH  64  68
ATOM     68  S   UNL A   1      42.913  27.489  34.594  1.00  0.00     0.124 S 
ATOM     69  O   UNL A   1      42.467  26.469  35.536  1.00  0.00    -0.237 OA
ATOM     70  O   UNL A   1      43.433  28.722  35.179  1.00  0.00    -0.237 OA
ATOM     71  O   UNL A   1      42.019  27.693  33.451  1.00  0.00    -0.744 OA
ENDBRANCH  64  68
ENDBRANCH  38  61
ENDBRANCH  12  13
ENDBRANCH   5   7
ENDBRANCH   2   3
ENDBRANCH   1   2
BRANCH   1  72
ATOM     72  C   UNL A   1      35.911  32.309  31.353  1.00  0.00     0.023 C 
BRANCH  72  73
ATOM     73  C   UNL A   1      36.323  31.802  32.732  1.00  0.00     0.116 C 
BRANCH  73  74
ATOM     74  N   UNL A   1      36.409  30.354  32.813  1.00  0.00    -0.352 N 
ATOM     75  C   UNL A   1      37.522  29.561  32.978  1.00  0.00     0.251 C 
ATOM     76  H   UNL A   1      35.553  29.874  32.740  1.00  0.00     0.163 HD
ATOM     77  O   UNL A   1      37.425  28.346  32.990  1.00  0.00    -0.269 OA
BRANCH  75  78
ATOM     78  C   UNL A   1      38.861  30.183  33.091  1.00  0.00     0.039 A 
ATOM     79  C   UNL A   1      39.390  30.327  34.371  1.00  0.00     0.016 A 
ATOM     80  C   UNL A   1      39.583  30.634  31.978  1.00  0.00     0.016 A 
ATOM     81  C   UNL A   1      40.669  30.855  34.529  1.00  0.00     0.027 A 
ATOM     82  C   UNL A   1      40.870  31.181  32.141  1.00  0.00     0.027 A 
ATOM     83  C   UNL A   1      41.429  31.269  33.417  1.00  0.00     0.045 A 
BRANCH  83  84
ATOM     84  N   UNL A   1      42.794  31.657  33.610  1.00  0.00    -0.299 N 
ATOM     85  C   UNL A   1      43.032  32.421  34.802  1.00  0.00     0.259 C 
ATOM     86  C   UNL A   1      43.567  32.210  32.474  1.00  0.00     0.152 C 
ATOM     87  C   UNL A   1      43.907  33.587  34.447  1.00  0.00     0.248 C 
ATOM     88  O   UNL A   1      42.559  32.201  35.908  1.00  0.00    -0.271 OA
ATOM     89  C   UNL A   1      43.679  33.588  32.988  1.00  0.00     0.021 C 
ATOM     90  N   UNL A   1      43.412  34.921  34.821  1.00  0.00    -0.170 NA
ATOM     91  C   UNL A   1      43.377  34.835  32.645  1.00  0.00     0.097 C 
ATOM     92  N   UNL A   1      43.261  35.623  33.772  1.00  0.00    -0.154 NA
BRANCH  86  93
ATOM     93  C   UNL A   1      44.962  31.589  32.272  1.00  0.00    -0.020 A 
ATOM     94  C   UNL A   1      45.217  30.230  32.586  1.00  0.00     0.006 A 
ATOM     95  C   UNL A   1      46.053  32.358  31.840  1.00  0.00     0.022 A 
ATOM     96  C   UNL A   1      46.481  29.654  32.448  1.00  0.00     0.002 A 
ATOM     97  C   UNL A   1      47.328  31.780  31.726  1.00  0.00     0.018 A 
ATOM     98  C   UNL A   1      47.545  30.434  32.021  1.00  0.00     0.016 A 
ATOM     99  Br  UNL A   1      48.802  32.840  31.191  1.00  0.00    -0.051 Br
ENDBRANCH  86  93
BRANCH  91 100
ATOM    100  C   UNL A   1      43.030  35.360  31.328  1.00  0.00     0.002 A 
ATOM    101  C   UNL A   1      42.039  34.731  30.562  1.00  0.00     0.010 A 
ATOM    102  C   UNL A   1      43.776  36.397  30.758  1.00  0.00     0.010 A 
ATOM    103  C   UNL A   1      41.843  35.091  29.226  1.00  0.00     0.001 A 
ATOM    104  C   UNL A   1      43.573  36.763  29.425  1.00  0.00     0.001 A 
ATOM    105  C   UNL A   1      42.621  36.097  28.655  1.00  0.00     0.000 A 
ENDBRANCH  91 100
ENDBRANCH  83  84
ENDBRANCH  75  78
ENDBRANCH  73  74
ENDBRANCH  72  73
ENDBRANCH   1  72
TORSDOF 17
ENDMDL
MODEL 3
REMARK VINA RESULT:     -12.3      5.242     10.253
REMARK SMILES O=C(NCCCCNC(=O)c1ccc(N2C(=O)[C@@H]3N=NC(c4ccccc4)=C3[C@H]2c2cccc(Br)c2)cc1)c1ccc(-c2c3nc(c(-c4cc(S(=O)(=O)[O-])ccc4F)c4ccc([nH]4)c(-c4cc(S(=O)(=O)[O-])ccc4F)c4nc(c(-c5cc(S(=O)(=O)[O-])ccc5F)c5ccc2[nH]5)C=C4)C=C3)cc1
REMARK SMILES IDX 5 1 4 2 3 3 1 4 2 5 39 7 40 8 101 9 41 10 100 11 42 12 43 13
REMARK SMILES IDX 44 14 94 15 45 16 99 17 93 18 95 19 46 20 98 21 92 22 91 23
REMARK SMILES IDX 47 25 79 26 59 27 78 28 60 29 63 30 77 31 96 32 61 33 62 34
REMARK SMILES IDX 76 36 97 37 64 38 48 39 49 40 57 41 50 42 56 43 58 44 55 45
REMARK SMILES IDX 51 46 52 47 53 48 54 49 80 50 81 51 89 52 82 53 88 54 90 55
REMARK SMILES IDX 87 56 83 57 84 58 85 59 86 60 65 61 66 62 74 63 67 64 73 65
REMARK SMILES IDX 75 66 72 67 68 68 69 69 70 70 71 71 6 72 7 73 8 74 9 75
REMARK SMILES IDX 10 77 11 78 12 79 38 80 13 81 37 82 14 83 15 84 16 85 29 86
REMARK SMILES IDX 18 87 17 88 28 89 19 90 21 91 20 92 30 93 31 94 36 95 32 96
REMARK SMILES IDX 34 97 33 98 35 99 22 100 23 101 27 102 24 103 26 104 25 105
REMARK H PARENT 3 6 95 24 63 35 8 76
REMARK Flexibility Score: inf
ROOT
ATOM      1  C   UNL A   1      44.332  23.470  33.589  1.00  0.00     0.023 C 
ENDROOT
BRANCH   1   2
ATOM      2  C   UNL A   1      43.370  23.514  34.776  1.00  0.00     0.116 C 
BRANCH   2   3
ATOM      3  N   UNL A   1      43.975  23.795  36.062  1.00  0.00    -0.352 N 
ATOM      4  O   UNL A   1      44.446  24.670  38.034  1.00  0.00    -0.269 OA
ATOM      5  C   UNL A   1      43.932  24.854  36.928  1.00  0.00     0.251 C 
ATOM      6  H   UNL A   1      44.544  23.059  36.384  1.00  0.00     0.163 HD
BRANCH   5   7
ATOM      7  C   UNL A   1      43.376  26.196  36.604  1.00  0.00     0.039 A 
ATOM      8  C   UNL A   1      42.026  26.549  36.658  1.00  0.00     0.014 A 
ATOM      9  C   UNL A   1      44.307  27.164  36.185  1.00  0.00     0.014 A 
ATOM     10  C   UNL A   1      41.598  27.791  36.198  1.00  0.00     0.010 A 
ATOM     11  C   UNL A   1      43.888  28.420  35.761  1.00  0.00     0.010 A 
ATOM     12  C   UNL A   1      42.526  28.717  35.725  1.00  0.00    -0.014 A 
BRANCH  12  13
ATOM     13  C   UNL A   1      42.041  30.031  35.294  1.00  0.00     0.031 A 
ATOM     14  C   UNL A   1      41.796  31.036  36.376  1.00  0.00     0.074 A 
ATOM     15  C   UNL A   1      42.014  30.384  33.994  1.00  0.00     0.049 A 
ATOM     16  N   UNL A   1      40.785  31.828  36.546  1.00  0.00    -0.248 NA
ATOM     17  C   UNL A   1      42.803  31.132  37.447  1.00  0.00     0.031 C 
ATOM     18  C   UNL A   1      42.508  29.603  32.856  1.00  0.00     0.029 A 
ATOM     19  N   UNL A   1      41.681  31.583  33.430  1.00  0.00    -0.354 N 
ATOM     20  C   UNL A   1      41.107  32.650  37.629  1.00  0.00     0.074 A 
ATOM     21  C   UNL A   1      42.298  32.096  38.214  1.00  0.00     0.031 C 
ATOM     22  C   UNL A   1      42.681  30.425  31.800  1.00  0.00     0.029 A 
ATOM     23  C   UNL A   1      42.200  31.751  32.151  1.00  0.00     0.049 A 
ATOM     24  H   UNL A   1      41.129  32.259  33.884  1.00  0.00     0.167 HD
ATOM     25  C   UNL A   1      40.469  33.831  37.872  1.00  0.00     0.034 A 
ATOM     26  C   UNL A   1      42.337  32.913  31.463  1.00  0.00     0.034 A 
ATOM     27  C   UNL A   1      39.163  33.863  37.269  1.00  0.00     0.049 A 
ATOM     28  C   UNL A   1      41.408  33.901  32.061  1.00  0.00     0.074 A 
ATOM     29  C   UNL A   1      38.020  33.095  37.391  1.00  0.00     0.029 A 
ATOM     30  N   UNL A   1      38.964  34.623  36.141  1.00  0.00    -0.354 N 
ATOM     31  N   UNL A   1      40.109  33.788  32.026  1.00  0.00    -0.248 NA
ATOM     32  C   UNL A   1      41.922  34.808  33.075  1.00  0.00     0.031 C 
ATOM     33  C   UNL A   1      37.463  33.052  36.080  1.00  0.00     0.029 A 
ATOM     34  C   UNL A   1      38.277  33.830  35.256  1.00  0.00     0.049 A 
ATOM     35  H   UNL A   1      39.257  35.552  35.995  1.00  0.00     0.167 HD
ATOM     36  C   UNL A   1      39.674  34.262  33.253  1.00  0.00     0.074 A 
ATOM     37  C   UNL A   1      40.818  34.981  33.807  1.00  0.00     0.031 C 
ATOM     38  C   UNL A   1      38.525  33.798  33.829  1.00  0.00     0.034 A 
BRANCH  25  39
ATOM     39  C   UNL A   1      41.143  35.076  38.414  1.00  0.00     0.023 A 
ATOM     40  C   UNL A   1      40.446  35.834  39.378  1.00  0.00     0.031 A 
ATOM     41  C   UNL A   1      42.270  35.708  37.841  1.00  0.00     0.131 A 
ATOM     42  C   UNL A   1      40.806  37.166  39.656  1.00  0.00     0.055 A 
ATOM     43  C   UNL A   1      42.668  37.007  38.174  1.00  0.00     0.041 A 
ATOM     44  F   UNL A   1      42.993  35.149  36.864  1.00  0.00    -0.206 F 
ATOM     45  C   UNL A   1      41.916  37.758  39.060  1.00  0.00     0.022 A 
BRANCH  42  46
ATOM     46  S   UNL A   1      39.678  38.179  40.650  1.00  0.00     0.124 S 
ATOM     47  O   UNL A   1      38.983  37.167  41.439  1.00  0.00    -0.237 OA
ATOM     48  O   UNL A   1      40.607  39.037  41.376  1.00  0.00    -0.237 OA
ATOM     49  O   UNL A   1      38.857  38.854  39.646  1.00  0.00    -0.744 OA
ENDBRANCH  42  46
ENDBRANCH  25  39
BRANCH  26  50
ATOM     50  C   UNL A   1      43.483  33.268  30.585  1.00  0.00     0.023 A 
ATOM     51  C   UNL A   1      43.347  33.497  29.203  1.00  0.00     0.031 A 
ATOM     52  C   UNL A   1      44.736  33.584  31.162  1.00  0.00     0.131 A 
ATOM     53  C   UNL A   1      44.443  33.994  28.457  1.00  0.00     0.055 A 
ATOM     54  C   UNL A   1      45.819  34.053  30.419  1.00  0.00     0.041 A 
ATOM     55  F   UNL A   1      44.927  33.518  32.490  1.00  0.00    -0.206 F 
ATOM     56  C   UNL A   1      45.675  34.264  29.059  1.00  0.00     0.022 A 
BRANCH  53  57
ATOM     57  S   UNL A   1      44.246  34.383  26.690  1.00  0.00     0.124 S 
ATOM     58  O   UNL A   1      45.481  35.099  26.391  1.00  0.00    -0.237 OA
ATOM     59  O   UNL A   1      44.101  33.060  26.092  1.00  0.00    -0.237 OA
ATOM     60  O   UNL A   1      43.036  35.205  26.654  1.00  0.00    -0.744 OA
ENDBRANCH  53  57
ENDBRANCH  26  50
BRANCH  38  61
ATOM     61  C   UNL A   1      37.582  32.958  32.995  1.00  0.00     0.023 A 
ATOM     62  C   UNL A   1      36.682  33.489  32.045  1.00  0.00     0.031 A 
ATOM     63  C   UNL A   1      37.718  31.562  33.059  1.00  0.00     0.131 A 
ATOM     64  C   UNL A   1      35.951  32.626  31.207  1.00  0.00     0.055 A 
ATOM     65  C   UNL A   1      37.002  30.709  32.217  1.00  0.00     0.041 A 
ATOM     66  F   UNL A   1      38.589  30.999  33.913  1.00  0.00    -0.206 F 
ATOM     67  C   UNL A   1      36.112  31.239  31.290  1.00  0.00     0.022 A 
BRANCH  64  68
ATOM     68  S   UNL A   1      34.785  33.300  29.981  1.00  0.00     0.124 S 
ATOM     69  O   UNL A   1      35.596  34.248  29.227  1.00  0.00    -0.237 OA
ATOM     70  O   UNL A   1      34.355  32.105  29.260  1.00  0.00    -0.237 OA
ATOM     71  O   UNL A   1      33.741  33.915  30.806  1.00  0.00    -0.744 OA
ENDBRANCH  64  68
ENDBRANCH  38  61
ENDBRANCH  12  13
ENDBRANCH   5   7
ENDBRANCH   2   3
ENDBRANCH   1   2
BRANCH   1  72
ATOM     72  C   UNL A   1      45.593  24.331  33.716  1.00  0.00     0.023 C 
BRANCH  72  73
ATOM     73  C   UNL A   1      45.488  25.770  33.217  1.00  0.00     0.116 C 
BRANCH  73  74
ATOM     74  N   UNL A   1      46.685  26.234  32.538  1.00  0.00    -0.352 N 
ATOM     75  C   UNL A   1      46.914  26.380  31.188  1.00  0.00     0.251 C 
ATOM     76  H   UNL A   1      47.437  26.479  33.124  1.00  0.00     0.163 HD
ATOM     77  O   UNL A   1      47.998  26.752  30.776  1.00  0.00    -0.269 OA
BRANCH  75  78
ATOM     78  C   UNL A   1      45.850  26.031  30.219  1.00  0.00     0.039 A 
ATOM     79  C   UNL A   1      45.142  27.084  29.645  1.00  0.00     0.016 A 
ATOM     80  C   UNL A   1      45.534  24.707  29.885  1.00  0.00     0.016 A 
ATOM     81  C   UNL A   1      44.168  26.814  28.686  1.00  0.00     0.027 A 
ATOM     82  C   UNL A   1      44.540  24.436  28.925  1.00  0.00     0.027 A 
ATOM     83  C   UNL A   1      43.871  25.491  28.302  1.00  0.00     0.045 A 
BRANCH  83  84
ATOM     84  N   UNL A   1      42.980  25.267  27.203  1.00  0.00    -0.299 N 
ATOM     85  C   UNL A   1      43.502  25.660  25.925  1.00  0.00     0.259 C 
ATOM     86  C   UNL A   1      41.555  25.651  27.324  1.00  0.00     0.152 C 
ATOM     87  C   UNL A   1      42.436  26.425  25.196  1.00  0.00     0.248 C 
ATOM     88  O   UNL A   1      44.638  25.463  25.516  1.00  0.00    -0.271 OA
ATOM     89  C   UNL A   1      41.587  26.763  26.355  1.00  0.00     0.021 C 
ATOM     90  N   UNL A   1      42.804  27.762  24.703  1.00  0.00    -0.170 NA
ATOM     91  C   UNL A   1      41.338  28.066  26.286  1.00  0.00     0.097 C 
ATOM     92  N   UNL A   1      42.058  28.632  25.254  1.00  0.00    -0.154 NA
BRANCH  86  93
ATOM     93  C   UNL A   1      40.550  24.571  26.881  1.00  0.00    -0.020 A 
ATOM     94  C   UNL A   1      39.194  24.890  26.614  1.00  0.00     0.006 A 
ATOM     95  C   UNL A   1      40.915  23.219  26.797  1.00  0.00     0.022 A 
ATOM     96  C   UNL A   1      38.257  23.923  26.248  1.00  0.00     0.002 A 
ATOM     97  C   UNL A   1      39.961  22.246  26.453  1.00  0.00     0.018 A 
ATOM     98  C   UNL A   1      38.639  22.593  26.173  1.00  0.00     0.016 A 
ATOM     99  Br  UNL A   1      40.453  20.421  26.391  1.00  0.00    -0.051 Br
ENDBRANCH  86  93
BRANCH  91 100
ATOM    100  C   UNL A   1      40.576  28.900  27.210  1.00  0.00     0.002 A 
ATOM    101  C   UNL A   1      41.212  29.481  28.316  1.00  0.00     0.010 A 
ATOM    102  C   UNL A   1      39.187  29.007  27.089  1.00  0.00     0.010 A 
ATOM    103  C   UNL A   1      40.462  30.103  29.316  1.00  0.00     0.001 A 
ATOM    104  C   UNL A   1      38.438  29.638  28.085  1.00  0.00     0.001 A 
ATOM    105  C   UNL A   1      39.074  30.169  29.207  1.00  0.00     0.000 A 
ENDBRANCH  91 100
ENDBRANCH  83  84
ENDBRANCH  75  78
ENDBRANCH  73  74
ENDBRANCH  72  73
ENDBRANCH   1  72
TORSDOF 17
ENDMDL
