MODEL 1
REMARK VINA RESULT:     -11.9      0.000      0.000
REMARK SMILES Cc1nc(NC(=O)[C@@H]2CCC[C@@H](C(=O)NCCCCNC(=O)c3ccc(-c4c5nc(c(-c6cc(S(=O)(=O)[O-])ccc6F)c6ccc([nH]6)c(-c6cc(S(=O)(=O)[O-])ccc6F)c6nc(c(-c7cc(S(=O)(=O)[O-])ccc7F)c7ccc4[nH]7)C=C6)C=C5)cc3)C2)ccc1Br
REMARK SMILES IDX 18 1 17 2 16 3 15 4 13 5 14 6 12 8 8 9 9 10 86 11 10 12
REMARK SMILES IDX 11 13 6 14 5 15 7 17 4 18 1 19 2 20 3 21 89 22 88 23 90 24
REMARK SMILES IDX 87 25 19 26 20 27 21 28 22 30 23 31 24 32 85 33 25 34 84 35
REMARK SMILES IDX 26 36 27 37 28 38 78 39 29 40 83 41 77 42 79 43 30 44 82 45
REMARK SMILES IDX 76 46 75 47 31 49 63 50 43 51 62 52 44 53 47 54 61 55 80 56
REMARK SMILES IDX 45 57 46 58 60 60 81 61 48 62 32 63 33 64 41 65 34 66 40 67
REMARK SMILES IDX 42 68 39 69 35 70 36 71 37 72 38 73 64 74 65 75 73 76 66 77
REMARK SMILES IDX 72 78 74 79 71 80 67 81 68 82 69 83 70 84 49 85 50 86 58 87
REMARK SMILES IDX 51 88 57 89 59 90 56 91 52 92 53 93 54 94 55 95
REMARK H PARENT 15 7 5 16 20 29 79 48 47 59
REMARK Flexibility Score: inf
ROOT
ATOM      1  C   UNL A   1      31.687  31.256  26.942  1.00  0.00     0.023 C 
ENDROOT
BRANCH   1   2
ATOM      2  C   UNL A   1      32.271  29.874  27.249  1.00  0.00     0.023 C 
BRANCH   2   3
ATOM      3  C   UNL A   1      33.647  29.613  26.637  1.00  0.00     0.116 C 
BRANCH   3   4
ATOM      4  N   UNL A   1      33.791  28.226  26.247  1.00  0.00    -0.356 N 
ATOM      5  C   UNL A   1      33.535  27.613  25.060  1.00  0.00     0.223 C 
ATOM      6  O   UNL A   1      33.725  26.397  25.001  1.00  0.00    -0.275 OA
ATOM      7  H   UNL A   1      34.128  27.630  26.955  1.00  0.00     0.163 HD
BRANCH   5   8
ATOM      8  C   UNL A   1      33.065  28.431  23.852  1.00  0.00     0.079 C 
ATOM      9  C   UNL A   1      32.062  26.566  22.422  1.00  0.00     0.079 C 
ATOM     10  C   UNL A   1      30.720  27.305  22.429  1.00  0.00     0.013 C 
ATOM     11  C   UNL A   1      33.189  27.609  22.545  1.00  0.00     0.027 C 
ATOM     12  C   UNL A   1      30.531  27.989  23.774  1.00  0.00     0.002 C 
ATOM     13  C   UNL A   1      31.644  29.001  24.023  1.00  0.00     0.013 C 
BRANCH   9  14
ATOM     14  C   UNL A   1      32.187  25.649  21.216  1.00  0.00     0.228 C 
ATOM     15  N   UNL A   1      32.685  24.383  21.345  1.00  0.00    -0.310 N 
ATOM     16  H   UNL A   1      32.669  23.881  20.498  1.00  0.00     0.171 HD
ATOM     17  O   UNL A   1      31.783  26.003  20.104  1.00  0.00    -0.274 OA
BRANCH  15  18
ATOM     18  C   UNL A   1      33.208  23.638  22.405  1.00  0.00     0.132 A 
ATOM     19  C   UNL A   1      36.701  23.048  23.391  1.00  0.00     0.068 C 
ATOM     20  C   UNL A   1      35.208  22.913  23.372  1.00  0.00     0.054 A 
ATOM     21  N   UNL A   1      34.555  23.717  22.486  1.00  0.00    -0.235 NA
ATOM     22  C   UNL A   1      34.537  22.017  24.200  1.00  0.00     0.039 A 
ATOM     23  C   UNL A   1      33.151  22.009  24.168  1.00  0.00     0.021 A 
ATOM     24  Br  UNL A   1      35.423  20.810  25.357  1.00  0.00    -0.049 Br
ATOM     25  C   UNL A   1      32.480  22.850  23.282  1.00  0.00     0.048 A 
ENDBRANCH  15  18
ENDBRANCH   9  14
ENDBRANCH   5   8
ENDBRANCH   3   4
ENDBRANCH   2   3
ENDBRANCH   1   2
BRANCH   1  26
ATOM     26  C   UNL A   1      32.714  32.322  26.582  1.00  0.00     0.116 C 
BRANCH  26  27
ATOM     27  N   UNL A   1      32.474  33.580  27.274  1.00  0.00    -0.352 N 
ATOM     28  C   UNL A   1      33.150  34.099  28.354  1.00  0.00     0.251 C 
ATOM     29  H   UNL A   1      31.736  34.130  26.923  1.00  0.00     0.163 HD
ATOM     30  O   UNL A   1      32.752  35.106  28.916  1.00  0.00    -0.269 OA
BRANCH  28  31
ATOM     31  C   UNL A   1      34.354  33.390  28.834  1.00  0.00     0.039 A 
ATOM     32  C   UNL A   1      35.611  33.930  28.562  1.00  0.00     0.014 A 
ATOM     33  C   UNL A   1      34.222  32.226  29.598  1.00  0.00     0.014 A 
ATOM     34  C   UNL A   1      36.745  33.326  29.104  1.00  0.00     0.010 A 
ATOM     35  C   UNL A   1      35.349  31.658  30.183  1.00  0.00     0.010 A 
ATOM     36  C   UNL A   1      36.619  32.200  29.934  1.00  0.00    -0.014 A 
BRANCH  36  37
ATOM     37  C   UNL A   1      37.814  31.561  30.533  1.00  0.00     0.031 A 
ATOM     38  C   UNL A   1      38.243  31.943  31.920  1.00  0.00     0.074 A 
ATOM     39  C   UNL A   1      38.535  30.680  29.813  1.00  0.00     0.049 A 
ATOM     40  N   UNL A   1      39.254  31.498  32.619  1.00  0.00    -0.248 NA
ATOM     41  C   UNL A   1      37.445  32.973  32.605  1.00  0.00     0.031 C 
ATOM     42  C   UNL A   1      38.242  30.280  28.436  1.00  0.00     0.029 A 
ATOM     43  N   UNL A   1      39.665  29.971  30.134  1.00  0.00    -0.354 N 
ATOM     44  C   UNL A   1      39.214  32.190  33.821  1.00  0.00     0.074 A 
ATOM     45  C   UNL A   1      38.117  33.128  33.736  1.00  0.00     0.031 C 
ATOM     46  C   UNL A   1      39.159  29.383  28.037  1.00  0.00     0.029 A 
ATOM     47  C   UNL A   1      40.115  29.159  29.120  1.00  0.00     0.049 A 
ATOM     48  H   UNL A   1      40.112  30.036  31.009  1.00  0.00     0.167 HD
ATOM     49  C   UNL A   1      40.001  32.035  34.910  1.00  0.00     0.034 A 
ATOM     50  C   UNL A   1      41.171  28.320  29.071  1.00  0.00     0.034 A 
ATOM     51  C   UNL A   1      41.077  31.084  34.990  1.00  0.00     0.049 A 
ATOM     52  C   UNL A   1      42.023  28.147  30.303  1.00  0.00     0.074 A 
ATOM     53  C   UNL A   1      41.902  30.816  36.067  1.00  0.00     0.029 A 
ATOM     54  N   UNL A   1      41.475  30.246  33.959  1.00  0.00    -0.354 N 
ATOM     55  N   UNL A   1      41.909  28.736  31.470  1.00  0.00    -0.248 NA
ATOM     56  C   UNL A   1      43.130  27.184  30.225  1.00  0.00     0.031 C 
ATOM     57  C   UNL A   1      42.821  29.840  35.676  1.00  0.00     0.029 A 
ATOM     58  C   UNL A   1      42.538  29.465  34.373  1.00  0.00     0.049 A 
ATOM     59  H   UNL A   1      41.060  30.212  33.067  1.00  0.00     0.167 HD
ATOM     60  C   UNL A   1      42.904  28.190  32.276  1.00  0.00     0.074 A 
ATOM     61  C   UNL A   1      43.607  27.217  31.464  1.00  0.00     0.031 C 
ATOM     62  C   UNL A   1      43.206  28.470  33.568  1.00  0.00     0.034 A 
BRANCH  49  63
ATOM     63  C   UNL A   1      39.713  32.877  36.123  1.00  0.00     0.023 A 
ATOM     64  C   UNL A   1      38.856  32.401  37.129  1.00  0.00     0.031 A 
ATOM     65  C   UNL A   1      40.208  34.190  36.227  1.00  0.00     0.131 A 
ATOM     66  C   UNL A   1      38.500  33.243  38.190  1.00  0.00     0.055 A 
ATOM     67  C   UNL A   1      39.875  35.013  37.303  1.00  0.00     0.041 A 
ATOM     68  F   UNL A   1      41.033  34.684  35.290  1.00  0.00    -0.206 F 
ATOM     69  C   UNL A   1      39.010  34.543  38.286  1.00  0.00     0.022 A 
BRANCH  66  70
ATOM     70  S   UNL A   1      37.338  32.696  39.470  1.00  0.00     0.124 S 
ATOM     71  O   UNL A   1      36.063  32.731  38.756  1.00  0.00    -0.237 OA
ATOM     72  O   UNL A   1      37.839  31.363  39.786  1.00  0.00    -0.237 OA
ATOM     73  O   UNL A   1      37.483  33.696  40.523  1.00  0.00    -0.744 OA
ENDBRANCH  66  70
ENDBRANCH  49  63
BRANCH  50  74
ATOM     74  C   UNL A   1      41.407  27.520  27.837  1.00  0.00     0.023 A 
ATOM     75  C   UNL A   1      41.168  26.135  27.811  1.00  0.00     0.031 A 
ATOM     76  C   UNL A   1      41.967  28.118  26.696  1.00  0.00     0.131 A 
ATOM     77  C   UNL A   1      41.533  25.387  26.682  1.00  0.00     0.055 A 
ATOM     78  C   UNL A   1      42.277  27.379  25.553  1.00  0.00     0.041 A 
ATOM     79  F   UNL A   1      42.226  29.435  26.682  1.00  0.00    -0.206 F 
ATOM     80  C   UNL A   1      42.070  26.004  25.547  1.00  0.00     0.022 A 
BRANCH  77  81
ATOM     81  S   UNL A   1      41.407  23.577  26.682  1.00  0.00     0.124 S 
ATOM     82  O   UNL A   1      41.884  23.235  28.017  1.00  0.00    -0.237 OA
ATOM     83  O   UNL A   1      39.976  23.382  26.453  1.00  0.00    -0.237 OA
ATOM     84  O   UNL A   1      42.273  23.172  25.581  1.00  0.00    -0.744 OA
ENDBRANCH  77  81
ENDBRANCH  50  74
BRANCH  62  85
ATOM     85  C   UNL A   1      44.322  27.710  34.234  1.00  0.00     0.023 A 
ATOM     86  C   UNL A   1      44.041  26.501  34.900  1.00  0.00     0.031 A 
ATOM     87  C   UNL A   1      45.608  28.261  34.362  1.00  0.00     0.131 A 
ATOM     88  C   UNL A   1      45.020  25.906  35.703  1.00  0.00     0.055 A 
ATOM     89  C   UNL A   1      46.593  27.642  35.132  1.00  0.00     0.041 A 
ATOM     90  F   UNL A   1      45.916  29.418  33.756  1.00  0.00    -0.206 F 
ATOM     91  C   UNL A   1      46.297  26.466  35.817  1.00  0.00     0.022 A 
BRANCH  88  92
ATOM     92  S   UNL A   1      44.651  24.426  36.685  1.00  0.00     0.124 S 
ATOM     93  O   UNL A   1      43.304  24.087  36.232  1.00  0.00    -0.237 OA
ATOM     94  O   UNL A   1      45.703  23.507  36.259  1.00  0.00    -0.237 OA
ATOM     95  O   UNL A   1      44.741  24.888  38.067  1.00  0.00    -0.744 OA
ENDBRANCH  88  92
ENDBRANCH  62  85
ENDBRANCH  36  37
ENDBRANCH  28  31
ENDBRANCH  26  27
ENDBRANCH   1  26
TORSDOF 16
ENDMDL
MODEL 2
REMARK VINA RESULT:     -11.9      2.096      7.829
REMARK SMILES Cc1nc(NC(=O)[C@@H]2CCC[C@@H](C(=O)NCCCCNC(=O)c3ccc(-c4c5nc(c(-c6cc(S(=O)(=O)[O-])ccc6F)c6ccc([nH]6)c(-c6cc(S(=O)(=O)[O-])ccc6F)c6nc(c(-c7cc(S(=O)(=O)[O-])ccc7F)c7ccc4[nH]7)C=C6)C=C5)cc3)C2)ccc1Br
REMARK SMILES IDX 18 1 17 2 16 3 15 4 13 5 14 6 12 8 8 9 9 10 86 11 10 12
REMARK SMILES IDX 11 13 6 14 5 15 7 17 4 18 1 19 2 20 3 21 89 22 88 23 90 24
REMARK SMILES IDX 87 25 19 26 20 27 21 28 22 30 23 31 24 32 85 33 25 34 84 35
REMARK SMILES IDX 26 36 27 37 28 38 78 39 29 40 83 41 77 42 79 43 30 44 82 45
REMARK SMILES IDX 76 46 75 47 31 49 63 50 43 51 62 52 44 53 47 54 61 55 80 56
REMARK SMILES IDX 45 57 46 58 60 60 81 61 48 62 32 63 33 64 41 65 34 66 40 67
REMARK SMILES IDX 42 68 39 69 35 70 36 71 37 72 38 73 64 74 65 75 73 76 66 77
REMARK SMILES IDX 72 78 74 79 71 80 67 81 68 82 69 83 70 84 49 85 50 86 58 87
REMARK SMILES IDX 51 88 57 89 59 90 56 91 52 92 53 93 54 94 55 95
REMARK H PARENT 15 7 5 16 20 29 79 48 47 59
REMARK Flexibility Score: inf
ROOT
ATOM      1  C   UNL A   1      31.808  31.847  26.915  1.00  0.00     0.023 C 
ENDROOT
BRANCH   1   2
ATOM      2  C   UNL A   1      32.023  30.332  26.876  1.00  0.00     0.023 C 
BRANCH   2   3
ATOM      3  C   UNL A   1      33.438  29.898  26.493  1.00  0.00     0.116 C 
BRANCH   3   4
ATOM      4  N   UNL A   1      33.520  28.461  26.338  1.00  0.00    -0.356 N 
ATOM      5  C   UNL A   1      33.394  27.685  25.228  1.00  0.00     0.223 C 
ATOM      6  O   UNL A   1      33.487  26.465  25.378  1.00  0.00    -0.275 OA
ATOM      7  H   UNL A   1      33.694  27.965  27.170  1.00  0.00     0.163 HD
BRANCH   5   8
ATOM      8  C   UNL A   1      33.184  28.330  23.853  1.00  0.00     0.079 C 
ATOM      9  C   UNL A   1      32.558  26.261  22.489  1.00  0.00     0.079 C 
ATOM     10  C   UNL A   1      31.232  26.930  22.114  1.00  0.00     0.013 C 
ATOM     11  C   UNL A   1      33.609  27.364  22.719  1.00  0.00     0.027 C 
ATOM     12  C   UNL A   1      30.738  27.759  23.290  1.00  0.00     0.002 C 
ATOM     13  C   UNL A   1      31.748  28.846  23.641  1.00  0.00     0.013 C 
BRANCH   9  14
ATOM     14  C   UNL A   1      32.964  25.214  21.465  1.00  0.00     0.228 C 
ATOM     15  N   UNL A   1      33.348  23.962  21.855  1.00  0.00    -0.310 N 
ATOM     16  H   UNL A   1      33.540  23.369  21.093  1.00  0.00     0.171 HD
ATOM     17  O   UNL A   1      32.895  25.449  20.255  1.00  0.00    -0.274 OA
BRANCH  15  18
ATOM     18  C   UNL A   1      33.527  23.330  23.088  1.00  0.00     0.132 A 
ATOM     19  C   UNL A   1      31.091  22.552  25.730  1.00  0.00     0.068 C 
ATOM     20  C   UNL A   1      32.415  22.701  25.046  1.00  0.00     0.054 A 
ATOM     21  N   UNL A   1      32.368  23.157  23.762  1.00  0.00    -0.235 NA
ATOM     22  C   UNL A   1      33.615  22.401  25.686  1.00  0.00     0.039 A 
ATOM     23  C   UNL A   1      34.789  22.500  24.955  1.00  0.00     0.021 A 
ATOM     24  Br  UNL A   1      33.720  21.874  27.500  1.00  0.00    -0.049 Br
ATOM     25  C   UNL A   1      34.740  22.941  23.633  1.00  0.00     0.048 A 
ENDBRANCH  15  18
ENDBRANCH   9  14
ENDBRANCH   5   8
ENDBRANCH   3   4
ENDBRANCH   2   3
ENDBRANCH   1   2
BRANCH   1  26
ATOM     26  C   UNL A   1      33.041  32.662  27.283  1.00  0.00     0.116 C 
BRANCH  26  27
ATOM     27  N   UNL A   1      32.714  34.033  27.647  1.00  0.00    -0.352 N 
ATOM     28  C   UNL A   1      33.222  34.782  28.683  1.00  0.00     0.251 C 
ATOM     29  H   UNL A   1      32.045  34.481  27.080  1.00  0.00     0.163 HD
ATOM     30  O   UNL A   1      32.755  35.877  28.951  1.00  0.00    -0.269 OA
BRANCH  28  31
ATOM     31  C   UNL A   1      34.329  34.215  29.480  1.00  0.00     0.039 A 
ATOM     32  C   UNL A   1      34.028  33.396  30.569  1.00  0.00     0.014 A 
ATOM     33  C   UNL A   1      35.655  34.456  29.108  1.00  0.00     0.014 A 
ATOM     34  C   UNL A   1      35.065  32.770  31.259  1.00  0.00     0.010 A 
ATOM     35  C   UNL A   1      36.684  33.788  29.763  1.00  0.00     0.010 A 
ATOM     36  C   UNL A   1      36.397  32.946  30.848  1.00  0.00    -0.014 A 
BRANCH  36  37
ATOM     37  C   UNL A   1      37.506  32.271  31.561  1.00  0.00     0.031 A 
ATOM     38  C   UNL A   1      38.218  31.121  30.907  1.00  0.00     0.074 A 
ATOM     39  C   UNL A   1      37.837  32.659  32.807  1.00  0.00     0.049 A 
ATOM     40  N   UNL A   1      39.211  30.405  31.363  1.00  0.00    -0.248 NA
ATOM     41  C   UNL A   1      37.739  30.710  29.577  1.00  0.00     0.031 C 
ATOM     42  C   UNL A   1      37.174  33.726  33.560  1.00  0.00     0.029 A 
ATOM     43  N   UNL A   1      38.804  32.197  33.664  1.00  0.00    -0.354 N 
ATOM     44  C   UNL A   1      39.477  29.462  30.379  1.00  0.00     0.074 A 
ATOM     45  C   UNL A   1      38.502  29.657  29.329  1.00  0.00     0.031 C 
ATOM     46  C   UNL A   1      37.767  33.848  34.759  1.00  0.00     0.029 A 
ATOM     47  C   UNL A   1      38.836  32.857  34.870  1.00  0.00     0.049 A 
ATOM     48  H   UNL A   1      39.419  31.462  33.437  1.00  0.00     0.167 HD
ATOM     49  C   UNL A   1      40.464  28.538  30.342  1.00  0.00     0.034 A 
ATOM     50  C   UNL A   1      39.643  32.692  35.939  1.00  0.00     0.034 A 
ATOM     51  C   UNL A   1      41.439  28.367  31.384  1.00  0.00     0.049 A 
ATOM     52  C   UNL A   1      40.749  31.671  35.867  1.00  0.00     0.074 A 
ATOM     53  C   UNL A   1      42.510  27.492  31.418  1.00  0.00     0.029 A 
ATOM     54  N   UNL A   1      41.468  29.085  32.570  1.00  0.00    -0.354 N 
ATOM     55  N   UNL A   1      41.051  30.854  34.885  1.00  0.00    -0.248 NA
ATOM     56  C   UNL A   1      41.639  31.559  37.032  1.00  0.00     0.031 C 
ATOM     57  C   UNL A   1      43.165  27.655  32.639  1.00  0.00     0.029 A 
ATOM     58  C   UNL A   1      42.534  28.667  33.346  1.00  0.00     0.049 A 
ATOM     59  H   UNL A   1      40.827  29.788  32.821  1.00  0.00     0.167 HD
ATOM     60  C   UNL A   1      42.185  30.159  35.298  1.00  0.00     0.074 A 
ATOM     61  C   UNL A   1      42.519  30.657  36.616  1.00  0.00     0.031 C 
ATOM     62  C   UNL A   1      42.882  29.198  34.643  1.00  0.00     0.034 A 
BRANCH  49  63
ATOM     63  C   UNL A   1      40.573  27.662  29.124  1.00  0.00     0.023 A 
ATOM     64  C   UNL A   1      41.463  27.995  28.088  1.00  0.00     0.031 A 
ATOM     65  C   UNL A   1      39.721  26.557  28.947  1.00  0.00     0.131 A 
ATOM     66  C   UNL A   1      41.464  27.242  26.908  1.00  0.00     0.055 A 
ATOM     67  C   UNL A   1      39.749  25.790  27.782  1.00  0.00     0.041 A 
ATOM     68  F   UNL A   1      38.857  26.201  29.912  1.00  0.00    -0.206 F 
ATOM     69  C   UNL A   1      40.618  26.137  26.753  1.00  0.00     0.022 A 
BRANCH  66  70
ATOM     70  S   UNL A   1      42.542  27.681  25.518  1.00  0.00     0.124 S 
ATOM     71  O   UNL A   1      43.846  27.788  26.169  1.00  0.00    -0.237 OA
ATOM     72  O   UNL A   1      42.379  26.533  24.633  1.00  0.00    -0.237 OA
ATOM     73  O   UNL A   1      41.989  28.941  25.032  1.00  0.00    -0.744 OA
ENDBRANCH  66  70
ENDBRANCH  49  63
BRANCH  50  74
ATOM     74  C   UNL A   1      39.478  33.587  37.119  1.00  0.00     0.023 A 
ATOM     75  C   UNL A   1      40.306  34.707  37.304  1.00  0.00     0.031 A 
ATOM     76  C   UNL A   1      38.549  33.275  38.125  1.00  0.00     0.131 A 
ATOM     77  C   UNL A   1      40.222  35.446  38.493  1.00  0.00     0.055 A 
ATOM     78  C   UNL A   1      38.428  34.046  39.282  1.00  0.00     0.041 A 
ATOM     79  F   UNL A   1      37.748  32.205  37.997  1.00  0.00    -0.206 F 
ATOM     80  C   UNL A   1      39.276  35.132  39.475  1.00  0.00     0.022 A 
BRANCH  77  81
ATOM     81  S   UNL A   1      41.394  36.784  38.844  1.00  0.00     0.124 S 
ATOM     82  O   UNL A   1      42.014  37.001  37.541  1.00  0.00    -0.237 OA
ATOM     83  O   UNL A   1      40.501  37.846  39.303  1.00  0.00    -0.237 OA
ATOM     84  O   UNL A   1      42.266  36.219  39.869  1.00  0.00    -0.744 OA
ENDBRANCH  77  81
ENDBRANCH  50  74
BRANCH  62  85
ATOM     85  C   UNL A   1      44.107  28.616  35.297  1.00  0.00     0.023 A 
ATOM     86  C   UNL A   1      43.969  27.563  36.222  1.00  0.00     0.031 A 
ATOM     87  C   UNL A   1      45.370  29.210  35.142  1.00  0.00     0.131 A 
ATOM     88  C   UNL A   1      45.068  27.168  36.993  1.00  0.00     0.055 A 
ATOM     89  C   UNL A   1      46.472  28.784  35.884  1.00  0.00     0.041 A 
ATOM     90  F   UNL A   1      45.545  30.224  34.280  1.00  0.00    -0.206 F 
ATOM     91  C   UNL A   1      46.321  27.767  36.824  1.00  0.00     0.022 A 
BRANCH  88  92
ATOM     92  S   UNL A   1      44.895  25.913  38.292  1.00  0.00     0.124 S 
ATOM     93  O   UNL A   1      44.162  24.856  37.599  1.00  0.00    -0.237 OA
ATOM     94  O   UNL A   1      46.288  25.604  38.605  1.00  0.00    -0.237 OA
ATOM     95  O   UNL A   1      44.150  26.595  39.345  1.00  0.00    -0.744 OA
ENDBRANCH  88  92
ENDBRANCH  62  85
ENDBRANCH  36  37
ENDBRANCH  28  31
ENDBRANCH  26  27
ENDBRANCH   1  26
TORSDOF 16
ENDMDL
MODEL 3
REMARK VINA RESULT:     -11.9      5.987      9.601
REMARK SMILES Cc1nc(NC(=O)[C@@H]2CCC[C@@H](C(=O)NCCCCNC(=O)c3ccc(-c4c5nc(c(-c6cc(S(=O)(=O)[O-])ccc6F)c6ccc([nH]6)c(-c6cc(S(=O)(=O)[O-])ccc6F)c6nc(c(-c7cc(S(=O)(=O)[O-])ccc7F)c7ccc4[nH]7)C=C6)C=C5)cc3)C2)ccc1Br
REMARK SMILES IDX 18 1 17 2 16 3 15 4 13 5 14 6 12 8 8 9 9 10 86 11 10 12
REMARK SMILES IDX 11 13 6 14 5 15 7 17 4 18 1 19 2 20 3 21 89 22 88 23 90 24
REMARK SMILES IDX 87 25 19 26 20 27 21 28 22 30 23 31 24 32 85 33 25 34 84 35
REMARK SMILES IDX 26 36 27 37 28 38 78 39 29 40 83 41 77 42 79 43 30 44 82 45
REMARK SMILES IDX 76 46 75 47 31 49 63 50 43 51 62 52 44 53 47 54 61 55 80 56
REMARK SMILES IDX 45 57 46 58 60 60 81 61 48 62 32 63 33 64 41 65 34 66 40 67
REMARK SMILES IDX 42 68 39 69 35 70 36 71 37 72 38 73 64 74 65 75 73 76 66 77
REMARK SMILES IDX 72 78 74 79 71 80 67 81 68 82 69 83 70 84 49 85 50 86 58 87
REMARK SMILES IDX 51 88 57 89 59 90 56 91 52 92 53 93 54 94 55 95
REMARK H PARENT 15 7 5 16 20 29 79 48 47 59
REMARK Flexibility Score: inf
ROOT
ATOM      1  C   UNL A   1      38.493  19.457  25.167  1.00  0.00     0.023 C 
ENDROOT
BRANCH   1   2
ATOM      2  C   UNL A   1      37.566  20.544  24.618  1.00  0.00     0.023 C 
BRANCH   2   3
ATOM      3  C   UNL A   1      37.574  21.850  25.413  1.00  0.00     0.116 C 
BRANCH   3   4
ATOM      4  N   UNL A   1      36.609  22.791  24.884  1.00  0.00    -0.356 N 
ATOM      5  C   UNL A   1      35.259  22.853  25.044  1.00  0.00     0.223 C 
ATOM      6  O   UNL A   1      34.662  23.756  24.455  1.00  0.00    -0.275 OA
ATOM      7  H   UNL A   1      36.990  23.499  24.316  1.00  0.00     0.163 HD
BRANCH   5   8
ATOM      8  C   UNL A   1      34.541  21.850  25.953  1.00  0.00     0.079 C 
ATOM      9  C   UNL A   1      32.212  22.901  26.013  1.00  0.00     0.079 C 
ATOM     10  C   UNL A   1      31.628  21.596  25.462  1.00  0.00     0.013 C 
ATOM     11  C   UNL A   1      33.476  22.559  26.826  1.00  0.00     0.027 C 
ATOM     12  C   UNL A   1      32.616  20.977  24.485  1.00  0.00     0.002 C 
ATOM     13  C   UNL A   1      33.934  20.661  25.183  1.00  0.00     0.013 C 
BRANCH   9  14
ATOM     14  C   UNL A   1      31.170  23.697  26.781  1.00  0.00     0.228 C 
ATOM     15  N   UNL A   1      31.040  25.045  26.596  1.00  0.00    -0.310 N 
ATOM     16  H   UNL A   1      30.300  25.430  27.119  1.00  0.00     0.171 HD
ATOM     17  O   UNL A   1      30.376  23.137  27.542  1.00  0.00    -0.274 OA
BRANCH  15  18
ATOM     18  C   UNL A   1      31.716  26.000  25.833  1.00  0.00     0.132 A 
ATOM     19  C   UNL A   1      31.250  26.993  22.323  1.00  0.00     0.068 C 
ATOM     20  C   UNL A   1      31.868  26.910  23.686  1.00  0.00     0.054 A 
ATOM     21  N   UNL A   1      31.207  26.132  24.588  1.00  0.00    -0.235 NA
ATOM     22  C   UNL A   1      33.049  27.579  24.002  1.00  0.00     0.039 A 
ATOM     23  C   UNL A   1      33.512  27.505  25.307  1.00  0.00     0.021 A 
ATOM     24  Br  UNL A   1      34.048  28.575  22.741  1.00  0.00    -0.049 Br
ATOM     25  C   UNL A   1      32.821  26.731  26.238  1.00  0.00     0.048 A 
ENDBRANCH  15  18
ENDBRANCH   9  14
ENDBRANCH   5   8
ENDBRANCH   3   4
ENDBRANCH   2   3
ENDBRANCH   1   2
BRANCH   1  26
ATOM     26  C   UNL A   1      39.579  19.954  26.112  1.00  0.00     0.116 C 
BRANCH  26  27
ATOM     27  N   UNL A   1      40.752  19.093  26.113  1.00  0.00    -0.352 N 
ATOM     28  C   UNL A   1      42.076  19.459  26.197  1.00  0.00     0.251 C 
ATOM     29  H   UNL A   1      40.576  18.126  26.048  1.00  0.00     0.163 HD
ATOM     30  O   UNL A   1      42.963  18.634  26.051  1.00  0.00    -0.269 OA
BRANCH  28  31
ATOM     31  C   UNL A   1      42.396  20.880  26.439  1.00  0.00     0.039 A 
ATOM     32  C   UNL A   1      42.615  21.310  27.748  1.00  0.00     0.014 A 
ATOM     33  C   UNL A   1      42.532  21.761  25.362  1.00  0.00     0.014 A 
ATOM     34  C   UNL A   1      43.025  22.624  27.976  1.00  0.00     0.010 A 
ATOM     35  C   UNL A   1      42.993  23.053  25.586  1.00  0.00     0.010 A 
ATOM     36  C   UNL A   1      43.235  23.497  26.895  1.00  0.00    -0.014 A 
BRANCH  36  37
ATOM     37  C   UNL A   1      43.690  24.889  27.121  1.00  0.00     0.031 A 
ATOM     38  C   UNL A   1      42.715  25.916  27.620  1.00  0.00     0.074 A 
ATOM     39  C   UNL A   1      44.959  25.234  26.834  1.00  0.00     0.049 A 
ATOM     40  N   UNL A   1      42.918  27.180  27.883  1.00  0.00    -0.248 NA
ATOM     41  C   UNL A   1      41.328  25.471  27.832  1.00  0.00     0.031 C 
ATOM     42  C   UNL A   1      45.974  24.330  26.290  1.00  0.00     0.029 A 
ATOM     43  N   UNL A   1      45.610  26.437  26.947  1.00  0.00    -0.354 N 
ATOM     44  C   UNL A   1      41.689  27.680  28.291  1.00  0.00     0.074 A 
ATOM     45  C   UNL A   1      40.733  26.602  28.184  1.00  0.00     0.031 C 
ATOM     46  C   UNL A   1      47.124  25.007  26.135  1.00  0.00     0.029 A 
ATOM     47  C   UNL A   1      46.924  26.395  26.547  1.00  0.00     0.049 A 
ATOM     48  H   UNL A   1      45.176  27.254  27.284  1.00  0.00     0.167 HD
ATOM     49  C   UNL A   1      41.392  28.920  28.745  1.00  0.00     0.034 A 
ATOM     50  C   UNL A   1      47.866  27.361  26.527  1.00  0.00     0.034 A 
ATOM     51  C   UNL A   1      42.357  29.979  28.866  1.00  0.00     0.049 A 
ATOM     52  C   UNL A   1      47.518  28.730  27.056  1.00  0.00     0.074 A 
ATOM     53  C   UNL A   1      42.165  31.256  29.361  1.00  0.00     0.029 A 
ATOM     54  N   UNL A   1      43.689  29.886  28.494  1.00  0.00    -0.354 N 
ATOM     55  N   UNL A   1      46.375  29.160  27.535  1.00  0.00    -0.248 NA
ATOM     56  C   UNL A   1      48.587  29.739  27.065  1.00  0.00     0.031 C 
ATOM     57  C   UNL A   1      43.374  31.948  29.257  1.00  0.00     0.029 A 
ATOM     58  C   UNL A   1      44.331  31.087  28.743  1.00  0.00     0.049 A 
ATOM     59  H   UNL A   1      44.115  29.086  28.112  1.00  0.00     0.167 HD
ATOM     60  C   UNL A   1      46.596  30.475  27.936  1.00  0.00     0.074 A 
ATOM     61  C   UNL A   1      47.985  30.767  27.650  1.00  0.00     0.031 C 
ATOM     62  C   UNL A   1      45.726  31.355  28.490  1.00  0.00     0.034 A 
BRANCH  49  63
ATOM     63  C   UNL A   1      39.980  29.198  29.184  1.00  0.00     0.023 A 
ATOM     64  C   UNL A   1      39.647  29.180  30.549  1.00  0.00     0.031 A 
ATOM     65  C   UNL A   1      38.951  29.377  28.243  1.00  0.00     0.131 A 
ATOM     66  C   UNL A   1      38.308  29.318  30.935  1.00  0.00     0.055 A 
ATOM     67  C   UNL A   1      37.623  29.545  28.635  1.00  0.00     0.041 A 
ATOM     68  F   UNL A   1      39.225  29.403  26.929  1.00  0.00    -0.206 F 
ATOM     69  C   UNL A   1      37.296  29.507  29.987  1.00  0.00     0.022 A 
BRANCH  66  70
ATOM     70  S   UNL A   1      37.822  29.226  32.679  1.00  0.00     0.124 S 
ATOM     71  O   UNL A   1      36.569  29.978  32.684  1.00  0.00    -0.237 OA
ATOM     72  O   UNL A   1      37.687  27.788  32.883  1.00  0.00    -0.237 OA
ATOM     73  O   UNL A   1      38.928  29.866  33.384  1.00  0.00    -0.744 OA
ENDBRANCH  66  70
ENDBRANCH  49  63
BRANCH  50  74
ATOM     74  C   UNL A   1      49.244  27.024  26.072  1.00  0.00     0.023 A 
ATOM     75  C   UNL A   1      49.694  27.382  24.789  1.00  0.00     0.031 A 
ATOM     76  C   UNL A   1      50.094  26.255  26.882  1.00  0.00     0.131 A 
ATOM     77  C   UNL A   1      50.942  26.928  24.338  1.00  0.00     0.055 A 
ATOM     78  C   UNL A   1      51.360  25.852  26.451  1.00  0.00     0.041 A 
ATOM     79  F   UNL A   1      49.699  25.877  28.109  1.00  0.00    -0.206 F 
ATOM     80  C   UNL A   1      51.784  26.180  25.167  1.00  0.00     0.022 A 
BRANCH  77  81
ATOM     81  S   UNL A   1      51.478  27.218  22.629  1.00  0.00     0.124 S 
ATOM     82  O   UNL A   1      52.628  26.328  22.512  1.00  0.00    -0.237 OA
ATOM     83  O   UNL A   1      50.291  26.818  21.876  1.00  0.00    -0.237 OA
ATOM     84  O   UNL A   1      51.781  28.644  22.600  1.00  0.00    -0.744 OA
ENDBRANCH  77  81
ENDBRANCH  50  74
BRANCH  62  85
ATOM     85  C   UNL A   1      46.222  32.725  28.869  1.00  0.00     0.023 A 
ATOM     86  C   UNL A   1      46.176  33.769  27.925  1.00  0.00     0.031 A 
ATOM     87  C   UNL A   1      46.893  32.950  30.083  1.00  0.00     0.131 A 
ATOM     88  C   UNL A   1      46.831  34.976  28.191  1.00  0.00     0.055 A 
ATOM     89  C   UNL A   1      47.510  34.170  30.360  1.00  0.00     0.041 A 
ATOM     90  F   UNL A   1      46.973  31.980  31.007  1.00  0.00    -0.206 F 
ATOM     91  C   UNL A   1      47.492  35.186  29.407  1.00  0.00     0.022 A 
BRANCH  88  92
ATOM     92  S   UNL A   1      46.912  36.291  26.944  1.00  0.00     0.124 S 
ATOM     93  O   UNL A   1      47.479  35.588  25.796  1.00  0.00    -0.237 OA
ATOM     94  O   UNL A   1      45.509  36.673  26.811  1.00  0.00    -0.237 OA
ATOM     95  O   UNL A   1      47.783  37.296  27.546  1.00  0.00    -0.744 OA
ENDBRANCH  88  92
ENDBRANCH  62  85
ENDBRANCH  36  37
ENDBRANCH  28  31
ENDBRANCH  26  27
ENDBRANCH   1  26
TORSDOF 16
ENDMDL
