MODEL 1
REMARK VINA RESULT:     -12.2      0.000      0.000
REMARK SMILES CCc1c(Cl)ccc2c1C=C(C(=O)NCCCCNC(=O)c1ccc(-c3c4nc(c(-c5cc(S(=O)(=O)[O-])ccc5F)c5ccc([nH]5)c(-c5cc(S(=O)(=O)[O-])ccc5F)c5nc(c(-c6cc(S(=O)(=O)[O-])ccc6F)c6ccc3[nH]6)C=C5)C=C4)cc1)[C@@H](C(F)(F)F)O2
REMARK SMILES IDX 17 1 16 2 15 3 14 4 12 5 13 6 11 8 3 9 4 10 9 11 5 12 6 13
REMARK SMILES IDX 8 14 10 15 7 16 90 17 85 18 2 19 1 20 86 21 87 22 88 23
REMARK SMILES IDX 89 24 18 25 19 26 20 27 21 29 22 30 23 31 84 32 24 33 83 34
REMARK SMILES IDX 25 35 26 36 27 37 77 38 28 39 82 40 76 41 78 42 29 43 81 44
REMARK SMILES IDX 75 45 74 46 30 48 62 49 42 50 61 51 43 52 46 53 60 54 79 55
REMARK SMILES IDX 44 56 45 57 59 59 80 60 47 61 31 62 32 63 40 64 33 65 39 66
REMARK SMILES IDX 41 67 38 68 34 69 35 70 36 71 37 72 63 73 64 74 72 75 65 76
REMARK SMILES IDX 71 77 73 78 70 79 66 80 67 81 68 82 69 83 48 84 49 85 57 86
REMARK SMILES IDX 50 87 56 88 58 89 55 90 51 91 52 92 53 93 54 94
REMARK H PARENT 14 7 19 28 78 47 46 58
REMARK Flexibility Score: inf
ROOT
ATOM      1  C   UNL A   1      31.440  31.728  26.832  1.00  0.00     0.023 C 
ENDROOT
BRANCH   1   2
ATOM      2  C   UNL A   1      32.032  30.339  27.083  1.00  0.00     0.023 C 
BRANCH   2   3
ATOM      3  C   UNL A   1      33.429  30.137  26.502  1.00  0.00     0.116 C 
BRANCH   3   4
ATOM      4  N   UNL A   1      33.388  29.706  25.117  1.00  0.00    -0.352 N 
ATOM      5  C   UNL A   1      33.087  28.571  24.442  1.00  0.00     0.251 C 
ATOM      6  O   UNL A   1      33.198  28.643  23.213  1.00  0.00    -0.270 OA
ATOM      7  H   UNL A   1      33.649  30.431  24.504  1.00  0.00     0.163 HD
BRANCH   5   8
ATOM      8  C   UNL A   1      32.640  27.287  25.062  1.00  0.00     0.067 C 
ATOM      9  C   UNL A   1      34.066  23.831  25.487  1.00  0.00    -0.019 A 
ATOM     10  C   UNL A   1      33.624  22.627  26.083  1.00  0.00     0.045 A 
ATOM     11  C   UNL A   1      33.220  24.978  25.632  1.00  0.00     0.022 A 
ATOM     12  Cl  UNL A   1      34.479  21.126  26.041  1.00  0.00    -0.084 Cl
ATOM     13  C   UNL A   1      32.412  22.569  26.788  1.00  0.00     0.024 A 
ATOM     14  C   UNL A   1      32.010  24.884  26.337  1.00  0.00     0.128 A 
ATOM     15  C   UNL A   1      33.564  26.307  25.101  1.00  0.00     0.026 C 
ATOM     16  C   UNL A   1      31.611  23.692  26.921  1.00  0.00     0.048 A 
ATOM     17  O   UNL A   1      31.172  25.945  26.539  1.00  0.00    -0.475 OA
ATOM     18  C   UNL A   1      31.259  27.029  25.578  1.00  0.00     0.314 C 
BRANCH   9  19
ATOM     19  C   UNL A   1      35.364  24.017  24.709  1.00  0.00     0.034 C 
ATOM     20  C   UNL A   1      36.742  23.865  25.335  1.00  0.00     0.009 C 
ENDBRANCH   9  19
BRANCH  18  21
ATOM     21  C   UNL A   1      30.230  26.802  24.454  1.00  0.00     0.429 C 
ATOM     22  F   UNL A   1      29.148  26.137  24.932  1.00  0.00    -0.167 F 
ATOM     23  F   UNL A   1      29.769  27.960  23.928  1.00  0.00    -0.167 F 
ATOM     24  F   UNL A   1      30.730  26.074  23.430  1.00  0.00    -0.167 F 
ENDBRANCH  18  21
ENDBRANCH   5   8
ENDBRANCH   3   4
ENDBRANCH   2   3
ENDBRANCH   1   2
BRANCH   1  25
ATOM     25  C   UNL A   1      32.455  32.849  26.621  1.00  0.00     0.116 C 
BRANCH  25  26
ATOM     26  N   UNL A   1      32.321  33.966  27.548  1.00  0.00    -0.352 N 
ATOM     27  C   UNL A   1      33.179  34.312  28.571  1.00  0.00     0.251 C 
ATOM     28  H   UNL A   1      31.529  34.538  27.429  1.00  0.00     0.163 HD
ATOM     29  O   UNL A   1      32.920  35.249  29.319  1.00  0.00    -0.269 OA
BRANCH  27  30
ATOM     30  C   UNL A   1      34.383  33.483  28.775  1.00  0.00     0.039 A 
ATOM     31  C   UNL A   1      34.271  32.248  29.417  1.00  0.00     0.014 A 
ATOM     32  C   UNL A   1      35.635  34.019  28.467  1.00  0.00     0.014 A 
ATOM     33  C   UNL A   1      35.414  31.641  29.918  1.00  0.00     0.010 A 
ATOM     34  C   UNL A   1      36.787  33.364  28.907  1.00  0.00     0.010 A 
ATOM     35  C   UNL A   1      36.682  32.207  29.695  1.00  0.00    -0.014 A 
BRANCH  35  36
ATOM     36  C   UNL A   1      37.873  31.592  30.334  1.00  0.00     0.031 A 
ATOM     37  C   UNL A   1      38.233  31.918  31.760  1.00  0.00     0.074 A 
ATOM     38  C   UNL A   1      38.581  30.675  29.650  1.00  0.00     0.049 A 
ATOM     39  N   UNL A   1      39.203  31.436  32.494  1.00  0.00    -0.248 NA
ATOM     40  C   UNL A   1      37.397  32.912  32.454  1.00  0.00     0.031 C 
ATOM     41  C   UNL A   1      38.305  30.270  28.273  1.00  0.00     0.029 A 
ATOM     42  N   UNL A   1      39.648  29.897  30.022  1.00  0.00    -0.354 N 
ATOM     43  C   UNL A   1      39.105  32.073  33.725  1.00  0.00     0.074 A 
ATOM     44  C   UNL A   1      38.001  33.002  33.632  1.00  0.00     0.031 C 
ATOM     45  C   UNL A   1      39.134  29.272  27.936  1.00  0.00     0.029 A 
ATOM     46  C   UNL A   1      40.048  29.014  29.047  1.00  0.00     0.049 A 
ATOM     47  H   UNL A   1      40.084  29.963  30.902  1.00  0.00     0.167 HD
ATOM     48  C   UNL A   1      39.858  31.888  34.836  1.00  0.00     0.034 A 
ATOM     49  C   UNL A   1      41.040  28.101  29.041  1.00  0.00     0.034 A 
ATOM     50  C   UNL A   1      40.945  30.946  34.921  1.00  0.00     0.049 A 
ATOM     51  C   UNL A   1      41.884  27.938  30.276  1.00  0.00     0.074 A 
ATOM     52  C   UNL A   1      41.766  30.682  36.004  1.00  0.00     0.029 A 
ATOM     53  N   UNL A   1      41.357  30.108  33.895  1.00  0.00    -0.354 N 
ATOM     54  N   UNL A   1      41.770  28.540  31.437  1.00  0.00    -0.248 NA
ATOM     55  C   UNL A   1      42.995  26.980  30.205  1.00  0.00     0.031 C 
ATOM     56  C   UNL A   1      42.699  29.718  35.620  1.00  0.00     0.029 A 
ATOM     57  C   UNL A   1      42.431  29.340  34.314  1.00  0.00     0.049 A 
ATOM     58  H   UNL A   1      40.946  30.066  33.001  1.00  0.00     0.167 HD
ATOM     59  C   UNL A   1      42.788  28.031  32.235  1.00  0.00     0.074 A 
ATOM     60  C   UNL A   1      43.488  27.046  31.436  1.00  0.00     0.031 C 
ATOM     61  C   UNL A   1      43.119  28.358  33.509  1.00  0.00     0.034 A 
BRANCH  48  62
ATOM     62  C   UNL A   1      39.541  32.704  36.064  1.00  0.00     0.023 A 
ATOM     63  C   UNL A   1      38.648  32.208  37.034  1.00  0.00     0.031 A 
ATOM     64  C   UNL A   1      40.035  34.011  36.219  1.00  0.00     0.131 A 
ATOM     65  C   UNL A   1      38.260  33.025  38.103  1.00  0.00     0.055 A 
ATOM     66  C   UNL A   1      39.667  34.811  37.304  1.00  0.00     0.041 A 
ATOM     67  F   UNL A   1      40.893  34.526  35.324  1.00  0.00    -0.206 F 
ATOM     68  C   UNL A   1      38.767  34.321  38.245  1.00  0.00     0.022 A 
BRANCH  65  69
ATOM     69  S   UNL A   1      37.043  32.459  39.324  1.00  0.00     0.124 S 
ATOM     70  O   UNL A   1      35.787  32.646  38.601  1.00  0.00    -0.237 OA
ATOM     71  O   UNL A   1      37.442  31.070  39.534  1.00  0.00    -0.237 OA
ATOM     72  O   UNL A   1      37.245  33.351  40.461  1.00  0.00    -0.744 OA
ENDBRANCH  65  69
ENDBRANCH  48  62
BRANCH  49  73
ATOM     73  C   UNL A   1      41.231  27.252  27.830  1.00  0.00     0.023 A 
ATOM     74  C   UNL A   1      40.906  25.882  27.851  1.00  0.00     0.031 A 
ATOM     75  C   UNL A   1      41.865  27.764  26.688  1.00  0.00     0.131 A 
ATOM     76  C   UNL A   1      41.296  25.058  26.788  1.00  0.00     0.055 A 
ATOM     77  C   UNL A   1      42.186  26.952  25.598  1.00  0.00     0.041 A 
ATOM     78  F   UNL A   1      42.204  29.061  26.627  1.00  0.00    -0.206 F 
ATOM     79  C   UNL A   1      41.920  25.586  25.655  1.00  0.00     0.022 A 
BRANCH  76  80
ATOM     80  S   UNL A   1      41.149  23.253  26.914  1.00  0.00     0.124 S 
ATOM     81  O   UNL A   1      41.706  22.995  28.238  1.00  0.00    -0.237 OA
ATOM     82  O   UNL A   1      39.707  23.061  26.786  1.00  0.00    -0.237 OA
ATOM     83  O   UNL A   1      41.939  22.764  25.789  1.00  0.00    -0.744 OA
ENDBRANCH  76  80
ENDBRANCH  49  73
BRANCH  61  84
ATOM     84  C   UNL A   1      44.302  27.668  34.140  1.00  0.00     0.023 A 
ATOM     85  C   UNL A   1      44.110  26.526  34.941  1.00  0.00     0.031 A 
ATOM     86  C   UNL A   1      45.590  28.223  34.065  1.00  0.00     0.131 A 
ATOM     87  C   UNL A   1      45.187  25.995  35.662  1.00  0.00     0.055 A 
ATOM     88  C   UNL A   1      46.668  27.668  34.756  1.00  0.00     0.041 A 
ATOM     89  F   UNL A   1      45.817  29.318  33.321  1.00  0.00    -0.206 F 
ATOM     90  C   UNL A   1      46.466  26.556  35.570  1.00  0.00     0.022 A 
BRANCH  87  91
ATOM     91  S   UNL A   1      44.954  24.608  36.807  1.00  0.00     0.124 S 
ATOM     92  O   UNL A   1      44.001  25.162  37.765  1.00  0.00    -0.237 OA
ATOM     93  O   UNL A   1      44.422  23.570  35.928  1.00  0.00    -0.237 OA
ATOM     94  O   UNL A   1      46.292  24.358  37.334  1.00  0.00    -0.744 OA
ENDBRANCH  87  91
ENDBRANCH  61  84
ENDBRANCH  35  36
ENDBRANCH  27  30
ENDBRANCH  25  26
ENDBRANCH   1  25
TORSDOF 16
ENDMDL
MODEL 2
REMARK VINA RESULT:     -11.9      5.578     10.894
REMARK SMILES CCc1c(Cl)ccc2c1C=C(C(=O)NCCCCNC(=O)c1ccc(-c3c4nc(c(-c5cc(S(=O)(=O)[O-])ccc5F)c5ccc([nH]5)c(-c5cc(S(=O)(=O)[O-])ccc5F)c5nc(c(-c6cc(S(=O)(=O)[O-])ccc6F)c6ccc3[nH]6)C=C5)C=C4)cc1)[C@@H](C(F)(F)F)O2
REMARK SMILES IDX 17 1 16 2 15 3 14 4 12 5 13 6 11 8 3 9 4 10 9 11 5 12 6 13
REMARK SMILES IDX 8 14 10 15 7 16 90 17 85 18 2 19 1 20 86 21 87 22 88 23
REMARK SMILES IDX 89 24 18 25 19 26 20 27 21 29 22 30 23 31 84 32 24 33 83 34
REMARK SMILES IDX 25 35 26 36 27 37 77 38 28 39 82 40 76 41 78 42 29 43 81 44
REMARK SMILES IDX 75 45 74 46 30 48 62 49 42 50 61 51 43 52 46 53 60 54 79 55
REMARK SMILES IDX 44 56 45 57 59 59 80 60 47 61 31 62 32 63 40 64 33 65 39 66
REMARK SMILES IDX 41 67 38 68 34 69 35 70 36 71 37 72 63 73 64 74 72 75 65 76
REMARK SMILES IDX 71 77 73 78 70 79 66 80 67 81 68 82 69 83 48 84 49 85 57 86
REMARK SMILES IDX 50 87 56 88 58 89 55 90 51 91 52 92 53 93 54 94
REMARK H PARENT 14 7 19 28 78 47 46 58
REMARK Flexibility Score: inf
ROOT
ATOM      1  C   UNL A   1      37.904  19.918  24.730  1.00  0.00     0.023 C 
ENDROOT
BRANCH   1   2
ATOM      2  C   UNL A   1      37.259  21.290  24.520  1.00  0.00     0.023 C 
BRANCH   2   3
ATOM      3  C   UNL A   1      37.311  22.203  25.742  1.00  0.00     0.116 C 
BRANCH   3   4
ATOM      4  N   UNL A   1      36.065  22.191  26.487  1.00  0.00    -0.352 N 
ATOM      5  C   UNL A   1      34.838  22.750  26.371  1.00  0.00     0.251 C 
ATOM      6  O   UNL A   1      34.042  22.466  27.273  1.00  0.00    -0.270 OA
ATOM      7  H   UNL A   1      36.130  21.626  27.291  1.00  0.00     0.163 HD
BRANCH   5   8
ATOM      8  C   UNL A   1      34.396  23.649  25.262  1.00  0.00     0.067 C 
ATOM      9  C   UNL A   1      32.696  26.994  24.985  1.00  0.00    -0.019 A 
ATOM     10  C   UNL A   1      32.289  27.830  23.920  1.00  0.00     0.045 A 
ATOM     11  C   UNL A   1      33.414  25.804  24.640  1.00  0.00     0.022 A 
ATOM     12  Cl  UNL A   1      31.418  29.313  24.097  1.00  0.00    -0.084 Cl
ATOM     13  C   UNL A   1      32.586  27.504  22.587  1.00  0.00     0.024 A 
ATOM     14  C   UNL A   1      33.688  25.502  23.297  1.00  0.00     0.128 A 
ATOM     15  C   UNL A   1      33.935  24.857  25.640  1.00  0.00     0.026 C 
ATOM     16  C   UNL A   1      33.287  26.350  22.276  1.00  0.00     0.048 A 
ATOM     17  O   UNL A   1      34.395  24.402  22.901  1.00  0.00    -0.475 OA
ATOM     18  C   UNL A   1      34.396  23.272  23.813  1.00  0.00     0.314 C 
BRANCH   9  19
ATOM     19  C   UNL A   1      32.442  27.249  26.466  1.00  0.00     0.034 C 
ATOM     20  C   UNL A   1      33.120  28.363  27.250  1.00  0.00     0.009 C 
ENDBRANCH   9  19
BRANCH  18  21
ATOM     21  C   UNL A   1      33.250  22.312  23.442  1.00  0.00     0.429 C 
ATOM     22  F   UNL A   1      32.112  22.661  24.094  1.00  0.00    -0.167 F 
ATOM     23  F   UNL A   1      32.958  22.334  22.121  1.00  0.00    -0.167 F 
ATOM     24  F   UNL A   1      33.522  21.027  23.765  1.00  0.00    -0.167 F 
ENDBRANCH  18  21
ENDBRANCH   5   8
ENDBRANCH   3   4
ENDBRANCH   2   3
ENDBRANCH   1   2
BRANCH   1  25
ATOM     25  C   UNL A   1      38.727  19.766  26.008  1.00  0.00     0.116 C 
BRANCH  25  26
ATOM     26  N   UNL A   1      40.042  19.170  25.811  1.00  0.00    -0.352 N 
ATOM     27  C   UNL A   1      41.269  19.747  26.062  1.00  0.00     0.251 C 
ATOM     28  H   UNL A   1      40.056  18.250  25.460  1.00  0.00     0.163 HD
ATOM     29  O   UNL A   1      42.309  19.154  25.798  1.00  0.00    -0.269 OA
BRANCH  27  30
ATOM     30  C   UNL A   1      41.290  21.123  26.597  1.00  0.00     0.039 A 
ATOM     31  C   UNL A   1      40.953  22.193  25.768  1.00  0.00     0.014 A 
ATOM     32  C   UNL A   1      41.801  21.342  27.878  1.00  0.00     0.014 A 
ATOM     33  C   UNL A   1      41.305  23.481  26.148  1.00  0.00     0.010 A 
ATOM     34  C   UNL A   1      42.082  22.648  28.288  1.00  0.00     0.010 A 
ATOM     35  C   UNL A   1      41.900  23.719  27.399  1.00  0.00    -0.014 A 
BRANCH  35  36
ATOM     36  C   UNL A   1      42.362  25.091  27.733  1.00  0.00     0.031 A 
ATOM     37  C   UNL A   1      43.724  25.568  27.301  1.00  0.00     0.074 A 
ATOM     38  C   UNL A   1      41.516  25.933  28.354  1.00  0.00     0.049 A 
ATOM     39  N   UNL A   1      44.269  26.747  27.457  1.00  0.00    -0.248 NA
ATOM     40  C   UNL A   1      44.586  24.600  26.604  1.00  0.00     0.031 C 
ATOM     41  C   UNL A   1      40.167  25.579  28.795  1.00  0.00     0.029 A 
ATOM     42  N   UNL A   1      41.643  27.256  28.691  1.00  0.00    -0.354 N 
ATOM     43  C   UNL A   1      45.537  26.661  26.894  1.00  0.00     0.074 A 
ATOM     44  C   UNL A   1      45.695  25.304  26.419  1.00  0.00     0.031 C 
ATOM     45  C   UNL A   1      39.566  26.673  29.283  1.00  0.00     0.029 A 
ATOM     46  C   UNL A   1      40.509  27.789  29.257  1.00  0.00     0.049 A 
ATOM     47  H   UNL A   1      42.467  27.774  28.542  1.00  0.00     0.167 HD
ATOM     48  C   UNL A   1      46.476  27.630  26.770  1.00  0.00     0.034 A 
ATOM     49  C   UNL A   1      40.253  29.033  29.708  1.00  0.00     0.034 A 
ATOM     50  C   UNL A   1      46.299  28.983  27.231  1.00  0.00     0.049 A 
ATOM     51  C   UNL A   1      41.324  30.083  29.589  1.00  0.00     0.074 A 
ATOM     52  C   UNL A   1      47.190  30.039  27.148  1.00  0.00     0.029 A 
ATOM     53  N   UNL A   1      45.157  29.472  27.850  1.00  0.00    -0.354 N 
ATOM     54  N   UNL A   1      42.514  29.988  29.042  1.00  0.00    -0.248 NA
ATOM     55  C   UNL A   1      41.029  31.407  30.152  1.00  0.00     0.031 C 
ATOM     56  C   UNL A   1      46.605  31.153  27.754  1.00  0.00     0.029 A 
ATOM     57  C   UNL A   1      45.328  30.810  28.169  1.00  0.00     0.049 A 
ATOM     58  H   UNL A   1      44.345  28.946  28.034  1.00  0.00     0.167 HD
ATOM     59  C   UNL A   1      43.106  31.237  29.189  1.00  0.00     0.074 A 
ATOM     60  C   UNL A   1      42.130  32.082  29.847  1.00  0.00     0.031 C 
ATOM     61  C   UNL A   1      44.347  31.643  28.822  1.00  0.00     0.034 A 
BRANCH  48  62
ATOM     62  C   UNL A   1      47.783  27.283  26.102  1.00  0.00     0.023 A 
ATOM     63  C   UNL A   1      47.943  27.478  24.716  1.00  0.00     0.031 A 
ATOM     64  C   UNL A   1      48.824  26.662  26.813  1.00  0.00     0.131 A 
ATOM     65  C   UNL A   1      49.111  27.033  24.083  1.00  0.00     0.055 A 
ATOM     66  C   UNL A   1      49.998  26.248  26.181  1.00  0.00     0.041 A 
ATOM     67  F   UNL A   1      48.719  26.460  28.136  1.00  0.00    -0.206 F 
ATOM     68  C   UNL A   1      50.140  26.423  24.808  1.00  0.00     0.022 A 
BRANCH  65  69
ATOM     69  S   UNL A   1      49.321  27.182  22.287  1.00  0.00     0.124 S 
ATOM     70  O   UNL A   1      50.774  27.105  22.150  1.00  0.00    -0.237 OA
ATOM     71  O   UNL A   1      48.585  26.020  21.795  1.00  0.00    -0.237 OA
ATOM     72  O   UNL A   1      48.734  28.480  21.971  1.00  0.00    -0.744 OA
ENDBRANCH  65  69
ENDBRANCH  48  62
BRANCH  49  73
ATOM     73  C   UNL A   1      38.902  29.336  30.260  1.00  0.00     0.023 A 
ATOM     74  C   UNL A   1      37.972  30.091  29.520  1.00  0.00     0.031 A 
ATOM     75  C   UNL A   1      38.574  28.996  31.582  1.00  0.00     0.131 A 
ATOM     76  C   UNL A   1      36.802  30.552  30.135  1.00  0.00     0.055 A 
ATOM     77  C   UNL A   1      37.372  29.396  32.168  1.00  0.00     0.041 A 
ATOM     78  F   UNL A   1      39.434  28.287  32.331  1.00  0.00    -0.206 F 
ATOM     79  C   UNL A   1      36.489  30.197  31.450  1.00  0.00     0.022 A 
BRANCH  76  80
ATOM     80  S   UNL A   1      35.731  31.757  29.302  1.00  0.00     0.124 S 
ATOM     81  O   UNL A   1      36.696  32.744  28.828  1.00  0.00    -0.237 OA
ATOM     82  O   UNL A   1      35.106  30.936  28.268  1.00  0.00    -0.237 OA
ATOM     83  O   UNL A   1      34.832  32.208  30.360  1.00  0.00    -0.744 OA
ENDBRANCH  76  80
ENDBRANCH  49  73
BRANCH  61  84
ATOM     84  C   UNL A   1      44.754  33.062  29.129  1.00  0.00     0.023 A 
ATOM     85  C   UNL A   1      44.448  34.098  28.226  1.00  0.00     0.031 A 
ATOM     86  C   UNL A   1      45.566  33.360  30.236  1.00  0.00     0.131 A 
ATOM     87  C   UNL A   1      44.978  35.377  28.430  1.00  0.00     0.055 A 
ATOM     88  C   UNL A   1      46.062  34.646  30.457  1.00  0.00     0.041 A 
ATOM     89  F   UNL A   1      45.892  32.402  31.119  1.00  0.00    -0.206 F 
ATOM     90  C   UNL A   1      45.778  35.659  29.544  1.00  0.00     0.022 A 
BRANCH  87  91
ATOM     91  S   UNL A   1      44.716  36.704  27.222  1.00  0.00     0.124 S 
ATOM     92  O   UNL A   1      45.905  36.586  26.380  1.00  0.00    -0.237 OA
ATOM     93  O   UNL A   1      43.463  36.302  26.590  1.00  0.00    -0.237 OA
ATOM     94  O   UNL A   1      44.649  37.913  28.035  1.00  0.00    -0.744 OA
ENDBRANCH  87  91
ENDBRANCH  61  84
ENDBRANCH  35  36
ENDBRANCH  27  30
ENDBRANCH  25  26
ENDBRANCH   1  25
TORSDOF 16
ENDMDL
MODEL 3
REMARK VINA RESULT:     -11.8      1.425      1.641
REMARK SMILES CCc1c(Cl)ccc2c1C=C(C(=O)NCCCCNC(=O)c1ccc(-c3c4nc(c(-c5cc(S(=O)(=O)[O-])ccc5F)c5ccc([nH]5)c(-c5cc(S(=O)(=O)[O-])ccc5F)c5nc(c(-c6cc(S(=O)(=O)[O-])ccc6F)c6ccc3[nH]6)C=C5)C=C4)cc1)[C@@H](C(F)(F)F)O2
REMARK SMILES IDX 17 1 16 2 15 3 14 4 12 5 13 6 11 8 3 9 4 10 9 11 5 12 6 13
REMARK SMILES IDX 8 14 10 15 7 16 90 17 85 18 2 19 1 20 86 21 87 22 88 23
REMARK SMILES IDX 89 24 18 25 19 26 20 27 21 29 22 30 23 31 84 32 24 33 83 34
REMARK SMILES IDX 25 35 26 36 27 37 77 38 28 39 82 40 76 41 78 42 29 43 81 44
REMARK SMILES IDX 75 45 74 46 30 48 62 49 42 50 61 51 43 52 46 53 60 54 79 55
REMARK SMILES IDX 44 56 45 57 59 59 80 60 47 61 31 62 32 63 40 64 33 65 39 66
REMARK SMILES IDX 41 67 38 68 34 69 35 70 36 71 37 72 63 73 64 74 72 75 65 76
REMARK SMILES IDX 71 77 73 78 70 79 66 80 67 81 68 82 69 83 48 84 49 85 57 86
REMARK SMILES IDX 50 87 56 88 58 89 55 90 51 91 52 92 53 93 54 94
REMARK H PARENT 14 7 19 28 78 47 46 58
REMARK Flexibility Score: inf
ROOT
ATOM      1  C   UNL A   1      31.461  32.187  27.048  1.00  0.00     0.023 C 
ENDROOT
BRANCH   1   2
ATOM      2  C   UNL A   1      31.689  30.840  26.359  1.00  0.00     0.023 C 
BRANCH   2   3
ATOM      3  C   UNL A   1      33.091  30.267  26.546  1.00  0.00     0.116 C 
BRANCH   3   4
ATOM      4  N   UNL A   1      33.624  29.713  25.314  1.00  0.00    -0.352 N 
ATOM      5  C   UNL A   1      33.652  28.505  24.704  1.00  0.00     0.251 C 
ATOM      6  O   UNL A   1      34.245  28.475  23.621  1.00  0.00    -0.270 OA
ATOM      7  H   UNL A   1      34.089  30.397  24.781  1.00  0.00     0.163 HD
BRANCH   5   8
ATOM      8  C   UNL A   1      33.028  27.253  25.231  1.00  0.00     0.067 C 
ATOM      9  C   UNL A   1      34.070  23.661  25.646  1.00  0.00    -0.019 A 
ATOM     10  C   UNL A   1      33.461  22.490  26.153  1.00  0.00     0.045 A 
ATOM     11  C   UNL A   1      33.328  24.882  25.760  1.00  0.00     0.022 A 
ATOM     12  Cl  UNL A   1      34.168  20.913  26.129  1.00  0.00    -0.084 Cl
ATOM     13  C   UNL A   1      32.189  22.531  26.744  1.00  0.00     0.024 A 
ATOM     14  C   UNL A   1      32.054  24.887  26.350  1.00  0.00     0.128 A 
ATOM     15  C   UNL A   1      33.845  26.186  25.314  1.00  0.00     0.026 C 
ATOM     16  C   UNL A   1      31.490  23.724  26.849  1.00  0.00     0.048 A 
ATOM     17  O   UNL A   1      31.307  26.019  26.518  1.00  0.00    -0.475 OA
ATOM     18  C   UNL A   1      31.586  27.118  25.611  1.00  0.00     0.314 C 
BRANCH   9  19
ATOM     19  C   UNL A   1      35.446  23.742  24.995  1.00  0.00     0.034 C 
ATOM     20  C   UNL A   1      35.791  23.050  23.685  1.00  0.00     0.009 C 
ENDBRANCH   9  19
BRANCH  18  21
ATOM     21  C   UNL A   1      30.649  27.028  24.392  1.00  0.00     0.429 C 
ATOM     22  F   UNL A   1      30.452  28.259  23.856  1.00  0.00    -0.167 F 
ATOM     23  F   UNL A   1      31.152  26.253  23.404  1.00  0.00    -0.167 F 
ATOM     24  F   UNL A   1      29.433  26.526  24.707  1.00  0.00    -0.167 F 
ENDBRANCH  18  21
ENDBRANCH   5   8
ENDBRANCH   3   4
ENDBRANCH   2   3
ENDBRANCH   1   2
BRANCH   1  25
ATOM     25  C   UNL A   1      32.676  33.110  27.108  1.00  0.00     0.116 C 
BRANCH  25  26
ATOM     26  N   UNL A   1      32.529  34.244  28.012  1.00  0.00    -0.352 N 
ATOM     27  C   UNL A   1      33.354  34.590  29.061  1.00  0.00     0.251 C 
ATOM     28  H   UNL A   1      31.752  34.828  27.855  1.00  0.00     0.163 HD
ATOM     29  O   UNL A   1      33.084  35.544  29.785  1.00  0.00    -0.269 OA
BRANCH  27  30
ATOM     30  C   UNL A   1      34.534  33.743  29.324  1.00  0.00     0.039 A 
ATOM     31  C   UNL A   1      34.396  32.583  30.086  1.00  0.00     0.014 A 
ATOM     32  C   UNL A   1      35.795  34.202  28.939  1.00  0.00     0.014 A 
ATOM     33  C   UNL A   1      35.529  31.987  30.623  1.00  0.00     0.010 A 
ATOM     34  C   UNL A   1      36.935  33.553  29.419  1.00  0.00     0.010 A 
ATOM     35  C   UNL A   1      36.809  32.483  30.320  1.00  0.00    -0.014 A 
BRANCH  35  36
ATOM     36  C   UNL A   1      37.994  31.892  30.993  1.00  0.00     0.031 A 
ATOM     37  C   UNL A   1      38.358  32.296  32.398  1.00  0.00     0.074 A 
ATOM     38  C   UNL A   1      38.691  30.929  30.364  1.00  0.00     0.049 A 
ATOM     39  N   UNL A   1      39.323  31.846  33.158  1.00  0.00    -0.248 NA
ATOM     40  C   UNL A   1      37.535  33.338  33.034  1.00  0.00     0.031 C 
ATOM     41  C   UNL A   1      38.409  30.448  29.012  1.00  0.00     0.029 A 
ATOM     42  N   UNL A   1      39.748  30.161  30.779  1.00  0.00    -0.354 N 
ATOM     43  C   UNL A   1      39.234  32.554  34.351  1.00  0.00     0.074 A 
ATOM     44  C   UNL A   1      38.140  33.489  34.204  1.00  0.00     0.031 C 
ATOM     45  C   UNL A   1      39.225  29.424  28.733  1.00  0.00     0.029 A 
ATOM     46  C   UNL A   1      40.137  29.219  29.857  1.00  0.00     0.049 A 
ATOM     47  H   UNL A   1      40.186  30.273  31.654  1.00  0.00     0.167 HD
ATOM     48  C   UNL A   1      39.985  32.424  35.470  1.00  0.00     0.034 A 
ATOM     49  C   UNL A   1      41.118  28.296  29.903  1.00  0.00     0.034 A 
ATOM     50  C   UNL A   1      41.061  31.477  35.610  1.00  0.00     0.049 A 
ATOM     51  C   UNL A   1      41.962  28.194  31.146  1.00  0.00     0.074 A 
ATOM     52  C   UNL A   1      41.880  31.265  36.706  1.00  0.00     0.029 A 
ATOM     53  N   UNL A   1      41.463  30.576  34.633  1.00  0.00    -0.354 N 
ATOM     54  N   UNL A   1      41.856  28.864  32.270  1.00  0.00    -0.248 NA
ATOM     55  C   UNL A   1      43.061  27.220  31.131  1.00  0.00     0.031 C 
ATOM     56  C   UNL A   1      42.802  30.270  36.378  1.00  0.00     0.029 A 
ATOM     57  C   UNL A   1      42.528  29.820  35.096  1.00  0.00     0.049 A 
ATOM     58  H   UNL A   1      41.051  30.487  33.743  1.00  0.00     0.167 HD
ATOM     59  C   UNL A   1      42.868  28.390  33.096  1.00  0.00     0.074 A 
ATOM     60  C   UNL A   1      43.556  27.352  32.355  1.00  0.00     0.031 C 
ATOM     61  C   UNL A   1      43.204  28.786  34.349  1.00  0.00     0.034 A 
BRANCH  48  62
ATOM     62  C   UNL A   1      39.679  33.314  36.649  1.00  0.00     0.023 A 
ATOM     63  C   UNL A   1      38.960  32.809  37.750  1.00  0.00     0.031 A 
ATOM     64  C   UNL A   1      40.001  34.682  36.635  1.00  0.00     0.131 A 
ATOM     65  C   UNL A   1      38.568  33.674  38.779  1.00  0.00     0.055 A 
ATOM     66  C   UNL A   1      39.633  35.534  37.678  1.00  0.00     0.041 A 
ATOM     67  F   UNL A   1      40.691  35.209  35.610  1.00  0.00    -0.206 F 
ATOM     68  C   UNL A   1      38.904  35.031  38.751  1.00  0.00     0.022 A 
BRANCH  65  69
ATOM     69  S   UNL A   1      37.563  33.084  40.170  1.00  0.00     0.124 S 
ATOM     70  O   UNL A   1      36.266  32.871  39.532  1.00  0.00    -0.237 OA
ATOM     71  O   UNL A   1      38.271  31.869  40.566  1.00  0.00    -0.237 OA
ATOM     72  O   UNL A   1      37.612  34.183  41.129  1.00  0.00    -0.744 OA
ENDBRANCH  65  69
ENDBRANCH  48  62
BRANCH  49  73
ATOM     73  C   UNL A   1      41.298  27.375  28.744  1.00  0.00     0.023 A 
ATOM     74  C   UNL A   1      42.340  27.575  27.819  1.00  0.00     0.031 A 
ATOM     75  C   UNL A   1      40.354  26.373  28.470  1.00  0.00     0.131 A 
ATOM     76  C   UNL A   1      42.361  26.843  26.625  1.00  0.00     0.055 A 
ATOM     77  C   UNL A   1      40.421  25.595  27.314  1.00  0.00     0.041 A 
ATOM     78  F   UNL A   1      39.336  26.154  29.318  1.00  0.00    -0.206 F 
ATOM     79  C   UNL A   1      41.417  25.844  26.373  1.00  0.00     0.022 A 
BRANCH  76  80
ATOM     80  S   UNL A   1      43.517  27.276  25.294  1.00  0.00     0.124 S 
ATOM     81  O   UNL A   1      44.393  28.238  25.955  1.00  0.00    -0.237 OA
ATOM     82  O   UNL A   1      44.117  25.980  24.988  1.00  0.00    -0.237 OA
ATOM     83  O   UNL A   1      42.653  27.818  24.251  1.00  0.00    -0.744 OA
ENDBRANCH  76  80
ENDBRANCH  49  73
BRANCH  61  84
ATOM     84  C   UNL A   1      44.379  28.119  35.019  1.00  0.00     0.023 A 
ATOM     85  C   UNL A   1      44.197  26.928  35.747  1.00  0.00     0.031 A 
ATOM     86  C   UNL A   1      45.640  28.738  35.055  1.00  0.00     0.131 A 
ATOM     87  C   UNL A   1      45.252  26.411  36.508  1.00  0.00     0.055 A 
ATOM     88  C   UNL A   1      46.700  28.198  35.784  1.00  0.00     0.041 A 
ATOM     89  F   UNL A   1      45.857  29.880  34.383  1.00  0.00    -0.206 F 
ATOM     90  C   UNL A   1      46.504  27.036  36.526  1.00  0.00     0.022 A 
BRANCH  87  91
ATOM     91  S   UNL A   1      45.020  24.955  37.564  1.00  0.00     0.124 S 
ATOM     92  O   UNL A   1      44.118  25.467  38.592  1.00  0.00    -0.237 OA
ATOM     93  O   UNL A   1      44.427  23.994  36.637  1.00  0.00    -0.237 OA
ATOM     94  O   UNL A   1      46.367  24.634  38.022  1.00  0.00    -0.744 OA
ENDBRANCH  87  91
ENDBRANCH  61  84
ENDBRANCH  35  36
ENDBRANCH  27  30
ENDBRANCH  25  26
ENDBRANCH   1  25
TORSDOF 16
ENDMDL
