MODEL 1
REMARK VINA RESULT:     -12.1      0.000      0.000
REMARK SMILES COc1ccc(C(=O)NC(=S)Nc2ccc(Br)cc2C(=O)NCCCCNC(=O)c2ccc(-c3c4nc(c(-c5cc(S(=O)(=O)[O-])ccc5F)c5ccc([nH]5)c(-c5cc(S(=O)(=O)[O-])ccc5F)c5nc(c(-c6cc(S(=O)(=O)[O-])ccc6F)c6ccc3[nH]6)C=C5)C=C4)cc2)cc1Br
REMARK SMILES IDX 23 1 22 2 20 3 21 4 19 6 13 7 14 8 15 9 18 10 16 11 17 12
REMARK SMILES IDX 12 13 10 15 11 16 9 17 7 18 8 19 6 21 3 22 4 23 94 24 5 25
REMARK SMILES IDX 93 26 95 27 2 28 1 29 24 30 25 31 26 32 27 33 28 34 29 36
REMARK SMILES IDX 30 37 31 38 92 39 32 40 91 41 33 42 34 43 35 44 85 45 36 46
REMARK SMILES IDX 90 47 84 48 86 49 37 50 89 51 83 52 82 53 38 55 70 56 50 57
REMARK SMILES IDX 69 58 51 59 54 60 68 61 87 62 52 63 53 64 67 66 88 67 55 68
REMARK SMILES IDX 39 69 40 70 48 71 41 72 47 73 49 74 46 75 42 76 43 77 44 78
REMARK SMILES IDX 45 79 71 80 72 81 80 82 73 83 79 84 81 85 78 86 74 87 75 88
REMARK SMILES IDX 76 89 77 90 56 91 57 92 65 93 58 94 64 95 66 96 63 97 59 98
REMARK SMILES IDX 60 99 61 100 62 101
REMARK H PARENT 22 5 12 14 9 20 27 35 86 54 54 65
REMARK Flexibility Score: inf
ROOT
ATOM      1  C   UNL A   1      31.683  30.048  25.833  1.00  0.00     0.116 C 
ENDROOT
BRANCH   1   2
ATOM      2  N   UNL A   1      32.790  29.377  25.235  1.00  0.00    -0.352 N 
ATOM      3  C   UNL A   1      32.652  28.591  24.120  1.00  0.00     0.253 C 
ATOM      4  O   UNL A   1      33.592  27.920  23.704  1.00  0.00    -0.269 OA
ATOM      5  H   UNL A   1      33.683  29.483  25.635  1.00  0.00     0.163 HD
BRANCH   3   6
ATOM      6  C   UNL A   1      31.331  28.484  23.437  1.00  0.00     0.064 A 
ATOM      7  C   UNL A   1      30.032  27.379  23.881  1.00  0.00     0.053 A 
ATOM      8  C   UNL A   1      28.288  27.738  23.565  1.00  0.00     0.028 A 
ATOM      9  C   UNL A   1      27.752  29.097  22.537  1.00  0.00     0.018 A 
ATOM     10  C   UNL A   1      30.939  29.852  22.384  1.00  0.00     0.031 A 
ATOM     11  C   UNL A   1      29.018  30.198  21.828  1.00  0.00     0.018 A 
ATOM     12  Br  UNL A   1      27.968  31.416  20.630  1.00  0.00    -0.051 Br
BRANCH   7  13
ATOM     13  N   UNL A   1      30.248  26.050  23.280  1.00  0.00    -0.332 N 
ATOM     14  H   UNL A   1      29.907  25.987  22.359  1.00  0.00     0.169 HD
BRANCH  13  15
ATOM     15  C   UNL A   1      30.826  24.865  23.720  1.00  0.00     0.177 C 
ATOM     16  S   UNL A   1      32.187  24.367  22.864  1.00  0.00    -0.040 S 
BRANCH  15  17
ATOM     17  N   UNL A   1      30.447  24.014  24.816  1.00  0.00    -0.299 N 
ATOM     18  C   UNL A   1      30.728  23.038  25.921  1.00  0.00     0.257 C 
ATOM     19  O   UNL A   1      29.812  22.616  26.620  1.00  0.00    -0.269 OA
ATOM     20  H   UNL A   1      29.473  24.142  24.871  1.00  0.00     0.172 HD
BRANCH  18  21
ATOM     21  C   UNL A   1      32.104  22.539  26.128  1.00  0.00     0.041 A 
ATOM     22  C   UNL A   1      35.324  20.787  25.408  1.00  0.00     0.133 A 
ATOM     23  C   UNL A   1      35.236  22.411  26.153  1.00  0.00     0.048 A 
ATOM     24  C   UNL A   1      33.769  19.938  25.007  1.00  0.00     0.060 A 
ATOM     25  C   UNL A   1      33.668  23.254  26.477  1.00  0.00     0.018 A 
ATOM     26  C   UNL A   1      32.095  20.947  25.502  1.00  0.00     0.033 A 
ATOM     27  Br  UNL A   1      34.196  18.147  24.243  1.00  0.00    -0.047 Br
BRANCH  22  28
ATOM     28  O   UNL A   1      36.545  20.261  25.111  1.00  0.00    -0.496 OA
ATOM     29  C   UNL A   1      37.390  21.299  24.613  1.00  0.00     0.278 C 
ENDBRANCH  22  28
ENDBRANCH  18  21
ENDBRANCH  15  17
ENDBRANCH  13  15
ENDBRANCH   7  13
ENDBRANCH   3   6
ENDBRANCH   1   2
BRANCH   1  30
ATOM     30  C   UNL A   1      31.960  31.102  26.873  1.00  0.00     0.023 C 
BRANCH  30  31
ATOM     31  C   UNL A   1      33.328  31.022  27.505  1.00  0.00     0.023 C 
BRANCH  31  32
ATOM     32  C   UNL A   1      34.098  32.332  27.507  1.00  0.00     0.116 C 
BRANCH  32  33
ATOM     33  N   UNL A   1      33.359  33.448  28.090  1.00  0.00    -0.352 N 
ATOM     34  C   UNL A   1      33.563  34.064  29.305  1.00  0.00     0.251 C 
ATOM     35  H   UNL A   1      32.620  33.805  27.545  1.00  0.00     0.163 HD
ATOM     36  O   UNL A   1      32.784  34.915  29.718  1.00  0.00    -0.269 OA
BRANCH  34  37
ATOM     37  C   UNL A   1      34.717  33.631  30.113  1.00  0.00     0.039 A 
ATOM     38  C   UNL A   1      34.545  32.610  31.046  1.00  0.00     0.014 A 
ATOM     39  C   UNL A   1      35.989  34.128  29.819  1.00  0.00     0.014 A 
ATOM     40  C   UNL A   1      35.671  32.022  31.620  1.00  0.00     0.010 A 
ATOM     41  C   UNL A   1      37.104  33.448  30.286  1.00  0.00     0.010 A 
ATOM     42  C   UNL A   1      36.960  32.394  31.200  1.00  0.00    -0.014 A 
BRANCH  42  43
ATOM     43  C   UNL A   1      38.169  31.706  31.721  1.00  0.00     0.031 A 
ATOM     44  C   UNL A   1      38.736  32.110  33.054  1.00  0.00     0.074 A 
ATOM     45  C   UNL A   1      38.773  30.750  30.986  1.00  0.00     0.049 A 
ATOM     46  N   UNL A   1      39.801  31.664  33.668  1.00  0.00    -0.248 NA
ATOM     47  C   UNL A   1      38.027  33.174  33.784  1.00  0.00     0.031 C 
ATOM     48  C   UNL A   1      38.338  30.297  29.663  1.00  0.00     0.029 A 
ATOM     49  N   UNL A   1      39.880  29.981  31.248  1.00  0.00    -0.354 N 
ATOM     50  C   UNL A   1      39.887  32.389  34.850  1.00  0.00     0.074 A 
ATOM     51  C   UNL A   1      38.820  33.365  34.826  1.00  0.00     0.031 C 
ATOM     52  C   UNL A   1      39.132  29.294  29.257  1.00  0.00     0.029 A 
ATOM     53  C   UNL A   1      40.176  29.077  30.253  1.00  0.00     0.049 A 
ATOM     54  H   UNL A   1      40.411  30.066  32.072  1.00  0.00     0.167 HD
ATOM     55  C   UNL A   1      40.753  32.234  35.880  1.00  0.00     0.034 A 
ATOM     56  C   UNL A   1      41.182  28.185  30.148  1.00  0.00     0.034 A 
ATOM     57  C   UNL A   1      41.814  31.260  35.888  1.00  0.00     0.049 A 
ATOM     58  C   UNL A   1      42.186  28.090  31.273  1.00  0.00     0.074 A 
ATOM     59  C   UNL A   1      42.732  31.001  36.890  1.00  0.00     0.029 A 
ATOM     60  N   UNL A   1      42.111  30.396  34.842  1.00  0.00    -0.354 N 
ATOM     61  N   UNL A   1      42.227  28.757  32.404  1.00  0.00    -0.248 NA
ATOM     62  C   UNL A   1      43.275  27.119  31.110  1.00  0.00     0.031 C 
ATOM     63  C   UNL A   1      43.640  30.053  36.414  1.00  0.00     0.029 A 
ATOM     64  C   UNL A   1      43.225  29.635  35.161  1.00  0.00     0.049 A 
ATOM     65  H   UNL A   1      41.605  30.333  34.000  1.00  0.00     0.167 HD
ATOM     66  C   UNL A   1      43.321  28.253  33.103  1.00  0.00     0.074 A 
ATOM     67  C   UNL A   1      43.901  27.219  32.272  1.00  0.00     0.031 C 
ATOM     68  C   UNL A   1      43.798  28.608  34.322  1.00  0.00     0.034 A 
BRANCH  55  69
ATOM     69  C   UNL A   1      40.598  33.154  37.065  1.00  0.00     0.023 A 
ATOM     70  C   UNL A   1      39.858  32.775  38.199  1.00  0.00     0.031 A 
ATOM     71  C   UNL A   1      41.179  34.434  37.055  1.00  0.00     0.131 A 
ATOM     72  C   UNL A   1      39.654  33.693  39.239  1.00  0.00     0.055 A 
ATOM     73  C   UNL A   1      41.054  35.306  38.137  1.00  0.00     0.041 A 
ATOM     74  F   UNL A   1      41.869  34.864  35.989  1.00  0.00    -0.206 F 
ATOM     75  C   UNL A   1      40.275  34.943  39.232  1.00  0.00     0.022 A 
BRANCH  72  76
ATOM     76  S   UNL A   1      38.430  33.291  40.514  1.00  0.00     0.124 S 
ATOM     77  O   UNL A   1      38.493  34.476  41.367  1.00  0.00    -0.237 OA
ATOM     78  O   UNL A   1      37.206  33.128  39.738  1.00  0.00    -0.237 OA
ATOM     79  O   UNL A   1      38.954  32.069  41.120  1.00  0.00    -0.744 OA
ENDBRANCH  72  76
ENDBRANCH  55  69
BRANCH  56  80
ATOM     80  C   UNL A   1      41.317  27.320  28.938  1.00  0.00     0.023 A 
ATOM     81  C   UNL A   1      42.283  27.594  27.957  1.00  0.00     0.031 A 
ATOM     82  C   UNL A   1      40.430  26.253  28.706  1.00  0.00     0.131 A 
ATOM     83  C   UNL A   1      42.294  26.859  26.761  1.00  0.00     0.055 A 
ATOM     84  C   UNL A   1      40.497  25.474  27.549  1.00  0.00     0.041 A 
ATOM     85  F   UNL A   1      39.480  25.949  29.604  1.00  0.00    -0.206 F 
ATOM     86  C   UNL A   1      41.422  25.787  26.559  1.00  0.00     0.022 A 
BRANCH  83  87
ATOM     87  S   UNL A   1      43.371  27.417  25.412  1.00  0.00     0.124 S 
ATOM     88  O   UNL A   1      43.927  26.154  24.940  1.00  0.00    -0.237 OA
ATOM     89  O   UNL A   1      42.424  28.076  24.520  1.00  0.00    -0.237 OA
ATOM     90  O   UNL A   1      44.318  28.306  26.081  1.00  0.00    -0.744 OA
ENDBRANCH  83  87
ENDBRANCH  56  80
BRANCH  68  91
ATOM     91  C   UNL A   1      44.973  27.828  34.863  1.00  0.00     0.023 A 
ATOM     92  C   UNL A   1      44.820  26.566  35.460  1.00  0.00     0.031 A 
ATOM     93  C   UNL A   1      46.272  28.363  34.777  1.00  0.00     0.131 A 
ATOM     94  C   UNL A   1      45.933  25.913  36.009  1.00  0.00     0.055 A 
ATOM     95  C   UNL A   1      47.387  27.670  35.248  1.00  0.00     0.041 A 
ATOM     96  F   UNL A   1      46.480  29.570  34.225  1.00  0.00    -0.206 F 
ATOM     97  C   UNL A   1      47.220  26.445  35.883  1.00  0.00     0.022 A 
BRANCH  94  98
ATOM     98  S   UNL A   1      45.662  24.421  37.003  1.00  0.00     0.124 S 
ATOM     99  O   UNL A   1      44.540  24.821  37.846  1.00  0.00    -0.237 OA
ATOM    100  O   UNL A   1      45.369  23.417  35.986  1.00  0.00    -0.237 OA
ATOM    101  O   UNL A   1      46.931  24.242  37.705  1.00  0.00    -0.744 OA
ENDBRANCH  94  98
ENDBRANCH  68  91
ENDBRANCH  42  43
ENDBRANCH  34  37
ENDBRANCH  32  33
ENDBRANCH  31  32
ENDBRANCH  30  31
ENDBRANCH   1  30
TORSDOF 19
ENDMDL
MODEL 2
REMARK VINA RESULT:     -12.1      2.614      3.399
REMARK SMILES COc1ccc(C(=O)NC(=S)Nc2ccc(Br)cc2C(=O)NCCCCNC(=O)c2ccc(-c3c4nc(c(-c5cc(S(=O)(=O)[O-])ccc5F)c5ccc([nH]5)c(-c5cc(S(=O)(=O)[O-])ccc5F)c5nc(c(-c6cc(S(=O)(=O)[O-])ccc6F)c6ccc3[nH]6)C=C5)C=C4)cc2)cc1Br
REMARK SMILES IDX 23 1 22 2 20 3 21 4 19 6 13 7 14 8 15 9 18 10 16 11 17 12
REMARK SMILES IDX 12 13 10 15 11 16 9 17 7 18 8 19 6 21 3 22 4 23 94 24 5 25
REMARK SMILES IDX 93 26 95 27 2 28 1 29 24 30 25 31 26 32 27 33 28 34 29 36
REMARK SMILES IDX 30 37 31 38 92 39 32 40 91 41 33 42 34 43 35 44 85 45 36 46
REMARK SMILES IDX 90 47 84 48 86 49 37 50 89 51 83 52 82 53 38 55 70 56 50 57
REMARK SMILES IDX 69 58 51 59 54 60 68 61 87 62 52 63 53 64 67 66 88 67 55 68
REMARK SMILES IDX 39 69 40 70 48 71 41 72 47 73 49 74 46 75 42 76 43 77 44 78
REMARK SMILES IDX 45 79 71 80 72 81 80 82 73 83 79 84 81 85 78 86 74 87 75 88
REMARK SMILES IDX 76 89 77 90 56 91 57 92 65 93 58 94 64 95 66 96 63 97 59 98
REMARK SMILES IDX 60 99 61 100 62 101
REMARK H PARENT 22 5 12 14 9 20 27 35 86 54 54 65
REMARK Flexibility Score: inf
ROOT
ATOM      1  C   UNL A   1      31.415  27.707  25.836  1.00  0.00     0.116 C 
ENDROOT
BRANCH   1   2
ATOM      2  N   UNL A   1      31.771  28.371  24.626  1.00  0.00    -0.352 N 
ATOM      3  C   UNL A   1      32.584  27.790  23.687  1.00  0.00     0.253 C 
ATOM      4  O   UNL A   1      32.983  28.431  22.718  1.00  0.00    -0.269 OA
ATOM      5  H   UNL A   1      31.421  29.275  24.458  1.00  0.00     0.163 HD
BRANCH   3   6
ATOM      6  C   UNL A   1      33.055  26.387  23.867  1.00  0.00     0.064 A 
ATOM      7  C   UNL A   1      32.647  25.026  22.825  1.00  0.00     0.053 A 
ATOM      8  C   UNL A   1      33.731  23.594  22.612  1.00  0.00     0.028 A 
ATOM      9  C   UNL A   1      35.164  23.305  23.640  1.00  0.00     0.018 A 
ATOM     10  C   UNL A   1      34.431  26.213  24.967  1.00  0.00     0.031 A 
ATOM     11  C   UNL A   1      35.577  24.538  24.916  1.00  0.00     0.018 A 
ATOM     12  Br  UNL A   1      37.105  23.700  25.907  1.00  0.00    -0.051 Br
BRANCH   7  13
ATOM     13  N   UNL A   1      31.345  24.447  23.207  1.00  0.00    -0.332 N 
ATOM     14  H   UNL A   1      31.149  23.605  22.736  1.00  0.00     0.169 HD
BRANCH  13  15
ATOM     15  C   UNL A   1      30.333  24.821  24.082  1.00  0.00     0.177 C 
ATOM     16  S   UNL A   1      29.261  25.977  23.490  1.00  0.00    -0.040 S 
BRANCH  15  17
ATOM     17  N   UNL A   1      30.049  24.348  25.410  1.00  0.00    -0.299 N 
ATOM     18  C   UNL A   1      30.315  23.507  26.625  1.00  0.00     0.257 C 
ATOM     19  O   UNL A   1      29.573  23.575  27.599  1.00  0.00    -0.269 OA
ATOM     20  H   UNL A   1      29.239  24.849  25.657  1.00  0.00     0.172 HD
BRANCH  18  21
ATOM     21  C   UNL A   1      31.442  22.550  26.623  1.00  0.00     0.041 A 
ATOM     22  C   UNL A   1      34.098  20.292  25.279  1.00  0.00     0.133 A 
ATOM     23  C   UNL A   1      34.364  21.413  26.647  1.00  0.00     0.048 A 
ATOM     24  C   UNL A   1      32.446  20.229  24.525  1.00  0.00     0.060 A 
ATOM     25  C   UNL A   1      33.072  22.515  27.272  1.00  0.00     0.018 A 
ATOM     26  C   UNL A   1      31.075  21.439  25.375  1.00  0.00     0.033 A 
ATOM     27  Br  UNL A   1      32.456  18.861  23.074  1.00  0.00    -0.047 Br
BRANCH  22  28
ATOM     28  O   UNL A   1      35.147  19.563  24.807  1.00  0.00    -0.496 OA
ATOM     29  C   UNL A   1      36.355  20.299  25.014  1.00  0.00     0.278 C 
ENDBRANCH  22  28
ENDBRANCH  18  21
ENDBRANCH  15  17
ENDBRANCH  13  15
ENDBRANCH   7  13
ENDBRANCH   3   6
ENDBRANCH   1   2
BRANCH   1  30
ATOM     30  C   UNL A   1      31.737  28.380  27.145  1.00  0.00     0.023 C 
BRANCH  30  31
ATOM     31  C   UNL A   1      31.746  29.889  27.093  1.00  0.00     0.023 C 
BRANCH  31  32
ATOM     32  C   UNL A   1      33.133  30.509  27.053  1.00  0.00     0.116 C 
BRANCH  32  33
ATOM     33  N   UNL A   1      33.150  31.934  27.370  1.00  0.00    -0.352 N 
ATOM     34  C   UNL A   1      34.167  32.669  27.939  1.00  0.00     0.251 C 
ATOM     35  H   UNL A   1      32.330  32.433  27.150  1.00  0.00     0.163 HD
ATOM     36  O   UNL A   1      33.995  33.839  28.259  1.00  0.00    -0.269 OA
BRANCH  34  37
ATOM     37  C   UNL A   1      35.449  31.989  28.197  1.00  0.00     0.039 A 
ATOM     38  C   UNL A   1      36.592  32.757  28.410  1.00  0.00     0.014 A 
ATOM     39  C   UNL A   1      35.467  30.605  28.387  1.00  0.00     0.014 A 
ATOM     40  C   UNL A   1      37.739  32.139  28.907  1.00  0.00     0.010 A 
ATOM     41  C   UNL A   1      36.562  30.024  29.011  1.00  0.00     0.010 A 
ATOM     42  C   UNL A   1      37.714  30.780  29.269  1.00  0.00    -0.014 A 
BRANCH  42  43
ATOM     43  C   UNL A   1      38.892  30.130  29.899  1.00  0.00     0.031 A 
ATOM     44  C   UNL A   1      39.324  30.551  31.277  1.00  0.00     0.074 A 
ATOM     45  C   UNL A   1      39.588  29.192  29.224  1.00  0.00     0.049 A 
ATOM     46  N   UNL A   1      40.343  30.139  31.985  1.00  0.00    -0.248 NA
ATOM     47  C   UNL A   1      38.521  31.594  31.936  1.00  0.00     0.031 C 
ATOM     48  C   UNL A   1      39.287  28.724  27.869  1.00  0.00     0.029 A 
ATOM     49  N   UNL A   1      40.689  28.456  29.588  1.00  0.00    -0.354 N 
ATOM     50  C   UNL A   1      40.301  30.867  33.167  1.00  0.00     0.074 A 
ATOM     51  C   UNL A   1      39.211  31.809  33.044  1.00  0.00     0.031 C 
ATOM     52  C   UNL A   1      40.144  27.745  27.540  1.00  0.00     0.029 A 
ATOM     53  C   UNL A   1      41.101  27.561  28.626  1.00  0.00     0.049 A 
ATOM     54  H   UNL A   1      41.142  28.558  30.456  1.00  0.00     0.167 HD
ATOM     55  C   UNL A   1      41.074  30.738  34.271  1.00  0.00     0.034 A 
ATOM     56  C   UNL A   1      42.139  26.700  28.616  1.00  0.00     0.034 A 
ATOM     57  C   UNL A   1      42.160  29.797  34.378  1.00  0.00     0.049 A 
ATOM     58  C   UNL A   1      43.040  26.637  29.826  1.00  0.00     0.074 A 
ATOM     59  C   UNL A   1      42.991  29.567  35.459  1.00  0.00     0.029 A 
ATOM     60  N   UNL A   1      42.575  28.942  33.367  1.00  0.00    -0.354 N 
ATOM     61  N   UNL A   1      42.958  27.305  30.954  1.00  0.00    -0.248 NA
ATOM     62  C   UNL A   1      44.168  25.699  29.765  1.00  0.00     0.031 C 
ATOM     63  C   UNL A   1      43.966  28.647  35.070  1.00  0.00     0.029 A 
ATOM     64  C   UNL A   1      43.678  28.215  33.786  1.00  0.00     0.049 A 
ATOM     65  H   UNL A   1      42.148  28.863  32.483  1.00  0.00     0.167 HD
ATOM     66  C   UNL A   1      44.000  26.835  31.750  1.00  0.00     0.074 A 
ATOM     67  C   UNL A   1      44.683  25.818  30.979  1.00  0.00     0.031 C 
ATOM     68  C   UNL A   1      44.355  27.205  33.006  1.00  0.00     0.034 A 
BRANCH  55  69
ATOM     69  C   UNL A   1      40.786  31.655  35.434  1.00  0.00     0.023 A 
ATOM     70  C   UNL A   1      39.625  31.510  36.215  1.00  0.00     0.031 A 
ATOM     71  C   UNL A   1      41.670  32.698  35.757  1.00  0.00     0.131 A 
ATOM     72  C   UNL A   1      39.342  32.440  37.225  1.00  0.00     0.055 A 
ATOM     73  C   UNL A   1      41.430  33.560  36.828  1.00  0.00     0.041 A 
ATOM     74  F   UNL A   1      42.778  32.906  35.030  1.00  0.00    -0.206 F 
ATOM     75  C   UNL A   1      40.252  33.443  37.560  1.00  0.00     0.022 A 
BRANCH  72  76
ATOM     76  S   UNL A   1      37.692  32.420  37.976  1.00  0.00     0.124 S 
ATOM     77  O   UNL A   1      37.933  33.119  39.236  1.00  0.00    -0.237 OA
ATOM     78  O   UNL A   1      36.887  33.136  36.992  1.00  0.00    -0.237 OA
ATOM     79  O   UNL A   1      37.394  30.996  38.111  1.00  0.00    -0.744 OA
ENDBRANCH  72  76
ENDBRANCH  55  69
BRANCH  56  80
ATOM     80  C   UNL A   1      42.407  25.838  27.425  1.00  0.00     0.023 A 
ATOM     81  C   UNL A   1      41.898  24.532  27.348  1.00  0.00     0.031 A 
ATOM     82  C   UNL A   1      43.242  26.280  26.383  1.00  0.00     0.131 A 
ATOM     83  C   UNL A   1      42.283  23.691  26.292  1.00  0.00     0.055 A 
ATOM     84  C   UNL A   1      43.558  25.465  25.294  1.00  0.00     0.041 A 
ATOM     85  F   UNL A   1      43.765  27.515  26.407  1.00  0.00    -0.206 F 
ATOM     86  C   UNL A   1      43.092  24.156  25.254  1.00  0.00     0.022 A 
BRANCH  83  87
ATOM     87  S   UNL A   1      41.828  21.937  26.372  1.00  0.00     0.124 S 
ATOM     88  O   UNL A   1      42.797  21.342  25.459  1.00  0.00    -0.237 OA
ATOM     89  O   UNL A   1      42.010  21.641  27.788  1.00  0.00    -0.237 OA
ATOM     90  O   UNL A   1      40.443  21.926  25.907  1.00  0.00    -0.744 OA
ENDBRANCH  83  87
ENDBRANCH  56  80
BRANCH  68  91
ATOM     91  C   UNL A   1      45.500  26.461  33.653  1.00  0.00     0.023 A 
ATOM     92  C   UNL A   1      45.305  25.270  34.371  1.00  0.00     0.031 A 
ATOM     93  C   UNL A   1      46.811  26.960  33.546  1.00  0.00     0.131 A 
ATOM     94  C   UNL A   1      46.391  24.655  35.011  1.00  0.00     0.055 A 
ATOM     95  C   UNL A   1      47.900  26.297  34.113  1.00  0.00     0.041 A 
ATOM     96  F   UNL A   1      47.059  28.100  32.880  1.00  0.00    -0.206 F 
ATOM     97  C   UNL A   1      47.691  25.146  34.865  1.00  0.00     0.022 A 
BRANCH  94  98
ATOM     98  S   UNL A   1      46.063  23.278  36.145  1.00  0.00     0.124 S 
ATOM     99  O   UNL A   1      47.227  22.424  35.925  1.00  0.00    -0.237 OA
ATOM    100  O   UNL A   1      45.999  23.947  37.440  1.00  0.00    -0.237 OA
ATOM    101  O   UNL A   1      44.795  22.733  35.664  1.00  0.00    -0.744 OA
ENDBRANCH  94  98
ENDBRANCH  68  91
ENDBRANCH  42  43
ENDBRANCH  34  37
ENDBRANCH  32  33
ENDBRANCH  31  32
ENDBRANCH  30  31
ENDBRANCH   1  30
TORSDOF 19
ENDMDL
MODEL 3
REMARK VINA RESULT:     -12.0      5.309      9.847
REMARK SMILES COc1ccc(C(=O)NC(=S)Nc2ccc(Br)cc2C(=O)NCCCCNC(=O)c2ccc(-c3c4nc(c(-c5cc(S(=O)(=O)[O-])ccc5F)c5ccc([nH]5)c(-c5cc(S(=O)(=O)[O-])ccc5F)c5nc(c(-c6cc(S(=O)(=O)[O-])ccc6F)c6ccc3[nH]6)C=C5)C=C4)cc2)cc1Br
REMARK SMILES IDX 23 1 22 2 20 3 21 4 19 6 13 7 14 8 15 9 18 10 16 11 17 12
REMARK SMILES IDX 12 13 10 15 11 16 9 17 7 18 8 19 6 21 3 22 4 23 94 24 5 25
REMARK SMILES IDX 93 26 95 27 2 28 1 29 24 30 25 31 26 32 27 33 28 34 29 36
REMARK SMILES IDX 30 37 31 38 92 39 32 40 91 41 33 42 34 43 35 44 85 45 36 46
REMARK SMILES IDX 90 47 84 48 86 49 37 50 89 51 83 52 82 53 38 55 70 56 50 57
REMARK SMILES IDX 69 58 51 59 54 60 68 61 87 62 52 63 53 64 67 66 88 67 55 68
REMARK SMILES IDX 39 69 40 70 48 71 41 72 47 73 49 74 46 75 42 76 43 77 44 78
REMARK SMILES IDX 45 79 71 80 72 81 80 82 73 83 79 84 81 85 78 86 74 87 75 88
REMARK SMILES IDX 76 89 77 90 56 91 57 92 65 93 58 94 64 95 66 96 63 97 59 98
REMARK SMILES IDX 60 99 61 100 62 101
REMARK H PARENT 22 5 12 14 9 20 27 35 86 54 54 65
REMARK Flexibility Score: inf
ROOT
ATOM      1  C   UNL A   1      35.964  23.043  24.752  1.00  0.00     0.116 C 
ENDROOT
BRANCH   1   2
ATOM      2  N   UNL A   1      35.495  23.238  26.085  1.00  0.00    -0.352 N 
ATOM      3  C   UNL A   1      34.280  22.764  26.507  1.00  0.00     0.253 C 
ATOM      4  O   UNL A   1      33.841  23.059  27.616  1.00  0.00    -0.269 OA
ATOM      5  H   UNL A   1      36.063  23.728  26.722  1.00  0.00     0.163 HD
BRANCH   3   6
ATOM      6  C   UNL A   1      33.437  21.939  25.595  1.00  0.00     0.064 A 
ATOM      7  C   UNL A   1      32.608  22.525  24.155  1.00  0.00     0.053 A 
ATOM      8  C   UNL A   1      32.236  21.465  22.737  1.00  0.00     0.028 A 
ATOM      9  C   UNL A   1      32.421  19.688  22.784  1.00  0.00     0.018 A 
ATOM     10  C   UNL A   1      33.649  20.192  25.783  1.00  0.00     0.031 A 
ATOM     11  C   UNL A   1      33.069  18.926  24.307  1.00  0.00     0.018 A 
ATOM     12  Br  UNL A   1      32.917  16.958  23.951  1.00  0.00    -0.051 Br
BRANCH   7  13
ATOM     13  N   UNL A   1      31.311  23.133  24.509  1.00  0.00    -0.332 N 
ATOM     14  H   UNL A   1      30.600  22.466  24.640  1.00  0.00     0.169 HD
BRANCH  13  15
ATOM     15  C   UNL A   1      30.867  24.436  24.700  1.00  0.00     0.177 C 
ATOM     16  S   UNL A   1      30.226  24.761  26.223  1.00  0.00    -0.040 S 
BRANCH  15  17
ATOM     17  N   UNL A   1      30.897  25.555  23.797  1.00  0.00    -0.299 N 
ATOM     18  C   UNL A   1      31.356  26.913  23.352  1.00  0.00     0.257 C 
ATOM     19  O   UNL A   1      30.940  27.392  22.302  1.00  0.00    -0.269 OA
ATOM     20  H   UNL A   1      30.282  25.279  23.080  1.00  0.00     0.172 HD
BRANCH  18  21
ATOM     21  C   UNL A   1      32.266  27.699  24.212  1.00  0.00     0.041 A 
ATOM     22  C   UNL A   1      33.363  29.999  26.943  1.00  0.00     0.133 A 
ATOM     23  C   UNL A   1      34.200  28.467  26.557  1.00  0.00     0.048 A 
ATOM     24  C   UNL A   1      31.925  30.473  25.939  1.00  0.00     0.060 A 
ATOM     25  C   UNL A   1      33.642  27.353  25.243  1.00  0.00     0.018 A 
ATOM     26  C   UNL A   1      31.466  29.192  24.451  1.00  0.00     0.033 A 
ATOM     27  Br  UNL A   1      31.252  32.237  26.577  1.00  0.00    -0.047 Br
BRANCH  22  28
ATOM     28  O   UNL A   1      33.789  30.735  28.007  1.00  0.00    -0.496 OA
ATOM     29  C   UNL A   1      34.862  31.580  27.588  1.00  0.00     0.278 C 
ENDBRANCH  22  28
ENDBRANCH  18  21
ENDBRANCH  15  17
ENDBRANCH  13  15
ENDBRANCH   7  13
ENDBRANCH   3   6
ENDBRANCH   1   2
BRANCH   1  30
ATOM     30  C   UNL A   1      37.341  22.467  24.553  1.00  0.00     0.023 C 
BRANCH  30  31
ATOM     31  C   UNL A   1      37.748  21.436  25.578  1.00  0.00     0.023 C 
BRANCH  31  32
ATOM     32  C   UNL A   1      39.177  21.573  26.075  1.00  0.00     0.116 C 
BRANCH  32  33
ATOM     33  N   UNL A   1      39.921  20.315  26.083  1.00  0.00    -0.352 N 
ATOM     34  C   UNL A   1      41.282  20.131  26.190  1.00  0.00     0.251 C 
ATOM     35  H   UNL A   1      39.381  19.497  26.000  1.00  0.00     0.163 HD
ATOM     36  O   UNL A   1      41.778  19.018  26.059  1.00  0.00    -0.269 OA
BRANCH  34  37
ATOM     37  C   UNL A   1      42.124  21.319  26.414  1.00  0.00     0.039 A 
ATOM     38  C   UNL A   1      42.441  22.138  25.332  1.00  0.00     0.014 A 
ATOM     39  C   UNL A   1      42.450  21.695  27.719  1.00  0.00     0.014 A 
ATOM     40  C   UNL A   1      43.009  23.388  25.574  1.00  0.00     0.010 A 
ATOM     41  C   UNL A   1      42.884  22.991  27.960  1.00  0.00     0.010 A 
ATOM     42  C   UNL A   1      43.178  23.850  26.891  1.00  0.00    -0.014 A 
BRANCH  42  43
ATOM     43  C   UNL A   1      43.682  25.219  27.169  1.00  0.00     0.031 A 
ATOM     44  C   UNL A   1      42.753  26.248  27.754  1.00  0.00     0.074 A 
ATOM     45  C   UNL A   1      44.955  25.546  26.867  1.00  0.00     0.049 A 
ATOM     46  N   UNL A   1      42.982  27.504  28.033  1.00  0.00    -0.248 NA
ATOM     47  C   UNL A   1      41.375  25.814  28.038  1.00  0.00     0.031 C 
ATOM     48  C   UNL A   1      45.942  24.646  26.265  1.00  0.00     0.029 A 
ATOM     49  N   UNL A   1      45.643  26.723  27.030  1.00  0.00    -0.354 N 
ATOM     50  C   UNL A   1      41.784  28.007  28.524  1.00  0.00     0.074 A 
ATOM     51  C   UNL A   1      40.807  26.946  28.420  1.00  0.00     0.031 C 
ATOM     52  C   UNL A   1      47.117  25.284  26.163  1.00  0.00     0.029 A 
ATOM     53  C   UNL A   1      46.957  26.659  26.623  1.00  0.00     0.049 A 
ATOM     54  H   UNL A   1      45.236  27.537  27.404  1.00  0.00     0.167 HD
ATOM     55  C   UNL A   1      41.528  29.229  29.049  1.00  0.00     0.034 A 
ATOM     56  C   UNL A   1      47.919  27.605  26.610  1.00  0.00     0.034 A 
ATOM     57  C   UNL A   1      42.511  30.278  29.142  1.00  0.00     0.049 A 
ATOM     58  C   UNL A   1      47.583  28.986  27.121  1.00  0.00     0.074 A 
ATOM     59  C   UNL A   1      42.364  31.544  29.678  1.00  0.00     0.029 A 
ATOM     60  N   UNL A   1      43.815  30.191  28.676  1.00  0.00    -0.354 N 
ATOM     61  N   UNL A   1      46.453  29.431  27.622  1.00  0.00    -0.248 NA
ATOM     62  C   UNL A   1      48.654  29.990  27.071  1.00  0.00     0.031 C 
ATOM     63  C   UNL A   1      43.545  32.253  29.450  1.00  0.00     0.029 A 
ATOM     64  C   UNL A   1      44.470  31.396  28.875  1.00  0.00     0.049 A 
ATOM     65  H   UNL A   1      44.217  29.390  28.267  1.00  0.00     0.167 HD
ATOM     66  C   UNL A   1      46.694  30.754  27.985  1.00  0.00     0.074 A 
ATOM     67  C   UNL A   1      48.078  31.027  27.660  1.00  0.00     0.031 C 
ATOM     68  C   UNL A   1      45.850  31.658  28.543  1.00  0.00     0.034 A 
BRANCH  55  69
ATOM     69  C   UNL A   1      40.126  29.497  29.536  1.00  0.00     0.023 A 
ATOM     70  C   UNL A   1      39.828  29.588  30.908  1.00  0.00     0.031 A 
ATOM     71  C   UNL A   1      39.069  29.645  28.622  1.00  0.00     0.131 A 
ATOM     72  C   UNL A   1      38.499  29.741  31.325  1.00  0.00     0.055 A 
ATOM     73  C   UNL A   1      37.762  29.896  29.043  1.00  0.00     0.041 A 
ATOM     74  F   UNL A   1      39.285  29.537  27.302  1.00  0.00    -0.206 F 
ATOM     75  C   UNL A   1      37.468  29.930  30.403  1.00  0.00     0.022 A 
BRANCH  72  76
ATOM     76  S   UNL A   1      38.117  29.518  33.084  1.00  0.00     0.124 S 
ATOM     77  O   UNL A   1      37.328  28.289  33.061  1.00  0.00    -0.237 OA
ATOM     78  O   UNL A   1      39.442  29.415  33.684  1.00  0.00    -0.237 OA
ATOM     79  O   UNL A   1      37.366  30.723  33.427  1.00  0.00    -0.744 OA
ENDBRANCH  72  76
ENDBRANCH  55  69
BRANCH  56  80
ATOM     80  C   UNL A   1      49.283  27.303  26.083  1.00  0.00     0.023 A 
ATOM     81  C   UNL A   1      49.668  27.710  24.796  1.00  0.00     0.031 A 
ATOM     82  C   UNL A   1      50.195  26.534  26.828  1.00  0.00     0.131 A 
ATOM     83  C   UNL A   1      50.898  27.289  24.267  1.00  0.00     0.055 A 
ATOM     84  C   UNL A   1      51.451  26.184  26.326  1.00  0.00     0.041 A 
ATOM     85  F   UNL A   1      49.879  26.108  28.061  1.00  0.00    -0.206 F 
ATOM     86  C   UNL A   1      51.801  26.547  25.031  1.00  0.00     0.022 A 
BRANCH  83  87
ATOM     87  S   UNL A   1      51.239  27.604  22.513  1.00  0.00     0.124 S 
ATOM     88  O   UNL A   1      50.933  29.026  22.407  1.00  0.00    -0.237 OA
ATOM     89  O   UNL A   1      52.647  27.238  22.407  1.00  0.00    -0.237 OA
ATOM     90  O   UNL A   1      50.311  26.712  21.822  1.00  0.00    -0.744 OA
ENDBRANCH  83  87
ENDBRANCH  56  80
BRANCH  68  91
ATOM     91  C   UNL A   1      46.418  33.013  28.896  1.00  0.00     0.023 A 
ATOM     92  C   UNL A   1      46.365  34.099  28.006  1.00  0.00     0.031 A 
ATOM     93  C   UNL A   1      47.025  33.216  30.149  1.00  0.00     0.131 A 
ATOM     94  C   UNL A   1      46.969  35.316  28.355  1.00  0.00     0.055 A 
ATOM     95  C   UNL A   1      47.547  34.454  30.523  1.00  0.00     0.041 A 
ATOM     96  F   UNL A   1      47.113  32.213  31.038  1.00  0.00    -0.206 F 
ATOM     97  C   UNL A   1      47.536  35.509  29.617  1.00  0.00     0.022 A 
BRANCH  94  98
ATOM     98  S   UNL A   1      47.117  36.605  27.087  1.00  0.00     0.124 S 
ATOM     99  O   UNL A   1      47.601  37.740  27.867  1.00  0.00    -0.237 OA
ATOM    100  O   UNL A   1      48.074  36.018  26.155  1.00  0.00    -0.237 OA
ATOM    101  O   UNL A   1      45.755  36.740  26.575  1.00  0.00    -0.744 OA
ENDBRANCH  94  98
ENDBRANCH  68  91
ENDBRANCH  42  43
ENDBRANCH  34  37
ENDBRANCH  32  33
ENDBRANCH  31  32
ENDBRANCH  30  31
ENDBRANCH   1  30
TORSDOF 19
ENDMDL
