MODEL 1
REMARK VINA RESULT:     -12.0      0.000      0.000
REMARK SMILES CC[C@@](C)(NC(=O)c1cc(C)c(Br)s1)C(=O)NCCCCNC(=O)c1ccc(-c2c3nc(c(-c4cc(S(=O)(=O)[O-])ccc4F)c4ccc([nH]4)c(-c4cc(S(=O)(=O)[O-])ccc4F)c4nc(c(-c5cc(S(=O)(=O)[O-])ccc5F)c5ccc2[nH]5)C=C4)C=C3)cc1
REMARK SMILES IDX 20 1 19 2 18 3 17 4 15 5 16 6 3 8 4 9 2 10 1 11 5 12 6 13
REMARK SMILES IDX 7 15 8 16 9 17 14 18 10 19 12 20 11 21 13 22 21 23 22 24
REMARK SMILES IDX 23 25 24 27 25 28 26 29 87 30 27 31 86 32 28 33 29 34 30 35
REMARK SMILES IDX 80 36 31 37 85 38 79 39 81 40 32 41 84 42 78 43 77 44 33 46
REMARK SMILES IDX 65 47 45 48 64 49 46 50 49 51 63 52 82 53 47 54 48 55 62 57
REMARK SMILES IDX 83 58 50 59 34 60 35 61 43 62 36 63 42 64 44 65 41 66 37 67
REMARK SMILES IDX 38 68 39 69 40 70 66 71 67 72 75 73 68 74 74 75 76 76 73 77
REMARK SMILES IDX 69 78 70 79 71 80 72 81 51 82 52 83 60 84 53 85 59 86 61 87
REMARK SMILES IDX 58 88 54 89 55 90 56 91 57 92
REMARK H PARENT 17 7 5 14 22 26 81 45 49 56
REMARK Flexibility Score: inf
ROOT
ATOM      1  C   UNL A   1      34.004  29.545  27.013  1.00  0.00     0.023 C 
ENDROOT
BRANCH   1   2
ATOM      2  C   UNL A   1      33.155  28.286  26.775  1.00  0.00     0.023 C 
BRANCH   2   3
ATOM      3  C   UNL A   1      31.833  28.306  25.974  1.00  0.00     0.116 C 
BRANCH   3   4
ATOM      4  N   UNL A   1      31.159  27.062  25.608  1.00  0.00    -0.354 N 
ATOM      5  C   UNL A   1      31.178  26.232  24.507  1.00  0.00     0.245 C 
ATOM      6  O   UNL A   1      30.546  25.177  24.608  1.00  0.00    -0.272 OA
ATOM      7  H   UNL A   1      30.549  26.742  26.312  1.00  0.00     0.163 HD
BRANCH   5   8
ATOM      8  C   UNL A   1      31.996  26.554  23.231  1.00  0.00     0.116 C 
ATOM      9  C   UNL A   1      31.191  27.672  22.519  1.00  0.00     0.045 C 
BRANCH   8  10
ATOM     10  C   UNL A   1      33.441  27.105  23.447  1.00  0.00     0.035 C 
ATOM     11  C   UNL A   1      33.776  28.504  22.944  1.00  0.00     0.007 C 
ENDBRANCH   8  10
BRANCH   8  12
ATOM     12  N   UNL A   1      32.129  25.369  22.345  1.00  0.00    -0.337 N 
ATOM     13  C   UNL A   1      33.090  24.365  22.304  1.00  0.00     0.262 C 
ATOM     14  H   UNL A   1      31.414  25.278  21.674  1.00  0.00     0.164 HD
ATOM     15  O   UNL A   1      33.279  23.898  21.175  1.00  0.00    -0.268 OA
BRANCH  13  16
ATOM     16  C   UNL A   1      33.766  23.831  23.492  1.00  0.00     0.093 A 
ATOM     17  C   UNL A   1      35.008  24.076  24.035  1.00  0.00     0.030 A 
ATOM     18  S   UNL A   1      32.887  22.845  24.607  1.00  0.00    -0.123 S 
ATOM     19  C   UNL A   1      35.285  23.498  25.308  1.00  0.00    -0.025 A 
ATOM     20  C   UNL A   1      34.169  22.821  25.731  1.00  0.00     0.074 A 
ATOM     21  C   UNL A   1      36.591  23.715  26.006  1.00  0.00     0.046 C 
ATOM     22  Br  UNL A   1      34.028  21.986  27.406  1.00  0.00    -0.039 Br
ENDBRANCH  13  16
ENDBRANCH   8  12
ENDBRANCH   5   8
ENDBRANCH   3   4
ENDBRANCH   2   3
ENDBRANCH   1   2
BRANCH   1  23
ATOM     23  C   UNL A   1      35.394  29.325  27.563  1.00  0.00     0.116 C 
BRANCH  23  24
ATOM     24  N   UNL A   1      35.524  29.710  28.972  1.00  0.00    -0.352 N 
ATOM     25  C   UNL A   1      36.527  29.334  29.854  1.00  0.00     0.251 C 
ATOM     26  H   UNL A   1      34.824  30.302  29.331  1.00  0.00     0.163 HD
ATOM     27  O   UNL A   1      36.328  29.329  31.070  1.00  0.00    -0.269 OA
BRANCH  25  28
ATOM     28  C   UNL A   1      37.832  28.951  29.295  1.00  0.00     0.039 A 
ATOM     29  C   UNL A   1      38.422  29.565  28.187  1.00  0.00     0.014 A 
ATOM     30  C   UNL A   1      38.504  27.953  29.985  1.00  0.00     0.014 A 
ATOM     31  C   UNL A   1      39.717  29.183  27.834  1.00  0.00     0.010 A 
ATOM     32  C   UNL A   1      39.848  27.824  29.837  1.00  0.00     0.010 A 
ATOM     33  C   UNL A   1      40.419  28.308  28.678  1.00  0.00    -0.014 A 
BRANCH  33  34
ATOM     34  C   UNL A   1      41.784  27.874  28.444  1.00  0.00     0.031 A 
ATOM     35  C   UNL A   1      41.901  26.641  27.643  1.00  0.00     0.074 A 
ATOM     36  C   UNL A   1      42.846  28.665  28.729  1.00  0.00     0.049 A 
ATOM     37  N   UNL A   1      42.192  25.471  28.094  1.00  0.00    -0.248 NA
ATOM     38  C   UNL A   1      41.468  26.646  26.238  1.00  0.00     0.031 C 
ATOM     39  C   UNL A   1      42.862  30.028  29.282  1.00  0.00     0.029 A 
ATOM     40  N   UNL A   1      44.159  28.450  28.464  1.00  0.00    -0.354 N 
ATOM     41  C   UNL A   1      42.256  24.643  26.984  1.00  0.00     0.074 A 
ATOM     42  C   UNL A   1      41.572  25.349  25.932  1.00  0.00     0.031 C 
ATOM     43  C   UNL A   1      44.073  30.590  29.079  1.00  0.00     0.029 A 
ATOM     44  C   UNL A   1      44.967  29.582  28.538  1.00  0.00     0.049 A 
ATOM     45  H   UNL A   1      44.513  27.561  28.233  1.00  0.00     0.167 HD
ATOM     46  C   UNL A   1      43.097  23.573  26.971  1.00  0.00     0.034 A 
ATOM     47  C   UNL A   1      46.273  29.685  28.168  1.00  0.00     0.034 A 
ATOM     48  C   UNL A   1      43.657  23.345  28.289  1.00  0.00     0.049 A 
ATOM     49  C   UNL A   1      46.826  28.305  28.241  1.00  0.00     0.074 A 
ATOM     50  C   UNL A   1      43.114  23.092  29.535  1.00  0.00     0.029 A 
ATOM     51  N   UNL A   1      44.936  23.802  28.527  1.00  0.00    -0.354 N 
ATOM     52  N   UNL A   1      46.917  27.644  29.365  1.00  0.00    -0.248 NA
ATOM     53  C   UNL A   1      46.749  27.467  27.050  1.00  0.00     0.031 C 
ATOM     54  C   UNL A   1      43.881  23.894  30.432  1.00  0.00     0.029 A 
ATOM     55  C   UNL A   1      44.915  24.499  29.712  1.00  0.00     0.049 A 
ATOM     56  H   UNL A   1      45.723  23.655  27.953  1.00  0.00     0.167 HD
ATOM     57  C   UNL A   1      46.439  26.372  29.078  1.00  0.00     0.074 A 
ATOM     58  C   UNL A   1      46.458  26.289  27.616  1.00  0.00     0.031 C 
ATOM     59  C   UNL A   1      45.785  25.624  30.019  1.00  0.00     0.034 A 
BRANCH  46  60
ATOM     60  C   UNL A   1      43.713  22.954  25.744  1.00  0.00     0.023 A 
ATOM     61  C   UNL A   1      43.710  21.548  25.672  1.00  0.00     0.031 A 
ATOM     62  C   UNL A   1      44.533  23.621  24.809  1.00  0.00     0.131 A 
ATOM     63  C   UNL A   1      44.563  20.871  24.789  1.00  0.00     0.055 A 
ATOM     64  C   UNL A   1      45.327  22.943  23.881  1.00  0.00     0.041 A 
ATOM     65  F   UNL A   1      44.695  24.949  24.805  1.00  0.00    -0.206 F 
ATOM     66  C   UNL A   1      45.372  21.559  23.890  1.00  0.00     0.022 A 
BRANCH  63  67
ATOM     67  S   UNL A   1      44.731  19.077  24.974  1.00  0.00     0.124 S 
ATOM     68  O   UNL A   1      46.051  18.966  25.584  1.00  0.00    -0.237 OA
ATOM     69  O   UNL A   1      43.594  18.757  25.831  1.00  0.00    -0.237 OA
ATOM     70  O   UNL A   1      44.636  18.587  23.601  1.00  0.00    -0.744 OA
ENDBRANCH  63  67
ENDBRANCH  46  60
BRANCH  47  71
ATOM     71  C   UNL A   1      46.921  30.838  27.470  1.00  0.00     0.023 A 
ATOM     72  C   UNL A   1      46.206  31.920  26.907  1.00  0.00     0.031 A 
ATOM     73  C   UNL A   1      48.325  30.993  27.551  1.00  0.00     0.131 A 
ATOM     74  C   UNL A   1      46.895  33.078  26.457  1.00  0.00     0.055 A 
ATOM     75  C   UNL A   1      48.997  32.135  27.106  1.00  0.00     0.041 A 
ATOM     76  F   UNL A   1      49.095  30.068  28.147  1.00  0.00    -0.206 F 
ATOM     77  C   UNL A   1      48.283  33.188  26.565  1.00  0.00     0.022 A 
BRANCH  74  78
ATOM     78  S   UNL A   1      45.983  34.517  25.796  1.00  0.00     0.124 S 
ATOM     79  O   UNL A   1      45.238  33.934  24.688  1.00  0.00    -0.237 OA
ATOM     80  O   UNL A   1      45.202  34.952  26.949  1.00  0.00    -0.237 OA
ATOM     81  O   UNL A   1      47.046  35.443  25.399  1.00  0.00    -0.744 OA
ENDBRANCH  74  78
ENDBRANCH  47  71
BRANCH  59  82
ATOM     82  C   UNL A   1      45.785  26.111  31.461  1.00  0.00     0.023 A 
ATOM     83  C   UNL A   1      44.686  26.728  32.106  1.00  0.00     0.031 A 
ATOM     84  C   UNL A   1      46.907  25.807  32.250  1.00  0.00     0.131 A 
ATOM     85  C   UNL A   1      44.748  27.029  33.483  1.00  0.00     0.055 A 
ATOM     86  C   UNL A   1      46.955  26.082  33.617  1.00  0.00     0.041 A 
ATOM     87  F   UNL A   1      47.974  25.192  31.709  1.00  0.00    -0.206 F 
ATOM     88  C   UNL A   1      45.877  26.702  34.238  1.00  0.00     0.022 A 
BRANCH  85  89
ATOM     89  S   UNL A   1      43.360  27.874  34.312  1.00  0.00     0.124 S 
ATOM     90  O   UNL A   1      43.272  27.200  35.601  1.00  0.00    -0.237 OA
ATOM     91  O   UNL A   1      43.808  29.264  34.348  1.00  0.00    -0.237 OA
ATOM     92  O   UNL A   1      42.228  27.626  33.417  1.00  0.00    -0.744 OA
ENDBRANCH  85  89
ENDBRANCH  59  82
ENDBRANCH  33  34
ENDBRANCH  25  28
ENDBRANCH  23  24
ENDBRANCH   1  23
TORSDOF 17
ENDMDL
MODEL 2
REMARK VINA RESULT:     -11.9      1.593      2.023
REMARK SMILES CC[C@@](C)(NC(=O)c1cc(C)c(Br)s1)C(=O)NCCCCNC(=O)c1ccc(-c2c3nc(c(-c4cc(S(=O)(=O)[O-])ccc4F)c4ccc([nH]4)c(-c4cc(S(=O)(=O)[O-])ccc4F)c4nc(c(-c5cc(S(=O)(=O)[O-])ccc5F)c5ccc2[nH]5)C=C4)C=C3)cc1
REMARK SMILES IDX 20 1 19 2 18 3 17 4 15 5 16 6 3 8 4 9 2 10 1 11 5 12 6 13
REMARK SMILES IDX 7 15 8 16 9 17 14 18 10 19 12 20 11 21 13 22 21 23 22 24
REMARK SMILES IDX 23 25 24 27 25 28 26 29 87 30 27 31 86 32 28 33 29 34 30 35
REMARK SMILES IDX 80 36 31 37 85 38 79 39 81 40 32 41 84 42 78 43 77 44 33 46
REMARK SMILES IDX 65 47 45 48 64 49 46 50 49 51 63 52 82 53 47 54 48 55 62 57
REMARK SMILES IDX 83 58 50 59 34 60 35 61 43 62 36 63 42 64 44 65 41 66 37 67
REMARK SMILES IDX 38 68 39 69 40 70 66 71 67 72 75 73 68 74 74 75 76 76 73 77
REMARK SMILES IDX 69 78 70 79 71 80 72 81 51 82 52 83 60 84 53 85 59 86 61 87
REMARK SMILES IDX 58 88 54 89 55 90 56 91 57 92
REMARK H PARENT 17 7 5 14 22 26 81 45 49 56
REMARK Flexibility Score: inf
ROOT
ATOM      1  C   UNL A   1      34.002  28.790  27.279  1.00  0.00     0.023 C 
ENDROOT
BRANCH   1   2
ATOM      2  C   UNL A   1      32.960  29.813  26.798  1.00  0.00     0.023 C 
BRANCH   2   3
ATOM      3  C   UNL A   1      32.429  29.850  25.347  1.00  0.00     0.116 C 
BRANCH   3   4
ATOM      4  N   UNL A   1      33.270  29.428  24.229  1.00  0.00    -0.354 N 
ATOM      5  C   UNL A   1      33.116  28.561  23.168  1.00  0.00     0.245 C 
ATOM      6  O   UNL A   1      34.027  28.551  22.336  1.00  0.00    -0.272 OA
ATOM      7  H   UNL A   1      34.152  29.864  24.235  1.00  0.00     0.163 HD
BRANCH   5   8
ATOM      8  C   UNL A   1      31.848  27.691  22.977  1.00  0.00     0.116 C 
ATOM      9  C   UNL A   1      31.789  26.796  24.241  1.00  0.00     0.045 C 
BRANCH   8  10
ATOM     10  C   UNL A   1      30.485  28.449  22.896  1.00  0.00     0.035 C 
ATOM     11  C   UNL A   1      30.378  29.669  21.988  1.00  0.00     0.007 C 
ENDBRANCH   8  10
BRANCH   8  12
ATOM     12  N   UNL A   1      31.933  26.852  21.753  1.00  0.00    -0.337 N 
ATOM     13  C   UNL A   1      32.677  25.709  21.482  1.00  0.00     0.262 C 
ATOM     14  H   UNL A   1      31.365  27.157  21.008  1.00  0.00     0.164 HD
ATOM     15  O   UNL A   1      33.000  25.592  20.294  1.00  0.00    -0.268 OA
BRANCH  13  16
ATOM     16  C   UNL A   1      32.985  24.678  22.479  1.00  0.00     0.093 A 
ATOM     17  C   UNL A   1      32.445  23.432  22.715  1.00  0.00     0.030 A 
ATOM     18  S   UNL A   1      34.379  24.848  23.486  1.00  0.00    -0.123 S 
ATOM     19  C   UNL A   1      33.103  22.612  23.677  1.00  0.00    -0.025 A 
ATOM     20  C   UNL A   1      34.203  23.286  24.144  1.00  0.00     0.074 A 
ATOM     21  C   UNL A   1      32.621  21.232  23.999  1.00  0.00     0.046 C 
ATOM     22  Br  UNL A   1      35.439  22.553  25.352  1.00  0.00    -0.039 Br
ENDBRANCH  13  16
ENDBRANCH   8  12
ENDBRANCH   5   8
ENDBRANCH   3   4
ENDBRANCH   2   3
ENDBRANCH   1   2
BRANCH   1  23
ATOM     23  C   UNL A   1      35.379  29.327  27.590  1.00  0.00     0.116 C 
BRANCH  23  24
ATOM     24  N   UNL A   1      35.526  29.765  28.983  1.00  0.00    -0.352 N 
ATOM     25  C   UNL A   1      36.540  29.422  29.865  1.00  0.00     0.251 C 
ATOM     26  H   UNL A   1      34.830  30.369  29.328  1.00  0.00     0.163 HD
ATOM     27  O   UNL A   1      36.355  29.462  31.083  1.00  0.00    -0.269 OA
BRANCH  25  28
ATOM     28  C   UNL A   1      37.839  29.019  29.305  1.00  0.00     0.039 A 
ATOM     29  C   UNL A   1      38.419  29.599  28.174  1.00  0.00     0.014 A 
ATOM     30  C   UNL A   1      38.515  28.040  30.018  1.00  0.00     0.014 A 
ATOM     31  C   UNL A   1      39.709  29.204  27.820  1.00  0.00     0.010 A 
ATOM     32  C   UNL A   1      39.857  27.903  29.860  1.00  0.00     0.010 A 
ATOM     33  C   UNL A   1      40.418  28.351  28.682  1.00  0.00    -0.014 A 
BRANCH  33  34
ATOM     34  C   UNL A   1      41.780  27.907  28.448  1.00  0.00     0.031 A 
ATOM     35  C   UNL A   1      41.886  26.676  27.642  1.00  0.00     0.074 A 
ATOM     36  C   UNL A   1      42.847  28.688  28.736  1.00  0.00     0.049 A 
ATOM     37  N   UNL A   1      42.167  25.502  28.089  1.00  0.00    -0.248 NA
ATOM     38  C   UNL A   1      41.454  26.690  26.237  1.00  0.00     0.031 C 
ATOM     39  C   UNL A   1      42.874  30.049  29.294  1.00  0.00     0.029 A 
ATOM     40  N   UNL A   1      44.159  28.463  28.471  1.00  0.00    -0.354 N 
ATOM     41  C   UNL A   1      42.226  24.678  26.976  1.00  0.00     0.074 A 
ATOM     42  C   UNL A   1      41.548  25.393  25.927  1.00  0.00     0.031 C 
ATOM     43  C   UNL A   1      44.090  30.602  29.093  1.00  0.00     0.029 A 
ATOM     44  C   UNL A   1      44.976  29.588  28.550  1.00  0.00     0.049 A 
ATOM     45  H   UNL A   1      44.506  27.572  28.238  1.00  0.00     0.167 HD
ATOM     46  C   UNL A   1      43.058  23.600  26.960  1.00  0.00     0.034 A 
ATOM     47  C   UNL A   1      46.284  29.682  28.181  1.00  0.00     0.034 A 
ATOM     48  C   UNL A   1      43.615  23.363  28.278  1.00  0.00     0.049 A 
ATOM     49  C   UNL A   1      46.825  28.297  28.249  1.00  0.00     0.074 A 
ATOM     50  C   UNL A   1      43.069  23.111  29.522  1.00  0.00     0.029 A 
ATOM     51  N   UNL A   1      44.898  23.809  28.519  1.00  0.00    -0.354 N 
ATOM     52  N   UNL A   1      46.909  27.631  29.372  1.00  0.00    -0.248 NA
ATOM     53  C   UNL A   1      46.742  27.464  27.055  1.00  0.00     0.031 C 
ATOM     54  C   UNL A   1      43.842  23.903  30.423  1.00  0.00     0.029 A 
ATOM     55  C   UNL A   1      44.881  24.502  29.706  1.00  0.00     0.049 A 
ATOM     56  H   UNL A   1      45.684  23.657  27.945  1.00  0.00     0.167 HD
ATOM     57  C   UNL A   1      46.421  26.364  29.080  1.00  0.00     0.074 A 
ATOM     58  C   UNL A   1      46.441  26.286  27.617  1.00  0.00     0.031 C 
ATOM     59  C   UNL A   1      45.761  25.618  30.017  1.00  0.00     0.034 A 
BRANCH  46  60
ATOM     60  C   UNL A   1      43.670  22.981  25.731  1.00  0.00     0.023 A 
ATOM     61  C   UNL A   1      43.675  21.575  25.665  1.00  0.00     0.031 A 
ATOM     62  C   UNL A   1      44.478  23.650  24.788  1.00  0.00     0.131 A 
ATOM     63  C   UNL A   1      44.527  20.899  24.779  1.00  0.00     0.055 A 
ATOM     64  C   UNL A   1      45.270  22.973  23.858  1.00  0.00     0.041 A 
ATOM     65  F   UNL A   1      44.631  24.979  24.778  1.00  0.00    -0.206 F 
ATOM     66  C   UNL A   1      45.325  21.589  23.872  1.00  0.00     0.022 A 
BRANCH  63  67
ATOM     67  S   UNL A   1      44.709  19.108  24.970  1.00  0.00     0.124 S 
ATOM     68  O   UNL A   1      44.727  18.664  23.581  1.00  0.00    -0.237 OA
ATOM     69  O   UNL A   1      45.971  19.010  25.696  1.00  0.00    -0.237 OA
ATOM     70  O   UNL A   1      43.520  18.728  25.730  1.00  0.00    -0.744 OA
ENDBRANCH  63  67
ENDBRANCH  46  60
BRANCH  47  71
ATOM     71  C   UNL A   1      46.941  30.831  27.487  1.00  0.00     0.023 A 
ATOM     72  C   UNL A   1      46.241  31.950  26.980  1.00  0.00     0.031 A 
ATOM     73  C   UNL A   1      48.352  30.940  27.517  1.00  0.00     0.131 A 
ATOM     74  C   UNL A   1      46.949  33.098  26.533  1.00  0.00     0.055 A 
ATOM     75  C   UNL A   1      49.043  32.072  27.075  1.00  0.00     0.041 A 
ATOM     76  F   UNL A   1      49.113  29.976  28.059  1.00  0.00    -0.206 F 
ATOM     77  C   UNL A   1      48.343  33.161  26.589  1.00  0.00     0.022 A 
BRANCH  74  78
ATOM     78  S   UNL A   1      46.060  34.582  25.944  1.00  0.00     0.124 S 
ATOM     79  O   UNL A   1      45.630  34.180  24.611  1.00  0.00    -0.237 OA
ATOM     80  O   UNL A   1      45.012  34.739  26.946  1.00  0.00    -0.237 OA
ATOM     81  O   UNL A   1      47.085  35.627  25.968  1.00  0.00    -0.744 OA
ENDBRANCH  74  78
ENDBRANCH  47  71
BRANCH  59  82
ATOM     82  C   UNL A   1      45.763  26.100  31.461  1.00  0.00     0.023 A 
ATOM     83  C   UNL A   1      46.851  25.963  32.357  1.00  0.00     0.031 A 
ATOM     84  C   UNL A   1      44.659  26.852  31.898  1.00  0.00     0.131 A 
ATOM     85  C   UNL A   1      46.796  26.555  33.636  1.00  0.00     0.055 A 
ATOM     86  C   UNL A   1      44.620  27.458  33.154  1.00  0.00     0.041 A 
ATOM     87  F   UNL A   1      43.606  27.048  31.086  1.00  0.00    -0.206 F 
ATOM     88  C   UNL A   1      45.686  27.305  34.032  1.00  0.00     0.022 A 
BRANCH  85  89
ATOM     89  S   UNL A   1      48.168  26.339  34.820  1.00  0.00     0.124 S 
ATOM     90  O   UNL A   1      47.550  25.629  35.933  1.00  0.00    -0.237 OA
ATOM     91  O   UNL A   1      49.144  25.581  34.042  1.00  0.00    -0.237 OA
ATOM     92  O   UNL A   1      48.572  27.713  35.124  1.00  0.00    -0.744 OA
ENDBRANCH  85  89
ENDBRANCH  59  82
ENDBRANCH  33  34
ENDBRANCH  25  28
ENDBRANCH  23  24
ENDBRANCH   1  23
TORSDOF 17
ENDMDL
MODEL 3
REMARK VINA RESULT:     -11.8      3.338      8.475
REMARK SMILES CC[C@@](C)(NC(=O)c1cc(C)c(Br)s1)C(=O)NCCCCNC(=O)c1ccc(-c2c3nc(c(-c4cc(S(=O)(=O)[O-])ccc4F)c4ccc([nH]4)c(-c4cc(S(=O)(=O)[O-])ccc4F)c4nc(c(-c5cc(S(=O)(=O)[O-])ccc5F)c5ccc2[nH]5)C=C4)C=C3)cc1
REMARK SMILES IDX 20 1 19 2 18 3 17 4 15 5 16 6 3 8 4 9 2 10 1 11 5 12 6 13
REMARK SMILES IDX 7 15 8 16 9 17 14 18 10 19 12 20 11 21 13 22 21 23 22 24
REMARK SMILES IDX 23 25 24 27 25 28 26 29 87 30 27 31 86 32 28 33 29 34 30 35
REMARK SMILES IDX 80 36 31 37 85 38 79 39 81 40 32 41 84 42 78 43 77 44 33 46
REMARK SMILES IDX 65 47 45 48 64 49 46 50 49 51 63 52 82 53 47 54 48 55 62 57
REMARK SMILES IDX 83 58 50 59 34 60 35 61 43 62 36 63 42 64 44 65 41 66 37 67
REMARK SMILES IDX 38 68 39 69 40 70 66 71 67 72 75 73 68 74 74 75 76 76 73 77
REMARK SMILES IDX 69 78 70 79 71 80 72 81 51 82 52 83 60 84 53 85 59 86 61 87
REMARK SMILES IDX 58 88 54 89 55 90 56 91 57 92
REMARK H PARENT 17 7 5 14 22 26 81 45 49 56
REMARK Flexibility Score: inf
ROOT
ATOM      1  C   UNL A   1      37.665  19.928  24.650  1.00  0.00     0.023 C 
ENDROOT
BRANCH   1   2
ATOM      2  C   UNL A   1      36.233  20.265  25.095  1.00  0.00     0.023 C 
BRANCH   2   3
ATOM      3  C   UNL A   1      35.823  21.663  25.612  1.00  0.00     0.116 C 
BRANCH   3   4
ATOM      4  N   UNL A   1      35.568  22.762  24.682  1.00  0.00    -0.354 N 
ATOM      5  C   UNL A   1      34.459  23.233  24.014  1.00  0.00     0.245 C 
ATOM      6  O   UNL A   1      34.606  24.286  23.388  1.00  0.00    -0.272 OA
ATOM      7  H   UNL A   1      36.378  23.287  24.489  1.00  0.00     0.163 HD
BRANCH   5   8
ATOM      8  C   UNL A   1      33.078  22.533  24.088  1.00  0.00     0.116 C 
ATOM      9  C   UNL A   1      32.186  23.315  23.088  1.00  0.00     0.045 C 
BRANCH   8  10
ATOM     10  C   UNL A   1      33.030  21.033  23.658  1.00  0.00     0.035 C 
ATOM     11  C   UNL A   1      32.033  20.608  22.587  1.00  0.00     0.007 C 
ENDBRANCH   8  10
BRANCH   8  12
ATOM     12  N   UNL A   1      32.498  22.595  25.454  1.00  0.00    -0.337 N 
ATOM     13  C   UNL A   1      32.508  23.612  26.403  1.00  0.00     0.262 C 
ATOM     14  H   UNL A   1      32.027  21.778  25.736  1.00  0.00     0.164 HD
ATOM     15  O   UNL A   1      32.495  23.207  27.571  1.00  0.00    -0.268 OA
BRANCH  13  16
ATOM     16  C   UNL A   1      32.446  25.040  26.072  1.00  0.00     0.093 A 
ATOM     17  C   UNL A   1      33.406  26.028  26.069  1.00  0.00     0.030 A 
ATOM     18  S   UNL A   1      31.013  25.694  25.361  1.00  0.00    -0.123 S 
ATOM     19  C   UNL A   1      33.034  27.292  25.526  1.00  0.00    -0.025 A 
ATOM     20  C   UNL A   1      31.740  27.209  25.077  1.00  0.00     0.074 A 
ATOM     21  C   UNL A   1      33.999  28.433  25.450  1.00  0.00     0.046 C 
ATOM     22  Br  UNL A   1      30.855  28.603  24.185  1.00  0.00    -0.039 Br
ENDBRANCH  13  16
ENDBRANCH   8  12
ENDBRANCH   5   8
ENDBRANCH   3   4
ENDBRANCH   2   3
ENDBRANCH   1   2
BRANCH   1  23
ATOM     23  C   UNL A   1      38.780  20.398  25.554  1.00  0.00     0.116 C 
BRANCH  23  24
ATOM     24  N   UNL A   1      39.768  19.352  25.843  1.00  0.00    -0.352 N 
ATOM     25  C   UNL A   1      41.127  19.523  26.065  1.00  0.00     0.251 C 
ATOM     26  H   UNL A   1      39.429  18.429  25.884  1.00  0.00     0.163 HD
ATOM     27  O   UNL A   1      41.919  18.602  25.860  1.00  0.00    -0.269 OA
BRANCH  25  28
ATOM     28  C   UNL A   1      41.588  20.829  26.562  1.00  0.00     0.039 A 
ATOM     29  C   UNL A   1      42.181  21.808  25.760  1.00  0.00     0.014 A 
ATOM     30  C   UNL A   1      41.340  21.075  27.904  1.00  0.00     0.014 A 
ATOM     31  C   UNL A   1      42.464  23.047  26.335  1.00  0.00     0.010 A 
ATOM     32  C   UNL A   1      41.320  22.355  28.357  1.00  0.00     0.010 A 
ATOM     33  C   UNL A   1      42.021  23.304  27.643  1.00  0.00    -0.014 A 
BRANCH  33  34
ATOM     34  C   UNL A   1      42.212  24.567  28.331  1.00  0.00     0.031 A 
ATOM     35  C   UNL A   1      41.119  25.538  28.134  1.00  0.00     0.074 A 
ATOM     36  C   UNL A   1      43.183  24.737  29.260  1.00  0.00     0.049 A 
ATOM     37  N   UNL A   1      41.159  26.578  27.376  1.00  0.00    -0.248 NA
ATOM     38  C   UNL A   1      39.781  25.241  28.666  1.00  0.00     0.031 C 
ATOM     39  C   UNL A   1      44.174  23.766  29.750  1.00  0.00     0.029 A 
ATOM     40  N   UNL A   1      43.412  25.807  30.062  1.00  0.00    -0.354 N 
ATOM     41  C   UNL A   1      39.946  27.224  27.556  1.00  0.00     0.074 A 
ATOM     42  C   UNL A   1      39.069  26.247  28.147  1.00  0.00     0.031 C 
ATOM     43  C   UNL A   1      44.713  24.208  30.907  1.00  0.00     0.029 A 
ATOM     44  C   UNL A   1      44.237  25.556  31.155  1.00  0.00     0.049 A 
ATOM     45  H   UNL A   1      43.021  26.693  29.886  1.00  0.00     0.167 HD
ATOM     46  C   UNL A   1      39.862  28.578  27.441  1.00  0.00     0.034 A 
ATOM     47  C   UNL A   1      44.499  26.394  32.196  1.00  0.00     0.034 A 
ATOM     48  C   UNL A   1      41.093  29.123  26.903  1.00  0.00     0.049 A 
ATOM     49  C   UNL A   1      44.251  27.770  31.683  1.00  0.00     0.074 A 
ATOM     50  C   UNL A   1      41.809  28.919  25.739  1.00  0.00     0.029 A 
ATOM     51  N   UNL A   1      41.986  29.685  27.793  1.00  0.00    -0.354 N 
ATOM     52  N   UNL A   1      44.965  28.300  30.725  1.00  0.00    -0.248 NA
ATOM     53  C   UNL A   1      42.909  28.324  31.818  1.00  0.00     0.031 C 
ATOM     54  C   UNL A   1      43.173  28.873  26.156  1.00  0.00     0.029 A 
ATOM     55  C   UNL A   1      43.228  29.162  27.523  1.00  0.00     0.049 A 
ATOM     56  H   UNL A   1      41.772  30.341  28.496  1.00  0.00     0.167 HD
ATOM     57  C   UNL A   1      44.042  28.883  29.865  1.00  0.00     0.074 A 
ATOM     58  C   UNL A   1      42.806  28.964  30.647  1.00  0.00     0.031 C 
ATOM     59  C   UNL A   1      44.269  28.959  28.518  1.00  0.00     0.034 A 
BRANCH  46  60
ATOM     60  C   UNL A   1      38.856  29.458  28.134  1.00  0.00     0.023 A 
ATOM     61  C   UNL A   1      39.012  29.629  29.522  1.00  0.00     0.031 A 
ATOM     62  C   UNL A   1      37.628  29.891  27.589  1.00  0.00     0.131 A 
ATOM     63  C   UNL A   1      37.954  30.101  30.313  1.00  0.00     0.055 A 
ATOM     64  C   UNL A   1      36.604  30.430  28.372  1.00  0.00     0.041 A 
ATOM     65  F   UNL A   1      37.309  29.725  26.301  1.00  0.00    -0.206 F 
ATOM     66  C   UNL A   1      36.749  30.506  29.747  1.00  0.00     0.022 A 
BRANCH  63  67
ATOM     67  S   UNL A   1      38.122  29.996  32.113  1.00  0.00     0.124 S 
ATOM     68  O   UNL A   1      39.505  29.555  32.255  1.00  0.00    -0.237 OA
ATOM     69  O   UNL A   1      37.837  31.368  32.521  1.00  0.00    -0.237 OA
ATOM     70  O   UNL A   1      37.111  29.010  32.488  1.00  0.00    -0.744 OA
ENDBRANCH  63  67
ENDBRANCH  46  60
BRANCH  47  71
ATOM     71  C   UNL A   1      44.627  26.022  33.638  1.00  0.00     0.023 A 
ATOM     72  C   UNL A   1      43.661  26.335  34.622  1.00  0.00     0.031 A 
ATOM     73  C   UNL A   1      45.646  25.121  34.031  1.00  0.00     0.131 A 
ATOM     74  C   UNL A   1      43.744  25.761  35.919  1.00  0.00     0.055 A 
ATOM     75  C   UNL A   1      45.724  24.560  35.308  1.00  0.00     0.041 A 
ATOM     76  F   UNL A   1      46.565  24.684  33.154  1.00  0.00    -0.206 F 
ATOM     77  C   UNL A   1      44.766  24.871  36.257  1.00  0.00     0.022 A 
BRANCH  74  78
ATOM     78  S   UNL A   1      42.465  26.095  37.179  1.00  0.00     0.124 S 
ATOM     79  O   UNL A   1      41.561  24.963  37.015  1.00  0.00    -0.237 OA
ATOM     80  O   UNL A   1      43.241  26.133  38.413  1.00  0.00    -0.237 OA
ATOM     81  O   UNL A   1      41.909  27.387  36.771  1.00  0.00    -0.744 OA
ENDBRANCH  74  78
ENDBRANCH  47  71
BRANCH  59  82
ATOM     82  C   UNL A   1      45.652  28.601  27.993  1.00  0.00     0.023 A 
ATOM     83  C   UNL A   1      46.079  27.292  27.667  1.00  0.00     0.031 A 
ATOM     84  C   UNL A   1      46.524  29.659  27.684  1.00  0.00     0.131 A 
ATOM     85  C   UNL A   1      47.340  27.083  27.071  1.00  0.00     0.055 A 
ATOM     86  C   UNL A   1      47.759  29.451  27.070  1.00  0.00     0.041 A 
ATOM     87  F   UNL A   1      46.169  30.930  27.938  1.00  0.00    -0.206 F 
ATOM     88  C   UNL A   1      48.176  28.161  26.767  1.00  0.00     0.022 A 
BRANCH  85  89
ATOM     89  S   UNL A   1      47.924  25.396  26.697  1.00  0.00     0.124 S 
ATOM     90  O   UNL A   1      49.020  25.198  27.637  1.00  0.00    -0.237 OA
ATOM     91  O   UNL A   1      46.731  24.586  26.928  1.00  0.00    -0.237 OA
ATOM     92  O   UNL A   1      48.335  25.482  25.293  1.00  0.00    -0.744 OA
ENDBRANCH  85  89
ENDBRANCH  59  82
ENDBRANCH  33  34
ENDBRANCH  25  28
ENDBRANCH  23  24
ENDBRANCH   1  23
TORSDOF 17
ENDMDL
