MODEL 1
REMARK VINA RESULT:     -12.6      0.000      0.000
REMARK SMILES O=C(NCCCCNC(=O)c1cccc(Br)c1O[C@@H]1CCOC2(CCC2)C1)c1ccc(-c2c3nc(c(-c4cc(S(=O)(=O)[O-])ccc4F)c4ccc([nH]4)c(-c4cc(S(=O)(=O)[O-])ccc4F)c4nc(c(-c5cc(S(=O)(=O)[O-])ccc5F)c5ccc2[nH]5)C=C4)C=C3)cc1
REMARK SMILES IDX 5 1 4 2 3 3 1 4 2 5 28 7 29 8 90 9 30 10 89 11 31 12 32 13
REMARK SMILES IDX 33 14 83 15 34 16 88 17 82 18 84 19 35 20 87 21 81 22 80 23
REMARK SMILES IDX 36 25 68 26 48 27 67 28 49 29 52 30 66 31 85 32 50 33 51 34
REMARK SMILES IDX 65 36 86 37 53 38 37 39 38 40 46 41 39 42 45 43 47 44 44 45
REMARK SMILES IDX 40 46 41 47 42 48 43 49 69 50 70 51 78 52 71 53 77 54 79 55
REMARK SMILES IDX 76 56 72 57 73 58 74 59 75 60 54 61 55 62 63 63 56 64 62 65
REMARK SMILES IDX 64 66 61 67 57 68 58 69 59 70 60 71 6 72 7 73 8 74 9 75
REMARK SMILES IDX 10 77 11 78 12 79 17 80 13 81 15 82 14 83 16 84 18 85 19 86
REMARK SMILES IDX 20 87 27 88 21 89 23 90 22 91 24 92 26 93 25 94
REMARK H PARENT 3 6 84 24 52 35 8 76
REMARK Flexibility Score: inf
ROOT
ATOM      1  C   UNL A   1      31.507  31.945  26.797  1.00  0.00     0.023 C 
ENDROOT
BRANCH   1   2
ATOM      2  C   UNL A   1      32.798  32.658  27.177  1.00  0.00     0.116 C 
BRANCH   2   3
ATOM      3  N   UNL A   1      32.584  34.025  27.627  1.00  0.00    -0.352 N 
ATOM      4  O   UNL A   1      32.781  35.816  28.983  1.00  0.00    -0.269 OA
ATOM      5  C   UNL A   1      33.190  34.704  28.662  1.00  0.00     0.251 C 
ATOM      6  H   UNL A   1      31.912  34.537  27.121  1.00  0.00     0.163 HD
BRANCH   5   7
ATOM      7  C   UNL A   1      34.315  34.083  29.400  1.00  0.00     0.039 A 
ATOM      8  C   UNL A   1      35.635  34.441  29.121  1.00  0.00     0.014 A 
ATOM      9  C   UNL A   1      34.046  33.126  30.383  1.00  0.00     0.014 A 
ATOM     10  C   UNL A   1      36.682  33.738  29.706  1.00  0.00     0.010 A 
ATOM     11  C   UNL A   1      35.103  32.484  31.039  1.00  0.00     0.010 A 
ATOM     12  C   UNL A   1      36.433  32.762  30.684  1.00  0.00    -0.014 A 
BRANCH  12  13
ATOM     13  C   UNL A   1      37.579  32.097  31.359  1.00  0.00     0.031 A 
ATOM     14  C   UNL A   1      38.348  30.991  30.688  1.00  0.00     0.074 A 
ATOM     15  C   UNL A   1      37.943  32.527  32.585  1.00  0.00     0.049 A 
ATOM     16  N   UNL A   1      39.373  30.310  31.136  1.00  0.00    -0.248 NA
ATOM     17  C   UNL A   1      37.906  30.590  29.345  1.00  0.00     0.031 C 
ATOM     18  C   UNL A   1      37.270  33.592  33.334  1.00  0.00     0.029 A 
ATOM     19  N   UNL A   1      38.968  32.141  33.411  1.00  0.00    -0.354 N 
ATOM     20  C   UNL A   1      39.692  29.392  30.140  1.00  0.00     0.074 A 
ATOM     21  C   UNL A   1      38.729  29.584  29.076  1.00  0.00     0.031 C 
ATOM     22  C   UNL A   1      37.925  33.802  34.486  1.00  0.00     0.029 A 
ATOM     23  C   UNL A   1      39.015  32.841  34.595  1.00  0.00     0.049 A 
ATOM     24  H   UNL A   1      39.609  31.430  33.178  1.00  0.00     0.167 HD
ATOM     25  C   UNL A   1      40.698  28.481  30.117  1.00  0.00     0.034 A 
ATOM     26  C   UNL A   1      39.824  32.708  35.663  1.00  0.00     0.034 A 
ATOM     27  C   UNL A   1      41.653  28.309  31.188  1.00  0.00     0.049 A 
ATOM     28  C   UNL A   1      40.902  31.659  35.628  1.00  0.00     0.074 A 
ATOM     29  C   UNL A   1      42.730  27.440  31.250  1.00  0.00     0.029 A 
ATOM     30  N   UNL A   1      41.643  29.006  32.389  1.00  0.00    -0.354 N 
ATOM     31  N   UNL A   1      41.200  30.815  34.667  1.00  0.00    -0.248 NA
ATOM     32  C   UNL A   1      41.755  31.547  36.817  1.00  0.00     0.031 C 
ATOM     33  C   UNL A   1      43.324  27.560  32.511  1.00  0.00     0.029 A 
ATOM     34  C   UNL A   1      42.671  28.562  33.209  1.00  0.00     0.049 A 
ATOM     35  H   UNL A   1      41.000  29.713  32.625  1.00  0.00     0.167 HD
ATOM     36  C   UNL A   1      42.293  30.087  35.130  1.00  0.00     0.074 A 
ATOM     37  C   UNL A   1      42.612  30.609  36.443  1.00  0.00     0.031 C 
ATOM     38  C   UNL A   1      42.971  29.081  34.523  1.00  0.00     0.034 A 
BRANCH  25  39
ATOM     39  C   UNL A   1      40.795  27.570  28.916  1.00  0.00     0.023 A 
ATOM     40  C   UNL A   1      41.740  27.777  27.897  1.00  0.00     0.031 A 
ATOM     41  C   UNL A   1      39.930  26.466  28.796  1.00  0.00     0.131 A 
ATOM     42  C   UNL A   1      41.764  26.927  26.779  1.00  0.00     0.055 A 
ATOM     43  C   UNL A   1      40.007  25.583  27.716  1.00  0.00     0.041 A 
ATOM     44  F   UNL A   1      38.994  26.227  29.728  1.00  0.00    -0.206 F 
ATOM     45  C   UNL A   1      40.919  25.817  26.694  1.00  0.00     0.022 A 
BRANCH  42  46
ATOM     46  S   UNL A   1      42.832  27.361  25.378  1.00  0.00     0.124 S 
ATOM     47  O   UNL A   1      42.797  26.133  24.588  1.00  0.00    -0.237 OA
ATOM     48  O   UNL A   1      42.146  28.512  24.802  1.00  0.00    -0.237 OA
ATOM     49  O   UNL A   1      44.121  27.651  26.006  1.00  0.00    -0.744 OA
ENDBRANCH  42  46
ENDBRANCH  25  39
BRANCH  26  50
ATOM     50  C   UNL A   1      39.621  33.561  36.870  1.00  0.00     0.023 A 
ATOM     51  C   UNL A   1      39.015  33.049  38.028  1.00  0.00     0.031 A 
ATOM     52  C   UNL A   1      39.995  34.917  36.866  1.00  0.00     0.131 A 
ATOM     53  C   UNL A   1      38.755  33.900  39.113  1.00  0.00     0.055 A 
ATOM     54  C   UNL A   1      39.792  35.743  37.971  1.00  0.00     0.041 A 
ATOM     55  F   UNL A   1      40.581  35.457  35.785  1.00  0.00    -0.206 F 
ATOM     56  C   UNL A   1      39.154  35.238  39.099  1.00  0.00     0.022 A 
BRANCH  53  57
ATOM     57  S   UNL A   1      37.795  33.254  40.509  1.00  0.00     0.124 S 
ATOM     58  O   UNL A   1      36.511  32.963  39.878  1.00  0.00    -0.237 OA
ATOM     59  O   UNL A   1      38.589  32.098  40.913  1.00  0.00    -0.237 OA
ATOM     60  O   UNL A   1      37.786  34.366  41.458  1.00  0.00    -0.744 OA
ENDBRANCH  53  57
ENDBRANCH  26  50
BRANCH  38  61
ATOM     61  C   UNL A   1      44.155  28.514  35.268  1.00  0.00     0.023 A 
ATOM     62  C   UNL A   1      44.011  27.486  36.216  1.00  0.00     0.031 A 
ATOM     63  C   UNL A   1      45.444  29.030  35.043  1.00  0.00     0.131 A 
ATOM     64  C   UNL A   1      45.125  27.048  36.948  1.00  0.00     0.055 A 
ATOM     65  C   UNL A   1      46.559  28.548  35.729  1.00  0.00     0.041 A 
ATOM     66  F   UNL A   1      45.639  30.016  34.152  1.00  0.00    -0.206 F 
ATOM     67  C   UNL A   1      46.401  27.562  36.699  1.00  0.00     0.022 A 
BRANCH  64  68
ATOM     68  S   UNL A   1      44.870  25.868  38.302  1.00  0.00     0.124 S 
ATOM     69  O   UNL A   1      44.106  24.813  37.645  1.00  0.00    -0.237 OA
ATOM     70  O   UNL A   1      46.237  25.525  38.677  1.00  0.00    -0.237 OA
ATOM     71  O   UNL A   1      44.130  26.642  39.297  1.00  0.00    -0.744 OA
ENDBRANCH  64  68
ENDBRANCH  38  61
ENDBRANCH  12  13
ENDBRANCH   5   7
ENDBRANCH   2   3
ENDBRANCH   1   2
BRANCH   1  72
ATOM     72  C   UNL A   1      31.647  30.459  26.481  1.00  0.00     0.023 C 
BRANCH  72  73
ATOM     73  C   UNL A   1      33.069  29.968  26.221  1.00  0.00     0.116 C 
BRANCH  73  74
ATOM     74  N   UNL A   1      33.425  29.904  24.808  1.00  0.00    -0.352 N 
ATOM     75  C   UNL A   1      33.542  28.801  23.988  1.00  0.00     0.255 C 
ATOM     76  H   UNL A   1      33.608  30.770  24.379  1.00  0.00     0.163 HD
ATOM     77  O   UNL A   1      33.779  28.923  22.792  1.00  0.00    -0.269 OA
BRANCH  75  78
ATOM     78  C   UNL A   1      33.335  27.466  24.581  1.00  0.00     0.083 A 
ATOM     79  C   UNL A   1      34.170  27.093  25.628  1.00  0.00     0.018 A 
ATOM     80  C   UNL A   1      32.396  26.569  24.029  1.00  0.00     0.146 A 
ATOM     81  C   UNL A   1      34.143  25.789  26.067  1.00  0.00     0.002 A 
ATOM     82  C   UNL A   1      32.357  25.133  24.328  1.00  0.00     0.060 A 
ATOM     83  C   UNL A   1      33.310  24.845  25.434  1.00  0.00     0.019 A 
ATOM     84  Br  UNL A   1      30.750  23.521  23.086  1.00  0.00    -0.047 Br
BRANCH  80  85
ATOM     85  O   UNL A   1      31.467  27.106  23.193  1.00  0.00    -0.488 OA
BRANCH  85  86
ATOM     86  C   UNL A   1      30.665  27.568  24.228  1.00  0.00     0.178 C 
ATOM     87  C   UNL A   1      29.237  26.252  24.372  1.00  0.00     0.074 C 
ATOM     88  C   UNL A   1      30.304  29.365  23.602  1.00  0.00     0.080 C 
ATOM     89  C   UNL A   1      27.459  26.802  23.870  1.00  0.00     0.165 C 
ATOM     90  C   UNL A   1      28.535  29.738  23.010  1.00  0.00     0.072 C 
ATOM     91  O   UNL A   1      27.209  28.532  23.293  1.00  0.00    -0.375 OA
ATOM     92  C   UNL A   1      28.069  31.179  23.472  1.00  0.00     0.036 C 
ATOM     93  C   UNL A   1      28.611  30.396  21.573  1.00  0.00     0.036 C 
ATOM     94  C   UNL A   1      27.566  31.408  22.038  1.00  0.00     0.006 C 
ENDBRANCH  85  86
ENDBRANCH  80  85
ENDBRANCH  75  78
ENDBRANCH  73  74
ENDBRANCH  72  73
ENDBRANCH   1  72
TORSDOF 16
ENDMDL
MODEL 2
REMARK VINA RESULT:     -12.1      6.154     11.978
REMARK SMILES O=C(NCCCCNC(=O)c1cccc(Br)c1O[C@@H]1CCOC2(CCC2)C1)c1ccc(-c2c3nc(c(-c4cc(S(=O)(=O)[O-])ccc4F)c4ccc([nH]4)c(-c4cc(S(=O)(=O)[O-])ccc4F)c4nc(c(-c5cc(S(=O)(=O)[O-])ccc5F)c5ccc2[nH]5)C=C4)C=C3)cc1
REMARK SMILES IDX 5 1 4 2 3 3 1 4 2 5 28 7 29 8 90 9 30 10 89 11 31 12 32 13
REMARK SMILES IDX 33 14 83 15 34 16 88 17 82 18 84 19 35 20 87 21 81 22 80 23
REMARK SMILES IDX 36 25 68 26 48 27 67 28 49 29 52 30 66 31 85 32 50 33 51 34
REMARK SMILES IDX 65 36 86 37 53 38 37 39 38 40 46 41 39 42 45 43 47 44 44 45
REMARK SMILES IDX 40 46 41 47 42 48 43 49 69 50 70 51 78 52 71 53 77 54 79 55
REMARK SMILES IDX 76 56 72 57 73 58 74 59 75 60 54 61 55 62 63 63 56 64 62 65
REMARK SMILES IDX 64 66 61 67 57 68 58 69 59 70 60 71 6 72 7 73 8 74 9 75
REMARK SMILES IDX 10 77 11 78 12 79 17 80 13 81 15 82 14 83 16 84 18 85 19 86
REMARK SMILES IDX 20 87 27 88 21 89 23 90 22 91 24 92 26 93 25 94
REMARK H PARENT 3 6 84 24 52 35 8 76
REMARK Flexibility Score: inf
ROOT
ATOM      1  C   UNL A   1      38.167  19.577  25.102  1.00  0.00     0.023 C 
ENDROOT
BRANCH   1   2
ATOM      2  C   UNL A   1      39.267  20.091  26.021  1.00  0.00     0.116 C 
BRANCH   2   3
ATOM      3  N   UNL A   1      40.445  19.237  26.035  1.00  0.00    -0.352 N 
ATOM      4  O   UNL A   1      42.644  18.736  26.000  1.00  0.00    -0.269 OA
ATOM      5  C   UNL A   1      41.773  19.589  26.146  1.00  0.00     0.251 C 
ATOM      6  H   UNL A   1      40.269  18.271  25.954  1.00  0.00     0.163 HD
BRANCH   5   7
ATOM      7  C   UNL A   1      42.148  20.997  26.416  1.00  0.00     0.039 A 
ATOM      8  C   UNL A   1      42.240  21.923  25.376  1.00  0.00     0.014 A 
ATOM      9  C   UNL A   1      42.413  21.397  27.730  1.00  0.00     0.014 A 
ATOM     10  C   UNL A   1      42.744  23.195  25.623  1.00  0.00     0.010 A 
ATOM     11  C   UNL A   1      42.832  22.706  27.989  1.00  0.00     0.010 A 
ATOM     12  C   UNL A   1      43.032  23.611  26.933  1.00  0.00    -0.014 A 
BRANCH  12  13
ATOM     13  C   UNL A   1      43.478  25.009  27.172  1.00  0.00     0.031 A 
ATOM     14  C   UNL A   1      42.546  26.041  27.748  1.00  0.00     0.074 A 
ATOM     15  C   UNL A   1      44.756  25.335  26.890  1.00  0.00     0.049 A 
ATOM     16  N   UNL A   1      42.777  27.300  28.021  1.00  0.00    -0.248 NA
ATOM     17  C   UNL A   1      41.173  25.607  28.048  1.00  0.00     0.031 C 
ATOM     18  C   UNL A   1      45.751  24.417  26.328  1.00  0.00     0.029 A 
ATOM     19  N   UNL A   1      45.446  26.510  27.049  1.00  0.00    -0.354 N 
ATOM     20  C   UNL A   1      41.582  27.815  28.512  1.00  0.00     0.074 A 
ATOM     21  C   UNL A   1      40.617  26.736  28.469  1.00  0.00     0.031 C 
ATOM     22  C   UNL A   1      46.929  25.050  26.230  1.00  0.00     0.029 A 
ATOM     23  C   UNL A   1      46.760  26.436  26.648  1.00  0.00     0.049 A 
ATOM     24  H   UNL A   1      45.038  27.328  27.416  1.00  0.00     0.167 HD
ATOM     25  C   UNL A   1      41.319  29.069  28.961  1.00  0.00     0.034 A 
ATOM     26  C   UNL A   1      47.718  27.381  26.596  1.00  0.00     0.034 A 
ATOM     27  C   UNL A   1      42.298  30.132  29.001  1.00  0.00     0.049 A 
ATOM     28  C   UNL A   1      47.385  28.774  27.058  1.00  0.00     0.074 A 
ATOM     29  C   UNL A   1      42.145  31.427  29.469  1.00  0.00     0.029 A 
ATOM     30  N   UNL A   1      43.607  30.031  28.547  1.00  0.00    -0.354 N 
ATOM     31  N   UNL A   1      46.253  29.235  27.538  1.00  0.00    -0.248 NA
ATOM     32  C   UNL A   1      48.458  29.772  26.975  1.00  0.00     0.031 C 
ATOM     33  C   UNL A   1      43.333  32.126  29.233  1.00  0.00     0.029 A 
ATOM     34  C   UNL A   1      44.258  31.248  28.692  1.00  0.00     0.049 A 
ATOM     35  H   UNL A   1      44.014  29.215  28.177  1.00  0.00     0.167 HD
ATOM     36  C   UNL A   1      46.489  30.574  27.837  1.00  0.00     0.074 A 
ATOM     37  C   UNL A   1      47.874  30.837  27.505  1.00  0.00     0.031 C 
ATOM     38  C   UNL A   1      45.637  31.501  28.342  1.00  0.00     0.034 A 
BRANCH  25  39
ATOM     39  C   UNL A   1      39.908  29.376  29.406  1.00  0.00     0.023 A 
ATOM     40  C   UNL A   1      39.559  29.475  30.764  1.00  0.00     0.031 A 
ATOM     41  C   UNL A   1      38.896  29.584  28.450  1.00  0.00     0.131 A 
ATOM     42  C   UNL A   1      38.225  29.721  31.128  1.00  0.00     0.055 A 
ATOM     43  C   UNL A   1      37.586  29.900  28.819  1.00  0.00     0.041 A 
ATOM     44  F   UNL A   1      39.164  29.485  27.138  1.00  0.00    -0.206 F 
ATOM     45  C   UNL A   1      37.241  29.958  30.165  1.00  0.00     0.022 A 
BRANCH  42  46
ATOM     46  S   UNL A   1      37.767  29.609  32.880  1.00  0.00     0.124 S 
ATOM     47  O   UNL A   1      39.011  30.006  33.537  1.00  0.00    -0.237 OA
ATOM     48  O   UNL A   1      36.662  30.555  32.979  1.00  0.00    -0.237 OA
ATOM     49  O   UNL A   1      37.403  28.203  33.051  1.00  0.00    -0.744 OA
ENDBRANCH  42  46
ENDBRANCH  25  39
BRANCH  26  50
ATOM     50  C   UNL A   1      49.067  27.056  26.048  1.00  0.00     0.023 A 
ATOM     51  C   UNL A   1      49.441  27.452  24.755  1.00  0.00     0.031 A 
ATOM     52  C   UNL A   1      49.987  26.302  26.800  1.00  0.00     0.131 A 
ATOM     53  C   UNL A   1      50.682  27.051  24.235  1.00  0.00     0.055 A 
ATOM     54  C   UNL A   1      51.244  25.961  26.301  1.00  0.00     0.041 A 
ATOM     55  F   UNL A   1      49.680  25.899  28.043  1.00  0.00    -0.206 F 
ATOM     56  C   UNL A   1      51.591  26.323  25.004  1.00  0.00     0.022 A 
BRANCH  53  57
ATOM     57  S   UNL A   1      51.049  27.412  22.496  1.00  0.00     0.124 S 
ATOM     58  O   UNL A   1      49.934  26.761  21.816  1.00  0.00    -0.237 OA
ATOM     59  O   UNL A   1      51.046  28.871  22.483  1.00  0.00    -0.237 OA
ATOM     60  O   UNL A   1      52.355  26.790  22.289  1.00  0.00    -0.744 OA
ENDBRANCH  53  57
ENDBRANCH  26  50
BRANCH  38  61
ATOM     61  C   UNL A   1      46.204  32.875  28.605  1.00  0.00     0.023 A 
ATOM     62  C   UNL A   1      46.188  33.882  27.624  1.00  0.00     0.031 A 
ATOM     63  C   UNL A   1      46.796  33.170  29.846  1.00  0.00     0.131 A 
ATOM     64  C   UNL A   1      46.804  35.117  27.879  1.00  0.00     0.055 A 
ATOM     65  C   UNL A   1      47.352  34.421  30.116  1.00  0.00     0.041 A 
ATOM     66  F   UNL A   1      46.843  32.244  30.817  1.00  0.00    -0.206 F 
ATOM     67  C   UNL A   1      47.372  35.398  29.125  1.00  0.00     0.022 A 
BRANCH  64  68
ATOM     68  S   UNL A   1      46.944  36.318  26.527  1.00  0.00     0.124 S 
ATOM     69  O   UNL A   1      48.367  36.639  26.552  1.00  0.00    -0.237 OA
ATOM     70  O   UNL A   1      46.486  35.547  25.376  1.00  0.00    -0.237 OA
ATOM     71  O   UNL A   1      46.055  37.403  26.939  1.00  0.00    -0.744 OA
ENDBRANCH  64  68
ENDBRANCH  38  61
ENDBRANCH  12  13
ENDBRANCH   5   7
ENDBRANCH   2   3
ENDBRANCH   1   2
BRANCH   1  72
ATOM     72  C   UNL A   1      37.197  20.634  24.585  1.00  0.00     0.023 C 
BRANCH  72  73
ATOM     73  C   UNL A   1      36.984  21.840  25.497  1.00  0.00     0.116 C 
BRANCH  73  74
ATOM     74  N   UNL A   1      35.991  21.624  26.543  1.00  0.00    -0.352 N 
ATOM     75  C   UNL A   1      34.777  22.249  26.737  1.00  0.00     0.255 C 
ATOM     76  H   UNL A   1      36.220  20.934  27.207  1.00  0.00     0.163 HD
ATOM     77  O   UNL A   1      34.017  21.897  27.630  1.00  0.00    -0.269 OA
BRANCH  75  78
ATOM     78  C   UNL A   1      34.396  23.332  25.810  1.00  0.00     0.083 A 
ATOM     79  C   UNL A   1      35.224  24.447  25.751  1.00  0.00     0.018 A 
ATOM     80  C   UNL A   1      33.179  23.277  25.096  1.00  0.00     0.146 A 
ATOM     81  C   UNL A   1      34.797  25.556  25.057  1.00  0.00     0.002 A 
ATOM     82  C   UNL A   1      32.566  24.429  24.427  1.00  0.00     0.060 A 
ATOM     83  C   UNL A   1      33.523  25.568  24.455  1.00  0.00     0.019 A 
ATOM     84  Br  UNL A   1      30.214  24.289  23.343  1.00  0.00    -0.047 Br
BRANCH  80  85
ATOM     85  O   UNL A   1      32.578  22.059  25.021  1.00  0.00    -0.488 OA
BRANCH  85  86
ATOM     86  C   UNL A   1      33.406  21.608  24.001  1.00  0.00     0.178 C 
ATOM     87  C   UNL A   1      32.325  21.752  22.388  1.00  0.00     0.074 C 
ATOM     88  C   UNL A   1      33.911  19.878  24.712  1.00  0.00     0.080 C 
ATOM     89  C   UNL A   1      31.778  20.115  21.529  1.00  0.00     0.165 C 
ATOM     90  C   UNL A   1      33.192  18.343  23.848  1.00  0.00     0.072 C 
ATOM     91  O   UNL A   1      32.311  18.518  22.271  1.00  0.00    -0.375 OA
ATOM     92  C   UNL A   1      34.270  17.188  23.744  1.00  0.00     0.036 C 
ATOM     93  C   UNL A   1      32.530  17.412  24.941  1.00  0.00     0.036 C 
ATOM     94  C   UNL A   1      33.191  16.220  24.251  1.00  0.00     0.006 C 
ENDBRANCH  85  86
ENDBRANCH  80  85
ENDBRANCH  75  78
ENDBRANCH  73  74
ENDBRANCH  72  73
ENDBRANCH   1  72
TORSDOF 16
ENDMDL
MODEL 3
REMARK VINA RESULT:     -12.0      5.912     11.489
REMARK SMILES O=C(NCCCCNC(=O)c1cccc(Br)c1O[C@@H]1CCOC2(CCC2)C1)c1ccc(-c2c3nc(c(-c4cc(S(=O)(=O)[O-])ccc4F)c4ccc([nH]4)c(-c4cc(S(=O)(=O)[O-])ccc4F)c4nc(c(-c5cc(S(=O)(=O)[O-])ccc5F)c5ccc2[nH]5)C=C4)C=C3)cc1
REMARK SMILES IDX 5 1 4 2 3 3 1 4 2 5 28 7 29 8 90 9 30 10 89 11 31 12 32 13
REMARK SMILES IDX 33 14 83 15 34 16 88 17 82 18 84 19 35 20 87 21 81 22 80 23
REMARK SMILES IDX 36 25 68 26 48 27 67 28 49 29 52 30 66 31 85 32 50 33 51 34
REMARK SMILES IDX 65 36 86 37 53 38 37 39 38 40 46 41 39 42 45 43 47 44 44 45
REMARK SMILES IDX 40 46 41 47 42 48 43 49 69 50 70 51 78 52 71 53 77 54 79 55
REMARK SMILES IDX 76 56 72 57 73 58 74 59 75 60 54 61 55 62 63 63 56 64 62 65
REMARK SMILES IDX 64 66 61 67 57 68 58 69 59 70 60 71 6 72 7 73 8 74 9 75
REMARK SMILES IDX 10 77 11 78 12 79 17 80 13 81 15 82 14 83 16 84 18 85 19 86
REMARK SMILES IDX 20 87 27 88 21 89 23 90 22 91 24 92 26 93 25 94
REMARK H PARENT 3 6 84 24 52 35 8 76
REMARK Flexibility Score: inf
ROOT
ATOM      1  C   UNL A   1      39.418  21.158  25.924  1.00  0.00     0.023 C 
ENDROOT
BRANCH   1   2
ATOM      2  C   UNL A   1      40.154  20.177  26.827  1.00  0.00     0.116 C 
BRANCH   2   3
ATOM      3  N   UNL A   1      41.212  19.452  26.139  1.00  0.00    -0.352 N 
ATOM      4  O   UNL A   1      43.141  19.184  25.001  1.00  0.00    -0.269 OA
ATOM      5  C   UNL A   1      42.429  19.914  25.686  1.00  0.00     0.251 C 
ATOM      6  H   UNL A   1      41.034  18.498  25.974  1.00  0.00     0.163 HD
BRANCH   5   7
ATOM      7  C   UNL A   1      42.865  21.294  26.003  1.00  0.00     0.039 A 
ATOM      8  C   UNL A   1      43.234  21.644  27.304  1.00  0.00     0.014 A 
ATOM      9  C   UNL A   1      42.903  22.253  24.987  1.00  0.00     0.014 A 
ATOM     10  C   UNL A   1      43.486  22.974  27.618  1.00  0.00     0.010 A 
ATOM     11  C   UNL A   1      43.249  23.575  25.288  1.00  0.00     0.010 A 
ATOM     12  C   UNL A   1      43.514  23.956  26.614  1.00  0.00    -0.014 A 
BRANCH  12  13
ATOM     13  C   UNL A   1      43.882  25.352  26.969  1.00  0.00     0.031 A 
ATOM     14  C   UNL A   1      42.874  26.301  27.562  1.00  0.00     0.074 A 
ATOM     15  C   UNL A   1      45.156  25.752  26.778  1.00  0.00     0.049 A 
ATOM     16  N   UNL A   1      43.033  27.547  27.930  1.00  0.00    -0.248 NA
ATOM     17  C   UNL A   1      41.511  25.788  27.759  1.00  0.00     0.031 C 
ATOM     18  C   UNL A   1      46.219  24.919  26.209  1.00  0.00     0.029 A 
ATOM     19  N   UNL A   1      45.781  26.942  27.051  1.00  0.00    -0.354 N 
ATOM     20  C   UNL A   1      41.791  27.975  28.390  1.00  0.00     0.074 A 
ATOM     21  C   UNL A   1      40.882  26.860  28.224  1.00  0.00     0.031 C 
ATOM     22  C   UNL A   1      47.370  25.607  26.216  1.00  0.00     0.029 A 
ATOM     23  C   UNL A   1      47.116  26.953  26.717  1.00  0.00     0.049 A 
ATOM     24  H   UNL A   1      45.318  27.715  27.449  1.00  0.00     0.167 HD
ATOM     25  C   UNL A   1      41.448  29.182  28.908  1.00  0.00     0.034 A 
ATOM     26  C   UNL A   1      48.029  27.940  26.778  1.00  0.00     0.034 A 
ATOM     27  C   UNL A   1      42.373  30.281  29.071  1.00  0.00     0.049 A 
ATOM     28  C   UNL A   1      47.610  29.282  27.314  1.00  0.00     0.074 A 
ATOM     29  C   UNL A   1      42.136  31.532  29.615  1.00  0.00     0.029 A 
ATOM     30  N   UNL A   1      43.706  30.269  28.681  1.00  0.00    -0.354 N 
ATOM     31  N   UNL A   1      46.435  29.659  27.763  1.00  0.00    -0.248 NA
ATOM     32  C   UNL A   1      48.637  30.329  27.355  1.00  0.00     0.031 C 
ATOM     33  C   UNL A   1      43.301  32.297  29.489  1.00  0.00     0.029 A 
ATOM     34  C   UNL A   1      44.292  31.499  28.941  1.00  0.00     0.049 A 
ATOM     35  H   UNL A   1      44.169  29.498  28.279  1.00  0.00     0.167 HD
ATOM     36  C   UNL A   1      46.592  30.983  28.163  1.00  0.00     0.074 A 
ATOM     37  C   UNL A   1      47.978  31.328  27.923  1.00  0.00     0.031 C 
ATOM     38  C   UNL A   1      45.673  31.836  28.683  1.00  0.00     0.034 A 
BRANCH  25  39
ATOM     39  C   UNL A   1      40.004  29.397  29.296  1.00  0.00     0.023 A 
ATOM     40  C   UNL A   1      39.592  29.441  30.639  1.00  0.00     0.031 A 
ATOM     41  C   UNL A   1      39.024  29.570  28.302  1.00  0.00     0.131 A 
ATOM     42  C   UNL A   1      38.231  29.601  30.950  1.00  0.00     0.055 A 
ATOM     43  C   UNL A   1      37.683  29.801  28.619  1.00  0.00     0.041 A 
ATOM     44  F   UNL A   1      39.353  29.519  27.001  1.00  0.00    -0.206 F 
ATOM     45  C   UNL A   1      37.278  29.805  29.949  1.00  0.00     0.022 A 
BRANCH  42  46
ATOM     46  S   UNL A   1      37.706  29.418  32.677  1.00  0.00     0.124 S 
ATOM     47  O   UNL A   1      38.818  30.041  33.391  1.00  0.00    -0.237 OA
ATOM     48  O   UNL A   1      36.443  30.145  32.701  1.00  0.00    -0.237 OA
ATOM     49  O   UNL A   1      37.597  27.970  32.852  1.00  0.00    -0.744 OA
ENDBRANCH  42  46
ENDBRANCH  25  39
BRANCH  26  50
ATOM     50  C   UNL A   1      49.418  27.712  26.283  1.00  0.00     0.023 A 
ATOM     51  C   UNL A   1      49.764  27.967  24.947  1.00  0.00     0.031 A 
ATOM     52  C   UNL A   1      50.410  27.191  27.133  1.00  0.00     0.131 A 
ATOM     53  C   UNL A   1      51.054  27.655  24.489  1.00  0.00     0.055 A 
ATOM     54  C   UNL A   1      51.708  26.942  26.688  1.00  0.00     0.041 A 
ATOM     55  F   UNL A   1      50.133  26.930  28.421  1.00  0.00    -0.206 F 
ATOM     56  C   UNL A   1      52.031  27.161  25.354  1.00  0.00     0.022 A 
BRANCH  53  57
ATOM     57  S   UNL A   1      51.405  27.813  22.717  1.00  0.00     0.124 S 
ATOM     58  O   UNL A   1      52.769  27.301  22.637  1.00  0.00    -0.237 OA
ATOM     59  O   UNL A   1      50.368  26.973  22.128  1.00  0.00    -0.237 OA
ATOM     60  O   UNL A   1      51.260  29.246  22.469  1.00  0.00    -0.744 OA
ENDBRANCH  53  57
ENDBRANCH  26  50
BRANCH  38  61
ATOM     61  C   UNL A   1      46.162  33.212  29.066  1.00  0.00     0.023 A 
ATOM     62  C   UNL A   1      46.114  34.291  28.167  1.00  0.00     0.031 A 
ATOM     63  C   UNL A   1      46.709  33.437  30.341  1.00  0.00     0.131 A 
ATOM     64  C   UNL A   1      46.659  35.531  28.533  1.00  0.00     0.055 A 
ATOM     65  C   UNL A   1      47.193  34.689  30.723  1.00  0.00     0.041 A 
ATOM     66  F   UNL A   1      46.784  32.441  31.239  1.00  0.00    -0.206 F 
ATOM     67  C   UNL A   1      47.184  35.741  29.811  1.00  0.00     0.022 A 
BRANCH  64  68
ATOM     68  S   UNL A   1      46.765  36.841  27.282  1.00  0.00     0.124 S 
ATOM     69  O   UNL A   1      47.448  36.160  26.187  1.00  0.00    -0.237 OA
ATOM     70  O   UNL A   1      45.362  37.167  27.052  1.00  0.00    -0.237 OA
ATOM     71  O   UNL A   1      47.544  37.885  27.944  1.00  0.00    -0.744 OA
ENDBRANCH  64  68
ENDBRANCH  38  61
ENDBRANCH  12  13
ENDBRANCH   5   7
ENDBRANCH   2   3
ENDBRANCH   1   2
BRANCH   1  72
ATOM     72  C   UNL A   1      39.285  22.577  26.468  1.00  0.00     0.023 C 
BRANCH  72  73
ATOM     73  C   UNL A   1      37.995  23.307  26.106  1.00  0.00     0.116 C 
BRANCH  73  74
ATOM     74  N   UNL A   1      37.738  23.381  24.672  1.00  0.00    -0.352 N 
ATOM     75  C   UNL A   1      36.643  22.941  23.958  1.00  0.00     0.255 C 
ATOM     76  H   UNL A   1      38.447  23.806  24.138  1.00  0.00     0.163 HD
ATOM     77  O   UNL A   1      36.546  23.148  22.755  1.00  0.00    -0.269 OA
BRANCH  75  78
ATOM     78  C   UNL A   1      35.567  22.246  24.690  1.00  0.00     0.083 A 
ATOM     79  C   UNL A   1      35.587  20.855  24.692  1.00  0.00     0.018 A 
ATOM     80  C   UNL A   1      34.504  22.970  25.271  1.00  0.00     0.146 A 
ATOM     81  C   UNL A   1      34.497  20.176  25.187  1.00  0.00     0.002 A 
ATOM     82  C   UNL A   1      33.244  22.365  25.717  1.00  0.00     0.060 A 
ATOM     83  C   UNL A   1      33.367  20.885  25.643  1.00  0.00     0.019 A 
ATOM     84  Br  UNL A   1      31.256  23.806  26.552  1.00  0.00    -0.047 Br
BRANCH  80  85
ATOM     85  O   UNL A   1      34.705  24.305  25.440  1.00  0.00    -0.488 OA
BRANCH  85  86
ATOM     86  C   UNL A   1      33.449  24.651  24.962  1.00  0.00     0.178 C 
ATOM     87  C   UNL A   1      33.696  24.880  23.044  1.00  0.00     0.074 C 
ATOM     88  C   UNL A   1      33.054  26.165  26.103  1.00  0.00     0.080 C 
ATOM     89  C   UNL A   1      33.536  26.663  22.328  1.00  0.00     0.165 C 
ATOM     90  C   UNL A   1      33.057  27.886  25.293  1.00  0.00     0.072 C 
ATOM     91  O   UNL A   1      33.151  28.039  23.487  1.00  0.00    -0.375 OA
ATOM     92  C   UNL A   1      31.882  28.785  25.856  1.00  0.00     0.036 C 
ATOM     93  C   UNL A   1      33.986  28.843  26.144  1.00  0.00     0.036 C 
ATOM     94  C   UNL A   1      32.908  29.918  26.015  1.00  0.00     0.006 C 
ENDBRANCH  85  86
ENDBRANCH  80  85
ENDBRANCH  75  78
ENDBRANCH  73  74
ENDBRANCH  72  73
ENDBRANCH   1  72
TORSDOF 16
ENDMDL
