MODEL 1
REMARK VINA RESULT:     -13.7      0.000      0.000
REMARK SMILES O=C(NCCCCNC(=O)c1cc([C@@H]2C=NN=C2c2ccc(F)cc2)c2c(ccc3ccccc32)n1)c1ccc(-c2c3nc(c(-c4cc(S(=O)(=O)[O-])ccc4F)c4ccc([nH]4)c(-c4cc(S(=O)(=O)[O-])ccc4F)c4nc(c(-c5cc(S(=O)(=O)[O-])ccc5F)c5ccc2[nH]5)C=C4)C=C3)cc1
REMARK SMILES IDX 5 1 4 2 3 3 1 4 2 5 37 7 38 8 99 9 39 10 98 11 40 12 41 13
REMARK SMILES IDX 42 14 92 15 43 16 97 17 91 18 93 19 44 20 96 21 90 22 89 23
REMARK SMILES IDX 45 25 77 26 57 27 76 28 58 29 61 30 75 31 94 32 59 33 60 34
REMARK SMILES IDX 74 36 95 37 62 38 46 39 47 40 55 41 48 42 54 43 56 44 53 45
REMARK SMILES IDX 49 46 50 47 51 48 52 49 78 50 79 51 87 52 80 53 86 54 88 55
REMARK SMILES IDX 85 56 81 57 82 58 83 59 84 60 63 61 64 62 72 63 65 64 71 65
REMARK SMILES IDX 73 66 70 67 66 68 67 69 68 70 69 71 6 72 7 73 8 74 9 75
REMARK SMILES IDX 10 77 11 78 12 79 36 80 13 81 27 82 26 83 28 84 35 85 29 86
REMARK SMILES IDX 30 87 34 88 31 89 33 90 32 91 14 92 15 93 18 94 16 95 17 96
REMARK SMILES IDX 19 97 20 98 25 99 21 100 24 101 22 102 23 103
REMARK H PARENT 3 6 93 24 61 35 8 76
REMARK Flexibility Score: inf
ROOT
ATOM      1  C   UNL A   1      34.403  31.054  27.424  1.00  0.00     0.023 C 
ENDROOT
BRANCH   1   2
ATOM      2  C   UNL A   1      35.215  32.233  27.958  1.00  0.00     0.116 C 
BRANCH   2   3
ATOM      3  N   UNL A   1      35.102  32.454  29.385  1.00  0.00    -0.352 N 
ATOM      4  O   UNL A   1      35.569  32.748  31.522  1.00  0.00    -0.269 OA
ATOM      5  C   UNL A   1      35.945  32.268  30.448  1.00  0.00     0.251 C 
ATOM      6  H   UNL A   1      34.227  32.821  29.648  1.00  0.00     0.163 HD
BRANCH   5   7
ATOM      7  C   UNL A   1      37.210  31.483  30.411  1.00  0.00     0.039 A 
ATOM      8  C   UNL A   1      38.501  32.012  30.405  1.00  0.00     0.014 A 
ATOM      9  C   UNL A   1      37.058  30.084  30.363  1.00  0.00     0.014 A 
ATOM     10  C   UNL A   1      39.606  31.172  30.263  1.00  0.00     0.010 A 
ATOM     11  C   UNL A   1      38.157  29.241  30.233  1.00  0.00     0.010 A 
ATOM     12  C   UNL A   1      39.433  29.788  30.152  1.00  0.00    -0.014 A 
BRANCH  12  13
ATOM     13  C   UNL A   1      40.621  28.931  30.176  1.00  0.00     0.031 A 
ATOM     14  C   UNL A   1      41.134  28.660  31.552  1.00  0.00     0.074 A 
ATOM     15  C   UNL A   1      41.130  28.293  29.100  1.00  0.00     0.049 A 
ATOM     16  N   UNL A   1      42.282  28.980  32.053  1.00  0.00    -0.248 NA
ATOM     17  C   UNL A   1      40.203  28.081  32.537  1.00  0.00     0.031 C 
ATOM     18  C   UNL A   1      40.597  28.252  27.738  1.00  0.00     0.029 A 
ATOM     19  N   UNL A   1      42.206  27.454  29.025  1.00  0.00    -0.354 N 
ATOM     20  C   UNL A   1      42.306  28.453  33.343  1.00  0.00     0.074 A 
ATOM     21  C   UNL A   1      40.953  28.066  33.640  1.00  0.00     0.031 C 
ATOM     22  C   UNL A   1      41.210  27.266  27.043  1.00  0.00     0.029 A 
ATOM     23  C   UNL A   1      42.267  26.688  27.859  1.00  0.00     0.049 A 
ATOM     24  H   UNL A   1      42.884  27.393  29.737  1.00  0.00     0.167 HD
ATOM     25  C   UNL A   1      43.479  28.181  33.981  1.00  0.00     0.034 A 
ATOM     26  C   UNL A   1      43.094  25.633  27.604  1.00  0.00     0.034 A 
ATOM     27  C   UNL A   1      44.578  28.896  33.377  1.00  0.00     0.049 A 
ATOM     28  C   UNL A   1      44.264  25.794  28.503  1.00  0.00     0.074 A 
ATOM     29  C   UNL A   1      44.873  30.230  33.170  1.00  0.00     0.029 A 
ATOM     30  N   UNL A   1      45.420  28.203  32.538  1.00  0.00    -0.354 N 
ATOM     31  N   UNL A   1      45.100  26.792  28.418  1.00  0.00    -0.248 NA
ATOM     32  C   UNL A   1      44.226  25.114  29.788  1.00  0.00     0.031 C 
ATOM     33  C   UNL A   1      45.465  30.275  31.875  1.00  0.00     0.029 A 
ATOM     34  C   UNL A   1      45.567  28.965  31.406  1.00  0.00     0.049 A 
ATOM     35  H   UNL A   1      45.836  27.330  32.716  1.00  0.00     0.167 HD
ATOM     36  C   UNL A   1      45.364  27.141  29.732  1.00  0.00     0.074 A 
ATOM     37  C   UNL A   1      44.861  26.023  30.532  1.00  0.00     0.031 C 
ATOM     38  C   UNL A   1      45.712  28.415  30.074  1.00  0.00     0.034 A 
BRANCH  25  39
ATOM     39  C   UNL A   1      43.705  27.002  34.903  1.00  0.00     0.023 A 
ATOM     40  C   UNL A   1      44.307  25.852  34.353  1.00  0.00     0.031 A 
ATOM     41  C   UNL A   1      43.102  26.832  36.169  1.00  0.00     0.131 A 
ATOM     42  C   UNL A   1      44.200  24.602  34.990  1.00  0.00     0.055 A 
ATOM     43  C   UNL A   1      43.051  25.599  36.827  1.00  0.00     0.041 A 
ATOM     44  F   UNL A   1      42.449  27.815  36.800  1.00  0.00    -0.206 F 
ATOM     45  C   UNL A   1      43.570  24.468  36.224  1.00  0.00     0.022 A 
BRANCH  42  46
ATOM     46  S   UNL A   1      44.757  23.128  34.099  1.00  0.00     0.124 S 
ATOM     47  O   UNL A   1      46.207  23.238  34.221  1.00  0.00    -0.237 OA
ATOM     48  O   UNL A   1      44.126  22.058  34.864  1.00  0.00    -0.237 OA
ATOM     49  O   UNL A   1      44.226  23.324  32.752  1.00  0.00    -0.744 OA
ENDBRANCH  42  46
ENDBRANCH  25  39
BRANCH  26  50
ATOM     50  C   UNL A   1      42.779  24.342  26.912  1.00  0.00     0.023 A 
ATOM     51  C   UNL A   1      43.697  23.695  26.044  1.00  0.00     0.031 A 
ATOM     52  C   UNL A   1      41.661  23.580  27.312  1.00  0.00     0.131 A 
ATOM     53  C   UNL A   1      43.479  22.356  25.632  1.00  0.00     0.055 A 
ATOM     54  C   UNL A   1      41.452  22.258  26.904  1.00  0.00     0.041 A 
ATOM     55  F   UNL A   1      40.771  24.058  28.194  1.00  0.00    -0.206 F 
ATOM     56  C   UNL A   1      42.367  21.636  26.072  1.00  0.00     0.022 A 
BRANCH  53  57
ATOM     57  S   UNL A   1      44.704  21.470  24.605  1.00  0.00     0.124 S 
ATOM     58  O   UNL A   1      44.659  22.225  23.358  1.00  0.00    -0.237 OA
ATOM     59  O   UNL A   1      45.926  21.587  25.391  1.00  0.00    -0.237 OA
ATOM     60  O   UNL A   1      44.159  20.113  24.523  1.00  0.00    -0.744 OA
ENDBRANCH  53  57
ENDBRANCH  26  50
BRANCH  38  61
ATOM     61  C   UNL A   1      46.084  29.392  28.979  1.00  0.00     0.023 A 
ATOM     62  C   UNL A   1      45.166  30.160  28.227  1.00  0.00     0.031 A 
ATOM     63  C   UNL A   1      47.455  29.665  28.821  1.00  0.00     0.131 A 
ATOM     64  C   UNL A   1      45.641  31.163  27.356  1.00  0.00     0.055 A 
ATOM     65  C   UNL A   1      47.917  30.669  27.975  1.00  0.00     0.041 A 
ATOM     66  F   UNL A   1      48.368  28.987  29.536  1.00  0.00    -0.206 F 
ATOM     67  C   UNL A   1      47.011  31.423  27.238  1.00  0.00     0.022 A 
BRANCH  64  68
ATOM     68  S   UNL A   1      44.481  32.184  26.386  1.00  0.00     0.124 S 
ATOM     69  O   UNL A   1      43.448  31.233  25.991  1.00  0.00    -0.237 OA
ATOM     70  O   UNL A   1      44.076  33.212  27.341  1.00  0.00    -0.237 OA
ATOM     71  O   UNL A   1      45.303  32.681  25.280  1.00  0.00    -0.744 OA
ENDBRANCH  64  68
ENDBRANCH  38  61
ENDBRANCH  12  13
ENDBRANCH   5   7
ENDBRANCH   2   3
ENDBRANCH   1   2
BRANCH   1  72
ATOM     72  C   UNL A   1      35.192  29.763  27.215  1.00  0.00     0.023 C 
BRANCH  72  73
ATOM     73  C   UNL A   1      34.355  28.502  27.065  1.00  0.00     0.116 C 
BRANCH  73  74
ATOM     74  N   UNL A   1      33.044  28.590  27.696  1.00  0.00    -0.351 N 
ATOM     75  C   UNL A   1      31.943  27.777  27.509  1.00  0.00     0.269 C 
ATOM     76  H   UNL A   1      32.927  29.326  28.340  1.00  0.00     0.163 HD
ATOM     77  O   UNL A   1      30.886  28.019  28.094  1.00  0.00    -0.268 OA
BRANCH  75  78
ATOM     78  C   UNL A   1      32.074  26.572  26.647  1.00  0.00     0.129 A 
ATOM     79  C   UNL A   1      32.209  26.736  25.291  1.00  0.00     0.039 A 
ATOM     80  N   UNL A   1      32.047  25.366  27.222  1.00  0.00    -0.243 NA
ATOM     81  C   UNL A   1      32.191  25.619  24.427  1.00  0.00    -0.021 A 
ATOM     82  C   UNL A   1      32.094  24.286  26.436  1.00  0.00     0.072 A 
ATOM     83  C   UNL A   1      32.136  24.286  25.003  1.00  0.00     0.012 A 
ATOM     84  C   UNL A   1      32.128  23.111  27.153  1.00  0.00     0.029 A 
ATOM     85  C   UNL A   1      32.164  22.957  24.358  1.00  0.00    -0.009 A 
ATOM     86  C   UNL A   1      32.200  21.872  26.538  1.00  0.00     0.011 A 
ATOM     87  C   UNL A   1      32.215  21.778  25.155  1.00  0.00    -0.018 A 
ATOM     88  C   UNL A   1      32.147  22.696  22.968  1.00  0.00     0.009 A 
ATOM     89  C   UNL A   1      32.280  20.491  24.590  1.00  0.00     0.009 A 
ATOM     90  C   UNL A   1      32.207  21.417  22.401  1.00  0.00     0.001 A 
ATOM     91  C   UNL A   1      32.282  20.308  23.215  1.00  0.00     0.001 A 
BRANCH  81  92
ATOM     92  C   UNL A   1      32.339  26.059  22.988  1.00  0.00     0.115 C 
ATOM     93  C   UNL A   1      33.701  26.250  22.434  1.00  0.00     0.123 C 
ATOM     94  C   UNL A   1      31.706  27.319  22.496  1.00  0.00     0.083 C 
ATOM     95  N   UNL A   1      33.778  27.290  21.666  1.00  0.00    -0.162 NA
ATOM     96  N   UNL A   1      32.509  27.972  21.702  1.00  0.00    -0.154 NA
BRANCH  94  97
ATOM     97  C   UNL A   1      30.285  27.679  22.717  1.00  0.00    -0.001 A 
ATOM     98  C   UNL A   1      29.463  26.734  23.344  1.00  0.00     0.013 A 
ATOM     99  C   UNL A   1      29.749  28.928  22.378  1.00  0.00     0.013 A 
ATOM    100  C   UNL A   1      28.139  27.052  23.661  1.00  0.00     0.040 A 
ATOM    101  C   UNL A   1      28.428  29.247  22.698  1.00  0.00     0.040 A 
ATOM    102  C   UNL A   1      27.637  28.309  23.343  1.00  0.00     0.123 A 
ATOM    103  F   UNL A   1      26.375  28.620  23.663  1.00  0.00    -0.207 F 
ENDBRANCH  94  97
ENDBRANCH  81  92
ENDBRANCH  75  78
ENDBRANCH  73  74
ENDBRANCH  72  73
ENDBRANCH   1  72
TORSDOF 16
ENDMDL
MODEL 2
REMARK VINA RESULT:     -13.5      3.303      9.366
REMARK SMILES O=C(NCCCCNC(=O)c1cc([C@@H]2C=NN=C2c2ccc(F)cc2)c2c(ccc3ccccc32)n1)c1ccc(-c2c3nc(c(-c4cc(S(=O)(=O)[O-])ccc4F)c4ccc([nH]4)c(-c4cc(S(=O)(=O)[O-])ccc4F)c4nc(c(-c5cc(S(=O)(=O)[O-])ccc5F)c5ccc2[nH]5)C=C4)C=C3)cc1
REMARK SMILES IDX 5 1 4 2 3 3 1 4 2 5 37 7 38 8 99 9 39 10 98 11 40 12 41 13
REMARK SMILES IDX 42 14 92 15 43 16 97 17 91 18 93 19 44 20 96 21 90 22 89 23
REMARK SMILES IDX 45 25 77 26 57 27 76 28 58 29 61 30 75 31 94 32 59 33 60 34
REMARK SMILES IDX 74 36 95 37 62 38 46 39 47 40 55 41 48 42 54 43 56 44 53 45
REMARK SMILES IDX 49 46 50 47 51 48 52 49 78 50 79 51 87 52 80 53 86 54 88 55
REMARK SMILES IDX 85 56 81 57 82 58 83 59 84 60 63 61 64 62 72 63 65 64 71 65
REMARK SMILES IDX 73 66 70 67 66 68 67 69 68 70 69 71 6 72 7 73 8 74 9 75
REMARK SMILES IDX 10 77 11 78 12 79 36 80 13 81 27 82 26 83 28 84 35 85 29 86
REMARK SMILES IDX 30 87 34 88 31 89 33 90 32 91 14 92 15 93 18 94 16 95 17 96
REMARK SMILES IDX 19 97 20 98 25 99 21 100 24 101 22 102 23 103
REMARK H PARENT 3 6 93 24 61 35 8 76
REMARK Flexibility Score: inf
ROOT
ATOM      1  C   UNL A   1      38.712  22.063  26.193  1.00  0.00     0.023 C 
ENDROOT
BRANCH   1   2
ATOM      2  C   UNL A   1      40.052  21.795  26.876  1.00  0.00     0.116 C 
BRANCH   2   3
ATOM      3  N   UNL A   1      41.217  22.072  26.063  1.00  0.00    -0.352 N 
ATOM      4  O   UNL A   1      43.140  22.865  25.325  1.00  0.00    -0.269 OA
ATOM      5  C   UNL A   1      42.171  23.054  26.067  1.00  0.00     0.251 C 
ATOM      6  H   UNL A   1      41.355  21.407  25.350  1.00  0.00     0.163 HD
BRANCH   5   7
ATOM      7  C   UNL A   1      42.083  24.331  26.829  1.00  0.00     0.039 A 
ATOM      8  C   UNL A   1      42.859  24.679  27.935  1.00  0.00     0.014 A 
ATOM      9  C   UNL A   1      41.109  25.243  26.379  1.00  0.00     0.014 A 
ATOM     10  C   UNL A   1      42.608  25.864  28.627  1.00  0.00     0.010 A 
ATOM     11  C   UNL A   1      40.862  26.431  27.058  1.00  0.00     0.010 A 
ATOM     12  C   UNL A   1      41.593  26.729  28.204  1.00  0.00    -0.014 A 
BRANCH  12  13
ATOM     13  C   UNL A   1      41.474  28.038  28.851  1.00  0.00     0.031 A 
ATOM     14  C   UNL A   1      42.433  29.054  28.325  1.00  0.00     0.074 A 
ATOM     15  C   UNL A   1      40.499  28.379  29.721  1.00  0.00     0.049 A 
ATOM     16  N   UNL A   1      43.377  29.666  28.961  1.00  0.00    -0.248 NA
ATOM     17  C   UNL A   1      42.430  29.323  26.876  1.00  0.00     0.031 C 
ATOM     18  C   UNL A   1      39.345  27.583  30.142  1.00  0.00     0.029 A 
ATOM     19  N   UNL A   1      40.284  29.573  30.350  1.00  0.00    -0.354 N 
ATOM     20  C   UNL A   1      43.946  30.557  28.054  1.00  0.00     0.074 A 
ATOM     21  C   UNL A   1      43.443  30.184  26.760  1.00  0.00     0.031 C 
ATOM     22  C   UNL A   1      38.449  28.384  30.766  1.00  0.00     0.029 A 
ATOM     23  C   UNL A   1      39.011  29.718  30.905  1.00  0.00     0.049 A 
ATOM     24  H   UNL A   1      40.972  30.275  30.407  1.00  0.00     0.167 HD
ATOM     25  C   UNL A   1      44.619  31.667  28.471  1.00  0.00     0.034 A 
ATOM     26  C   UNL A   1      38.450  30.858  31.402  1.00  0.00     0.034 A 
ATOM     27  C   UNL A   1      45.030  31.540  29.849  1.00  0.00     0.049 A 
ATOM     28  C   UNL A   1      39.576  31.751  31.770  1.00  0.00     0.074 A 
ATOM     29  C   UNL A   1      45.833  30.658  30.546  1.00  0.00     0.029 A 
ATOM     30  N   UNL A   1      44.298  32.201  30.808  1.00  0.00    -0.354 N 
ATOM     31  N   UNL A   1      40.436  31.468  32.710  1.00  0.00    -0.248 NA
ATOM     32  C   UNL A   1      40.025  32.717  30.780  1.00  0.00     0.031 C 
ATOM     33  C   UNL A   1      45.166  30.465  31.790  1.00  0.00     0.029 A 
ATOM     34  C   UNL A   1      44.046  31.297  31.808  1.00  0.00     0.049 A 
ATOM     35  H   UNL A   1      44.011  33.142  30.781  1.00  0.00     0.167 HD
ATOM     36  C   UNL A   1      41.660  31.868  32.198  1.00  0.00     0.074 A 
ATOM     37  C   UNL A   1      41.334  32.702  31.040  1.00  0.00     0.031 C 
ATOM     38  C   UNL A   1      42.823  31.269  32.585  1.00  0.00     0.034 A 
BRANCH  25  39
ATOM     39  C   UNL A   1      44.589  33.007  27.767  1.00  0.00     0.023 A 
ATOM     40  C   UNL A   1      43.802  34.026  28.341  1.00  0.00     0.031 A 
ATOM     41  C   UNL A   1      45.024  33.241  26.443  1.00  0.00     0.131 A 
ATOM     42  C   UNL A   1      43.394  35.140  27.585  1.00  0.00     0.055 A 
ATOM     43  C   UNL A   1      44.666  34.380  25.716  1.00  0.00     0.041 A 
ATOM     44  F   UNL A   1      45.738  32.349  25.746  1.00  0.00    -0.206 F 
ATOM     45  C   UNL A   1      43.818  35.321  26.272  1.00  0.00     0.022 A 
BRANCH  42  46
ATOM     46  S   UNL A   1      42.167  36.265  28.297  1.00  0.00     0.124 S 
ATOM     47  O   UNL A   1      42.786  36.608  29.574  1.00  0.00    -0.237 OA
ATOM     48  O   UNL A   1      42.117  37.327  27.299  1.00  0.00    -0.237 OA
ATOM     49  O   UNL A   1      40.963  35.441  28.388  1.00  0.00    -0.744 OA
ENDBRANCH  42  46
ENDBRANCH  25  39
BRANCH  26  50
ATOM     50  C   UNL A   1      37.044  31.354  31.250  1.00  0.00     0.023 A 
ATOM     51  C   UNL A   1      36.347  32.013  32.294  1.00  0.00     0.031 A 
ATOM     52  C   UNL A   1      36.456  31.427  29.969  1.00  0.00     0.131 A 
ATOM     53  C   UNL A   1      35.137  32.706  32.031  1.00  0.00     0.055 A 
ATOM     54  C   UNL A   1      35.264  32.113  29.714  1.00  0.00     0.041 A 
ATOM     55  F   UNL A   1      37.065  30.911  28.892  1.00  0.00    -0.206 F 
ATOM     56  C   UNL A   1      34.606  32.767  30.742  1.00  0.00     0.022 A 
BRANCH  53  57
ATOM     57  S   UNL A   1      34.285  33.652  33.341  1.00  0.00     0.124 S 
ATOM     58  O   UNL A   1      34.381  35.019  32.841  1.00  0.00    -0.237 OA
ATOM     59  O   UNL A   1      32.954  33.058  33.353  1.00  0.00    -0.237 OA
ATOM     60  O   UNL A   1      35.086  33.377  34.535  1.00  0.00    -0.744 OA
ENDBRANCH  53  57
ENDBRANCH  26  50
BRANCH  38  61
ATOM     61  C   UNL A   1      42.810  30.351  33.788  1.00  0.00     0.023 A 
ATOM     62  C   UNL A   1      42.627  28.949  33.739  1.00  0.00     0.031 A 
ATOM     63  C   UNL A   1      43.169  30.925  35.019  1.00  0.00     0.131 A 
ATOM     64  C   UNL A   1      42.810  28.179  34.908  1.00  0.00     0.055 A 
ATOM     65  C   UNL A   1      43.367  30.159  36.165  1.00  0.00     0.041 A 
ATOM     66  F   UNL A   1      43.387  32.247  35.113  1.00  0.00    -0.206 F 
ATOM     67  C   UNL A   1      43.188  28.781  36.114  1.00  0.00     0.022 A 
BRANCH  64  68
ATOM     68  S   UNL A   1      42.599  26.367  34.874  1.00  0.00     0.124 S 
ATOM     69  O   UNL A   1      43.218  25.982  33.611  1.00  0.00    -0.237 OA
ATOM     70  O   UNL A   1      43.292  25.937  36.086  1.00  0.00    -0.237 OA
ATOM     71  O   UNL A   1      41.146  26.190  34.916  1.00  0.00    -0.744 OA
ENDBRANCH  64  68
ENDBRANCH  38  61
ENDBRANCH  12  13
ENDBRANCH   5   7
ENDBRANCH   2   3
ENDBRANCH   1   2
BRANCH   1  72
ATOM     72  C   UNL A   1      38.013  23.353  26.618  1.00  0.00     0.023 C 
BRANCH  72  73
ATOM     73  C   UNL A   1      37.165  24.022  25.546  1.00  0.00     0.116 C 
BRANCH  73  74
ATOM     74  N   UNL A   1      37.280  23.398  24.234  1.00  0.00    -0.351 N 
ATOM     75  C   UNL A   1      36.320  23.284  23.248  1.00  0.00     0.269 C 
ATOM     76  H   UNL A   1      38.158  23.005  24.022  1.00  0.00     0.163 HD
ATOM     77  O   UNL A   1      36.570  22.681  22.204  1.00  0.00    -0.268 OA
BRANCH  75  78
ATOM     78  C   UNL A   1      35.007  23.957  23.439  1.00  0.00     0.129 A 
ATOM     79  C   UNL A   1      34.126  23.448  24.361  1.00  0.00     0.039 A 
ATOM     80  N   UNL A   1      34.724  25.032  22.698  1.00  0.00    -0.243 NA
ATOM     81  C   UNL A   1      32.818  23.968  24.469  1.00  0.00    -0.021 A 
ATOM     82  C   UNL A   1      33.516  25.591  22.824  1.00  0.00     0.072 A 
ATOM     83  C   UNL A   1      32.453  25.122  23.665  1.00  0.00     0.012 A 
ATOM     84  C   UNL A   1      33.376  26.727  22.060  1.00  0.00     0.029 A 
ATOM     85  C   UNL A   1      31.199  25.902  23.615  1.00  0.00    -0.009 A 
ATOM     86  C   UNL A   1      32.210  27.476  22.056  1.00  0.00     0.011 A 
ATOM     87  C   UNL A   1      31.122  27.079  22.817  1.00  0.00    -0.018 A 
ATOM     88  C   UNL A   1      29.998  25.608  24.301  1.00  0.00     0.009 A 
ATOM     89  C   UNL A   1      29.964  27.877  22.763  1.00  0.00     0.009 A 
ATOM     90  C   UNL A   1      28.841  26.396  24.247  1.00  0.00     0.001 A 
ATOM     91  C   UNL A   1      28.825  27.541  23.481  1.00  0.00     0.001 A 
BRANCH  81  92
ATOM     92  C   UNL A   1      32.041  23.233  25.537  1.00  0.00     0.115 C 
ATOM     93  C   UNL A   1      31.924  23.841  26.884  1.00  0.00     0.123 C 
ATOM     94  C   UNL A   1      32.406  21.842  25.939  1.00  0.00     0.083 C 
ATOM     95  N   UNL A   1      32.031  22.965  27.831  1.00  0.00    -0.162 NA
ATOM     96  N   UNL A   1      32.336  21.690  27.233  1.00  0.00    -0.154 NA
BRANCH  94  97
ATOM     97  C   UNL A   1      32.622  20.728  24.984  1.00  0.00    -0.001 A 
ATOM     98  C   UNL A   1      33.337  19.612  25.436  1.00  0.00     0.013 A 
ATOM     99  C   UNL A   1      32.102  20.722  23.683  1.00  0.00     0.013 A 
ATOM    100  C   UNL A   1      33.493  18.494  24.611  1.00  0.00     0.040 A 
ATOM    101  C   UNL A   1      32.255  19.604  22.860  1.00  0.00     0.040 A 
ATOM    102  C   UNL A   1      32.942  18.498  23.334  1.00  0.00     0.123 A 
ATOM    103  F   UNL A   1      33.076  17.421  22.551  1.00  0.00    -0.207 F 
ENDBRANCH  94  97
ENDBRANCH  81  92
ENDBRANCH  75  78
ENDBRANCH  73  74
ENDBRANCH  72  73
ENDBRANCH   1  72
TORSDOF 16
ENDMDL
MODEL 3
REMARK VINA RESULT:     -13.4      5.134      9.036
REMARK SMILES O=C(NCCCCNC(=O)c1cc([C@@H]2C=NN=C2c2ccc(F)cc2)c2c(ccc3ccccc32)n1)c1ccc(-c2c3nc(c(-c4cc(S(=O)(=O)[O-])ccc4F)c4ccc([nH]4)c(-c4cc(S(=O)(=O)[O-])ccc4F)c4nc(c(-c5cc(S(=O)(=O)[O-])ccc5F)c5ccc2[nH]5)C=C4)C=C3)cc1
REMARK SMILES IDX 5 1 4 2 3 3 1 4 2 5 37 7 38 8 99 9 39 10 98 11 40 12 41 13
REMARK SMILES IDX 42 14 92 15 43 16 97 17 91 18 93 19 44 20 96 21 90 22 89 23
REMARK SMILES IDX 45 25 77 26 57 27 76 28 58 29 61 30 75 31 94 32 59 33 60 34
REMARK SMILES IDX 74 36 95 37 62 38 46 39 47 40 55 41 48 42 54 43 56 44 53 45
REMARK SMILES IDX 49 46 50 47 51 48 52 49 78 50 79 51 87 52 80 53 86 54 88 55
REMARK SMILES IDX 85 56 81 57 82 58 83 59 84 60 63 61 64 62 72 63 65 64 71 65
REMARK SMILES IDX 73 66 70 67 66 68 67 69 68 70 69 71 6 72 7 73 8 74 9 75
REMARK SMILES IDX 10 77 11 78 12 79 36 80 13 81 27 82 26 83 28 84 35 85 29 86
REMARK SMILES IDX 30 87 34 88 31 89 33 90 32 91 14 92 15 93 18 94 16 95 17 96
REMARK SMILES IDX 19 97 20 98 25 99 21 100 24 101 22 102 23 103
REMARK H PARENT 3 6 93 24 61 35 8 76
REMARK Flexibility Score: inf
ROOT
ATOM      1  C   UNL A   1      36.099  32.257  31.851  1.00  0.00     0.023 C 
ENDROOT
BRANCH   1   2
ATOM      2  C   UNL A   1      34.800  32.370  31.053  1.00  0.00     0.116 C 
BRANCH   2   3
ATOM      3  N   UNL A   1      34.975  32.596  29.633  1.00  0.00    -0.352 N 
ATOM      4  O   UNL A   1      35.493  32.352  27.502  1.00  0.00    -0.269 OA
ATOM      5  C   UNL A   1      35.743  32.010  28.662  1.00  0.00     0.251 C 
ATOM      6  H   UNL A   1      34.420  33.333  29.291  1.00  0.00     0.163 HD
BRANCH   5   7
ATOM      7  C   UNL A   1      36.873  31.073  28.912  1.00  0.00     0.039 A 
ATOM      8  C   UNL A   1      36.775  29.687  29.033  1.00  0.00     0.014 A 
ATOM      9  C   UNL A   1      38.140  31.671  29.049  1.00  0.00     0.014 A 
ATOM     10  C   UNL A   1      37.896  28.928  29.372  1.00  0.00     0.010 A 
ATOM     11  C   UNL A   1      39.264  30.918  29.376  1.00  0.00     0.010 A 
ATOM     12  C   UNL A   1      39.136  29.546  29.568  1.00  0.00    -0.014 A 
BRANCH  12  13
ATOM     13  C   UNL A   1      40.317  28.700  29.753  1.00  0.00     0.031 A 
ATOM     14  C   UNL A   1      40.706  28.521  31.184  1.00  0.00     0.074 A 
ATOM     15  C   UNL A   1      40.922  27.999  28.770  1.00  0.00     0.049 A 
ATOM     16  N   UNL A   1      41.803  28.880  31.764  1.00  0.00    -0.248 NA
ATOM     17  C   UNL A   1      39.691  28.000  32.116  1.00  0.00     0.031 C 
ATOM     18  C   UNL A   1      40.513  27.868  27.371  1.00  0.00     0.029 A 
ATOM     19  N   UNL A   1      42.001  27.164  28.845  1.00  0.00    -0.354 N 
ATOM     20  C   UNL A   1      41.712  28.437  33.081  1.00  0.00     0.074 A 
ATOM     21  C   UNL A   1      40.339  28.060  33.281  1.00  0.00     0.031 C 
ATOM     22  C   UNL A   1      41.188  26.844  26.798  1.00  0.00     0.029 A 
ATOM     23  C   UNL A   1      42.167  26.326  27.741  1.00  0.00     0.049 A 
ATOM     24  H   UNL A   1      42.613  27.154  29.617  1.00  0.00     0.167 HD
ATOM     25  C   UNL A   1      42.824  28.215  33.838  1.00  0.00     0.034 A 
ATOM     26  C   UNL A   1      43.015  25.263  27.629  1.00  0.00     0.034 A 
ATOM     27  C   UNL A   1      43.972  28.897  33.291  1.00  0.00     0.049 A 
ATOM     28  C   UNL A   1      44.100  25.489  28.617  1.00  0.00     0.074 A 
ATOM     29  C   UNL A   1      44.282  30.217  33.026  1.00  0.00     0.029 A 
ATOM     30  N   UNL A   1      44.886  28.158  32.576  1.00  0.00    -0.354 N 
ATOM     31  N   UNL A   1      44.939  26.485  28.543  1.00  0.00    -0.248 NA
ATOM     32  C   UNL A   1      43.948  24.892  29.934  1.00  0.00     0.031 C 
ATOM     33  C   UNL A   1      44.988  30.184  31.788  1.00  0.00     0.029 A 
ATOM     34  C   UNL A   1      45.134  28.847  31.416  1.00  0.00     0.049 A 
ATOM     35  H   UNL A   1      45.286  27.301  32.846  1.00  0.00     0.167 HD
ATOM     36  C   UNL A   1      45.084  26.919  29.851  1.00  0.00     0.074 A 
ATOM     37  C   UNL A   1      44.513  25.851  30.672  1.00  0.00     0.031 C 
ATOM     38  C   UNL A   1      45.398  28.215  30.139  1.00  0.00     0.034 A 
BRANCH  25  39
ATOM     39  C   UNL A   1      42.967  27.098  34.850  1.00  0.00     0.023 A 
ATOM     40  C   UNL A   1      43.682  25.949  34.454  1.00  0.00     0.031 A 
ATOM     41  C   UNL A   1      42.205  26.968  36.032  1.00  0.00     0.131 A 
ATOM     42  C   UNL A   1      43.538  24.732  35.145  1.00  0.00     0.055 A 
ATOM     43  C   UNL A   1      42.112  25.771  36.750  1.00  0.00     0.041 A 
ATOM     44  F   UNL A   1      41.436  27.953  36.511  1.00  0.00    -0.206 F 
ATOM     45  C   UNL A   1      42.752  24.635  36.289  1.00  0.00     0.022 A 
BRANCH  42  46
ATOM     46  S   UNL A   1      44.266  23.239  34.425  1.00  0.00     0.124 S 
ATOM     47  O   UNL A   1      45.425  23.784  33.723  1.00  0.00    -0.237 OA
ATOM     48  O   UNL A   1      44.550  22.440  35.611  1.00  0.00    -0.237 OA
ATOM     49  O   UNL A   1      43.203  22.721  33.567  1.00  0.00    -0.744 OA
ENDBRANCH  42  46
ENDBRANCH  25  39
BRANCH  26  50
ATOM     50  C   UNL A   1      42.766  23.928  26.995  1.00  0.00     0.023 A 
ATOM     51  C   UNL A   1      43.676  23.330  26.085  1.00  0.00     0.031 A 
ATOM     52  C   UNL A   1      41.744  23.091  27.491  1.00  0.00     0.131 A 
ATOM     53  C   UNL A   1      43.544  21.965  25.725  1.00  0.00     0.055 A 
ATOM     54  C   UNL A   1      41.621  21.744  27.135  1.00  0.00     0.041 A 
ATOM     55  F   UNL A   1      40.878  23.523  28.418  1.00  0.00    -0.206 F 
ATOM     56  C   UNL A   1      42.529  21.171  26.260  1.00  0.00     0.022 A 
BRANCH  53  57
ATOM     57  S   UNL A   1      44.770  21.150  24.642  1.00  0.00     0.124 S 
ATOM     58  O   UNL A   1      44.235  19.796  24.541  1.00  0.00    -0.237 OA
ATOM     59  O   UNL A   1      44.718  21.960  23.432  1.00  0.00    -0.237 OA
ATOM     60  O   UNL A   1      46.018  21.263  25.399  1.00  0.00    -0.744 OA
ENDBRANCH  53  57
ENDBRANCH  26  50
BRANCH  38  61
ATOM     61  C   UNL A   1      45.866  29.122  29.022  1.00  0.00     0.023 A 
ATOM     62  C   UNL A   1      47.215  29.324  28.648  1.00  0.00     0.031 A 
ATOM     63  C   UNL A   1      44.866  29.671  28.200  1.00  0.00     0.131 A 
ATOM     64  C   UNL A   1      47.515  30.055  27.479  1.00  0.00     0.055 A 
ATOM     65  C   UNL A   1      45.167  30.374  27.037  1.00  0.00     0.041 A 
ATOM     66  F   UNL A   1      43.569  29.481  28.491  1.00  0.00    -0.206 F 
ATOM     67  C   UNL A   1      46.494  30.570  26.671  1.00  0.00     0.022 A 
BRANCH  64  68
ATOM     68  S   UNL A   1      49.244  30.317  26.960  1.00  0.00     0.124 S 
ATOM     69  O   UNL A   1      49.244  31.693  26.476  1.00  0.00    -0.237 OA
ATOM     70  O   UNL A   1      49.993  30.068  28.189  1.00  0.00    -0.237 OA
ATOM     71  O   UNL A   1      49.446  29.308  25.917  1.00  0.00    -0.744 OA
ENDBRANCH  64  68
ENDBRANCH  38  61
ENDBRANCH  12  13
ENDBRANCH   5   7
ENDBRANCH   2   3
ENDBRANCH   1   2
BRANCH   1  72
ATOM     72  C   UNL A   1      36.286  30.942  32.604  1.00  0.00     0.023 C 
BRANCH  72  73
ATOM     73  C   UNL A   1      37.702  30.657  33.081  1.00  0.00     0.116 C 
BRANCH  73  74
ATOM     74  N   UNL A   1      37.776  30.214  34.467  1.00  0.00    -0.351 N 
ATOM     75  C   UNL A   1      38.739  30.505  35.414  1.00  0.00     0.269 C 
ATOM     76  H   UNL A   1      37.043  29.631  34.770  1.00  0.00     0.163 HD
ATOM     77  O   UNL A   1      38.675  30.008  36.538  1.00  0.00    -0.268 OA
BRANCH  75  78
ATOM     78  C   UNL A   1      39.813  31.477  35.074  1.00  0.00     0.129 A 
ATOM     79  C   UNL A   1      39.525  32.517  34.225  1.00  0.00     0.039 A 
ATOM     80  N   UNL A   1      41.028  31.300  35.601  1.00  0.00    -0.243 NA
ATOM     81  C   UNL A   1      40.549  33.374  33.765  1.00  0.00    -0.021 A 
ATOM     82  C   UNL A   1      42.006  32.135  35.238  1.00  0.00     0.072 A 
ATOM     83  C   UNL A   1      41.894  33.205  34.289  1.00  0.00     0.012 A 
ATOM     84  C   UNL A   1      43.187  31.889  35.901  1.00  0.00     0.029 A 
ATOM     85  C   UNL A   1      43.128  33.979  34.039  1.00  0.00    -0.009 A 
ATOM     86  C   UNL A   1      44.325  32.650  35.692  1.00  0.00     0.011 A 
ATOM     87  C   UNL A   1      44.314  33.685  34.771  1.00  0.00    -0.018 A 
ATOM     88  C   UNL A   1      43.286  35.035  33.113  1.00  0.00     0.009 A 
ATOM     89  C   UNL A   1      45.504  34.416  34.598  1.00  0.00     0.009 A 
ATOM     90  C   UNL A   1      44.469  35.761  32.932  1.00  0.00     0.001 A 
ATOM     91  C   UNL A   1      45.583  35.457  33.684  1.00  0.00     0.001 A 
BRANCH  81  92
ATOM     92  C   UNL A   1      39.986  34.422  32.833  1.00  0.00     0.115 C 
ATOM     93  C   UNL A   1      38.564  34.819  32.978  1.00  0.00     0.123 C 
ATOM     94  C   UNL A   1      40.030  34.243  31.352  1.00  0.00     0.083 C 
ATOM     95  N   UNL A   1      37.982  34.989  31.834  1.00  0.00    -0.162 NA
ATOM     96  N   UNL A   1      38.913  34.625  30.796  1.00  0.00    -0.154 NA
BRANCH  94  97
ATOM     97  C   UNL A   1      41.248  33.872  30.593  1.00  0.00    -0.001 A 
ATOM     98  C   UNL A   1      41.826  34.847  29.770  1.00  0.00     0.013 A 
ATOM     99  C   UNL A   1      41.869  32.621  30.703  1.00  0.00     0.013 A 
ATOM    100  C   UNL A   1      43.025  34.585  29.102  1.00  0.00     0.040 A 
ATOM    101  C   UNL A   1      43.069  32.360  30.038  1.00  0.00     0.040 A 
ATOM    102  C   UNL A   1      43.640  33.347  29.251  1.00  0.00     0.123 A 
ATOM    103  F   UNL A   1      44.798  33.102  28.626  1.00  0.00    -0.207 F 
ENDBRANCH  94  97
ENDBRANCH  81  92
ENDBRANCH  75  78
ENDBRANCH  73  74
ENDBRANCH  72  73
ENDBRANCH   1  72
TORSDOF 16
ENDMDL
