MODEL 1
REMARK VINA RESULT:     -11.8      0.000      0.000
REMARK SMILES CC[C@H](C)Nc1ncnc(N2CCC(C(=O)NCCCCNC(=O)c3ccc(-c4c5nc(c(-c6cc(S(=O)(=O)[O-])ccc6F)c6ccc([nH]6)c(-c6cc(S(=O)(=O)[O-])ccc6F)c6nc(c(-c7cc(S(=O)(=O)[O-])ccc7F)c7ccc4[nH]7)C=C6)C=C5)cc3)CC2)c1[N+](=O)[O-]
REMARK SMILES IDX 19 1 18 2 17 3 15 4 16 5 14 7 11 8 12 9 89 10 13 11 88 12
REMARK SMILES IDX 10 13 6 14 7 15 90 16 8 17 9 18 5 19 3 21 4 22 2 23 1 24
REMARK SMILES IDX 91 25 92 26 93 27 20 28 21 29 22 30 23 31 24 33 25 34 26 35
REMARK SMILES IDX 87 36 27 37 86 38 28 39 29 40 30 41 80 42 31 43 85 44 79 45
REMARK SMILES IDX 81 46 32 47 84 48 78 49 77 50 33 52 65 53 45 54 64 55 46 56
REMARK SMILES IDX 49 57 63 58 82 59 47 60 48 61 62 63 83 64 50 65 34 66 35 67
REMARK SMILES IDX 43 68 36 69 42 70 44 71 41 72 37 73 38 74 39 75 40 76 66 77
REMARK SMILES IDX 67 78 75 79 68 80 74 81 76 82 73 83 69 84 70 85 71 86 72 87
REMARK SMILES IDX 51 88 52 89 60 90 53 91 59 92 61 93 58 94 54 95 55 96 56 97
REMARK SMILES IDX 57 98
REMARK H PARENT 17 6 5 20 22 32 81 51 49 62
REMARK Flexibility Score: inf
ROOT
ATOM      1  C   UNL A   1      31.526  28.063  26.499  1.00  0.00     0.023 C 
ENDROOT
BRANCH   1   2
ATOM      2  C   UNL A   1      31.282  28.285  25.008  1.00  0.00     0.116 C 
BRANCH   2   3
ATOM      3  N   UNL A   1      30.686  27.120  24.370  1.00  0.00    -0.356 N 
ATOM      4  C   UNL A   1      31.239  25.928  24.007  1.00  0.00     0.223 C 
ATOM      5  O   UNL A   1      30.516  25.086  23.473  1.00  0.00    -0.275 OA
ATOM      6  H   UNL A   1      29.727  27.208  24.166  1.00  0.00     0.163 HD
BRANCH   4   7
ATOM      7  C   UNL A   1      32.709  25.624  24.267  1.00  0.00     0.082 C 
ATOM      8  N   UNL A   1      34.447  23.414  24.545  1.00  0.00    -0.351 N 
ATOM      9  C   UNL A   1      34.191  24.161  25.765  1.00  0.00     0.119 C 
ATOM     10  C   UNL A   1      34.619  24.193  23.331  1.00  0.00     0.119 C 
ATOM     11  C   UNL A   1      32.888  24.928  25.626  1.00  0.00     0.035 C 
ATOM     12  C   UNL A   1      33.327  24.938  23.036  1.00  0.00     0.035 C 
BRANCH   8  13
ATOM     13  C   UNL A   1      34.918  22.128  24.685  1.00  0.00     0.213 A 
ATOM     14  C   UNL A   1      34.744  19.738  24.829  1.00  0.00     0.211 A 
ATOM     15  N   UNL A   1      36.076  19.657  25.003  1.00  0.00    -0.213 NA
ATOM     16  C   UNL A   1      34.140  20.978  24.702  1.00  0.00     0.353 A 
ATOM     17  C   UNL A   1      36.771  20.804  24.974  1.00  0.00     0.227 A 
ATOM     18  N   UNL A   1      36.259  22.028  24.793  1.00  0.00    -0.212 NA
BRANCH  14  19
ATOM     19  N   UNL A   1      34.152  18.496  24.795  1.00  0.00    -0.362 N 
ATOM     20  H   UNL A   1      33.259  18.405  25.200  1.00  0.00     0.162 HD
BRANCH  19  21
ATOM     21  C   UNL A   1      34.749  17.300  24.206  1.00  0.00     0.077 C 
ATOM     22  C   UNL A   1      34.797  16.195  25.261  1.00  0.00     0.031 C 
BRANCH  21  23
ATOM     23  C   UNL A   1      33.998  16.938  22.910  1.00  0.00     0.021 C 
ATOM     24  C   UNL A   1      32.686  17.670  22.668  1.00  0.00     0.006 C 
ENDBRANCH  21  23
ENDBRANCH  19  21
ENDBRANCH  14  19
BRANCH  16  25
ATOM     25  N   UNL A   1      32.726  21.099  24.590  1.00  0.00     0.070 N 
ATOM     26  O   UNL A   1      32.230  20.988  23.458  1.00  0.00    -0.258 OA
ATOM     27  O   UNL A   1      32.085  21.328  25.626  1.00  0.00    -0.258 OA
ENDBRANCH  16  25
ENDBRANCH   8  13
ENDBRANCH   4   7
ENDBRANCH   2   3
ENDBRANCH   1   2
BRANCH   1  28
ATOM     28  C   UNL A   1      31.965  29.308  27.267  1.00  0.00     0.023 C 
BRANCH  28  29
ATOM     29  C   UNL A   1      33.058  30.131  26.596  1.00  0.00     0.116 C 
BRANCH  29  30
ATOM     30  N   UNL A   1      33.029  31.534  26.978  1.00  0.00    -0.352 N 
ATOM     31  C   UNL A   1      33.931  32.239  27.740  1.00  0.00     0.251 C 
ATOM     32  H   UNL A   1      32.259  32.050  26.645  1.00  0.00     0.163 HD
ATOM     33  O   UNL A   1      33.678  33.391  28.079  1.00  0.00    -0.269 OA
BRANCH  31  34
ATOM     34  C   UNL A   1      35.180  31.582  28.177  1.00  0.00     0.039 A 
ATOM     35  C   UNL A   1      36.371  32.310  28.160  1.00  0.00     0.014 A 
ATOM     36  C   UNL A   1      35.167  30.263  28.644  1.00  0.00     0.014 A 
ATOM     37  C   UNL A   1      37.534  31.742  28.683  1.00  0.00     0.010 A 
ATOM     38  C   UNL A   1      36.308  29.728  29.233  1.00  0.00     0.010 A 
ATOM     39  C   UNL A   1      37.504  30.464  29.261  1.00  0.00    -0.014 A 
BRANCH  39  40
ATOM     40  C   UNL A   1      38.709  29.874  29.900  1.00  0.00     0.031 A 
ATOM     41  C   UNL A   1      39.143  30.346  31.261  1.00  0.00     0.074 A 
ATOM     42  C   UNL A   1      39.446  28.967  29.231  1.00  0.00     0.049 A 
ATOM     43  N   UNL A   1      40.206  30.020  31.952  1.00  0.00    -0.248 NA
ATOM     44  C   UNL A   1      38.282  31.341  31.915  1.00  0.00     0.031 C 
ATOM     45  C   UNL A   1      39.149  28.460  27.889  1.00  0.00     0.029 A 
ATOM     46  N   UNL A   1      40.601  28.314  29.581  1.00  0.00    -0.354 N 
ATOM     47  C   UNL A   1      40.146  30.777  33.117  1.00  0.00     0.074 A 
ATOM     48  C   UNL A   1      38.981  31.628  33.001  1.00  0.00     0.031 C 
ATOM     49  C   UNL A   1      40.079  27.554  27.545  1.00  0.00     0.029 A 
ATOM     50  C   UNL A   1      41.064  27.449  28.616  1.00  0.00     0.049 A 
ATOM     51  H   UNL A   1      41.056  28.452  30.443  1.00  0.00     0.167 HD
ATOM     52  C   UNL A   1      40.970  30.744  34.195  1.00  0.00     0.034 A 
ATOM     53  C   UNL A   1      42.161  26.667  28.595  1.00  0.00     0.034 A 
ATOM     54  C   UNL A   1      42.124  29.884  34.295  1.00  0.00     0.049 A 
ATOM     55  C   UNL A   1      43.084  26.675  29.787  1.00  0.00     0.074 A 
ATOM     56  C   UNL A   1      43.003  29.738  35.354  1.00  0.00     0.029 A 
ATOM     57  N   UNL A   1      42.567  29.027  33.295  1.00  0.00    -0.354 N 
ATOM     58  N   UNL A   1      42.992  27.366  30.900  1.00  0.00    -0.248 NA
ATOM     59  C   UNL A   1      44.254  25.789  29.722  1.00  0.00     0.031 C 
ATOM     60  C   UNL A   1      44.009  28.843  34.971  1.00  0.00     0.029 A 
ATOM     61  C   UNL A   1      43.720  28.372  33.700  1.00  0.00     0.049 A 
ATOM     62  H   UNL A   1      42.125  28.903  32.423  1.00  0.00     0.167 HD
ATOM     63  C   UNL A   1      44.075  26.972  31.681  1.00  0.00     0.074 A 
ATOM     64  C   UNL A   1      44.797  25.975  30.916  1.00  0.00     0.031 C 
ATOM     65  C   UNL A   1      44.436  27.389  32.922  1.00  0.00     0.034 A 
BRANCH  52  66
ATOM     66  C   UNL A   1      40.652  31.687  35.333  1.00  0.00     0.023 A 
ATOM     67  C   UNL A   1      39.625  31.408  36.253  1.00  0.00     0.031 A 
ATOM     68  C   UNL A   1      41.346  32.901  35.473  1.00  0.00     0.131 A 
ATOM     69  C   UNL A   1      39.259  32.368  37.209  1.00  0.00     0.055 A 
ATOM     70  C   UNL A   1      41.037  33.813  36.486  1.00  0.00     0.041 A 
ATOM     71  F   UNL A   1      42.323  33.234  34.615  1.00  0.00    -0.206 F 
ATOM     72  C   UNL A   1      39.976  33.558  37.349  1.00  0.00     0.022 A 
BRANCH  69  73
ATOM     73  S   UNL A   1      37.732  32.108  38.151  1.00  0.00     0.124 S 
ATOM     74  O   UNL A   1      37.402  30.728  37.802  1.00  0.00    -0.237 OA
ATOM     75  O   UNL A   1      38.164  32.334  39.525  1.00  0.00    -0.237 OA
ATOM     76  O   UNL A   1      36.820  33.114  37.609  1.00  0.00    -0.744 OA
ENDBRANCH  69  73
ENDBRANCH  52  66
BRANCH  53  77
ATOM     77  C   UNL A   1      42.455  25.808  27.413  1.00  0.00     0.023 A 
ATOM     78  C   UNL A   1      42.024  24.473  27.368  1.00  0.00     0.031 A 
ATOM     79  C   UNL A   1      43.203  26.298  26.327  1.00  0.00     0.131 A 
ATOM     80  C   UNL A   1      42.383  23.658  26.283  1.00  0.00     0.055 A 
ATOM     81  C   UNL A   1      43.513  25.498  25.226  1.00  0.00     0.041 A 
ATOM     82  F   UNL A   1      43.633  27.570  26.317  1.00  0.00    -0.206 F 
ATOM     83  C   UNL A   1      43.113  24.165  25.206  1.00  0.00     0.022 A 
BRANCH  80  84
ATOM     84  S   UNL A   1      41.943  21.900  26.337  1.00  0.00     0.124 S 
ATOM     85  O   UNL A   1      40.514  21.941  26.045  1.00  0.00    -0.237 OA
ATOM     86  O   UNL A   1      42.797  21.341  25.294  1.00  0.00    -0.237 OA
ATOM     87  O   UNL A   1      42.290  21.505  27.701  1.00  0.00    -0.744 OA
ENDBRANCH  80  84
ENDBRANCH  53  77
BRANCH  65  88
ATOM     88  C   UNL A   1      45.643  26.729  33.541  1.00  0.00     0.023 A 
ATOM     89  C   UNL A   1      45.540  25.543  34.288  1.00  0.00     0.031 A 
ATOM     90  C   UNL A   1      46.918  27.308  33.392  1.00  0.00     0.131 A 
ATOM     91  C   UNL A   1      46.678  25.003  34.905  1.00  0.00     0.055 A 
ATOM     92  C   UNL A   1      48.056  26.733  33.957  1.00  0.00     0.041 A 
ATOM     93  F   UNL A   1      47.075  28.442  32.691  1.00  0.00    -0.206 F 
ATOM     94  C   UNL A   1      47.938  25.581  34.731  1.00  0.00     0.022 A 
BRANCH  91  95
ATOM     95  S   UNL A   1      46.479  23.582  36.015  1.00  0.00     0.124 S 
ATOM     96  O   UNL A   1      45.888  22.586  35.128  1.00  0.00    -0.237 OA
ATOM     97  O   UNL A   1      47.850  23.324  36.441  1.00  0.00    -0.237 OA
ATOM     98  O   UNL A   1      45.590  24.085  37.060  1.00  0.00    -0.744 OA
ENDBRANCH  91  95
ENDBRANCH  65  88
ENDBRANCH  39  40
ENDBRANCH  31  34
ENDBRANCH  29  30
ENDBRANCH  28  29
ENDBRANCH   1  28
TORSDOF 19
ENDMDL
MODEL 2
REMARK VINA RESULT:     -11.8      2.450      7.998
REMARK SMILES CC[C@H](C)Nc1ncnc(N2CCC(C(=O)NCCCCNC(=O)c3ccc(-c4c5nc(c(-c6cc(S(=O)(=O)[O-])ccc6F)c6ccc([nH]6)c(-c6cc(S(=O)(=O)[O-])ccc6F)c6nc(c(-c7cc(S(=O)(=O)[O-])ccc7F)c7ccc4[nH]7)C=C6)C=C5)cc3)CC2)c1[N+](=O)[O-]
REMARK SMILES IDX 19 1 18 2 17 3 15 4 16 5 14 7 11 8 12 9 89 10 13 11 88 12
REMARK SMILES IDX 10 13 6 14 7 15 90 16 8 17 9 18 5 19 3 21 4 22 2 23 1 24
REMARK SMILES IDX 91 25 92 26 93 27 20 28 21 29 22 30 23 31 24 33 25 34 26 35
REMARK SMILES IDX 87 36 27 37 86 38 28 39 29 40 30 41 80 42 31 43 85 44 79 45
REMARK SMILES IDX 81 46 32 47 84 48 78 49 77 50 33 52 65 53 45 54 64 55 46 56
REMARK SMILES IDX 49 57 63 58 82 59 47 60 48 61 62 63 83 64 50 65 34 66 35 67
REMARK SMILES IDX 43 68 36 69 42 70 44 71 41 72 37 73 38 74 39 75 40 76 66 77
REMARK SMILES IDX 67 78 75 79 68 80 74 81 76 82 73 83 69 84 70 85 71 86 72 87
REMARK SMILES IDX 51 88 52 89 60 90 53 91 59 92 61 93 58 94 54 95 55 96 56 97
REMARK SMILES IDX 57 98
REMARK H PARENT 17 6 5 20 22 32 81 51 49 62
REMARK Flexibility Score: inf
ROOT
ATOM      1  C   UNL A   1      32.012  30.146  26.686  1.00  0.00     0.023 C 
ENDROOT
BRANCH   1   2
ATOM      2  C   UNL A   1      32.142  29.602  25.265  1.00  0.00     0.116 C 
BRANCH   2   3
ATOM      3  N   UNL A   1      31.188  28.537  24.996  1.00  0.00    -0.356 N 
ATOM      4  C   UNL A   1      31.381  27.269  24.532  1.00  0.00     0.223 C 
ATOM      5  O   UNL A   1      30.396  26.543  24.385  1.00  0.00    -0.275 OA
ATOM      6  H   UNL A   1      30.248  28.770  25.177  1.00  0.00     0.163 HD
BRANCH   4   7
ATOM      7  C   UNL A   1      32.775  26.743  24.218  1.00  0.00     0.082 C 
ATOM      8  N   UNL A   1      34.259  24.341  24.323  1.00  0.00    -0.351 N 
ATOM      9  C   UNL A   1      34.653  25.358  25.284  1.00  0.00     0.119 C 
ATOM     10  C   UNL A   1      33.919  24.806  22.989  1.00  0.00     0.119 C 
ATOM     11  C   UNL A   1      33.499  26.319  25.506  1.00  0.00     0.035 C 
ATOM     12  C   UNL A   1      32.702  25.712  23.078  1.00  0.00     0.035 C 
BRANCH   8  13
ATOM     13  C   UNL A   1      34.633  23.044  24.593  1.00  0.00     0.213 A 
ATOM     14  C   UNL A   1      34.296  20.764  25.265  1.00  0.00     0.211 A 
ATOM     15  N   UNL A   1      35.609  20.525  25.091  1.00  0.00    -0.213 NA
ATOM     16  C   UNL A   1      33.794  22.038  25.052  1.00  0.00     0.353 A 
ATOM     17  C   UNL A   1      36.365  21.538  24.643  1.00  0.00     0.227 A 
ATOM     18  N   UNL A   1      35.933  22.773  24.358  1.00  0.00    -0.212 NA
BRANCH  14  19
ATOM     19  N   UNL A   1      33.611  19.633  25.645  1.00  0.00    -0.362 N 
ATOM     20  H   UNL A   1      33.285  19.588  26.574  1.00  0.00     0.162 HD
BRANCH  19  21
ATOM     21  C   UNL A   1      33.334  18.491  24.778  1.00  0.00     0.077 C 
ATOM     22  C   UNL A   1      32.755  17.354  25.620  1.00  0.00     0.031 C 
BRANCH  21  23
ATOM     23  C   UNL A   1      32.454  18.947  23.598  1.00  0.00     0.021 C 
ATOM     24  C   UNL A   1      32.454  18.044  22.373  1.00  0.00     0.006 C 
ENDBRANCH  21  23
ENDBRANCH  19  21
ENDBRANCH  14  19
BRANCH  16  25
ATOM     25  N   UNL A   1      32.424  22.339  25.299  1.00  0.00     0.070 N 
ATOM     26  O   UNL A   1      32.131  22.790  26.417  1.00  0.00    -0.258 OA
ATOM     27  O   UNL A   1      31.613  22.114  24.389  1.00  0.00    -0.258 OA
ENDBRANCH  16  25
ENDBRANCH   8  13
ENDBRANCH   4   7
ENDBRANCH   2   3
ENDBRANCH   1   2
BRANCH   1  28
ATOM     28  C   UNL A   1      31.789  31.654  26.775  1.00  0.00     0.023 C 
BRANCH  28  29
ATOM     29  C   UNL A   1      32.942  32.446  27.378  1.00  0.00     0.116 C 
BRANCH  29  30
ATOM     30  N   UNL A   1      32.612  33.843  27.613  1.00  0.00    -0.352 N 
ATOM     31  C   UNL A   1      33.151  34.712  28.533  1.00  0.00     0.251 C 
ATOM     32  H   UNL A   1      31.908  34.217  27.037  1.00  0.00     0.163 HD
ATOM     33  O   UNL A   1      32.656  35.825  28.687  1.00  0.00    -0.269 OA
BRANCH  31  34
ATOM     34  C   UNL A   1      34.299  34.278  29.356  1.00  0.00     0.039 A 
ATOM     35  C   UNL A   1      34.062  33.512  30.499  1.00  0.00     0.014 A 
ATOM     36  C   UNL A   1      35.608  34.589  28.974  1.00  0.00     0.014 A 
ATOM     37  C   UNL A   1      35.141  32.993  31.216  1.00  0.00     0.010 A 
ATOM     38  C   UNL A   1      36.679  34.009  29.645  1.00  0.00     0.010 A 
ATOM     39  C   UNL A   1      36.457  33.202  30.773  1.00  0.00    -0.014 A 
BRANCH  39  40
ATOM     40  C   UNL A   1      37.616  32.588  31.472  1.00  0.00     0.031 A 
ATOM     41  C   UNL A   1      38.345  31.431  30.843  1.00  0.00     0.074 A 
ATOM     42  C   UNL A   1      37.969  33.026  32.696  1.00  0.00     0.049 A 
ATOM     43  N   UNL A   1      39.322  30.707  31.324  1.00  0.00    -0.248 NA
ATOM     44  C   UNL A   1      37.888  31.017  29.509  1.00  0.00     0.031 C 
ATOM     45  C   UNL A   1      37.315  34.114  33.426  1.00  0.00     0.029 A 
ATOM     46  N   UNL A   1      38.960  32.608  33.547  1.00  0.00    -0.354 N 
ATOM     47  C   UNL A   1      39.591  29.745  30.357  1.00  0.00     0.074 A 
ATOM     48  C   UNL A   1      38.624  29.937  29.297  1.00  0.00     0.031 C 
ATOM     49  C   UNL A   1      37.941  34.296  34.599  1.00  0.00     0.029 A 
ATOM     50  C   UNL A   1      39.009  33.311  34.729  1.00  0.00     0.049 A 
ATOM     51  H   UNL A   1      39.579  31.872  33.332  1.00  0.00     0.167 HD
ATOM     52  C   UNL A   1      40.572  28.807  30.341  1.00  0.00     0.034 A 
ATOM     53  C   UNL A   1      39.817  33.171  35.798  1.00  0.00     0.034 A 
ATOM     54  C   UNL A   1      41.532  28.633  31.404  1.00  0.00     0.049 A 
ATOM     55  C   UNL A   1      40.875  32.097  35.776  1.00  0.00     0.074 A 
ATOM     56  C   UNL A   1      42.591  27.745  31.474  1.00  0.00     0.029 A 
ATOM     57  N   UNL A   1      41.545  29.358  32.589  1.00  0.00    -0.354 N 
ATOM     58  N   UNL A   1      41.145  31.221  34.835  1.00  0.00    -0.248 NA
ATOM     59  C   UNL A   1      41.743  32.000  36.956  1.00  0.00     0.031 C 
ATOM     60  C   UNL A   1      43.203  27.889  32.725  1.00  0.00     0.029 A 
ATOM     61  C   UNL A   1      42.575  28.919  33.408  1.00  0.00     0.049 A 
ATOM     62  H   UNL A   1      40.915  30.080  32.816  1.00  0.00     0.167 HD
ATOM     63  C   UNL A   1      42.236  30.491  35.299  1.00  0.00     0.074 A 
ATOM     64  C   UNL A   1      42.580  31.039  36.596  1.00  0.00     0.031 C 
ATOM     65  C   UNL A   1      42.899  29.466  34.704  1.00  0.00     0.034 A 
BRANCH  52  66
ATOM     66  C   UNL A   1      40.628  27.891  29.140  1.00  0.00     0.023 A 
ATOM     67  C   UNL A   1      41.582  28.069  28.122  1.00  0.00     0.031 A 
ATOM     68  C   UNL A   1      39.688  26.857  28.983  1.00  0.00     0.131 A 
ATOM     69  C   UNL A   1      41.517  27.294  26.954  1.00  0.00     0.055 A 
ATOM     70  C   UNL A   1      39.686  26.028  27.858  1.00  0.00     0.041 A 
ATOM     71  F   UNL A   1      38.739  26.648  29.909  1.00  0.00    -0.206 F 
ATOM     72  C   UNL A   1      40.592  26.256  26.826  1.00  0.00     0.022 A 
BRANCH  69  73
ATOM     73  S   UNL A   1      42.549  27.773  25.543  1.00  0.00     0.124 S 
ATOM     74  O   UNL A   1      42.445  26.592  24.688  1.00  0.00    -0.237 OA
ATOM     75  O   UNL A   1      41.882  28.975  25.056  1.00  0.00    -0.237 OA
ATOM     76  O   UNL A   1      43.866  27.987  26.138  1.00  0.00    -0.744 OA
ENDBRANCH  69  73
ENDBRANCH  52  66
BRANCH  53  77
ATOM     77  C   UNL A   1      39.668  34.065  36.982  1.00  0.00     0.023 A 
ATOM     78  C   UNL A   1      39.112  33.585  38.178  1.00  0.00     0.031 A 
ATOM     79  C   UNL A   1      40.043  35.418  36.924  1.00  0.00     0.131 A 
ATOM     80  C   UNL A   1      38.904  34.463  39.254  1.00  0.00     0.055 A 
ATOM     81  C   UNL A   1      39.882  36.276  38.013  1.00  0.00     0.041 A 
ATOM     82  F   UNL A   1      40.586  35.925  35.805  1.00  0.00    -0.206 F 
ATOM     83  C   UNL A   1      39.297  35.802  39.184  1.00  0.00     0.022 A 
BRANCH  80  84
ATOM     84  S   UNL A   1      38.040  33.844  40.723  1.00  0.00     0.124 S 
ATOM     85  O   UNL A   1      39.042  32.961  41.308  1.00  0.00    -0.237 OA
ATOM     86  O   UNL A   1      37.763  35.076  41.454  1.00  0.00    -0.237 OA
ATOM     87  O   UNL A   1      36.864  33.174  40.169  1.00  0.00    -0.744 OA
ENDBRANCH  80  84
ENDBRANCH  53  77
BRANCH  65  88
ATOM     88  C   UNL A   1      44.093  28.907  35.438  1.00  0.00     0.023 A 
ATOM     89  C   UNL A   1      43.982  27.813  36.313  1.00  0.00     0.031 A 
ATOM     90  C   UNL A   1      45.362  29.493  35.269  1.00  0.00     0.131 A 
ATOM     91  C   UNL A   1      45.106  27.373  37.028  1.00  0.00     0.055 A 
ATOM     92  C   UNL A   1      46.488  29.012  35.938  1.00  0.00     0.041 A 
ATOM     93  F   UNL A   1      45.525  30.542  34.448  1.00  0.00    -0.206 F 
ATOM     94  C   UNL A   1      46.361  27.954  36.834  1.00  0.00     0.022 A 
BRANCH  91  95
ATOM     95  S   UNL A   1      44.889  26.085  38.288  1.00  0.00     0.124 S 
ATOM     96  O   UNL A   1      45.981  26.377  39.211  1.00  0.00    -0.237 OA
ATOM     97  O   UNL A   1      43.544  26.357  38.784  1.00  0.00    -0.237 OA
ATOM     98  O   UNL A   1      45.031  24.840  37.535  1.00  0.00    -0.744 OA
ENDBRANCH  91  95
ENDBRANCH  65  88
ENDBRANCH  39  40
ENDBRANCH  31  34
ENDBRANCH  29  30
ENDBRANCH  28  29
ENDBRANCH   1  28
TORSDOF 19
ENDMDL
MODEL 3
REMARK VINA RESULT:     -11.6      1.147      7.422
REMARK SMILES CC[C@H](C)Nc1ncnc(N2CCC(C(=O)NCCCCNC(=O)c3ccc(-c4c5nc(c(-c6cc(S(=O)(=O)[O-])ccc6F)c6ccc([nH]6)c(-c6cc(S(=O)(=O)[O-])ccc6F)c6nc(c(-c7cc(S(=O)(=O)[O-])ccc7F)c7ccc4[nH]7)C=C6)C=C5)cc3)CC2)c1[N+](=O)[O-]
REMARK SMILES IDX 19 1 18 2 17 3 15 4 16 5 14 7 11 8 12 9 89 10 13 11 88 12
REMARK SMILES IDX 10 13 6 14 7 15 90 16 8 17 9 18 5 19 3 21 4 22 2 23 1 24
REMARK SMILES IDX 91 25 92 26 93 27 20 28 21 29 22 30 23 31 24 33 25 34 26 35
REMARK SMILES IDX 87 36 27 37 86 38 28 39 29 40 30 41 80 42 31 43 85 44 79 45
REMARK SMILES IDX 81 46 32 47 84 48 78 49 77 50 33 52 65 53 45 54 64 55 46 56
REMARK SMILES IDX 49 57 63 58 82 59 47 60 48 61 62 63 83 64 50 65 34 66 35 67
REMARK SMILES IDX 43 68 36 69 42 70 44 71 41 72 37 73 38 74 39 75 40 76 66 77
REMARK SMILES IDX 67 78 75 79 68 80 74 81 76 82 73 83 69 84 70 85 71 86 72 87
REMARK SMILES IDX 51 88 52 89 60 90 53 91 59 92 61 93 58 94 54 95 55 96 56 97
REMARK SMILES IDX 57 98
REMARK H PARENT 17 6 5 20 22 32 81 51 49 62
REMARK Flexibility Score: inf
ROOT
ATOM      1  C   UNL A   1      31.429  28.456  25.128  1.00  0.00     0.023 C 
ENDROOT
BRANCH   1   2
ATOM      2  C   UNL A   1      30.959  28.210  23.695  1.00  0.00     0.116 C 
BRANCH   2   3
ATOM      3  N   UNL A   1      30.339  26.902  23.539  1.00  0.00    -0.356 N 
ATOM      4  C   UNL A   1      30.881  25.652  23.592  1.00  0.00     0.223 C 
ATOM      5  O   UNL A   1      30.137  24.684  23.425  1.00  0.00    -0.275 OA
ATOM      6  H   UNL A   1      29.370  26.923  23.365  1.00  0.00     0.163 HD
BRANCH   4   7
ATOM      7  C   UNL A   1      32.364  25.441  23.869  1.00  0.00     0.082 C 
ATOM      8  N   UNL A   1      34.210  23.347  24.305  1.00  0.00    -0.351 N 
ATOM      9  C   UNL A   1      33.916  24.169  25.468  1.00  0.00     0.119 C 
ATOM     10  C   UNL A   1      34.343  24.042  23.037  1.00  0.00     0.119 C 
ATOM     11  C   UNL A   1      32.577  24.857  25.276  1.00  0.00     0.035 C 
ATOM     12  C   UNL A   1      33.017  24.698  22.691  1.00  0.00     0.035 C 
BRANCH   8  13
ATOM     13  C   UNL A   1      34.744  22.100  24.538  1.00  0.00     0.213 A 
ATOM     14  C   UNL A   1      34.696  19.715  24.814  1.00  0.00     0.211 A 
ATOM     15  N   UNL A   1      36.022  19.721  25.046  1.00  0.00    -0.213 NA
ATOM     16  C   UNL A   1      34.031  20.910  24.591  1.00  0.00     0.353 A 
ATOM     17  C   UNL A   1      36.653  20.903  24.978  1.00  0.00     0.227 A 
ATOM     18  N   UNL A   1      36.082  22.083  24.706  1.00  0.00    -0.212 NA
BRANCH  14  19
ATOM     19  N   UNL A   1      34.175  18.442  24.828  1.00  0.00    -0.362 N 
ATOM     20  H   UNL A   1      33.327  18.302  25.308  1.00  0.00     0.162 HD
BRANCH  19  21
ATOM     21  C   UNL A   1      34.787  17.281  24.188  1.00  0.00     0.077 C 
ATOM     22  C   UNL A   1      35.039  16.204  25.243  1.00  0.00     0.031 C 
BRANCH  21  23
ATOM     23  C   UNL A   1      33.918  16.837  22.995  1.00  0.00     0.021 C 
ATOM     24  C   UNL A   1      32.719  17.718  22.673  1.00  0.00     0.006 C 
ENDBRANCH  21  23
ENDBRANCH  19  21
ENDBRANCH  14  19
BRANCH  16  25
ATOM     25  N   UNL A   1      32.618  20.944  24.415  1.00  0.00     0.070 N 
ATOM     26  O   UNL A   1      32.188  21.218  23.284  1.00  0.00    -0.258 OA
ATOM     27  O   UNL A   1      31.910  20.718  25.408  1.00  0.00    -0.258 OA
ENDBRANCH  16  25
ENDBRANCH   8  13
ENDBRANCH   4   7
ENDBRANCH   2   3
ENDBRANCH   1   2
BRANCH   1  28
ATOM     28  C   UNL A   1      31.234  29.886  25.627  1.00  0.00     0.023 C 
BRANCH  28  29
ATOM     29  C   UNL A   1      32.504  30.591  26.085  1.00  0.00     0.116 C 
BRANCH  29  30
ATOM     30  N   UNL A   1      32.272  31.962  26.513  1.00  0.00    -0.352 N 
ATOM     31  C   UNL A   1      33.004  32.726  27.392  1.00  0.00     0.251 C 
ATOM     32  H   UNL A   1      31.484  32.403  26.121  1.00  0.00     0.163 HD
ATOM     33  O   UNL A   1      32.585  33.824  27.744  1.00  0.00    -0.269 OA
BRANCH  31  34
ATOM     34  C   UNL A   1      34.273  32.194  27.932  1.00  0.00     0.039 A 
ATOM     35  C   UNL A   1      35.359  33.058  28.086  1.00  0.00     0.014 A 
ATOM     36  C   UNL A   1      34.374  30.856  28.327  1.00  0.00     0.014 A 
ATOM     37  C   UNL A   1      36.522  32.599  28.707  1.00  0.00     0.010 A 
ATOM     38  C   UNL A   1      35.504  30.423  29.012  1.00  0.00     0.010 A 
ATOM     39  C   UNL A   1      36.590  31.291  29.212  1.00  0.00    -0.014 A 
BRANCH  39  40
ATOM     40  C   UNL A   1      37.785  30.808  29.952  1.00  0.00     0.031 A 
ATOM     41  C   UNL A   1      38.711  29.810  29.311  1.00  0.00     0.074 A 
ATOM     42  C   UNL A   1      37.998  31.214  31.218  1.00  0.00     0.049 A 
ATOM     43  N   UNL A   1      39.755  29.206  29.815  1.00  0.00    -0.248 NA
ATOM     44  C   UNL A   1      38.398  29.419  27.929  1.00  0.00     0.031 C 
ATOM     45  C   UNL A   1      37.150  32.148  31.961  1.00  0.00     0.029 A 
ATOM     46  N   UNL A   1      38.991  30.890  32.109  1.00  0.00    -0.354 N 
ATOM     47  C   UNL A   1      40.219  28.355  28.817  1.00  0.00     0.074 A 
ATOM     48  C   UNL A   1      39.296  28.473  27.708  1.00  0.00     0.031 C 
ATOM     49  C   UNL A   1      37.675  32.344  33.182  1.00  0.00     0.029 A 
ATOM     50  C   UNL A   1      38.867  31.516  33.328  1.00  0.00     0.049 A 
ATOM     51  H   UNL A   1      39.722  30.266  31.896  1.00  0.00     0.167 HD
ATOM     52  C   UNL A   1      41.327  27.571  28.815  1.00  0.00     0.034 A 
ATOM     53  C   UNL A   1      39.625  31.428  34.439  1.00  0.00     0.034 A 
ATOM     54  C   UNL A   1      42.239  27.470  29.928  1.00  0.00     0.049 A 
ATOM     55  C   UNL A   1      40.829  30.520  34.428  1.00  0.00     0.074 A 
ATOM     56  C   UNL A   1      43.412  26.742  30.020  1.00  0.00     0.029 A 
ATOM     57  N   UNL A   1      42.078  28.113  31.149  1.00  0.00    -0.354 N 
ATOM     58  N   UNL A   1      41.279  29.754  33.461  1.00  0.00    -0.248 NA
ATOM     59  C   UNL A   1      41.633  30.476  35.656  1.00  0.00     0.031 C 
ATOM     60  C   UNL A   1      43.924  26.893  31.314  1.00  0.00     0.029 A 
ATOM     61  C   UNL A   1      43.113  27.776  32.008  1.00  0.00     0.049 A 
ATOM     62  H   UNL A   1      41.335  28.722  31.372  1.00  0.00     0.167 HD
ATOM     63  C   UNL A   1      42.437  29.161  33.955  1.00  0.00     0.074 A 
ATOM     64  C   UNL A   1      42.622  29.669  35.300  1.00  0.00     0.031 C 
ATOM     65  C   UNL A   1      43.277  28.282  33.351  1.00  0.00     0.034 A 
BRANCH  52  66
ATOM     66  C   UNL A   1      41.585  26.750  27.573  1.00  0.00     0.023 A 
ATOM     67  C   UNL A   1      41.226  25.392  27.502  1.00  0.00     0.031 A 
ATOM     68  C   UNL A   1      42.241  27.313  26.464  1.00  0.00     0.131 A 
ATOM     69  C   UNL A   1      41.608  24.621  26.392  1.00  0.00     0.055 A 
ATOM     70  C   UNL A   1      42.537  26.562  25.323  1.00  0.00     0.041 A 
ATOM     71  F   UNL A   1      42.627  28.598  26.478  1.00  0.00    -0.206 F 
ATOM     72  C   UNL A   1      42.238  25.203  25.291  1.00  0.00     0.022 A 
BRANCH  69  73
ATOM     73  S   UNL A   1      41.418  22.820  26.487  1.00  0.00     0.124 S 
ATOM     74  O   UNL A   1      39.987  22.662  26.237  1.00  0.00    -0.237 OA
ATOM     75  O   UNL A   1      42.307  22.352  25.431  1.00  0.00    -0.237 OA
ATOM     76  O   UNL A   1      41.843  22.502  27.848  1.00  0.00    -0.744 OA
ENDBRANCH  69  73
ENDBRANCH  52  66
BRANCH  53  77
ATOM     77  C   UNL A   1      39.278  32.214  35.657  1.00  0.00     0.023 A 
ATOM     78  C   UNL A   1      38.516  31.643  36.687  1.00  0.00     0.031 A 
ATOM     79  C   UNL A   1      39.670  33.557  35.792  1.00  0.00     0.131 A 
ATOM     80  C   UNL A   1      38.130  32.425  37.788  1.00  0.00     0.055 A 
ATOM     81  C   UNL A   1      39.328  34.316  36.912  1.00  0.00     0.041 A 
ATOM     82  F   UNL A   1      40.407  34.149  34.838  1.00  0.00    -0.206 F 
ATOM     83  C   UNL A   1      38.541  33.753  37.913  1.00  0.00     0.022 A 
BRANCH  80  84
ATOM     84  S   UNL A   1      37.014  31.697  39.019  1.00  0.00     0.124 S 
ATOM     85  O   UNL A   1      36.895  30.325  38.539  1.00  0.00    -0.237 OA
ATOM     86  O   UNL A   1      37.766  31.883  40.256  1.00  0.00    -0.237 OA
ATOM     87  O   UNL A   1      35.803  32.508  38.902  1.00  0.00    -0.744 OA
ENDBRANCH  80  84
ENDBRANCH  53  77
BRANCH  65  88
ATOM     88  C   UNL A   1      44.497  27.856  34.130  1.00  0.00     0.023 A 
ATOM     89  C   UNL A   1      44.459  26.789  35.046  1.00  0.00     0.031 A 
ATOM     90  C   UNL A   1      45.715  28.541  33.964  1.00  0.00     0.131 A 
ATOM     91  C   UNL A   1      45.598  26.475  35.800  1.00  0.00     0.055 A 
ATOM     92  C   UNL A   1      46.862  28.184  34.674  1.00  0.00     0.041 A 
ATOM     93  F   UNL A   1      45.808  29.569  33.106  1.00  0.00    -0.206 F 
ATOM     94  C   UNL A   1      46.804  27.154  35.609  1.00  0.00     0.022 A 
BRANCH  91  95
ATOM     95  S   UNL A   1      45.462  25.221  37.105  1.00  0.00     0.124 S 
ATOM     96  O   UNL A   1      44.224  24.539  36.741  1.00  0.00    -0.237 OA
ATOM     97  O   UNL A   1      46.689  24.453  36.929  1.00  0.00    -0.237 OA
ATOM     98  O   UNL A   1      45.395  26.009  38.334  1.00  0.00    -0.744 OA
ENDBRANCH  91  95
ENDBRANCH  65  88
ENDBRANCH  39  40
ENDBRANCH  31  34
ENDBRANCH  29  30
ENDBRANCH  28  29
ENDBRANCH   1  28
TORSDOF 19
ENDMDL
