MODEL 1
REMARK VINA RESULT:     -12.5      0.000      0.000
REMARK SMILES Cc1nn(C)cc1C[NH+]1CCN(C(=O)c2cnn(CC(=O)NCCCCNC(=O)c3ccc(-c4c5nc(c(-c6cc(S(=O)(=O)[O-])ccc6F)c6ccc([nH]6)c(-c6cc(S(=O)(=O)[O-])ccc6F)c6nc(c(-c7cc(S(=O)(=O)[O-])ccc7F)c7ccc4[nH]7)C=C6)C=C5)cc3)c2)CC1
REMARK SMILES IDX 24 1 23 2 22 3 20 4 21 5 19 7 18 8 15 9 16 10 93 11 17 12
REMARK SMILES IDX 13 13 9 14 10 15 95 16 11 18 94 19 12 20 14 21 8 22 7 23
REMARK SMILES IDX 1 24 2 25 3 26 4 27 6 28 5 29 25 30 26 31 27 32 28 33 29 35
REMARK SMILES IDX 30 36 31 37 92 38 32 39 91 40 33 41 34 42 35 43 85 44 36 45
REMARK SMILES IDX 90 46 84 47 86 48 37 49 89 50 83 51 82 52 38 54 70 55 50 56
REMARK SMILES IDX 69 57 51 58 54 59 68 60 87 61 52 62 53 63 67 65 88 66 55 67
REMARK SMILES IDX 39 68 40 69 48 70 41 71 47 72 49 73 46 74 42 75 43 76 44 77
REMARK SMILES IDX 45 78 71 79 72 80 80 81 73 82 79 83 81 84 78 85 74 86 75 87
REMARK SMILES IDX 76 88 77 89 56 90 57 91 65 92 58 93 64 94 66 95 63 96 59 97
REMARK SMILES IDX 60 98 61 99 62 100
REMARK H PARENT 22 6 9 17 27 34 86 53 54 64
REMARK Flexibility Score: inf
ROOT
ATOM      1  C   UNL A   1      37.408  21.293  24.663  1.00  0.00     0.023 C 
ENDROOT
BRANCH   1   2
ATOM      2  C   UNL A   1      35.932  21.322  25.072  1.00  0.00     0.116 C 
BRANCH   2   3
ATOM      3  N   UNL A   1      35.329  20.007  25.011  1.00  0.00    -0.354 N 
ATOM      4  C   UNL A   1      34.035  19.648  24.747  1.00  0.00     0.241 C 
ATOM      5  O   UNL A   1      33.755  18.448  24.824  1.00  0.00    -0.273 OA
ATOM      6  H   UNL A   1      35.941  19.257  25.186  1.00  0.00     0.163 HD
BRANCH   4   7
ATOM      7  C   UNL A   1      33.016  20.654  24.253  1.00  0.00     0.243 C 
BRANCH   7   8
ATOM      8  N   UNL A   1      32.608  21.624  25.251  1.00  0.00    -0.262 N 
ATOM      9  C   UNL A   1      31.753  23.405  26.237  1.00  0.00     0.078 A 
ATOM     10  C   UNL A   1      32.478  22.582  27.126  1.00  0.00     0.149 A 
ATOM     11  C   UNL A   1      31.769  22.687  25.055  1.00  0.00     0.123 A 
ATOM     12  N   UNL A   1      33.015  21.514  26.531  1.00  0.00    -0.180 NA
BRANCH   9  13
ATOM     13  C   UNL A   1      31.071  24.665  26.451  1.00  0.00     0.257 C 
ATOM     14  N   UNL A   1      33.052  28.491  25.741  1.00  0.00    -0.328 N 
ATOM     15  C   UNL A   1      31.807  28.388  26.510  1.00  0.00     0.284 C 
ATOM     16  C   UNL A   1      33.848  27.271  25.871  1.00  0.00     0.284 C 
ATOM     17  H   UNL A   1      33.589  29.236  26.185  1.00  0.00     0.348 HD
ATOM     18  C   UNL A   1      30.997  27.091  26.323  1.00  0.00     0.181 C 
ATOM     19  C   UNL A   1      33.110  25.934  25.690  1.00  0.00     0.181 C 
ATOM     20  N   UNL A   1      31.792  25.859  26.330  1.00  0.00    -0.327 N 
ATOM     21  O   UNL A   1      29.847  24.665  26.675  1.00  0.00    -0.269 OA
BRANCH  14  22
ATOM     22  C   UNL A   1      32.960  29.070  24.395  1.00  0.00     0.302 C 
BRANCH  22  23
ATOM     23  C   UNL A   1      31.676  28.802  23.690  1.00  0.00     0.047 A 
ATOM     24  C   UNL A   1      32.191  26.592  22.358  1.00  0.00     0.069 C 
ATOM     25  C   UNL A   1      31.366  27.748  22.783  1.00  0.00     0.068 A 
ATOM     26  N   UNL A   1      30.158  27.906  22.232  1.00  0.00    -0.178 NA
ATOM     27  N   UNL A   1      29.674  29.014  22.810  1.00  0.00    -0.275 N 
ATOM     28  C   UNL A   1      30.488  29.501  23.788  1.00  0.00     0.118 A 
ATOM     29  C   UNL A   1      28.493  29.641  22.268  1.00  0.00     0.173 C 
ENDBRANCH  22  23
ENDBRANCH  14  22
ENDBRANCH   9  13
ENDBRANCH   7   8
ENDBRANCH   4   7
ENDBRANCH   2   3
ENDBRANCH   1   2
BRANCH   1  30
ATOM     30  C   UNL A   1      38.202  20.024  25.007  1.00  0.00     0.023 C 
BRANCH  30  31
ATOM     31  C   UNL A   1      39.327  20.194  26.023  1.00  0.00     0.116 C 
BRANCH  31  32
ATOM     32  N   UNL A   1      40.458  19.277  25.826  1.00  0.00    -0.352 N 
ATOM     33  C   UNL A   1      41.806  19.597  25.761  1.00  0.00     0.251 C 
ATOM     34  H   UNL A   1      40.233  18.324  25.728  1.00  0.00     0.163 HD
ATOM     35  O   UNL A   1      42.603  18.829  25.209  1.00  0.00    -0.269 OA
BRANCH  33  36
ATOM     36  C   UNL A   1      42.266  20.855  26.363  1.00  0.00     0.039 A 
ATOM     37  C   UNL A   1      42.586  21.995  25.620  1.00  0.00     0.014 A 
ATOM     38  C   UNL A   1      42.277  20.889  27.749  1.00  0.00     0.014 A 
ATOM     39  C   UNL A   1      42.809  23.195  26.299  1.00  0.00     0.010 A 
ATOM     40  C   UNL A   1      42.261  22.095  28.386  1.00  0.00     0.010 A 
ATOM     41  C   UNL A   1      42.618  23.240  27.689  1.00  0.00    -0.014 A 
BRANCH  41  42
ATOM     42  C   UNL A   1      42.683  24.477  28.460  1.00  0.00     0.031 A 
ATOM     43  C   UNL A   1      41.576  25.435  28.203  1.00  0.00     0.074 A 
ATOM     44  C   UNL A   1      43.500  24.613  29.530  1.00  0.00     0.049 A 
ATOM     45  N   UNL A   1      41.645  26.582  27.617  1.00  0.00    -0.248 NA
ATOM     46  C   UNL A   1      40.197  25.007  28.496  1.00  0.00     0.031 C 
ATOM     47  C   UNL A   1      44.411  23.623  30.120  1.00  0.00     0.029 A 
ATOM     48  N   UNL A   1      43.582  25.640  30.415  1.00  0.00    -0.354 N 
ATOM     49  C   UNL A   1      40.370  27.135  27.704  1.00  0.00     0.074 A 
ATOM     50  C   UNL A   1      39.495  26.042  28.028  1.00  0.00     0.031 C 
ATOM     51  C   UNL A   1      44.740  23.994  31.377  1.00  0.00     0.029 A 
ATOM     52  C   UNL A   1      44.225  25.329  31.612  1.00  0.00     0.049 A 
ATOM     53  H   UNL A   1      43.217  26.534  30.226  1.00  0.00     0.167 HD
ATOM     54  C   UNL A   1      40.190  28.487  27.759  1.00  0.00     0.034 A 
ATOM     55  C   UNL A   1      44.308  26.108  32.724  1.00  0.00     0.034 A 
ATOM     56  C   UNL A   1      41.406  29.183  27.389  1.00  0.00     0.049 A 
ATOM     57  C   UNL A   1      44.069  27.502  32.271  1.00  0.00     0.074 A 
ATOM     58  C   UNL A   1      42.231  29.161  26.278  1.00  0.00     0.029 A 
ATOM     59  N   UNL A   1      42.169  29.737  28.394  1.00  0.00    -0.354 N 
ATOM     60  N   UNL A   1      44.866  28.132  31.451  1.00  0.00    -0.248 NA
ATOM     61  C   UNL A   1      42.702  28.002  32.309  1.00  0.00     0.031 C 
ATOM     62  C   UNL A   1      43.555  29.174  26.814  1.00  0.00     0.029 A 
ATOM     63  C   UNL A   1      43.462  29.311  28.200  1.00  0.00     0.049 A 
ATOM     64  H   UNL A   1      41.850  30.328  29.115  1.00  0.00     0.167 HD
ATOM     65  C   UNL A   1      44.025  28.790  30.566  1.00  0.00     0.074 A 
ATOM     66  C   UNL A   1      42.707  28.750  31.200  1.00  0.00     0.031 C 
ATOM     67  C   UNL A   1      44.401  29.042  29.276  1.00  0.00     0.034 A 
BRANCH  54  68
ATOM     68  C   UNL A   1      39.064  29.193  28.486  1.00  0.00     0.023 A 
ATOM     69  C   UNL A   1      39.087  29.152  29.895  1.00  0.00     0.031 A 
ATOM     70  C   UNL A   1      37.854  29.646  27.912  1.00  0.00     0.131 A 
ATOM     71  C   UNL A   1      37.935  29.430  30.650  1.00  0.00     0.055 A 
ATOM     72  C   UNL A   1      36.732  29.993  28.671  1.00  0.00     0.041 A 
ATOM     73  F   UNL A   1      37.649  29.691  26.592  1.00  0.00    -0.206 F 
ATOM     74  C   UNL A   1      36.755  29.852  30.046  1.00  0.00     0.022 A 
BRANCH  71  75
ATOM     75  S   UNL A   1      37.956  29.042  32.418  1.00  0.00     0.124 S 
ATOM     76  O   UNL A   1      38.292  27.622  32.401  1.00  0.00    -0.237 OA
ATOM     77  O   UNL A   1      38.992  29.944  32.910  1.00  0.00    -0.237 OA
ATOM     78  O   UNL A   1      36.597  29.357  32.850  1.00  0.00    -0.744 OA
ENDBRANCH  71  75
ENDBRANCH  54  68
BRANCH  55  79
ATOM     79  C   UNL A   1      44.260  25.679  34.151  1.00  0.00     0.023 A 
ATOM     80  C   UNL A   1      44.680  26.511  35.213  1.00  0.00     0.031 A 
ATOM     81  C   UNL A   1      43.550  24.511  34.512  1.00  0.00     0.131 A 
ATOM     82  C   UNL A   1      44.380  26.168  36.554  1.00  0.00     0.055 A 
ATOM     83  C   UNL A   1      43.255  24.178  35.837  1.00  0.00     0.041 A 
ATOM     84  F   UNL A   1      43.038  23.692  33.578  1.00  0.00    -0.206 F 
ATOM     85  C   UNL A   1      43.659  25.013  36.865  1.00  0.00     0.022 A 
BRANCH  82  86
ATOM     86  S   UNL A   1      44.839  27.282  37.924  1.00  0.00     0.124 S 
ATOM     87  O   UNL A   1      44.371  28.575  37.438  1.00  0.00    -0.237 OA
ATOM     88  O   UNL A   1      44.113  26.712  39.053  1.00  0.00    -0.237 OA
ATOM     89  O   UNL A   1      46.294  27.144  38.002  1.00  0.00    -0.744 OA
ENDBRANCH  82  86
ENDBRANCH  55  79
BRANCH  67  90
ATOM     90  C   UNL A   1      45.852  28.828  28.878  1.00  0.00     0.023 A 
ATOM     91  C   UNL A   1      46.405  27.602  28.437  1.00  0.00     0.031 A 
ATOM     92  C   UNL A   1      46.674  29.967  28.819  1.00  0.00     0.131 A 
ATOM     93  C   UNL A   1      47.735  27.554  27.967  1.00  0.00     0.055 A 
ATOM     94  C   UNL A   1      47.981  29.919  28.334  1.00  0.00     0.041 A 
ATOM     95  F   UNL A   1      46.203  31.166  29.198  1.00  0.00    -0.206 F 
ATOM     96  C   UNL A   1      48.519  28.711  27.911  1.00  0.00     0.022 A 
BRANCH  93  97
ATOM     97  S   UNL A   1      48.483  25.979  27.430  1.00  0.00     0.124 S 
ATOM     98  O   UNL A   1      48.330  26.004  25.979  1.00  0.00    -0.237 OA
ATOM     99  O   UNL A   1      49.850  26.089  27.930  1.00  0.00    -0.237 OA
ATOM    100  O   UNL A   1      47.668  24.968  28.108  1.00  0.00    -0.744 OA
ENDBRANCH  93  97
ENDBRANCH  67  90
ENDBRANCH  41  42
ENDBRANCH  33  36
ENDBRANCH  31  32
ENDBRANCH  30  31
ENDBRANCH   1  30
TORSDOF 18
ENDMDL
MODEL 2
REMARK VINA RESULT:     -12.4      3.372      6.885
REMARK SMILES Cc1nn(C)cc1C[NH+]1CCN(C(=O)c2cnn(CC(=O)NCCCCNC(=O)c3ccc(-c4c5nc(c(-c6cc(S(=O)(=O)[O-])ccc6F)c6ccc([nH]6)c(-c6cc(S(=O)(=O)[O-])ccc6F)c6nc(c(-c7cc(S(=O)(=O)[O-])ccc7F)c7ccc4[nH]7)C=C6)C=C5)cc3)c2)CC1
REMARK SMILES IDX 24 1 23 2 22 3 20 4 21 5 19 7 18 8 15 9 16 10 93 11 17 12
REMARK SMILES IDX 13 13 9 14 10 15 95 16 11 18 94 19 12 20 14 21 8 22 7 23
REMARK SMILES IDX 1 24 2 25 3 26 4 27 6 28 5 29 25 30 26 31 27 32 28 33 29 35
REMARK SMILES IDX 30 36 31 37 92 38 32 39 91 40 33 41 34 42 35 43 85 44 36 45
REMARK SMILES IDX 90 46 84 47 86 48 37 49 89 50 83 51 82 52 38 54 70 55 50 56
REMARK SMILES IDX 69 57 51 58 54 59 68 60 87 61 52 62 53 63 67 65 88 66 55 67
REMARK SMILES IDX 39 68 40 69 48 70 41 71 47 72 49 73 46 74 42 75 43 76 44 77
REMARK SMILES IDX 45 78 71 79 72 80 80 81 73 82 79 83 81 84 78 85 74 86 75 87
REMARK SMILES IDX 76 88 77 89 56 90 57 91 65 92 58 93 64 94 66 95 63 96 59 97
REMARK SMILES IDX 60 98 61 99 62 100
REMARK H PARENT 22 6 9 17 27 34 86 53 54 64
REMARK Flexibility Score: inf
ROOT
ATOM      1  C   UNL A   1      36.644  21.127  25.769  1.00  0.00     0.023 C 
ENDROOT
BRANCH   1   2
ATOM      2  C   UNL A   1      35.642  20.789  24.660  1.00  0.00     0.116 C 
BRANCH   2   3
ATOM      3  N   UNL A   1      34.813  19.654  25.007  1.00  0.00    -0.354 N 
ATOM      4  C   UNL A   1      33.450  19.544  25.045  1.00  0.00     0.241 C 
ATOM      5  O   UNL A   1      32.981  18.474  25.446  1.00  0.00    -0.273 OA
ATOM      6  H   UNL A   1      35.304  18.837  25.253  1.00  0.00     0.163 HD
BRANCH   4   7
ATOM      7  C   UNL A   1      32.549  20.631  24.498  1.00  0.00     0.243 C 
BRANCH   7   8
ATOM      8  N   UNL A   1      32.345  21.745  25.405  1.00  0.00    -0.262 N 
ATOM      9  C   UNL A   1      31.669  23.654  26.283  1.00  0.00     0.078 A 
ATOM     10  C   UNL A   1      32.621  22.989  27.086  1.00  0.00     0.149 A 
ATOM     11  C   UNL A   1      31.436  22.756  25.257  1.00  0.00     0.123 A 
ATOM     12  N   UNL A   1      33.049  21.844  26.549  1.00  0.00    -0.180 NA
BRANCH   9  13
ATOM     13  C   UNL A   1      30.999  24.926  26.460  1.00  0.00     0.257 C 
ATOM     14  N   UNL A   1      33.094  28.715  25.886  1.00  0.00    -0.328 N 
ATOM     15  C   UNL A   1      31.803  28.634  26.577  1.00  0.00     0.284 C 
ATOM     16  C   UNL A   1      33.857  27.478  26.059  1.00  0.00     0.284 C 
ATOM     17  H   UNL A   1      33.618  29.448  26.364  1.00  0.00     0.348 HD
ATOM     18  C   UNL A   1      30.981  27.353  26.337  1.00  0.00     0.181 C 
ATOM     19  C   UNL A   1      33.105  26.157  25.829  1.00  0.00     0.181 C 
ATOM     20  N   UNL A   1      31.749  26.106  26.387  1.00  0.00    -0.327 N 
ATOM     21  O   UNL A   1      29.764  24.950  26.610  1.00  0.00    -0.269 OA
BRANCH  14  22
ATOM     22  C   UNL A   1      33.095  29.299  24.538  1.00  0.00     0.302 C 
BRANCH  22  23
ATOM     23  C   UNL A   1      32.487  28.437  23.487  1.00  0.00     0.047 A 
ATOM     24  C   UNL A   1      30.008  29.311  23.376  1.00  0.00     0.069 C 
ATOM     25  C   UNL A   1      31.141  28.426  23.018  1.00  0.00     0.068 A 
ATOM     26  N   UNL A   1      30.920  27.417  22.169  1.00  0.00    -0.178 NA
ATOM     27  N   UNL A   1      32.112  26.817  22.051  1.00  0.00    -0.275 N 
ATOM     28  C   UNL A   1      33.106  27.476  22.710  1.00  0.00     0.118 A 
ATOM     29  C   UNL A   1      32.198  25.525  21.415  1.00  0.00     0.173 C 
ENDBRANCH  22  23
ENDBRANCH  14  22
ENDBRANCH   9  13
ENDBRANCH   7   8
ENDBRANCH   4   7
ENDBRANCH   2   3
ENDBRANCH   1   2
BRANCH   1  30
ATOM     30  C   UNL A   1      38.090  21.416  25.337  1.00  0.00     0.023 C 
BRANCH  30  31
ATOM     31  C   UNL A   1      38.836  22.462  26.159  1.00  0.00     0.116 C 
BRANCH  31  32
ATOM     32  N   UNL A   1      39.813  21.901  27.101  1.00  0.00    -0.352 N 
ATOM     33  C   UNL A   1      40.867  22.556  27.720  1.00  0.00     0.251 C 
ATOM     34  H   UNL A   1      39.708  20.946  27.319  1.00  0.00     0.163 HD
ATOM     35  O   UNL A   1      41.829  21.915  28.158  1.00  0.00    -0.269 OA
BRANCH  33  36
ATOM     36  C   UNL A   1      40.816  24.019  27.847  1.00  0.00     0.039 A 
ATOM     37  C   UNL A   1      39.633  24.760  27.767  1.00  0.00     0.014 A 
ATOM     38  C   UNL A   1      42.018  24.636  28.154  1.00  0.00     0.014 A 
ATOM     39  C   UNL A   1      39.668  26.113  28.110  1.00  0.00     0.010 A 
ATOM     40  C   UNL A   1      42.004  25.883  28.710  1.00  0.00     0.010 A 
ATOM     41  C   UNL A   1      40.861  26.662  28.607  1.00  0.00    -0.014 A 
BRANCH  41  42
ATOM     42  C   UNL A   1      40.953  28.022  29.128  1.00  0.00     0.031 A 
ATOM     43  C   UNL A   1      41.978  28.877  28.474  1.00  0.00     0.074 A 
ATOM     44  C   UNL A   1      39.993  28.554  29.920  1.00  0.00     0.049 A 
ATOM     45  N   UNL A   1      43.077  29.322  28.983  1.00  0.00    -0.248 NA
ATOM     46  C   UNL A   1      41.847  29.149  27.032  1.00  0.00     0.031 C 
ATOM     47  C   UNL A   1      38.738  27.940  30.376  1.00  0.00     0.029 A 
ATOM     48  N   UNL A   1      39.871  29.827  30.375  1.00  0.00    -0.354 N 
ATOM     49  C   UNL A   1      43.643  30.146  28.014  1.00  0.00     0.074 A 
ATOM     50  C   UNL A   1      42.980  29.809  26.784  1.00  0.00     0.031 C 
ATOM     51  C   UNL A   1      37.888  28.900  30.804  1.00  0.00     0.029 A 
ATOM     52  C   UNL A   1      38.599  30.164  30.834  1.00  0.00     0.049 A 
ATOM     53  H   UNL A   1      40.622  30.463  30.381  1.00  0.00     0.167 HD
ATOM     54  C   UNL A   1      44.420  31.212  28.363  1.00  0.00     0.034 A 
ATOM     55  C   UNL A   1      38.157  31.399  31.193  1.00  0.00     0.034 A 
ATOM     56  C   UNL A   1      44.806  31.133  29.757  1.00  0.00     0.049 A 
ATOM     57  C   UNL A   1      39.371  32.196  31.509  1.00  0.00     0.074 A 
ATOM     58  C   UNL A   1      45.455  30.184  30.527  1.00  0.00     0.029 A 
ATOM     59  N   UNL A   1      44.150  31.942  30.660  1.00  0.00    -0.354 N 
ATOM     60  N   UNL A   1      40.173  31.909  32.498  1.00  0.00    -0.248 NA
ATOM     61  C   UNL A   1      39.968  32.978  30.436  1.00  0.00     0.031 C 
ATOM     62  C   UNL A   1      44.716  30.145  31.748  1.00  0.00     0.029 A 
ATOM     63  C   UNL A   1      43.736  31.138  31.695  1.00  0.00     0.049 A 
ATOM     64  H   UNL A   1      44.006  32.914  30.580  1.00  0.00     0.167 HD
ATOM     65  C   UNL A   1      41.450  32.076  31.984  1.00  0.00     0.074 A 
ATOM     66  C   UNL A   1      41.260  32.826  30.741  1.00  0.00     0.031 C 
ATOM     67  C   UNL A   1      42.509  31.343  32.445  1.00  0.00     0.034 A 
BRANCH  54  68
ATOM     68  C   UNL A   1      44.538  32.505  27.580  1.00  0.00     0.023 A 
ATOM     69  C   UNL A   1      43.879  33.634  28.108  1.00  0.00     0.031 A 
ATOM     70  C   UNL A   1      44.997  32.636  26.250  1.00  0.00     0.131 A 
ATOM     71  C   UNL A   1      43.603  34.755  27.307  1.00  0.00     0.055 A 
ATOM     72  C   UNL A   1      44.785  33.784  25.479  1.00  0.00     0.041 A 
ATOM     73  F   UNL A   1      45.590  31.640  25.585  1.00  0.00    -0.206 F 
ATOM     74  C   UNL A   1      44.054  34.839  25.994  1.00  0.00     0.022 A 
BRANCH  71  75
ATOM     75  S   UNL A   1      42.479  36.016  27.958  1.00  0.00     0.124 S 
ATOM     76  O   UNL A   1      41.178  35.444  27.632  1.00  0.00    -0.237 OA
ATOM     77  O   UNL A   1      42.839  36.035  29.373  1.00  0.00    -0.237 OA
ATOM     78  O   UNL A   1      42.842  37.214  27.206  1.00  0.00    -0.744 OA
ENDBRANCH  71  75
ENDBRANCH  54  68
BRANCH  55  79
ATOM     79  C   UNL A   1      36.809  31.995  30.965  1.00  0.00     0.023 A 
ATOM     80  C   UNL A   1      36.026  32.534  32.009  1.00  0.00     0.031 A 
ATOM     81  C   UNL A   1      36.375  32.271  29.648  1.00  0.00     0.131 A 
ATOM     82  C   UNL A   1      34.879  33.312  31.717  1.00  0.00     0.055 A 
ATOM     83  C   UNL A   1      35.244  33.042  29.365  1.00  0.00     0.041 A 
ATOM     84  F   UNL A   1      37.089  31.873  28.582  1.00  0.00    -0.206 F 
ATOM     85  C   UNL A   1      34.496  33.577  30.401  1.00  0.00     0.022 A 
BRANCH  82  86
ATOM     86  S   UNL A   1      33.915  34.087  33.059  1.00  0.00     0.124 S 
ATOM     87  O   UNL A   1      33.406  35.292  32.415  1.00  0.00    -0.237 OA
ATOM     88  O   UNL A   1      32.933  33.057  33.379  1.00  0.00    -0.237 OA
ATOM     89  O   UNL A   1      34.914  34.322  34.103  1.00  0.00    -0.744 OA
ENDBRANCH  82  86
ENDBRANCH  55  79
BRANCH  67  90
ATOM     90  C   UNL A   1      42.336  30.520  33.710  1.00  0.00     0.023 A 
ATOM     91  C   UNL A   1      42.259  29.106  33.760  1.00  0.00     0.031 A 
ATOM     92  C   UNL A   1      42.388  31.209  34.935  1.00  0.00     0.131 A 
ATOM     93  C   UNL A   1      42.233  28.443  35.006  1.00  0.00     0.055 A 
ATOM     94  C   UNL A   1      42.383  30.547  36.163  1.00  0.00     0.041 A 
ATOM     95  F   UNL A   1      42.487  32.548  34.958  1.00  0.00    -0.206 F 
ATOM     96  C   UNL A   1      42.300  29.162  36.204  1.00  0.00     0.022 A 
BRANCH  93  97
ATOM     97  S   UNL A   1      42.096  26.626  35.096  1.00  0.00     0.124 S 
ATOM     98  O   UNL A   1      43.040  26.161  34.086  1.00  0.00    -0.237 OA
ATOM     99  O   UNL A   1      42.457  26.348  36.483  1.00  0.00    -0.237 OA
ATOM    100  O   UNL A   1      40.689  26.376  34.774  1.00  0.00    -0.744 OA
ENDBRANCH  93  97
ENDBRANCH  67  90
ENDBRANCH  41  42
ENDBRANCH  33  36
ENDBRANCH  31  32
ENDBRANCH  30  31
ENDBRANCH   1  30
TORSDOF 18
ENDMDL
MODEL 3
REMARK VINA RESULT:     -12.2      1.553      2.134
REMARK SMILES Cc1nn(C)cc1C[NH+]1CCN(C(=O)c2cnn(CC(=O)NCCCCNC(=O)c3ccc(-c4c5nc(c(-c6cc(S(=O)(=O)[O-])ccc6F)c6ccc([nH]6)c(-c6cc(S(=O)(=O)[O-])ccc6F)c6nc(c(-c7cc(S(=O)(=O)[O-])ccc7F)c7ccc4[nH]7)C=C6)C=C5)cc3)c2)CC1
REMARK SMILES IDX 24 1 23 2 22 3 20 4 21 5 19 7 18 8 15 9 16 10 93 11 17 12
REMARK SMILES IDX 13 13 9 14 10 15 95 16 11 18 94 19 12 20 14 21 8 22 7 23
REMARK SMILES IDX 1 24 2 25 3 26 4 27 6 28 5 29 25 30 26 31 27 32 28 33 29 35
REMARK SMILES IDX 30 36 31 37 92 38 32 39 91 40 33 41 34 42 35 43 85 44 36 45
REMARK SMILES IDX 90 46 84 47 86 48 37 49 89 50 83 51 82 52 38 54 70 55 50 56
REMARK SMILES IDX 69 57 51 58 54 59 68 60 87 61 52 62 53 63 67 65 88 66 55 67
REMARK SMILES IDX 39 68 40 69 48 70 41 71 47 72 49 73 46 74 42 75 43 76 44 77
REMARK SMILES IDX 45 78 71 79 72 80 80 81 73 82 79 83 81 84 78 85 74 86 75 87
REMARK SMILES IDX 76 88 77 89 56 90 57 91 65 92 58 93 64 94 66 95 63 96 59 97
REMARK SMILES IDX 60 98 61 99 62 100
REMARK H PARENT 22 6 9 17 27 34 86 53 54 64
REMARK Flexibility Score: inf
ROOT
ATOM      1  C   UNL A   1      37.569  21.154  25.126  1.00  0.00     0.023 C 
ENDROOT
BRANCH   1   2
ATOM      2  C   UNL A   1      36.152  21.291  24.561  1.00  0.00     0.116 C 
BRANCH   2   3
ATOM      3  N   UNL A   1      35.256  20.289  25.099  1.00  0.00    -0.354 N 
ATOM      4  C   UNL A   1      33.892  20.200  25.020  1.00  0.00     0.241 C 
ATOM      5  O   UNL A   1      33.351  19.273  25.631  1.00  0.00    -0.273 OA
ATOM      6  H   UNL A   1      35.693  19.561  25.597  1.00  0.00     0.163 HD
BRANCH   4   7
ATOM      7  C   UNL A   1      33.087  21.113  24.120  1.00  0.00     0.243 C 
BRANCH   7   8
ATOM      8  N   UNL A   1      32.822  22.422  24.688  1.00  0.00    -0.262 N 
ATOM      9  C   UNL A   1      32.969  24.558  25.224  1.00  0.00     0.078 A 
ATOM     10  C   UNL A   1      31.927  23.893  25.907  1.00  0.00     0.149 A 
ATOM     11  C   UNL A   1      33.450  23.591  24.360  1.00  0.00     0.123 A 
ATOM     12  N   UNL A   1      31.848  22.596  25.602  1.00  0.00    -0.180 NA
BRANCH   9  13
ATOM     13  C   UNL A   1      33.431  25.930  25.299  1.00  0.00     0.257 C 
ATOM     14  N   UNL A   1      31.351  29.162  23.226  1.00  0.00    -0.328 N 
ATOM     15  C   UNL A   1      32.712  29.320  23.753  1.00  0.00     0.284 C 
ATOM     16  C   UNL A   1      31.096  27.771  22.851  1.00  0.00     0.284 C 
ATOM     17  H   UNL A   1      31.325  29.705  22.363  1.00  0.00     0.348 HD
ATOM     18  C   UNL A   1      33.155  28.295  24.814  1.00  0.00     0.181 C 
ATOM     19  C   UNL A   1      31.505  26.690  23.864  1.00  0.00     0.181 C 
ATOM     20  N   UNL A   1      32.802  26.903  24.515  1.00  0.00    -0.327 N 
ATOM     21  O   UNL A   1      34.331  26.226  26.105  1.00  0.00    -0.269 OA
BRANCH  14  22
ATOM     22  C   UNL A   1      30.273  29.854  23.944  1.00  0.00     0.302 C 
BRANCH  22  23
ATOM     23  C   UNL A   1      29.217  30.434  23.069  1.00  0.00     0.047 A 
ATOM     24  C   UNL A   1      27.347  28.584  23.104  1.00  0.00     0.069 C 
ATOM     25  C   UNL A   1      27.971  29.860  22.683  1.00  0.00     0.068 A 
ATOM     26  N   UNL A   1      27.341  30.608  21.771  1.00  0.00    -0.178 NA
ATOM     27  N   UNL A   1      28.140  31.671  21.607  1.00  0.00    -0.275 N 
ATOM     28  C   UNL A   1      29.200  31.677  22.465  1.00  0.00     0.118 A 
ATOM     29  C   UNL A   1      27.911  32.569  20.501  1.00  0.00     0.173 C 
ENDBRANCH  22  23
ENDBRANCH  14  22
ENDBRANCH   9  13
ENDBRANCH   7   8
ENDBRANCH   4   7
ENDBRANCH   2   3
ENDBRANCH   1   2
BRANCH   1  30
ATOM     30  C   UNL A   1      38.343  19.878  24.764  1.00  0.00     0.023 C 
BRANCH  30  31
ATOM     31  C   UNL A   1      38.948  19.108  25.934  1.00  0.00     0.116 C 
BRANCH  31  32
ATOM     32  N   UNL A   1      40.350  18.717  25.735  1.00  0.00    -0.352 N 
ATOM     33  C   UNL A   1      41.470  19.534  25.763  1.00  0.00     0.251 C 
ATOM     34  H   UNL A   1      40.514  17.762  25.561  1.00  0.00     0.163 HD
ATOM     35  O   UNL A   1      42.514  19.181  25.203  1.00  0.00    -0.269 OA
BRANCH  33  36
ATOM     36  C   UNL A   1      41.393  20.819  26.472  1.00  0.00     0.039 A 
ATOM     37  C   UNL A   1      41.121  20.932  27.838  1.00  0.00     0.014 A 
ATOM     38  C   UNL A   1      41.707  21.939  25.718  1.00  0.00     0.014 A 
ATOM     39  C   UNL A   1      41.279  22.176  28.450  1.00  0.00     0.010 A 
ATOM     40  C   UNL A   1      42.085  23.085  26.355  1.00  0.00     0.010 A 
ATOM     41  C   UNL A   1      41.789  23.248  27.700  1.00  0.00    -0.014 A 
BRANCH  41  42
ATOM     42  C   UNL A   1      42.126  24.540  28.288  1.00  0.00     0.031 A 
ATOM     43  C   UNL A   1      41.066  25.577  28.175  1.00  0.00     0.074 A 
ATOM     44  C   UNL A   1      43.177  24.695  29.126  1.00  0.00     0.049 A 
ATOM     45  N   UNL A   1      41.085  26.649  27.459  1.00  0.00    -0.248 NA
ATOM     46  C   UNL A   1      39.765  25.321  28.815  1.00  0.00     0.031 C 
ATOM     47  C   UNL A   1      44.121  23.677  29.609  1.00  0.00     0.029 A 
ATOM     48  N   UNL A   1      43.541  25.787  29.845  1.00  0.00    -0.354 N 
ATOM     49  C   UNL A   1      39.912  27.334  27.762  1.00  0.00     0.074 A 
ATOM     50  C   UNL A   1      39.055  26.371  28.398  1.00  0.00     0.031 C 
ATOM     51  C   UNL A   1      44.761  24.132  30.709  1.00  0.00     0.029 A 
ATOM     52  C   UNL A   1      44.418  25.529  30.896  1.00  0.00     0.049 A 
ATOM     53  H   UNL A   1      43.212  26.692  29.640  1.00  0.00     0.167 HD
ATOM     54  C   UNL A   1      39.854  28.697  27.698  1.00  0.00     0.034 A 
ATOM     55  C   UNL A   1      44.818  26.398  31.864  1.00  0.00     0.034 A 
ATOM     56  C   UNL A   1      41.000  29.227  26.988  1.00  0.00     0.049 A 
ATOM     57  C   UNL A   1      44.588  27.760  31.316  1.00  0.00     0.074 A 
ATOM     58  C   UNL A   1      41.541  29.015  25.732  1.00  0.00     0.029 A 
ATOM     59  N   UNL A   1      42.017  29.795  27.727  1.00  0.00    -0.354 N 
ATOM     60  N   UNL A   1      45.219  28.223  30.272  1.00  0.00    -0.248 NA
ATOM     61  C   UNL A   1      43.309  28.397  31.599  1.00  0.00     0.031 C 
ATOM     62  C   UNL A   1      42.950  28.945  25.954  1.00  0.00     0.029 A 
ATOM     63  C   UNL A   1      43.193  29.223  27.301  1.00  0.00     0.049 A 
ATOM     64  H   UNL A   1      41.920  30.481  28.427  1.00  0.00     0.167 HD
ATOM     65  C   UNL A   1      44.248  28.876  29.526  1.00  0.00     0.074 A 
ATOM     66  C   UNL A   1      43.114  29.031  30.438  1.00  0.00     0.031 C 
ATOM     67  C   UNL A   1      44.332  28.964  28.164  1.00  0.00     0.034 A 
BRANCH  54  68
ATOM     68  C   UNL A   1      38.985  29.579  28.571  1.00  0.00     0.023 A 
ATOM     69  C   UNL A   1      39.240  29.557  29.957  1.00  0.00     0.031 A 
ATOM     70  C   UNL A   1      37.778  30.205  28.186  1.00  0.00     0.131 A 
ATOM     71  C   UNL A   1      38.286  30.022  30.879  1.00  0.00     0.055 A 
ATOM     72  C   UNL A   1      36.865  30.733  29.104  1.00  0.00     0.041 A 
ATOM     73  F   UNL A   1      37.362  30.261  26.916  1.00  0.00    -0.206 F 
ATOM     74  C   UNL A   1      37.099  30.613  30.461  1.00  0.00     0.022 A 
BRANCH  71  75
ATOM     75  S   UNL A   1      38.548  29.663  32.634  1.00  0.00     0.124 S 
ATOM     76  O   UNL A   1      37.245  29.133  33.021  1.00  0.00    -0.237 OA
ATOM     77  O   UNL A   1      39.645  28.703  32.583  1.00  0.00    -0.237 OA
ATOM     78  O   UNL A   1      38.885  30.967  33.200  1.00  0.00    -0.744 OA
ENDBRANCH  71  75
ENDBRANCH  54  68
BRANCH  55  79
ATOM     79  C   UNL A   1      45.070  26.115  33.306  1.00  0.00     0.023 A 
ATOM     80  C   UNL A   1      44.033  26.043  34.262  1.00  0.00     0.031 A 
ATOM     81  C   UNL A   1      46.340  25.654  33.721  1.00  0.00     0.131 A 
ATOM     82  C   UNL A   1      44.285  25.524  35.556  1.00  0.00     0.055 A 
ATOM     83  C   UNL A   1      46.583  25.140  34.998  1.00  0.00     0.041 A 
ATOM     84  F   UNL A   1      47.376  25.605  32.867  1.00  0.00    -0.206 F 
ATOM     85  C   UNL A   1      45.551  25.061  35.919  1.00  0.00     0.022 A 
BRANCH  82  86
ATOM     86  S   UNL A   1      42.931  25.344  36.765  1.00  0.00     0.124 S 
ATOM     87  O   UNL A   1      42.160  24.242  36.202  1.00  0.00    -0.237 OA
ATOM     88  O   UNL A   1      43.649  25.067  38.005  1.00  0.00    -0.237 OA
ATOM     89  O   UNL A   1      42.264  26.646  36.725  1.00  0.00    -0.744 OA
ENDBRANCH  82  86
ENDBRANCH  55  79
BRANCH  67  90
ATOM     90  C   UNL A   1      45.630  28.567  27.480  1.00  0.00     0.023 A 
ATOM     91  C   UNL A   1      45.924  27.279  26.971  1.00  0.00     0.031 A 
ATOM     92  C   UNL A   1      46.555  29.593  27.218  1.00  0.00     0.131 A 
ATOM     93  C   UNL A   1      47.109  27.062  26.237  1.00  0.00     0.055 A 
ATOM     94  C   UNL A   1      47.715  29.378  26.475  1.00  0.00     0.041 A 
ATOM     95  F   UNL A   1      46.325  30.843  27.651  1.00  0.00    -0.206 F 
ATOM     96  C   UNL A   1      48.000  28.110  25.985  1.00  0.00     0.022 A 
BRANCH  93  97
ATOM     97  S   UNL A   1      47.528  25.403  25.605  1.00  0.00     0.124 S 
ATOM     98  O   UNL A   1      46.418  25.086  24.713  1.00  0.00    -0.237 OA
ATOM     99  O   UNL A   1      48.820  25.624  24.961  1.00  0.00    -0.237 OA
ATOM    100  O   UNL A   1      47.587  24.582  26.816  1.00  0.00    -0.744 OA
ENDBRANCH  93  97
ENDBRANCH  67  90
ENDBRANCH  41  42
ENDBRANCH  33  36
ENDBRANCH  31  32
ENDBRANCH  30  31
ENDBRANCH   1  30
TORSDOF 18
ENDMDL
