MODEL 1
REMARK VINA RESULT:     -12.4      0.000      0.000
REMARK SMILES Cc1cc(Br)cc2c1O[C@H](C(F)(F)F)C(C(=O)NCCCCNC(=O)c1ccc(-c3c4nc(c(-c5cc(S(=O)(=O)[O-])ccc5F)c5ccc([nH]5)c(-c5cc(S(=O)(=O)[O-])ccc5F)c5nc(c(-c6cc(S(=O)(=O)[O-])ccc6F)c6ccc3[nH]6)C=C5)C=C4)cc1)=C2
REMARK SMILES IDX 21 1 20 2 19 3 18 4 16 5 17 6 15 8 1 9 2 10 3 11 8 12 4 13
REMARK SMILES IDX 7 14 9 15 5 16 6 17 89 18 10 19 11 20 12 21 13 22 14 23
REMARK SMILES IDX 22 24 23 25 24 26 25 28 26 29 27 30 88 31 28 32 87 33 29 34
REMARK SMILES IDX 30 35 31 36 81 37 32 38 86 39 80 40 82 41 33 42 85 43 79 44
REMARK SMILES IDX 78 45 34 47 66 48 46 49 65 50 47 51 50 52 64 53 83 54 48 55
REMARK SMILES IDX 49 56 63 58 84 59 51 60 35 61 36 62 44 63 37 64 43 65 45 66
REMARK SMILES IDX 42 67 38 68 39 69 40 70 41 71 67 72 68 73 76 74 69 75 75 76
REMARK SMILES IDX 77 77 74 78 70 79 71 80 72 81 73 82 52 83 53 84 61 85 54 86
REMARK SMILES IDX 60 87 62 88 59 89 55 90 56 91 57 92 58 93
REMARK H PARENT 18 7 23 27 82 46 50 57
REMARK Flexibility Score: inf
ROOT
ATOM      1  C   UNL A   1      31.812  28.272  24.845  1.00  0.00     0.023 C 
ENDROOT
BRANCH   1   2
ATOM      2  C   UNL A   1      31.330  27.176  25.797  1.00  0.00     0.023 C 
BRANCH   2   3
ATOM      3  C   UNL A   1      30.922  25.880  25.101  1.00  0.00     0.116 C 
BRANCH   3   4
ATOM      4  N   UNL A   1      31.352  25.852  23.714  1.00  0.00    -0.352 N 
ATOM      5  C   UNL A   1      32.230  25.146  22.966  1.00  0.00     0.251 C 
ATOM      6  O   UNL A   1      32.290  25.471  21.776  1.00  0.00    -0.270 OA
ATOM      7  H   UNL A   1      30.877  26.526  23.175  1.00  0.00     0.163 HD
BRANCH   5   8
ATOM      8  C   UNL A   1      33.098  24.038  23.467  1.00  0.00     0.067 C 
ATOM      9  C   UNL A   1      36.897  20.867  24.978  1.00  0.00     0.048 C 
ATOM     10  C   UNL A   1      35.422  20.752  24.713  1.00  0.00    -0.007 A 
ATOM     11  C   UNL A   1      34.783  19.528  24.961  1.00  0.00     0.023 A 
ATOM     12  C   UNL A   1      34.656  21.831  24.247  1.00  0.00     0.130 A 
ATOM     13  C   UNL A   1      33.414  19.390  24.733  1.00  0.00     0.019 A 
ATOM     14  C   UNL A   1      33.282  21.690  24.017  1.00  0.00     0.019 A 
ATOM     15  O   UNL A   1      35.308  23.001  23.976  1.00  0.00    -0.475 OA
ATOM     16  Br  UNL A   1      32.575  17.728  25.063  1.00  0.00    -0.051 Br
ATOM     17  C   UNL A   1      32.661  20.463  24.260  1.00  0.00     0.027 A 
ATOM     18  C   UNL A   1      32.524  22.820  23.496  1.00  0.00     0.025 C 
ATOM     19  C   UNL A   1      34.502  24.213  23.967  1.00  0.00     0.314 C 
BRANCH  19  20
ATOM     20  C   UNL A   1      34.565  24.868  25.359  1.00  0.00     0.429 C 
ATOM     21  F   UNL A   1      35.763  24.620  25.946  1.00  0.00    -0.167 F 
ATOM     22  F   UNL A   1      34.433  26.214  25.308  1.00  0.00    -0.167 F 
ATOM     23  F   UNL A   1      33.605  24.409  26.194  1.00  0.00    -0.167 F 
ENDBRANCH  19  20
ENDBRANCH   5   8
ENDBRANCH   3   4
ENDBRANCH   2   3
ENDBRANCH   1   2
BRANCH   1  24
ATOM     24  C   UNL A   1      32.859  29.228  25.418  1.00  0.00     0.116 C 
BRANCH  24  25
ATOM     25  N   UNL A   1      32.299  30.467  25.936  1.00  0.00    -0.352 N 
ATOM     26  C   UNL A   1      32.821  31.296  26.900  1.00  0.00     0.251 C 
ATOM     27  H   UNL A   1      31.437  30.746  25.548  1.00  0.00     0.163 HD
ATOM     28  O   UNL A   1      32.185  32.268  27.293  1.00  0.00    -0.269 OA
BRANCH  26  29
ATOM     29  C   UNL A   1      34.136  30.964  27.482  1.00  0.00     0.039 A 
ATOM     30  C   UNL A   1      35.066  31.988  27.672  1.00  0.00     0.014 A 
ATOM     31  C   UNL A   1      34.411  29.659  27.901  1.00  0.00     0.014 A 
ATOM     32  C   UNL A   1      36.251  31.716  28.356  1.00  0.00     0.010 A 
ATOM     33  C   UNL A   1      35.568  29.403  28.629  1.00  0.00     0.010 A 
ATOM     34  C   UNL A   1      36.491  30.433  28.872  1.00  0.00    -0.014 A 
BRANCH  34  35
ATOM     35  C   UNL A   1      37.709  30.143  29.667  1.00  0.00     0.031 A 
ATOM     36  C   UNL A   1      38.791  29.279  29.085  1.00  0.00     0.074 A 
ATOM     37  C   UNL A   1      37.810  30.608  30.926  1.00  0.00     0.049 A 
ATOM     38  N   UNL A   1      39.879  28.827  29.650  1.00  0.00    -0.248 NA
ATOM     39  C   UNL A   1      38.606  28.846  27.692  1.00  0.00     0.031 C 
ATOM     40  C   UNL A   1      36.810  31.436  31.607  1.00  0.00     0.029 A 
ATOM     41  N   UNL A   1      38.801  30.451  31.861  1.00  0.00    -0.354 N 
ATOM     42  C   UNL A   1      40.506  28.046  28.687  1.00  0.00     0.074 A 
ATOM     43  C   UNL A   1      39.649  28.046  27.520  1.00  0.00     0.031 C 
ATOM     44  C   UNL A   1      37.253  31.736  32.839  1.00  0.00     0.029 A 
ATOM     45  C   UNL A   1      38.546  31.092  33.050  1.00  0.00     0.049 A 
ATOM     46  H   UNL A   1      39.619  29.928  31.697  1.00  0.00     0.167 HD
ATOM     47  C   UNL A   1      41.697  27.404  28.762  1.00  0.00     0.034 A 
ATOM     48  C   UNL A   1      39.270  31.148  34.185  1.00  0.00     0.034 A 
ATOM     49  C   UNL A   1      42.551  27.429  29.922  1.00  0.00     0.049 A 
ATOM     50  C   UNL A   1      40.581  30.415  34.252  1.00  0.00     0.074 A 
ATOM     51  C   UNL A   1      43.794  26.844  30.089  1.00  0.00     0.029 A 
ATOM     52  N   UNL A   1      42.251  28.077  31.112  1.00  0.00    -0.354 N 
ATOM     53  N   UNL A   1      41.158  29.675  33.334  1.00  0.00    -0.248 NA
ATOM     54  C   UNL A   1      41.338  30.521  35.507  1.00  0.00     0.031 C 
ATOM     55  C   UNL A   1      44.226  27.102  31.396  1.00  0.00     0.029 A 
ATOM     56  C   UNL A   1      43.277  27.893  32.025  1.00  0.00     0.049 A 
ATOM     57  H   UNL A   1      41.430  28.592  31.283  1.00  0.00     0.167 HD
ATOM     58  C   UNL A   1      42.352  29.238  33.897  1.00  0.00     0.074 A 
ATOM     59  C   UNL A   1      42.417  29.802  35.230  1.00  0.00     0.031 C 
ATOM     60  C   UNL A   1      43.311  28.445  33.357  1.00  0.00     0.034 A 
BRANCH  47  61
ATOM     61  C   UNL A   1      42.126  26.607  27.558  1.00  0.00     0.023 A 
ATOM     62  C   UNL A   1      41.804  25.245  27.430  1.00  0.00     0.031 A 
ATOM     63  C   UNL A   1      42.885  27.209  26.540  1.00  0.00     0.131 A 
ATOM     64  C   UNL A   1      42.294  24.512  26.340  1.00  0.00     0.055 A 
ATOM     65  C   UNL A   1      43.311  26.489  25.422  1.00  0.00     0.041 A 
ATOM     66  F   UNL A   1      43.237  28.501  26.623  1.00  0.00    -0.206 F 
ATOM     67  C   UNL A   1      43.026  25.130  25.323  1.00  0.00     0.022 A 
BRANCH  64  68
ATOM     68  S   UNL A   1      42.048  22.716  26.320  1.00  0.00     0.124 S 
ATOM     69  O   UNL A   1      42.626  22.357  25.028  1.00  0.00    -0.237 OA
ATOM     70  O   UNL A   1      42.793  22.280  27.495  1.00  0.00    -0.237 OA
ATOM     71  O   UNL A   1      40.597  22.568  26.412  1.00  0.00    -0.744 OA
ENDBRANCH  64  68
ENDBRANCH  47  61
BRANCH  48  72
ATOM     72  C   UNL A   1      38.767  31.922  35.352  1.00  0.00     0.023 A 
ATOM     73  C   UNL A   1      38.188  31.269  36.450  1.00  0.00     0.031 A 
ATOM     74  C   UNL A   1      38.863  33.324  35.384  1.00  0.00     0.131 A 
ATOM     75  C   UNL A   1      37.704  32.021  37.531  1.00  0.00     0.055 A 
ATOM     76  C   UNL A   1      38.407  34.065  36.474  1.00  0.00     0.041 A 
ATOM     77  F   UNL A   1      39.421  33.989  34.360  1.00  0.00    -0.206 F 
ATOM     78  C   UNL A   1      37.820  33.414  37.555  1.00  0.00     0.022 A 
BRANCH  75  79
ATOM     79  S   UNL A   1      36.908  31.154  38.910  1.00  0.00     0.124 S 
ATOM     80  O   UNL A   1      37.879  31.347  39.981  1.00  0.00    -0.237 OA
ATOM     81  O   UNL A   1      35.650  31.882  39.044  1.00  0.00    -0.237 OA
ATOM     82  O   UNL A   1      36.780  29.783  38.422  1.00  0.00    -0.744 OA
ENDBRANCH  75  79
ENDBRANCH  48  72
BRANCH  60  83
ATOM     83  C   UNL A   1      44.520  28.159  34.205  1.00  0.00     0.023 A 
ATOM     84  C   UNL A   1      44.538  27.090  35.116  1.00  0.00     0.031 A 
ATOM     85  C   UNL A   1      45.676  28.949  34.076  1.00  0.00     0.131 A 
ATOM     86  C   UNL A   1      45.684  26.858  35.890  1.00  0.00     0.055 A 
ATOM     87  C   UNL A   1      46.827  28.686  34.818  1.00  0.00     0.041 A 
ATOM     88  F   UNL A   1      45.706  29.980  33.216  1.00  0.00    -0.206 F 
ATOM     89  C   UNL A   1      46.833  27.638  35.736  1.00  0.00     0.022 A 
BRANCH  86  90
ATOM     90  S   UNL A   1      45.646  25.536  37.131  1.00  0.00     0.124 S 
ATOM     91  O   UNL A   1      44.301  25.678  37.681  1.00  0.00    -0.237 OA
ATOM     92  O   UNL A   1      45.881  24.341  36.326  1.00  0.00    -0.237 OA
ATOM     93  O   UNL A   1      46.731  25.890  38.043  1.00  0.00    -0.744 OA
ENDBRANCH  86  90
ENDBRANCH  60  83
ENDBRANCH  34  35
ENDBRANCH  26  29
ENDBRANCH  24  25
ENDBRANCH   1  24
TORSDOF 15
ENDMDL
MODEL 2
REMARK VINA RESULT:     -12.4      1.472      1.869
REMARK SMILES Cc1cc(Br)cc2c1O[C@H](C(F)(F)F)C(C(=O)NCCCCNC(=O)c1ccc(-c3c4nc(c(-c5cc(S(=O)(=O)[O-])ccc5F)c5ccc([nH]5)c(-c5cc(S(=O)(=O)[O-])ccc5F)c5nc(c(-c6cc(S(=O)(=O)[O-])ccc6F)c6ccc3[nH]6)C=C5)C=C4)cc1)=C2
REMARK SMILES IDX 21 1 20 2 19 3 18 4 16 5 17 6 15 8 1 9 2 10 3 11 8 12 4 13
REMARK SMILES IDX 7 14 9 15 5 16 6 17 89 18 10 19 11 20 12 21 13 22 14 23
REMARK SMILES IDX 22 24 23 25 24 26 25 28 26 29 27 30 88 31 28 32 87 33 29 34
REMARK SMILES IDX 30 35 31 36 81 37 32 38 86 39 80 40 82 41 33 42 85 43 79 44
REMARK SMILES IDX 78 45 34 47 66 48 46 49 65 50 47 51 50 52 64 53 83 54 48 55
REMARK SMILES IDX 49 56 63 58 84 59 51 60 35 61 36 62 44 63 37 64 43 65 45 66
REMARK SMILES IDX 42 67 38 68 39 69 40 70 41 71 67 72 68 73 76 74 69 75 75 76
REMARK SMILES IDX 77 77 74 78 70 79 71 80 72 81 73 82 52 83 53 84 61 85 54 86
REMARK SMILES IDX 60 87 62 88 59 89 55 90 56 91 57 92 58 93
REMARK H PARENT 18 7 23 27 82 46 50 57
REMARK Flexibility Score: inf
ROOT
ATOM      1  C   UNL A   1      31.561  28.948  25.122  1.00  0.00     0.023 C 
ENDROOT
BRANCH   1   2
ATOM      2  C   UNL A   1      31.731  28.882  23.602  1.00  0.00     0.023 C 
BRANCH   2   3
ATOM      3  C   UNL A   1      31.002  27.714  22.943  1.00  0.00     0.116 C 
BRANCH   3   4
ATOM      4  N   UNL A   1      31.832  27.046  21.957  1.00  0.00    -0.352 N 
ATOM      5  C   UNL A   1      32.672  25.986  21.928  1.00  0.00     0.251 C 
ATOM      6  O   UNL A   1      33.203  25.764  20.835  1.00  0.00    -0.270 OA
ATOM      7  H   UNL A   1      31.765  27.478  21.075  1.00  0.00     0.163 HD
BRANCH   5   8
ATOM      8  C   UNL A   1      32.987  25.100  23.088  1.00  0.00     0.067 C 
ATOM      9  C   UNL A   1      33.309  22.572  27.592  1.00  0.00     0.048 C 
ATOM     10  C   UNL A   1      34.128  22.669  26.335  1.00  0.00    -0.007 A 
ATOM     11  C   UNL A   1      35.271  21.866  26.209  1.00  0.00     0.023 A 
ATOM     12  C   UNL A   1      33.779  23.518  25.274  1.00  0.00     0.130 A 
ATOM     13  C   UNL A   1      36.049  21.925  25.052  1.00  0.00     0.019 A 
ATOM     14  C   UNL A   1      34.562  23.578  24.115  1.00  0.00     0.019 A 
ATOM     15  O   UNL A   1      32.683  24.318  25.437  1.00  0.00    -0.475 OA
ATOM     16  Br  UNL A   1      37.592  20.842  24.908  1.00  0.00    -0.051 Br
ATOM     17  C   UNL A   1      35.703  22.778  24.006  1.00  0.00     0.027 A 
ATOM     18  C   UNL A   1      34.192  24.499  23.048  1.00  0.00     0.025 C 
ATOM     19  C   UNL A   1      32.049  24.815  24.225  1.00  0.00     0.314 C 
BRANCH  19  20
ATOM     20  C   UNL A   1      30.903  23.865  23.831  1.00  0.00     0.429 C 
ATOM     21  F   UNL A   1      29.902  24.555  23.229  1.00  0.00    -0.167 F 
ATOM     22  F   UNL A   1      31.293  22.911  22.955  1.00  0.00    -0.167 F 
ATOM     23  F   UNL A   1      30.367  23.226  24.897  1.00  0.00    -0.167 F 
ENDBRANCH  19  20
ENDBRANCH   5   8
ENDBRANCH   3   4
ENDBRANCH   2   3
ENDBRANCH   1   2
BRANCH   1  24
ATOM     24  C   UNL A   1      32.652  29.710  25.874  1.00  0.00     0.116 C 
BRANCH  24  25
ATOM     25  N   UNL A   1      32.268  31.064  26.248  1.00  0.00    -0.352 N 
ATOM     26  C   UNL A   1      32.934  31.935  27.077  1.00  0.00     0.251 C 
ATOM     27  H   UNL A   1      31.426  31.396  25.860  1.00  0.00     0.163 HD
ATOM     28  O   UNL A   1      32.437  33.019  27.366  1.00  0.00    -0.269 OA
BRANCH  26  29
ATOM     29  C   UNL A   1      34.230  31.519  27.647  1.00  0.00     0.039 A 
ATOM     30  C   UNL A   1      35.198  32.493  27.898  1.00  0.00     0.014 A 
ATOM     31  C   UNL A   1      34.449  30.183  27.995  1.00  0.00     0.014 A 
ATOM     32  C   UNL A   1      36.366  32.136  28.573  1.00  0.00     0.010 A 
ATOM     33  C   UNL A   1      35.590  29.842  28.714  1.00  0.00     0.010 A 
ATOM     34  C   UNL A   1      36.552  30.818  29.018  1.00  0.00    -0.014 A 
BRANCH  34  35
ATOM     35  C   UNL A   1      37.751  30.436  29.803  1.00  0.00     0.031 A 
ATOM     36  C   UNL A   1      38.787  29.539  29.190  1.00  0.00     0.074 A 
ATOM     37  C   UNL A   1      37.873  30.850  31.078  1.00  0.00     0.049 A 
ATOM     38  N   UNL A   1      39.850  29.011  29.738  1.00  0.00    -0.248 NA
ATOM     39  C   UNL A   1      38.584  29.167  27.782  1.00  0.00     0.031 C 
ATOM     40  C   UNL A   1      36.916  31.703  31.788  1.00  0.00     0.029 A 
ATOM     41  N   UNL A   1      38.852  30.607  32.007  1.00  0.00    -0.354 N 
ATOM     42  C   UNL A   1      40.437  28.233  28.748  1.00  0.00     0.074 A 
ATOM     43  C   UNL A   1      39.584  28.321  27.581  1.00  0.00     0.031 C 
ATOM     44  C   UNL A   1      37.371  31.935  33.030  1.00  0.00     0.029 A 
ATOM     45  C   UNL A   1      38.629  31.217  33.218  1.00  0.00     0.049 A 
ATOM     46  H   UNL A   1      39.643  30.049  31.824  1.00  0.00     0.167 HD
ATOM     47  C   UNL A   1      41.593  27.528  28.799  1.00  0.00     0.034 A 
ATOM     48  C   UNL A   1      39.352  31.195  34.355  1.00  0.00     0.034 A 
ATOM     49  C   UNL A   1      42.445  27.467  29.960  1.00  0.00     0.049 A 
ATOM     50  C   UNL A   1      40.623  30.392  34.395  1.00  0.00     0.074 A 
ATOM     51  C   UNL A   1      43.655  26.813  30.106  1.00  0.00     0.029 A 
ATOM     52  N   UNL A   1      42.177  28.086  31.173  1.00  0.00    -0.354 N 
ATOM     53  N   UNL A   1      41.163  29.657  33.451  1.00  0.00    -0.248 NA
ATOM     54  C   UNL A   1      41.382  30.413  35.654  1.00  0.00     0.031 C 
ATOM     55  C   UNL A   1      44.097  27.000  31.422  1.00  0.00     0.029 A 
ATOM     56  C   UNL A   1      43.189  27.815  32.079  1.00  0.00     0.049 A 
ATOM     57  H   UNL A   1      41.383  28.637  31.362  1.00  0.00     0.167 HD
ATOM     58  C   UNL A   1      42.332  29.138  33.998  1.00  0.00     0.074 A 
ATOM     59  C   UNL A   1      42.422  29.649  35.351  1.00  0.00     0.031 C 
ATOM     60  C   UNL A   1      43.249  28.316  33.430  1.00  0.00     0.034 A 
BRANCH  47  61
ATOM     61  C   UNL A   1      41.982  26.755  27.568  1.00  0.00     0.023 A 
ATOM     62  C   UNL A   1      41.734  25.375  27.462  1.00  0.00     0.031 A 
ATOM     63  C   UNL A   1      42.630  27.397  26.499  1.00  0.00     0.131 A 
ATOM     64  C   UNL A   1      42.189  24.669  26.339  1.00  0.00     0.055 A 
ATOM     65  C   UNL A   1      43.019  26.701  25.353  1.00  0.00     0.041 A 
ATOM     66  F   UNL A   1      42.910  28.708  26.558  1.00  0.00    -0.206 F 
ATOM     67  C   UNL A   1      42.809  25.326  25.273  1.00  0.00     0.022 A 
BRANCH  64  68
ATOM     68  S   UNL A   1      42.050  22.862  26.335  1.00  0.00     0.124 S 
ATOM     69  O   UNL A   1      42.880  22.503  27.482  1.00  0.00    -0.237 OA
ATOM     70  O   UNL A   1      40.616  22.653  26.495  1.00  0.00    -0.237 OA
ATOM     71  O   UNL A   1      42.594  22.480  25.034  1.00  0.00    -0.744 OA
ENDBRANCH  64  68
ENDBRANCH  47  61
BRANCH  48  72
ATOM     72  C   UNL A   1      38.888  31.951  35.549  1.00  0.00     0.023 A 
ATOM     73  C   UNL A   1      38.214  31.300  36.593  1.00  0.00     0.031 A 
ATOM     74  C   UNL A   1      39.115  33.333  35.661  1.00  0.00     0.131 A 
ATOM     75  C   UNL A   1      37.769  32.037  37.700  1.00  0.00     0.055 A 
ATOM     76  C   UNL A   1      38.697  34.056  36.779  1.00  0.00     0.041 A 
ATOM     77  F   UNL A   1      39.767  33.994  34.692  1.00  0.00    -0.206 F 
ATOM     78  C   UNL A   1      38.016  33.409  37.805  1.00  0.00     0.022 A 
BRANCH  75  79
ATOM     79  S   UNL A   1      36.850  31.179  39.007  1.00  0.00     0.124 S 
ATOM     80  O   UNL A   1      36.674  29.853  38.424  1.00  0.00    -0.237 OA
ATOM     81  O   UNL A   1      37.770  31.268  40.137  1.00  0.00    -0.237 OA
ATOM     82  O   UNL A   1      35.629  31.971  39.140  1.00  0.00    -0.744 OA
ENDBRANCH  75  79
ENDBRANCH  48  72
BRANCH  60  83
ATOM     83  C   UNL A   1      44.439  27.937  34.267  1.00  0.00     0.023 A 
ATOM     84  C   UNL A   1      44.437  26.778  35.060  1.00  0.00     0.031 A 
ATOM     85  C   UNL A   1      45.599  28.731  34.247  1.00  0.00     0.131 A 
ATOM     86  C   UNL A   1      45.566  26.460  35.828  1.00  0.00     0.055 A 
ATOM     87  C   UNL A   1      46.734  28.387  34.980  1.00  0.00     0.041 A 
ATOM     88  F   UNL A   1      45.649  29.847  33.501  1.00  0.00    -0.206 F 
ATOM     89  C   UNL A   1      46.719  27.248  35.781  1.00  0.00     0.022 A 
BRANCH  86  90
ATOM     90  S   UNL A   1      45.499  25.014  36.921  1.00  0.00     0.124 S 
ATOM     91  O   UNL A   1      44.488  24.189  36.268  1.00  0.00    -0.237 OA
ATOM     92  O   UNL A   1      46.868  24.510  36.862  1.00  0.00    -0.237 OA
ATOM     93  O   UNL A   1      45.103  25.576  38.210  1.00  0.00    -0.744 OA
ENDBRANCH  86  90
ENDBRANCH  60  83
ENDBRANCH  34  35
ENDBRANCH  26  29
ENDBRANCH  24  25
ENDBRANCH   1  24
TORSDOF 15
ENDMDL
MODEL 3
REMARK VINA RESULT:     -12.4      2.576      3.897
REMARK SMILES Cc1cc(Br)cc2c1O[C@H](C(F)(F)F)C(C(=O)NCCCCNC(=O)c1ccc(-c3c4nc(c(-c5cc(S(=O)(=O)[O-])ccc5F)c5ccc([nH]5)c(-c5cc(S(=O)(=O)[O-])ccc5F)c5nc(c(-c6cc(S(=O)(=O)[O-])ccc6F)c6ccc3[nH]6)C=C5)C=C4)cc1)=C2
REMARK SMILES IDX 21 1 20 2 19 3 18 4 16 5 17 6 15 8 1 9 2 10 3 11 8 12 4 13
REMARK SMILES IDX 7 14 9 15 5 16 6 17 89 18 10 19 11 20 12 21 13 22 14 23
REMARK SMILES IDX 22 24 23 25 24 26 25 28 26 29 27 30 88 31 28 32 87 33 29 34
REMARK SMILES IDX 30 35 31 36 81 37 32 38 86 39 80 40 82 41 33 42 85 43 79 44
REMARK SMILES IDX 78 45 34 47 66 48 46 49 65 50 47 51 50 52 64 53 83 54 48 55
REMARK SMILES IDX 49 56 63 58 84 59 51 60 35 61 36 62 44 63 37 64 43 65 45 66
REMARK SMILES IDX 42 67 38 68 39 69 40 70 41 71 67 72 68 73 76 74 69 75 75 76
REMARK SMILES IDX 77 77 74 78 70 79 71 80 72 81 73 82 52 83 53 84 61 85 54 86
REMARK SMILES IDX 60 87 62 88 59 89 55 90 56 91 57 92 58 93
REMARK H PARENT 18 7 23 27 82 46 50 57
REMARK Flexibility Score: inf
ROOT
ATOM      1  C   UNL A   1      32.950  29.266  24.587  1.00  0.00     0.023 C 
ENDROOT
BRANCH   1   2
ATOM      2  C   UNL A   1      34.088  28.335  24.161  1.00  0.00     0.023 C 
BRANCH   2   3
ATOM      3  C   UNL A   1      33.939  26.900  24.659  1.00  0.00     0.116 C 
BRANCH   3   4
ATOM      4  N   UNL A   1      33.550  25.995  23.592  1.00  0.00    -0.352 N 
ATOM      5  C   UNL A   1      32.429  25.724  22.886  1.00  0.00     0.251 C 
ATOM      6  O   UNL A   1      32.541  24.830  22.041  1.00  0.00    -0.270 OA
ATOM      7  H   UNL A   1      34.303  25.428  23.307  1.00  0.00     0.163 HD
BRANCH   5   8
ATOM      8  C   UNL A   1      31.114  26.412  23.053  1.00  0.00     0.067 C 
ATOM      9  C   UNL A   1      26.206  27.829  23.878  1.00  0.00     0.048 C 
ATOM     10  C   UNL A   1      27.437  28.457  23.285  1.00  0.00    -0.007 A 
ATOM     11  C   UNL A   1      27.379  29.793  22.863  1.00  0.00     0.023 A 
ATOM     12  C   UNL A   1      28.648  27.760  23.157  1.00  0.00     0.130 A 
ATOM     13  C   UNL A   1      28.506  30.407  22.316  1.00  0.00     0.019 A 
ATOM     14  C   UNL A   1      29.777  28.378  22.606  1.00  0.00     0.019 A 
ATOM     15  O   UNL A   1      28.669  26.449  23.540  1.00  0.00    -0.475 OA
ATOM     16  Br  UNL A   1      28.403  32.207  21.743  1.00  0.00    -0.051 Br
ATOM     17  C   UNL A   1      29.703  29.707  22.182  1.00  0.00     0.027 A 
ATOM     18  C   UNL A   1      31.009  27.614  22.453  1.00  0.00     0.025 C 
ATOM     19  C   UNL A   1      29.968  25.881  23.864  1.00  0.00     0.314 C 
BRANCH  19  20
ATOM     20  C   UNL A   1      30.204  25.998  25.381  1.00  0.00     0.429 C 
ATOM     21  F   UNL A   1      29.063  25.716  26.061  1.00  0.00    -0.167 F 
ATOM     22  F   UNL A   1      31.143  25.134  25.832  1.00  0.00    -0.167 F 
ATOM     23  F   UNL A   1      30.597  27.238  25.752  1.00  0.00    -0.167 F 
ENDBRANCH  19  20
ENDBRANCH   5   8
ENDBRANCH   3   4
ENDBRANCH   2   3
ENDBRANCH   1   2
BRANCH   1  24
ATOM     24  C   UNL A   1      32.835  29.521  26.090  1.00  0.00     0.116 C 
BRANCH  24  25
ATOM     25  N   UNL A   1      32.477  30.891  26.426  1.00  0.00    -0.352 N 
ATOM     26  C   UNL A   1      33.170  31.779  27.213  1.00  0.00     0.251 C 
ATOM     27  H   UNL A   1      31.632  31.222  26.042  1.00  0.00     0.163 HD
ATOM     28  O   UNL A   1      32.693  32.879  27.473  1.00  0.00    -0.269 OA
BRANCH  26  29
ATOM     29  C   UNL A   1      34.470  31.365  27.773  1.00  0.00     0.039 A 
ATOM     30  C   UNL A   1      35.423  32.344  28.059  1.00  0.00     0.014 A 
ATOM     31  C   UNL A   1      34.709  30.021  28.077  1.00  0.00     0.014 A 
ATOM     32  C   UNL A   1      36.595  31.983  28.725  1.00  0.00     0.010 A 
ATOM     33  C   UNL A   1      35.853  29.673  28.788  1.00  0.00     0.010 A 
ATOM     34  C   UNL A   1      36.799  30.654  29.127  1.00  0.00    -0.014 A 
BRANCH  34  35
ATOM     35  C   UNL A   1      38.001  30.264  29.902  1.00  0.00     0.031 A 
ATOM     36  C   UNL A   1      39.001  29.317  29.303  1.00  0.00     0.074 A 
ATOM     37  C   UNL A   1      38.160  30.718  31.160  1.00  0.00     0.049 A 
ATOM     38  N   UNL A   1      40.058  28.777  29.849  1.00  0.00    -0.248 NA
ATOM     39  C   UNL A   1      38.760  28.903  27.912  1.00  0.00     0.031 C 
ATOM     40  C   UNL A   1      37.241  31.621  31.858  1.00  0.00     0.029 A 
ATOM     41  N   UNL A   1      39.150  30.478  32.079  1.00  0.00    -0.354 N 
ATOM     42  C   UNL A   1      40.604  27.950  28.876  1.00  0.00     0.074 A 
ATOM     43  C   UNL A   1      39.731  28.022  27.723  1.00  0.00     0.031 C 
ATOM     44  C   UNL A   1      37.727  31.882  33.083  1.00  0.00     0.029 A 
ATOM     45  C   UNL A   1      38.967  31.135  33.273  1.00  0.00     0.049 A 
ATOM     46  H   UNL A   1      39.920  29.891  31.901  1.00  0.00     0.167 HD
ATOM     47  C   UNL A   1      41.740  27.214  28.930  1.00  0.00     0.034 A 
ATOM     48  C   UNL A   1      39.711  31.130  34.396  1.00  0.00     0.034 A 
ATOM     49  C   UNL A   1      42.612  27.167  30.076  1.00  0.00     0.049 A 
ATOM     50  C   UNL A   1      40.959  30.293  34.441  1.00  0.00     0.074 A 
ATOM     51  C   UNL A   1      43.806  26.484  30.223  1.00  0.00     0.029 A 
ATOM     52  N   UNL A   1      42.385  27.835  31.272  1.00  0.00    -0.354 N 
ATOM     53  N   UNL A   1      41.460  29.510  33.513  1.00  0.00    -0.248 NA
ATOM     54  C   UNL A   1      41.742  30.334  35.684  1.00  0.00     0.031 C 
ATOM     55  C   UNL A   1      44.278  26.703  31.524  1.00  0.00     0.029 A 
ATOM     56  C   UNL A   1      43.406  27.566  32.168  1.00  0.00     0.049 A 
ATOM     57  H   UNL A   1      41.611  28.414  31.457  1.00  0.00     0.167 HD
ATOM     58  C   UNL A   1      42.624  28.977  34.056  1.00  0.00     0.074 A 
ATOM     59  C   UNL A   1      42.755  29.531  35.389  1.00  0.00     0.031 C 
ATOM     60  C   UNL A   1      43.506  28.110  33.500  1.00  0.00     0.034 A 
BRANCH  47  61
ATOM     61  C   UNL A   1      42.084  26.388  27.719  1.00  0.00     0.023 A 
ATOM     62  C   UNL A   1      41.775  25.018  27.657  1.00  0.00     0.031 A 
ATOM     63  C   UNL A   1      42.748  26.970  26.627  1.00  0.00     0.131 A 
ATOM     64  C   UNL A   1      42.189  24.260  26.552  1.00  0.00     0.055 A 
ATOM     65  C   UNL A   1      43.095  26.223  25.499  1.00  0.00     0.041 A 
ATOM     66  F   UNL A   1      43.084  28.269  26.643  1.00  0.00    -0.206 F 
ATOM     67  C   UNL A   1      42.826  24.858  25.462  1.00  0.00     0.022 A 
BRANCH  64  68
ATOM     68  S   UNL A   1      41.972  22.461  26.604  1.00  0.00     0.124 S 
ATOM     69  O   UNL A   1      43.036  22.013  25.708  1.00  0.00    -0.237 OA
ATOM     70  O   UNL A   1      42.161  22.158  28.018  1.00  0.00    -0.237 OA
ATOM     71  O   UNL A   1      40.615  22.265  26.100  1.00  0.00    -0.744 OA
ENDBRANCH  64  68
ENDBRANCH  47  61
BRANCH  48  72
ATOM     72  C   UNL A   1      39.291  31.940  35.571  1.00  0.00     0.023 A 
ATOM     73  C   UNL A   1      38.492  31.380  36.579  1.00  0.00     0.031 A 
ATOM     74  C   UNL A   1      39.687  33.282  35.702  1.00  0.00     0.131 A 
ATOM     75  C   UNL A   1      38.093  32.167  37.669  1.00  0.00     0.055 A 
ATOM     76  C   UNL A   1      39.311  34.052  36.803  1.00  0.00     0.041 A 
ATOM     77  F   UNL A   1      40.461  33.854  34.768  1.00  0.00    -0.206 F 
ATOM     78  C   UNL A   1      38.506  33.497  37.793  1.00  0.00     0.022 A 
BRANCH  75  79
ATOM     79  S   UNL A   1      37.013  31.434  38.927  1.00  0.00     0.124 S 
ATOM     80  O   UNL A   1      36.828  30.083  38.408  1.00  0.00    -0.237 OA
ATOM     81  O   UNL A   1      37.824  31.553  40.135  1.00  0.00    -0.237 OA
ATOM     82  O   UNL A   1      35.824  32.284  38.894  1.00  0.00    -0.744 OA
ENDBRANCH  75  79
ENDBRANCH  48  72
BRANCH  60  83
ATOM     83  C   UNL A   1      44.701  27.725  34.328  1.00  0.00     0.023 A 
ATOM     84  C   UNL A   1      44.676  26.602  35.171  1.00  0.00     0.031 A 
ATOM     85  C   UNL A   1      45.887  28.477  34.249  1.00  0.00     0.131 A 
ATOM     86  C   UNL A   1      45.811  26.278  35.928  1.00  0.00     0.055 A 
ATOM     87  C   UNL A   1      47.025  28.124  34.973  1.00  0.00     0.041 A 
ATOM     88  F   UNL A   1      45.958  29.558  33.456  1.00  0.00    -0.206 F 
ATOM     89  C   UNL A   1      46.989  27.021  35.823  1.00  0.00     0.022 A 
BRANCH  86  90
ATOM     90  S   UNL A   1      45.719  24.883  37.084  1.00  0.00     0.124 S 
ATOM     91  O   UNL A   1      44.298  24.858  37.414  1.00  0.00    -0.237 OA
ATOM     92  O   UNL A   1      46.203  23.769  36.274  1.00  0.00    -0.237 OA
ATOM     93  O   UNL A   1      46.603  25.283  38.176  1.00  0.00    -0.744 OA
ENDBRANCH  86  90
ENDBRANCH  60  83
ENDBRANCH  34  35
ENDBRANCH  26  29
ENDBRANCH  24  25
ENDBRANCH   1  24
TORSDOF 15
ENDMDL
