MODEL 1
REMARK VINA RESULT:      -9.2      0.000      0.000
REMARK SMILES CC/C=C/C/C=C/C/C=C/C/C=C/CCSCCCC(=O)NCCCCNC(=O)c1ccc(-c2c3nc(c(-c4cc(S(=O)(=O)[O-])ccc4F)c4ccc([nH]4)c(-c4cc(S(=O)(=O)[O-])ccc4F)c4nc(c(-c5cc(S(=O)(=O)[O-])ccc5F)c5ccc2[nH]5)C=C4)C=C3)cc1
REMARK SMILES IDX 17 1 16 2 15 3 14 4 13 5 12 6 11 7 10 8 9 9 8 10 7 11 6 12
REMARK SMILES IDX 5 13 4 14 3 15 2 16 1 17 18 18 19 19 20 20 21 21 22 22 23 24
REMARK SMILES IDX 24 25 25 26 26 27 27 28 28 29 29 31 30 32 31 33 92 34 32 35
REMARK SMILES IDX 91 36 33 37 34 38 35 39 85 40 36 41 90 42 84 43 86 44 37 45
REMARK SMILES IDX 89 46 83 47 82 48 38 50 70 51 50 52 69 53 51 54 54 55 68 56
REMARK SMILES IDX 87 57 52 58 53 59 67 61 88 62 55 63 39 64 40 65 48 66 41 67
REMARK SMILES IDX 47 68 49 69 46 70 42 71 43 72 44 73 45 74 71 75 72 76 80 77
REMARK SMILES IDX 73 78 79 79 81 80 78 81 74 82 75 83 76 84 77 85 56 86 57 87
REMARK SMILES IDX 65 88 58 89 64 90 66 91 63 92 59 93 60 94 61 95 62 96
REMARK H PARENT 22 23 27 30 86 49 54 60
REMARK Flexibility Score: inf
ROOT
ATOM      1  C   UNL A   1      33.567  20.728  24.816  1.00  0.00     0.070 C 
ENDROOT
BRANCH   1   2
ATOM      2  S   UNL A   1      32.330  21.397  23.622  1.00  0.00    -0.162 SA
BRANCH   2   3
ATOM      3  C   UNL A   1      32.558  23.214  23.412  1.00  0.00     0.073 C 
BRANCH   3   4
ATOM      4  C   UNL A   1      31.281  24.092  23.350  1.00  0.00     0.038 C 
BRANCH   4   5
ATOM      5  C   UNL A   1      31.407  25.463  23.956  1.00  0.00    -0.030 C 
ATOM      6  C   UNL A   1      32.409  26.349  23.831  1.00  0.00    -0.027 C 
BRANCH   6   7
ATOM      7  C   UNL A   1      32.271  27.792  24.276  1.00  0.00     0.054 C 
BRANCH   7   8
ATOM      8  C   UNL A   1      33.432  28.316  25.072  1.00  0.00    -0.027 C 
ATOM      9  C   UNL A   1      33.355  28.576  26.388  1.00  0.00    -0.027 C 
BRANCH   9  10
ATOM     10  C   UNL A   1      34.472  29.153  27.211  1.00  0.00     0.054 C 
BRANCH  10  11
ATOM     11  C   UNL A   1      34.123  30.569  27.562  1.00  0.00    -0.027 C 
ATOM     12  C   UNL A   1      35.015  31.562  27.701  1.00  0.00    -0.027 C 
BRANCH  12  13
ATOM     13  C   UNL A   1      34.669  32.909  28.265  1.00  0.00     0.054 C 
BRANCH  13  14
ATOM     14  C   UNL A   1      35.932  33.683  28.514  1.00  0.00    -0.027 C 
ATOM     15  C   UNL A   1      37.059  33.153  29.014  1.00  0.00    -0.031 C 
BRANCH  15  16
ATOM     16  C   UNL A   1      38.274  33.966  29.357  1.00  0.00     0.023 C 
ATOM     17  C   UNL A   1      39.324  33.097  30.033  1.00  0.00     0.008 C 
ENDBRANCH  15  16
ENDBRANCH  13  14
ENDBRANCH  12  13
ENDBRANCH  10  11
ENDBRANCH   9  10
ENDBRANCH   7   8
ENDBRANCH   6   7
ENDBRANCH   4   5
ENDBRANCH   3   4
ENDBRANCH   2   3
ENDBRANCH   1   2
BRANCH   1  18
ATOM     18  C   UNL A   1      34.788  21.465  25.357  1.00  0.00     0.021 C 
BRANCH  18  19
ATOM     19  C   UNL A   1      36.085  21.449  24.572  1.00  0.00     0.101 C 
BRANCH  19  20
ATOM     20  C   UNL A   1      36.632  22.761  24.034  1.00  0.00     0.220 C 
ATOM     21  O   UNL A   1      36.313  23.121  22.894  1.00  0.00    -0.275 OA
ATOM     22  N   UNL A   1      37.416  23.613  24.740  1.00  0.00    -0.356 N 
ATOM     23  H   UNL A   1      37.862  24.288  24.179  1.00  0.00     0.163 HD
BRANCH  22  24
ATOM     24  C   UNL A   1      37.733  23.733  26.150  1.00  0.00     0.116 C 
BRANCH  24  25
ATOM     25  C   UNL A   1      39.201  23.440  26.463  1.00  0.00     0.023 C 
BRANCH  25  26
ATOM     26  C   UNL A   1      39.426  21.968  26.827  1.00  0.00     0.023 C 
BRANCH  26  27
ATOM     27  C   UNL A   1      39.413  21.011  25.633  1.00  0.00     0.116 C 
BRANCH  27  28
ATOM     28  N   UNL A   1      40.190  19.802  25.878  1.00  0.00    -0.352 N 
ATOM     29  C   UNL A   1      41.520  19.669  26.211  1.00  0.00     0.251 C 
ATOM     30  H   UNL A   1      39.691  18.958  25.793  1.00  0.00     0.163 HD
ATOM     31  O   UNL A   1      42.046  18.570  26.219  1.00  0.00    -0.269 OA
BRANCH  29  32
ATOM     32  C   UNL A   1      42.316  20.882  26.521  1.00  0.00     0.039 A 
ATOM     33  C   UNL A   1      42.724  21.711  25.472  1.00  0.00     0.014 A 
ATOM     34  C   UNL A   1      42.616  21.218  27.843  1.00  0.00     0.014 A 
ATOM     35  C   UNL A   1      43.338  22.933  25.758  1.00  0.00     0.010 A 
ATOM     36  C   UNL A   1      43.167  22.467  28.127  1.00  0.00     0.010 A 
ATOM     37  C   UNL A   1      43.510  23.349  27.089  1.00  0.00    -0.014 A 
BRANCH  37  38
ATOM     38  C   UNL A   1      43.987  24.720  27.422  1.00  0.00     0.031 A 
ATOM     39  C   UNL A   1      43.025  25.751  27.944  1.00  0.00     0.074 A 
ATOM     40  C   UNL A   1      45.266  25.061  27.153  1.00  0.00     0.049 A 
ATOM     41  N   UNL A   1      43.219  27.027  28.161  1.00  0.00    -0.248 NA
ATOM     42  C   UNL A   1      41.657  25.294  28.232  1.00  0.00     0.031 C 
ATOM     43  C   UNL A   1      46.284  24.157  26.608  1.00  0.00     0.029 A 
ATOM     44  N   UNL A   1      45.925  26.259  27.274  1.00  0.00    -0.354 N 
ATOM     45  C   UNL A   1      41.996  27.532  28.587  1.00  0.00     0.074 A 
ATOM     46  C   UNL A   1      41.057  26.429  28.563  1.00  0.00     0.031 C 
ATOM     47  C   UNL A   1      47.433  24.832  26.449  1.00  0.00     0.029 A 
ATOM     48  C   UNL A   1      47.226  26.227  26.822  1.00  0.00     0.049 A 
ATOM     49  H   UNL A   1      45.506  27.068  27.651  1.00  0.00     0.167 HD
ATOM     50  C   UNL A   1      41.689  28.795  28.971  1.00  0.00     0.034 A 
ATOM     51  C   UNL A   1      48.139  27.212  26.689  1.00  0.00     0.034 A 
ATOM     52  C   UNL A   1      42.645  29.875  29.014  1.00  0.00     0.049 A 
ATOM     53  C   UNL A   1      47.761  28.615  27.099  1.00  0.00     0.074 A 
ATOM     54  C   UNL A   1      42.463  31.164  29.487  1.00  0.00     0.029 A 
ATOM     55  N   UNL A   1      43.953  29.803  28.554  1.00  0.00    -0.354 N 
ATOM     56  N   UNL A   1      46.620  29.054  27.580  1.00  0.00    -0.248 NA
ATOM     57  C   UNL A   1      48.788  29.654  26.949  1.00  0.00     0.031 C 
ATOM     58  C   UNL A   1      43.630  31.891  29.237  1.00  0.00     0.029 A 
ATOM     59  C   UNL A   1      44.570  31.038  28.682  1.00  0.00     0.049 A 
ATOM     60  H   UNL A   1      44.379  28.994  28.189  1.00  0.00     0.167 HD
ATOM     61  C   UNL A   1      46.807  30.414  27.813  1.00  0.00     0.074 A 
ATOM     62  C   UNL A   1      48.171  30.718  27.440  1.00  0.00     0.031 C 
ATOM     63  C   UNL A   1      45.928  31.330  28.295  1.00  0.00     0.034 A 
BRANCH  50  64
ATOM     64  C   UNL A   1      40.258  29.094  29.343  1.00  0.00     0.023 A 
ATOM     65  C   UNL A   1      39.854  29.254  30.679  1.00  0.00     0.031 A 
ATOM     66  C   UNL A   1      39.286  29.242  28.337  1.00  0.00     0.131 A 
ATOM     67  C   UNL A   1      38.505  29.500  30.977  1.00  0.00     0.055 A 
ATOM     68  C   UNL A   1      37.960  29.558  28.635  1.00  0.00     0.041 A 
ATOM     69  F   UNL A   1      39.611  29.081  27.044  1.00  0.00    -0.206 F 
ATOM     70  C   UNL A   1      37.560  29.679  29.962  1.00  0.00     0.022 A 
BRANCH  67  71
ATOM     71  S   UNL A   1      37.980  29.476  32.713  1.00  0.00     0.124 S 
ATOM     72  O   UNL A   1      39.227  29.798  33.402  1.00  0.00    -0.237 OA
ATOM     73  O   UNL A   1      36.948  30.506  32.745  1.00  0.00    -0.237 OA
ATOM     74  O   UNL A   1      37.503  28.108  32.907  1.00  0.00    -0.744 OA
ENDBRANCH  67  71
ENDBRANCH  50  64
BRANCH  51  75
ATOM     75  C   UNL A   1      49.483  26.933  26.101  1.00  0.00     0.023 A 
ATOM     76  C   UNL A   1      49.791  27.310  24.784  1.00  0.00     0.031 A 
ATOM     77  C   UNL A   1      50.457  26.219  26.823  1.00  0.00     0.131 A 
ATOM     78  C   UNL A   1      51.011  26.920  24.209  1.00  0.00     0.055 A 
ATOM     79  C   UNL A   1      51.695  25.889  26.268  1.00  0.00     0.041 A 
ATOM     80  F   UNL A   1      50.218  25.833  28.086  1.00  0.00    -0.206 F 
ATOM     81  C   UNL A   1      51.971  26.224  24.947  1.00  0.00     0.022 A 
BRANCH  78  82
ATOM     82  S   UNL A   1      51.278  27.231  22.441  1.00  0.00     0.124 S 
ATOM     83  O   UNL A   1      52.433  26.386  22.163  1.00  0.00    -0.237 OA
ATOM     84  O   UNL A   1      50.010  26.796  21.864  1.00  0.00    -0.237 OA
ATOM     85  O   UNL A   1      51.528  28.669  22.384  1.00  0.00    -0.744 OA
ENDBRANCH  78  82
ENDBRANCH  51  75
BRANCH  63  86
ATOM     86  C   UNL A   1      46.433  32.740  28.474  1.00  0.00     0.023 A 
ATOM     87  C   UNL A   1      46.613  33.604  27.381  1.00  0.00     0.031 A 
ATOM     88  C   UNL A   1      46.725  33.228  29.761  1.00  0.00     0.131 A 
ATOM     89  C   UNL A   1      47.112  34.899  27.589  1.00  0.00     0.055 A 
ATOM     90  C   UNL A   1      47.167  34.535  29.967  1.00  0.00     0.041 A 
ATOM     91  F   UNL A   1      46.575  32.443  30.839  1.00  0.00    -0.206 F 
ATOM     92  C   UNL A   1      47.372  35.376  28.877  1.00  0.00     0.022 A 
BRANCH  89  93
ATOM     93  S   UNL A   1      47.482  35.935  26.148  1.00  0.00     0.124 S 
ATOM     94  O   UNL A   1      47.315  34.991  25.047  1.00  0.00    -0.237 OA
ATOM     95  O   UNL A   1      46.471  36.984  26.247  1.00  0.00    -0.237 OA
ATOM     96  O   UNL A   1      48.855  36.375  26.383  1.00  0.00    -0.744 OA
ENDBRANCH  89  93
ENDBRANCH  63  86
ENDBRANCH  37  38
ENDBRANCH  29  32
ENDBRANCH  27  28
ENDBRANCH  26  27
ENDBRANCH  25  26
ENDBRANCH  24  25
ENDBRANCH  22  24
ENDBRANCH  19  20
ENDBRANCH  18  19
ENDBRANCH   1  18
TORSDOF 27
ENDMDL
MODEL 2
REMARK VINA RESULT:      -9.2      1.352      7.774
REMARK SMILES CC/C=C/C/C=C/C/C=C/C/C=C/CCSCCCC(=O)NCCCCNC(=O)c1ccc(-c2c3nc(c(-c4cc(S(=O)(=O)[O-])ccc4F)c4ccc([nH]4)c(-c4cc(S(=O)(=O)[O-])ccc4F)c4nc(c(-c5cc(S(=O)(=O)[O-])ccc5F)c5ccc2[nH]5)C=C4)C=C3)cc1
REMARK SMILES IDX 17 1 16 2 15 3 14 4 13 5 12 6 11 7 10 8 9 9 8 10 7 11 6 12
REMARK SMILES IDX 5 13 4 14 3 15 2 16 1 17 18 18 19 19 20 20 21 21 22 22 23 24
REMARK SMILES IDX 24 25 25 26 26 27 27 28 28 29 29 31 30 32 31 33 92 34 32 35
REMARK SMILES IDX 91 36 33 37 34 38 35 39 85 40 36 41 90 42 84 43 86 44 37 45
REMARK SMILES IDX 89 46 83 47 82 48 38 50 70 51 50 52 69 53 51 54 54 55 68 56
REMARK SMILES IDX 87 57 52 58 53 59 67 61 88 62 55 63 39 64 40 65 48 66 41 67
REMARK SMILES IDX 47 68 49 69 46 70 42 71 43 72 44 73 45 74 71 75 72 76 80 77
REMARK SMILES IDX 73 78 79 79 81 80 78 81 74 82 75 83 76 84 77 85 56 86 57 87
REMARK SMILES IDX 65 88 58 89 64 90 66 91 63 92 59 93 60 94 61 95 62 96
REMARK H PARENT 22 23 27 30 86 49 54 60
REMARK Flexibility Score: inf
ROOT
ATOM      1  C   UNL A   1      34.491  24.443  24.333  1.00  0.00     0.070 C 
ENDROOT
BRANCH   1   2
ATOM      2  S   UNL A   1      33.674  23.524  22.959  1.00  0.00    -0.162 SA
BRANCH   2   3
ATOM      3  C   UNL A   1      32.552  24.643  22.017  1.00  0.00     0.073 C 
BRANCH   3   4
ATOM      4  C   UNL A   1      33.080  26.060  21.673  1.00  0.00     0.038 C 
BRANCH   4   5
ATOM      5  C   UNL A   1      32.451  27.191  22.440  1.00  0.00    -0.030 C 
ATOM      6  C   UNL A   1      32.290  27.318  23.768  1.00  0.00    -0.027 C 
BRANCH   6   7
ATOM      7  C   UNL A   1      31.887  28.632  24.409  1.00  0.00     0.054 C 
BRANCH   7   8
ATOM      8  C   UNL A   1      32.886  29.184  25.387  1.00  0.00    -0.027 C 
ATOM      9  C   UNL A   1      33.768  28.411  26.042  1.00  0.00    -0.027 C 
BRANCH   9  10
ATOM     10  C   UNL A   1      34.744  28.913  27.068  1.00  0.00     0.054 C 
BRANCH  10  11
ATOM     11  C   UNL A   1      34.206  30.183  27.658  1.00  0.00    -0.027 C 
ATOM     12  C   UNL A   1      34.843  31.364  27.635  1.00  0.00    -0.027 C 
BRANCH  12  13
ATOM     13  C   UNL A   1      34.389  32.561  28.419  1.00  0.00     0.054 C 
BRANCH  13  14
ATOM     14  C   UNL A   1      35.230  32.692  29.656  1.00  0.00    -0.027 C 
ATOM     15  C   UNL A   1      34.814  32.375  30.892  1.00  0.00    -0.031 C 
BRANCH  15  16
ATOM     16  C   UNL A   1      35.631  32.617  32.128  1.00  0.00     0.023 C 
ATOM     17  C   UNL A   1      35.118  33.838  32.877  1.00  0.00     0.008 C 
ENDBRANCH  15  16
ENDBRANCH  13  14
ENDBRANCH  12  13
ENDBRANCH  10  11
ENDBRANCH   9  10
ENDBRANCH   7   8
ENDBRANCH   6   7
ENDBRANCH   4   5
ENDBRANCH   3   4
ENDBRANCH   2   3
ENDBRANCH   1   2
BRANCH   1  18
ATOM     18  C   UNL A   1      34.206  24.279  25.823  1.00  0.00     0.021 C 
BRANCH  18  19
ATOM     19  C   UNL A   1      35.019  23.295  26.641  1.00  0.00     0.101 C 
BRANCH  19  20
ATOM     20  C   UNL A   1      34.562  21.847  26.712  1.00  0.00     0.220 C 
ATOM     21  O   UNL A   1      33.659  21.542  27.502  1.00  0.00    -0.275 OA
ATOM     22  N   UNL A   1      35.037  20.851  25.924  1.00  0.00    -0.356 N 
ATOM     23  H   UNL A   1      34.807  19.952  26.249  1.00  0.00     0.163 HD
BRANCH  22  24
ATOM     24  C   UNL A   1      35.816  20.841  24.700  1.00  0.00     0.116 C 
BRANCH  24  25
ATOM     25  C   UNL A   1      37.263  21.293  24.905  1.00  0.00     0.023 C 
BRANCH  25  26
ATOM     26  C   UNL A   1      38.206  20.109  25.141  1.00  0.00     0.023 C 
BRANCH  26  27
ATOM     27  C   UNL A   1      39.446  20.441  25.971  1.00  0.00     0.116 C 
BRANCH  27  28
ATOM     28  N   UNL A   1      40.375  19.321  26.062  1.00  0.00    -0.352 N 
ATOM     29  C   UNL A   1      41.749  19.329  26.159  1.00  0.00     0.251 C 
ATOM     30  H   UNL A   1      39.959  18.429  26.054  1.00  0.00     0.163 HD
ATOM     31  O   UNL A   1      42.380  18.291  26.062  1.00  0.00    -0.269 OA
BRANCH  29  32
ATOM     32  C   UNL A   1      42.457  20.620  26.343  1.00  0.00     0.039 A 
ATOM     33  C   UNL A   1      42.840  21.348  25.214  1.00  0.00     0.014 A 
ATOM     34  C   UNL A   1      42.697  21.124  27.623  1.00  0.00     0.014 A 
ATOM     35  C   UNL A   1      43.366  22.634  25.368  1.00  0.00     0.010 A 
ATOM     36  C   UNL A   1      43.159  22.431  27.771  1.00  0.00     0.010 A 
ATOM     37  C   UNL A   1      43.474  23.209  26.645  1.00  0.00    -0.014 A 
BRANCH  37  38
ATOM     38  C   UNL A   1      43.853  24.639  26.827  1.00  0.00     0.031 A 
ATOM     39  C   UNL A   1      45.280  25.074  26.638  1.00  0.00     0.074 A 
ATOM     40  C   UNL A   1      42.928  25.519  27.265  1.00  0.00     0.049 A 
ATOM     41  N   UNL A   1      45.827  26.238  26.880  1.00  0.00    -0.248 NA
ATOM     42  C   UNL A   1      46.220  24.061  26.136  1.00  0.00     0.031 C 
ATOM     43  C   UNL A   1      41.519  25.206  27.524  1.00  0.00     0.029 A 
ATOM     44  N   UNL A   1      43.033  26.848  27.597  1.00  0.00    -0.354 N 
ATOM     45  C   UNL A   1      47.178  26.092  26.586  1.00  0.00     0.074 A 
ATOM     46  C   UNL A   1      47.372  24.716  26.180  1.00  0.00     0.031 C 
ATOM     47  C   UNL A   1      40.895  26.308  27.967  1.00  0.00     0.029 A 
ATOM     48  C   UNL A   1      41.864  27.394  28.082  1.00  0.00     0.049 A 
ATOM     49  H   UNL A   1      43.866  27.363  27.497  1.00  0.00     0.167 HD
ATOM     50  C   UNL A   1      48.161  27.024  26.641  1.00  0.00     0.034 A 
ATOM     51  C   UNL A   1      41.606  28.615  28.593  1.00  0.00     0.034 A 
ATOM     52  C   UNL A   1      47.944  28.399  27.022  1.00  0.00     0.049 A 
ATOM     53  C   UNL A   1      42.727  29.624  28.667  1.00  0.00     0.074 A 
ATOM     54  C   UNL A   1      48.849  29.446  27.008  1.00  0.00     0.029 A 
ATOM     55  N   UNL A   1      46.747  28.915  27.500  1.00  0.00    -0.354 N 
ATOM     56  N   UNL A   1      43.982  29.491  28.303  1.00  0.00    -0.248 NA
ATOM     57  C   UNL A   1      42.400  30.946  29.219  1.00  0.00     0.031 C 
ATOM     58  C   UNL A   1      48.226  30.571  27.555  1.00  0.00     0.029 A 
ATOM     59  C   UNL A   1      46.907  30.251  27.836  1.00  0.00     0.049 A 
ATOM     60  H   UNL A   1      45.909  28.407  27.589  1.00  0.00     0.167 HD
ATOM     61  C   UNL A   1      44.583  30.720  28.560  1.00  0.00     0.074 A 
ATOM     62  C   UNL A   1      43.552  31.586  29.089  1.00  0.00     0.031 C 
ATOM     63  C   UNL A   1      45.873  31.100  28.373  1.00  0.00     0.034 A 
BRANCH  50  64
ATOM     64  C   UNL A   1      49.568  26.588  26.316  1.00  0.00     0.023 A 
ATOM     65  C   UNL A   1      50.226  27.007  25.147  1.00  0.00     0.031 A 
ATOM     66  C   UNL A   1      50.270  25.755  27.206  1.00  0.00     0.131 A 
ATOM     67  C   UNL A   1      51.524  26.549  24.873  1.00  0.00     0.055 A 
ATOM     68  C   UNL A   1      51.586  25.360  26.963  1.00  0.00     0.041 A 
ATOM     69  F   UNL A   1      49.684  25.308  28.328  1.00  0.00    -0.206 F 
ATOM     70  C   UNL A   1      52.218  25.749  25.785  1.00  0.00     0.022 A 
BRANCH  67  71
ATOM     71  S   UNL A   1      52.254  26.923  23.256  1.00  0.00     0.124 S 
ATOM     72  O   UNL A   1      52.700  28.301  23.445  1.00  0.00    -0.237 OA
ATOM     73  O   UNL A   1      53.307  25.920  23.144  1.00  0.00    -0.237 OA
ATOM     74  O   UNL A   1      51.135  26.759  22.329  1.00  0.00    -0.744 OA
ENDBRANCH  67  71
ENDBRANCH  50  64
BRANCH  51  75
ATOM     75  C   UNL A   1      40.251  28.951  29.123  1.00  0.00     0.023 A 
ATOM     76  C   UNL A   1      39.949  28.806  30.487  1.00  0.00     0.031 A 
ATOM     77  C   UNL A   1      39.214  29.353  28.261  1.00  0.00     0.131 A 
ATOM     78  C   UNL A   1      38.633  29.001  30.939  1.00  0.00     0.055 A 
ATOM     79  C   UNL A   1      37.922  29.607  28.726  1.00  0.00     0.041 A 
ATOM     80  F   UNL A   1      39.444  29.508  26.948  1.00  0.00    -0.206 F 
ATOM     81  C   UNL A   1      37.622  29.414  30.070  1.00  0.00     0.022 A 
BRANCH  78  82
ATOM     82  S   UNL A   1      38.237  28.588  32.661  1.00  0.00     0.124 S 
ATOM     83  O   UNL A   1      36.965  29.277  32.845  1.00  0.00    -0.237 OA
ATOM     84  O   UNL A   1      38.177  27.131  32.615  1.00  0.00    -0.237 OA
ATOM     85  O   UNL A   1      39.361  29.142  33.410  1.00  0.00    -0.744 OA
ENDBRANCH  78  82
ENDBRANCH  51  75
BRANCH  63  86
ATOM     86  C   UNL A   1      46.227  32.526  28.714  1.00  0.00     0.023 A 
ATOM     87  C   UNL A   1      46.076  33.567  27.782  1.00  0.00     0.031 A 
ATOM     88  C   UNL A   1      46.712  32.847  29.995  1.00  0.00     0.131 A 
ATOM     89  C   UNL A   1      46.446  34.875  28.130  1.00  0.00     0.055 A 
ATOM     90  C   UNL A   1      47.024  34.159  30.354  1.00  0.00     0.041 A 
ATOM     91  F   UNL A   1      46.880  31.891  30.921  1.00  0.00    -0.206 F 
ATOM     92  C   UNL A   1      46.900  35.180  29.416  1.00  0.00     0.022 A 
BRANCH  89  93
ATOM     93  S   UNL A   1      46.388  36.166  26.859  1.00  0.00     0.124 S 
ATOM     94  O   UNL A   1      47.745  36.125  26.323  1.00  0.00    -0.237 OA
ATOM     95  O   UNL A   1      45.336  35.684  25.969  1.00  0.00    -0.237 OA
ATOM     96  O   UNL A   1      46.055  37.374  27.611  1.00  0.00    -0.744 OA
ENDBRANCH  89  93
ENDBRANCH  63  86
ENDBRANCH  37  38
ENDBRANCH  29  32
ENDBRANCH  27  28
ENDBRANCH  26  27
ENDBRANCH  25  26
ENDBRANCH  24  25
ENDBRANCH  22  24
ENDBRANCH  19  20
ENDBRANCH  18  19
ENDBRANCH   1  18
TORSDOF 27
ENDMDL
MODEL 3
REMARK VINA RESULT:      -9.0      1.703      2.455
REMARK SMILES CC/C=C/C/C=C/C/C=C/C/C=C/CCSCCCC(=O)NCCCCNC(=O)c1ccc(-c2c3nc(c(-c4cc(S(=O)(=O)[O-])ccc4F)c4ccc([nH]4)c(-c4cc(S(=O)(=O)[O-])ccc4F)c4nc(c(-c5cc(S(=O)(=O)[O-])ccc5F)c5ccc2[nH]5)C=C4)C=C3)cc1
REMARK SMILES IDX 17 1 16 2 15 3 14 4 13 5 12 6 11 7 10 8 9 9 8 10 7 11 6 12
REMARK SMILES IDX 5 13 4 14 3 15 2 16 1 17 18 18 19 19 20 20 21 21 22 22 23 24
REMARK SMILES IDX 24 25 25 26 26 27 27 28 28 29 29 31 30 32 31 33 92 34 32 35
REMARK SMILES IDX 91 36 33 37 34 38 35 39 85 40 36 41 90 42 84 43 86 44 37 45
REMARK SMILES IDX 89 46 83 47 82 48 38 50 70 51 50 52 69 53 51 54 54 55 68 56
REMARK SMILES IDX 87 57 52 58 53 59 67 61 88 62 55 63 39 64 40 65 48 66 41 67
REMARK SMILES IDX 47 68 49 69 46 70 42 71 43 72 44 73 45 74 71 75 72 76 80 77
REMARK SMILES IDX 73 78 79 79 81 80 78 81 74 82 75 83 76 84 77 85 56 86 57 87
REMARK SMILES IDX 65 88 58 89 64 90 66 91 63 92 59 93 60 94 61 95 62 96
REMARK H PARENT 22 23 27 30 86 49 54 60
REMARK Flexibility Score: inf
ROOT
ATOM      1  C   UNL A   1      34.311  24.437  23.571  1.00  0.00     0.070 C 
ENDROOT
BRANCH   1   2
ATOM      2  S   UNL A   1      32.643  25.185  23.816  1.00  0.00    -0.162 SA
BRANCH   2   3
ATOM      3  C   UNL A   1      32.414  25.682  25.576  1.00  0.00     0.073 C 
BRANCH   3   4
ATOM      4  C   UNL A   1      32.212  27.191  25.871  1.00  0.00     0.038 C 
BRANCH   4   5
ATOM      5  C   UNL A   1      33.451  27.946  26.269  1.00  0.00    -0.030 C 
ATOM      6  C   UNL A   1      33.552  29.071  26.997  1.00  0.00    -0.027 C 
BRANCH   6   7
ATOM      7  C   UNL A   1      34.879  29.561  27.544  1.00  0.00     0.054 C 
BRANCH   7   8
ATOM      8  C   UNL A   1      35.031  31.056  27.574  1.00  0.00    -0.027 C 
ATOM      9  C   UNL A   1      34.479  31.825  28.528  1.00  0.00    -0.027 C 
BRANCH   9  10
ATOM     10  C   UNL A   1      34.558  33.325  28.566  1.00  0.00     0.054 C 
BRANCH  10  11
ATOM     11  C   UNL A   1      35.388  33.729  29.748  1.00  0.00    -0.027 C 
ATOM     12  C   UNL A   1      36.712  33.538  29.851  1.00  0.00    -0.027 C 
BRANCH  12  13
ATOM     13  C   UNL A   1      37.480  33.747  31.124  1.00  0.00     0.054 C 
BRANCH  13  14
ATOM     14  C   UNL A   1      38.788  34.416  30.812  1.00  0.00    -0.027 C 
ATOM     15  C   UNL A   1      39.988  33.828  30.935  1.00  0.00    -0.031 C 
BRANCH  15  16
ATOM     16  C   UNL A   1      41.288  34.547  30.722  1.00  0.00     0.023 C 
ATOM     17  C   UNL A   1      41.424  34.988  29.273  1.00  0.00     0.008 C 
ENDBRANCH  15  16
ENDBRANCH  13  14
ENDBRANCH  12  13
ENDBRANCH  10  11
ENDBRANCH   9  10
ENDBRANCH   7   8
ENDBRANCH   6   7
ENDBRANCH   4   5
ENDBRANCH   3   4
ENDBRANCH   2   3
ENDBRANCH   1   2
BRANCH   1  18
ATOM     18  C   UNL A   1      34.604  22.988  23.196  1.00  0.00     0.021 C 
BRANCH  18  19
ATOM     19  C   UNL A   1      33.981  21.862  23.997  1.00  0.00     0.101 C 
BRANCH  19  20
ATOM     20  C   UNL A   1      34.471  21.612  25.414  1.00  0.00     0.220 C 
ATOM     21  O   UNL A   1      33.903  22.181  26.353  1.00  0.00    -0.275 OA
ATOM     22  N   UNL A   1      35.469  20.754  25.741  1.00  0.00    -0.356 N 
ATOM     23  H   UNL A   1      35.808  20.880  26.656  1.00  0.00     0.163 HD
BRANCH  22  24
ATOM     24  C   UNL A   1      36.139  19.689  25.019  1.00  0.00     0.116 C 
BRANCH  24  25
ATOM     25  C   UNL A   1      37.564  20.050  24.601  1.00  0.00     0.023 C 
BRANCH  25  26
ATOM     26  C   UNL A   1      37.981  21.430  25.120  1.00  0.00     0.023 C 
BRANCH  26  27
ATOM     27  C   UNL A   1      39.112  21.405  26.149  1.00  0.00     0.116 C 
BRANCH  27  28
ATOM     28  N   UNL A   1      39.916  20.191  26.067  1.00  0.00    -0.352 N 
ATOM     29  C   UNL A   1      41.284  20.042  26.127  1.00  0.00     0.251 C 
ATOM     30  H   UNL A   1      39.406  19.357  25.953  1.00  0.00     0.163 HD
ATOM     31  O   UNL A   1      41.797  18.965  25.877  1.00  0.00    -0.269 OA
BRANCH  29  32
ATOM     32  C   UNL A   1      42.129  21.214  26.459  1.00  0.00     0.039 A 
ATOM     33  C   UNL A   1      42.519  22.080  25.434  1.00  0.00     0.014 A 
ATOM     34  C   UNL A   1      42.493  21.478  27.782  1.00  0.00     0.014 A 
ATOM     35  C   UNL A   1      43.181  23.270  25.751  1.00  0.00     0.010 A 
ATOM     36  C   UNL A   1      43.094  22.695  28.099  1.00  0.00     0.010 A 
ATOM     37  C   UNL A   1      43.421  23.616  27.090  1.00  0.00    -0.014 A 
BRANCH  37  38
ATOM     38  C   UNL A   1      43.953  24.955  27.467  1.00  0.00     0.031 A 
ATOM     39  C   UNL A   1      43.040  25.997  28.050  1.00  0.00     0.074 A 
ATOM     40  C   UNL A   1      45.237  25.261  27.183  1.00  0.00     0.049 A 
ATOM     41  N   UNL A   1      43.284  27.256  28.313  1.00  0.00    -0.248 NA
ATOM     42  C   UNL A   1      41.663  25.577  28.351  1.00  0.00     0.031 C 
ATOM     43  C   UNL A   1      46.211  24.346  26.580  1.00  0.00     0.029 A 
ATOM     44  N   UNL A   1      45.941  26.431  27.336  1.00  0.00    -0.354 N 
ATOM     45  C   UNL A   1      42.088  27.785  28.787  1.00  0.00     0.074 A 
ATOM     46  C   UNL A   1      41.111  26.718  28.740  1.00  0.00     0.031 C 
ATOM     47  C   UNL A   1      47.380  24.986  26.421  1.00  0.00     0.029 A 
ATOM     48  C   UNL A   1      47.230  26.372  26.854  1.00  0.00     0.049 A 
ATOM     49  H   UNL A   1      45.560  27.237  27.754  1.00  0.00     0.167 HD
ATOM     50  C   UNL A   1      41.835  29.042  29.226  1.00  0.00     0.034 A 
ATOM     51  C   UNL A   1      48.175  27.328  26.740  1.00  0.00     0.034 A 
ATOM     52  C   UNL A   1      42.830  30.085  29.291  1.00  0.00     0.049 A 
ATOM     53  C   UNL A   1      47.856  28.726  27.213  1.00  0.00     0.074 A 
ATOM     54  C   UNL A   1      42.703  31.359  29.818  1.00  0.00     0.029 A 
ATOM     55  N   UNL A   1      44.124  29.987  28.799  1.00  0.00    -0.354 N 
ATOM     56  N   UNL A   1      46.742  29.185  27.737  1.00  0.00    -0.248 NA
ATOM     57  C   UNL A   1      48.916  29.734  27.082  1.00  0.00     0.031 C 
ATOM     58  C   UNL A   1      43.890  32.055  29.571  1.00  0.00     0.029 A 
ATOM     59  C   UNL A   1      44.787  31.193  28.962  1.00  0.00     0.049 A 
ATOM     60  H   UNL A   1      44.513  29.178  28.393  1.00  0.00     0.167 HD
ATOM     61  C   UNL A   1      46.981  30.527  28.019  1.00  0.00     0.074 A 
ATOM     62  C   UNL A   1      48.348  30.798  27.627  1.00  0.00     0.031 C 
ATOM     63  C   UNL A   1      46.147  31.453  28.556  1.00  0.00     0.034 A 
BRANCH  50  64
ATOM     64  C   UNL A   1      40.424  29.375  29.642  1.00  0.00     0.023 A 
ATOM     65  C   UNL A   1      40.039  29.429  30.992  1.00  0.00     0.031 A 
ATOM     66  C   UNL A   1      39.453  29.665  28.666  1.00  0.00     0.131 A 
ATOM     67  C   UNL A   1      38.705  29.713  31.328  1.00  0.00     0.055 A 
ATOM     68  C   UNL A   1      38.147  30.017  29.008  1.00  0.00     0.041 A 
ATOM     69  F   UNL A   1      39.760  29.610  27.360  1.00  0.00    -0.206 F 
ATOM     70  C   UNL A   1      37.763  30.032  30.346  1.00  0.00     0.022 A 
BRANCH  67  71
ATOM     71  S   UNL A   1      38.193  29.551  33.060  1.00  0.00     0.124 S 
ATOM     72  O   UNL A   1      39.470  29.303  33.724  1.00  0.00    -0.237 OA
ATOM     73  O   UNL A   1      37.574  30.844  33.328  1.00  0.00    -0.237 OA
ATOM     74  O   UNL A   1      37.276  28.413  33.041  1.00  0.00    -0.744 OA
ENDBRANCH  67  71
ENDBRANCH  50  64
BRANCH  51  75
ATOM     75  C   UNL A   1      49.495  27.027  26.111  1.00  0.00     0.023 A 
ATOM     76  C   UNL A   1      50.628  26.754  26.895  1.00  0.00     0.031 A 
ATOM     77  C   UNL A   1      49.662  27.081  24.715  1.00  0.00     0.131 A 
ATOM     78  C   UNL A   1      51.884  26.606  26.285  1.00  0.00     0.055 A 
ATOM     79  C   UNL A   1      50.902  26.870  24.109  1.00  0.00     0.041 A 
ATOM     80  F   UNL A   1      48.615  27.338  23.915  1.00  0.00    -0.206 F 
ATOM     81  C   UNL A   1      52.027  26.648  24.897  1.00  0.00     0.022 A 
BRANCH  78  82
ATOM     82  S   UNL A   1      53.353  26.478  27.344  1.00  0.00     0.124 S 
ATOM     83  O   UNL A   1      52.759  26.149  28.635  1.00  0.00    -0.237 OA
ATOM     84  O   UNL A   1      54.103  25.410  26.691  1.00  0.00    -0.237 OA
ATOM     85  O   UNL A   1      53.954  27.806  27.253  1.00  0.00    -0.744 OA
ENDBRANCH  78  82
ENDBRANCH  51  75
BRANCH  63  86
ATOM     86  C   UNL A   1      46.705  32.836  28.780  1.00  0.00     0.023 A 
ATOM     87  C   UNL A   1      46.596  33.843  27.805  1.00  0.00     0.031 A 
ATOM     88  C   UNL A   1      47.344  33.153  29.992  1.00  0.00     0.131 A 
ATOM     89  C   UNL A   1      47.155  35.108  28.042  1.00  0.00     0.055 A 
ATOM     90  C   UNL A   1      47.847  34.430  30.244  1.00  0.00     0.041 A 
ATOM     91  F   UNL A   1      47.479  32.228  30.955  1.00  0.00    -0.206 F 
ATOM     92  C   UNL A   1      47.762  35.413  29.263  1.00  0.00     0.022 A 
BRANCH  89  93
ATOM     93  S   UNL A   1      47.136  36.334  26.707  1.00  0.00     0.124 S 
ATOM     94  O   UNL A   1      47.725  35.586  25.600  1.00  0.00    -0.237 OA
ATOM     95  O   UNL A   1      45.715  36.643  26.583  1.00  0.00    -0.237 OA
ATOM     96  O   UNL A   1      47.961  37.422  27.227  1.00  0.00    -0.744 OA
ENDBRANCH  89  93
ENDBRANCH  63  86
ENDBRANCH  37  38
ENDBRANCH  29  32
ENDBRANCH  27  28
ENDBRANCH  26  27
ENDBRANCH  25  26
ENDBRANCH  24  25
ENDBRANCH  22  24
ENDBRANCH  19  20
ENDBRANCH  18  19
ENDBRANCH   1  18
TORSDOF 27
ENDMDL
