MODEL 1
REMARK VINA RESULT:     -12.2      0.000      0.000
REMARK SMILES Cc1cc(C)c(C(=O)NC[C@H]2CC[C@@H](C(=O)NCCCCNC(=O)c3ccc(-c4c5nc(c(-c6cc(S(=O)(=O)[O-])ccc6F)c6ccc([nH]6)c(-c6cc(S(=O)(=O)[O-])ccc6F)c6nc(c(-c7cc(S(=O)(=O)[O-])ccc7F)c7ccc4[nH]7)C=C6)C=C5)cc3)O2)c(C)c1
REMARK SMILES IDX 19 1 18 2 17 3 15 4 16 5 14 7 11 8 12 9 88 10 13 11 10 12
REMARK SMILES IDX 9 13 7 14 8 15 6 17 1 18 2 19 3 20 91 21 4 22 89 23 5 24
REMARK SMILES IDX 90 25 20 26 21 27 22 28 23 29 24 31 25 32 26 33 87 34 27 35
REMARK SMILES IDX 86 36 28 37 29 38 30 39 80 40 31 41 85 42 79 43 81 44 32 45
REMARK SMILES IDX 84 46 78 47 77 48 33 50 65 51 45 52 64 53 46 54 49 55 63 56
REMARK SMILES IDX 82 57 47 58 48 59 62 61 83 62 50 63 34 64 35 65 43 66 36 67
REMARK SMILES IDX 42 68 44 69 41 70 37 71 38 72 39 73 40 74 66 75 67 76 75 77
REMARK SMILES IDX 68 78 74 79 76 80 73 81 69 82 70 83 71 84 72 85 51 86 52 87
REMARK SMILES IDX 60 88 53 89 59 90 61 91 58 92 54 93 55 94 56 95 57 96
REMARK H PARENT 17 6 9 16 22 30 81 49 49 60
REMARK Flexibility Score: inf
ROOT
ATOM      1  C   UNL A   1      31.333  30.974  25.789  1.00  0.00     0.023 C 
ENDROOT
BRANCH   1   2
ATOM      2  C   UNL A   1      32.409  29.986  26.229  1.00  0.00     0.116 C 
BRANCH   2   3
ATOM      3  N   UNL A   1      31.854  28.843  26.934  1.00  0.00    -0.354 N 
ATOM      4  C   UNL A   1      31.503  27.620  26.430  1.00  0.00     0.249 C 
ATOM      5  O   UNL A   1      31.068  26.768  27.205  1.00  0.00    -0.272 OA
ATOM      6  H   UNL A   1      31.711  28.965  27.900  1.00  0.00     0.163 HD
BRANCH   4   7
ATOM      7  C   UNL A   1      31.629  27.380  24.917  1.00  0.00     0.207 C 
ATOM      8  C   UNL A   1      31.671  25.302  23.830  1.00  0.00     0.138 C 
ATOM      9  C   UNL A   1      30.615  26.156  23.156  1.00  0.00     0.037 C 
ATOM     10  O   UNL A   1      32.418  26.206  24.654  1.00  0.00    -0.363 OA
ATOM     11  C   UNL A   1      30.287  27.171  24.223  1.00  0.00     0.045 C 
BRANCH   8  12
ATOM     12  C   UNL A   1      31.112  24.155  24.704  1.00  0.00     0.148 C 
BRANCH  12  13
ATOM     13  N   UNL A   1      31.211  22.881  24.019  1.00  0.00    -0.349 N 
ATOM     14  C   UNL A   1      32.215  22.111  23.494  1.00  0.00     0.251 C 
ATOM     15  O   UNL A   1      31.835  21.504  22.483  1.00  0.00    -0.269 OA
ATOM     16  H   UNL A   1      30.328  22.462  23.900  1.00  0.00     0.163 HD
BRANCH  14  17
ATOM     17  C   UNL A   1      33.633  21.868  23.989  1.00  0.00     0.045 A 
ATOM     18  C   UNL A   1      37.627  20.424  25.069  1.00  0.00     0.044 C 
ATOM     19  C   UNL A   1      36.255  20.934  24.749  1.00  0.00    -0.051 A 
ATOM     20  C   UNL A   1      35.135  20.159  24.994  1.00  0.00     0.007 A 
ATOM     21  C   UNL A   1      36.065  22.185  24.181  1.00  0.00     0.007 A 
ATOM     22  C   UNL A   1      33.837  20.613  24.666  1.00  0.00    -0.038 A 
ATOM     23  C   UNL A   1      34.788  22.664  23.783  1.00  0.00    -0.038 A 
ATOM     24  C   UNL A   1      32.737  19.644  25.050  1.00  0.00     0.045 C 
ATOM     25  C   UNL A   1      34.857  24.027  23.169  1.00  0.00     0.045 C 
ENDBRANCH  14  17
ENDBRANCH  12  13
ENDBRANCH   8  12
ENDBRANCH   4   7
ENDBRANCH   2   3
ENDBRANCH   1   2
BRANCH   1  26
ATOM     26  C   UNL A   1      31.285  32.280  26.583  1.00  0.00     0.023 C 
BRANCH  26  27
ATOM     27  C   UNL A   1      32.591  32.681  27.261  1.00  0.00     0.116 C 
BRANCH  27  28
ATOM     28  N   UNL A   1      32.553  34.028  27.808  1.00  0.00    -0.352 N 
ATOM     29  C   UNL A   1      33.337  34.601  28.784  1.00  0.00     0.251 C 
ATOM     30  H   UNL A   1      31.864  34.617  27.425  1.00  0.00     0.163 HD
ATOM     31  O   UNL A   1      33.047  35.707  29.221  1.00  0.00    -0.269 OA
BRANCH  29  32
ATOM     32  C   UNL A   1      34.504  33.863  29.325  1.00  0.00     0.039 A 
ATOM     33  C   UNL A   1      35.788  34.251  28.934  1.00  0.00     0.014 A 
ATOM     34  C   UNL A   1      34.337  32.805  30.222  1.00  0.00     0.014 A 
ATOM     35  C   UNL A   1      36.904  33.635  29.508  1.00  0.00     0.010 A 
ATOM     36  C   UNL A   1      35.448  32.246  30.850  1.00  0.00     0.010 A 
ATOM     37  C   UNL A   1      36.744  32.661  30.508  1.00  0.00    -0.014 A 
BRANCH  37  38
ATOM     38  C   UNL A   1      37.916  32.076  31.216  1.00  0.00     0.031 A 
ATOM     39  C   UNL A   1      38.708  30.964  30.579  1.00  0.00     0.074 A 
ATOM     40  C   UNL A   1      38.228  32.500  32.458  1.00  0.00     0.049 A 
ATOM     41  N   UNL A   1      39.691  30.259  31.076  1.00  0.00    -0.248 NA
ATOM     42  C   UNL A   1      38.323  30.582  29.213  1.00  0.00     0.031 C 
ATOM     43  C   UNL A   1      37.524  33.554  33.192  1.00  0.00     0.029 A 
ATOM     44  N   UNL A   1      39.209  32.091  33.328  1.00  0.00    -0.354 N 
ATOM     45  C   UNL A   1      40.042  29.347  30.087  1.00  0.00     0.074 A 
ATOM     46  C   UNL A   1      39.120  29.548  28.987  1.00  0.00     0.031 C 
ATOM     47  C   UNL A   1      38.112  33.726  34.387  1.00  0.00     0.029 A 
ATOM     48  C   UNL A   1      39.194  32.758  34.533  1.00  0.00     0.049 A 
ATOM     49  H   UNL A   1      39.862  31.388  33.110  1.00  0.00     0.167 HD
ATOM     50  C   UNL A   1      41.053  28.443  30.084  1.00  0.00     0.034 A 
ATOM     51  C   UNL A   1      39.951  32.595  35.637  1.00  0.00     0.034 A 
ATOM     52  C   UNL A   1      41.965  28.252  31.186  1.00  0.00     0.049 A 
ATOM     53  C   UNL A   1      41.023  31.533  35.635  1.00  0.00     0.074 A 
ATOM     54  C   UNL A   1      43.043  27.388  31.273  1.00  0.00     0.029 A 
ATOM     55  N   UNL A   1      41.902  28.928  32.399  1.00  0.00    -0.354 N 
ATOM     56  N   UNL A   1      41.365  30.703  34.675  1.00  0.00    -0.248 NA
ATOM     57  C   UNL A   1      41.817  31.389  36.863  1.00  0.00     0.031 C 
ATOM     58  C   UNL A   1      43.583  27.486  32.559  1.00  0.00     0.029 A 
ATOM     59  C   UNL A   1      42.900  28.474  33.249  1.00  0.00     0.049 A 
ATOM     60  H   UNL A   1      41.247  29.628  32.622  1.00  0.00     0.167 HD
ATOM     61  C   UNL A   1      42.436  29.966  35.175  1.00  0.00     0.074 A 
ATOM     62  C   UNL A   1      42.694  30.462  36.510  1.00  0.00     0.031 C 
ATOM     63  C   UNL A   1      43.143  28.970  34.583  1.00  0.00     0.034 A 
BRANCH  50  64
ATOM     64  C   UNL A   1      41.209  27.575  28.857  1.00  0.00     0.023 A 
ATOM     65  C   UNL A   1      42.235  27.800  27.922  1.00  0.00     0.031 A 
ATOM     66  C   UNL A   1      40.316  26.518  28.610  1.00  0.00     0.131 A 
ATOM     67  C   UNL A   1      42.299  27.027  26.752  1.00  0.00     0.055 A 
ATOM     68  C   UNL A   1      40.436  25.698  27.486  1.00  0.00     0.041 A 
ATOM     69  F   UNL A   1      39.302  26.267  29.454  1.00  0.00    -0.206 F 
ATOM     70  C   UNL A   1      41.424  25.960  26.541  1.00  0.00     0.022 A 
BRANCH  67  71
ATOM     71  S   UNL A   1      43.451  27.531  25.446  1.00  0.00     0.124 S 
ATOM     72  O   UNL A   1      44.240  26.316  25.263  1.00  0.00    -0.237 OA
ATOM     73  O   UNL A   1      42.553  27.881  24.351  1.00  0.00    -0.237 OA
ATOM     74  O   UNL A   1      44.175  28.652  26.041  1.00  0.00    -0.744 OA
ENDBRANCH  67  71
ENDBRANCH  50  64
BRANCH  51  75
ATOM     75  C   UNL A   1      39.720  33.431  36.853  1.00  0.00     0.023 A 
ATOM     76  C   UNL A   1      38.997  32.928  37.947  1.00  0.00     0.031 A 
ATOM     77  C   UNL A   1      40.156  34.767  36.912  1.00  0.00     0.131 A 
ATOM     78  C   UNL A   1      38.678  33.770  39.022  1.00  0.00     0.055 A 
ATOM     79  C   UNL A   1      39.894  35.581  38.014  1.00  0.00     0.041 A 
ATOM     80  F   UNL A   1      40.850  35.301  35.894  1.00  0.00    -0.206 F 
ATOM     81  C   UNL A   1      39.134  35.090  39.071  1.00  0.00     0.022 A 
BRANCH  78  82
ATOM     82  S   UNL A   1      37.555  33.150  40.305  1.00  0.00     0.124 S 
ATOM     83  O   UNL A   1      38.292  31.998  40.811  1.00  0.00    -0.237 OA
ATOM     84  O   UNL A   1      37.460  34.296  41.203  1.00  0.00    -0.237 OA
ATOM     85  O   UNL A   1      36.335  32.837  39.566  1.00  0.00    -0.744 OA
ENDBRANCH  78  82
ENDBRANCH  51  75
BRANCH  63  86
ATOM     86  C   UNL A   1      44.298  28.388  35.365  1.00  0.00     0.023 A 
ATOM     87  C   UNL A   1      44.118  27.338  36.283  1.00  0.00     0.031 A 
ATOM     88  C   UNL A   1      45.597  28.901  35.195  1.00  0.00     0.131 A 
ATOM     89  C   UNL A   1      45.206  26.877  37.040  1.00  0.00     0.055 A 
ATOM     90  C   UNL A   1      46.687  28.392  35.902  1.00  0.00     0.041 A 
ATOM     91  F   UNL A   1      45.828  29.905  34.336  1.00  0.00    -0.206 F 
ATOM     92  C   UNL A   1      46.492  27.383  36.841  1.00  0.00     0.022 A 
BRANCH  89  93
ATOM     93  S   UNL A   1      44.898  25.674  38.363  1.00  0.00     0.124 S 
ATOM     94  O   UNL A   1      44.291  26.507  39.395  1.00  0.00    -0.237 OA
ATOM     95  O   UNL A   1      44.010  24.715  37.713  1.00  0.00    -0.237 OA
ATOM     96  O   UNL A   1      46.231  25.165  38.680  1.00  0.00    -0.744 OA
ENDBRANCH  89  93
ENDBRANCH  63  86
ENDBRANCH  37  38
ENDBRANCH  29  32
ENDBRANCH  27  28
ENDBRANCH  26  27
ENDBRANCH   1  26
TORSDOF 17
ENDMDL
MODEL 2
REMARK VINA RESULT:     -12.0      5.518     10.681
REMARK SMILES Cc1cc(C)c(C(=O)NC[C@H]2CC[C@@H](C(=O)NCCCCNC(=O)c3ccc(-c4c5nc(c(-c6cc(S(=O)(=O)[O-])ccc6F)c6ccc([nH]6)c(-c6cc(S(=O)(=O)[O-])ccc6F)c6nc(c(-c7cc(S(=O)(=O)[O-])ccc7F)c7ccc4[nH]7)C=C6)C=C5)cc3)O2)c(C)c1
REMARK SMILES IDX 19 1 18 2 17 3 15 4 16 5 14 7 11 8 12 9 88 10 13 11 10 12
REMARK SMILES IDX 9 13 7 14 8 15 6 17 1 18 2 19 3 20 91 21 4 22 89 23 5 24
REMARK SMILES IDX 90 25 20 26 21 27 22 28 23 29 24 31 25 32 26 33 87 34 27 35
REMARK SMILES IDX 86 36 28 37 29 38 30 39 80 40 31 41 85 42 79 43 81 44 32 45
REMARK SMILES IDX 84 46 78 47 77 48 33 50 65 51 45 52 64 53 46 54 49 55 63 56
REMARK SMILES IDX 82 57 47 58 48 59 62 61 83 62 50 63 34 64 35 65 43 66 36 67
REMARK SMILES IDX 42 68 44 69 41 70 37 71 38 72 39 73 40 74 66 75 67 76 75 77
REMARK SMILES IDX 68 78 74 79 76 80 73 81 69 82 70 83 71 84 72 85 51 86 52 87
REMARK SMILES IDX 60 88 53 89 59 90 61 91 58 92 54 93 55 94 56 95 57 96
REMARK H PARENT 17 6 9 16 22 30 81 49 49 60
REMARK Flexibility Score: inf
ROOT
ATOM      1  C   UNL A   1      35.096  23.343  25.934  1.00  0.00     0.023 C 
ENDROOT
BRANCH   1   2
ATOM      2  C   UNL A   1      34.552  24.713  25.541  1.00  0.00     0.116 C 
BRANCH   2   3
ATOM      3  N   UNL A   1      33.254  24.984  26.136  1.00  0.00    -0.354 N 
ATOM      4  C   UNL A   1      32.666  26.194  26.383  1.00  0.00     0.249 C 
ATOM      5  O   UNL A   1      31.539  26.210  26.878  1.00  0.00    -0.272 OA
ATOM      6  H   UNL A   1      32.730  24.192  26.396  1.00  0.00     0.163 HD
BRANCH   4   7
ATOM      7  C   UNL A   1      33.455  27.477  26.072  1.00  0.00     0.207 C 
ATOM      8  C   UNL A   1      32.638  29.394  24.996  1.00  0.00     0.138 C 
ATOM      9  C   UNL A   1      33.298  29.833  26.289  1.00  0.00     0.037 C 
ATOM     10  O   UNL A   1      33.042  28.032  24.811  1.00  0.00    -0.363 OA
ATOM     11  C   UNL A   1      33.267  28.572  27.116  1.00  0.00     0.045 C 
BRANCH   8  12
ATOM     12  C   UNL A   1      31.094  29.474  25.002  1.00  0.00     0.148 C 
BRANCH  12  13
ATOM     13  N   UNL A   1      30.547  29.084  23.717  1.00  0.00    -0.349 N 
ATOM     14  C   UNL A   1      30.805  28.121  22.778  1.00  0.00     0.251 C 
ATOM     15  O   UNL A   1      30.588  28.540  21.632  1.00  0.00    -0.269 OA
ATOM     16  H   UNL A   1      29.796  29.663  23.450  1.00  0.00     0.163 HD
BRANCH  14  17
ATOM     17  C   UNL A   1      31.241  26.673  22.945  1.00  0.00     0.045 A 
ATOM     18  C   UNL A   1      31.748  22.324  23.130  1.00  0.00     0.044 C 
ATOM     19  C   UNL A   1      31.593  23.814  23.115  1.00  0.00    -0.051 A 
ATOM     20  C   UNL A   1      30.457  24.414  23.629  1.00  0.00     0.007 A 
ATOM     21  C   UNL A   1      32.569  24.635  22.571  1.00  0.00     0.007 A 
ATOM     22  C   UNL A   1      30.281  25.816  23.591  1.00  0.00    -0.038 A 
ATOM     23  C   UNL A   1      32.417  26.044  22.460  1.00  0.00    -0.038 A 
ATOM     24  C   UNL A   1      28.995  26.288  24.241  1.00  0.00     0.045 C 
ATOM     25  C   UNL A   1      33.596  26.695  21.810  1.00  0.00     0.045 C 
ENDBRANCH  14  17
ENDBRANCH  12  13
ENDBRANCH   8  12
ENDBRANCH   4   7
ENDBRANCH   2   3
ENDBRANCH   1   2
BRANCH   1  26
ATOM     26  C   UNL A   1      35.338  22.381  24.771  1.00  0.00     0.023 C 
BRANCH  26  27
ATOM     27  C   UNL A   1      36.786  22.272  24.303  1.00  0.00     0.116 C 
BRANCH  27  28
ATOM     28  N   UNL A   1      37.454  21.083  24.806  1.00  0.00    -0.352 N 
ATOM     29  C   UNL A   1      38.586  20.975  25.582  1.00  0.00     0.251 C 
ATOM     30  H   UNL A   1      37.036  20.228  24.553  1.00  0.00     0.163 HD
ATOM     31  O   UNL A   1      39.086  19.873  25.773  1.00  0.00    -0.269 OA
BRANCH  29  32
ATOM     32  C   UNL A   1      39.214  22.191  26.151  1.00  0.00     0.039 A 
ATOM     33  C   UNL A   1      40.474  22.085  26.746  1.00  0.00     0.014 A 
ATOM     34  C   UNL A   1      38.573  23.431  26.088  1.00  0.00     0.014 A 
ATOM     35  C   UNL A   1      41.126  23.235  27.199  1.00  0.00     0.010 A 
ATOM     36  C   UNL A   1      39.256  24.584  26.468  1.00  0.00     0.010 A 
ATOM     37  C   UNL A   1      40.544  24.501  27.019  1.00  0.00    -0.014 A 
BRANCH  37  38
ATOM     38  C   UNL A   1      41.270  25.748  27.387  1.00  0.00     0.031 A 
ATOM     39  C   UNL A   1      40.589  26.805  28.215  1.00  0.00     0.074 A 
ATOM     40  C   UNL A   1      42.518  25.959  26.920  1.00  0.00     0.049 A 
ATOM     41  N   UNL A   1      41.014  27.996  28.551  1.00  0.00    -0.248 NA
ATOM     42  C   UNL A   1      39.241  26.485  28.710  1.00  0.00     0.031 C 
ATOM     43  C   UNL A   1      43.278  25.021  26.090  1.00  0.00     0.029 A 
ATOM     44  N   UNL A   1      43.365  27.029  27.068  1.00  0.00    -0.354 N 
ATOM     45  C   UNL A   1      39.987  28.571  29.291  1.00  0.00     0.074 A 
ATOM     46  C   UNL A   1      38.894  27.620  29.299  1.00  0.00     0.031 C 
ATOM     47  C   UNL A   1      44.485  25.547  25.825  1.00  0.00     0.029 A 
ATOM     48  C   UNL A   1      44.567  26.881  26.413  1.00  0.00     0.049 A 
ATOM     49  H   UNL A   1      43.135  27.829  27.594  1.00  0.00     0.167 HD
ATOM     50  C   UNL A   1      39.966  29.770  29.927  1.00  0.00     0.034 A 
ATOM     51  C   UNL A   1      45.607  27.728  26.281  1.00  0.00     0.034 A 
ATOM     52  C   UNL A   1      41.061  30.708  29.911  1.00  0.00     0.049 A 
ATOM     53  C   UNL A   1      45.530  29.084  26.939  1.00  0.00     0.074 A 
ATOM     54  C   UNL A   1      41.156  31.933  30.549  1.00  0.00     0.029 A 
ATOM     55  N   UNL A   1      42.252  30.533  29.216  1.00  0.00    -0.354 N 
ATOM     56  N   UNL A   1      44.564  29.598  27.667  1.00  0.00    -0.248 NA
ATOM     57  C   UNL A   1      46.685  29.974  26.762  1.00  0.00     0.031 C 
ATOM     58  C   UNL A   1      42.365  32.530  30.180  1.00  0.00     0.029 A 
ATOM     59  C   UNL A   1      43.068  31.642  29.381  1.00  0.00     0.049 A 
ATOM     60  H   UNL A   1      42.483  29.737  28.684  1.00  0.00     0.167 HD
ATOM     61  C   UNL A   1      45.015  30.855  28.063  1.00  0.00     0.074 A 
ATOM     62  C   UNL A   1      46.343  31.013  27.509  1.00  0.00     0.031 C 
ATOM     63  C   UNL A   1      44.388  31.794  28.817  1.00  0.00     0.034 A 
BRANCH  50  64
ATOM     64  C   UNL A   1      38.705  30.140  30.673  1.00  0.00     0.023 A 
ATOM     65  C   UNL A   1      37.655  30.833  30.046  1.00  0.00     0.031 A 
ATOM     66  C   UNL A   1      38.553  29.806  32.031  1.00  0.00     0.131 A 
ATOM     67  C   UNL A   1      36.535  31.233  30.790  1.00  0.00     0.055 A 
ATOM     68  C   UNL A   1      37.398  30.133  32.745  1.00  0.00     0.041 A 
ATOM     69  F   UNL A   1      39.530  29.164  32.691  1.00  0.00    -0.206 F 
ATOM     70  C   UNL A   1      36.386  30.863  32.129  1.00  0.00     0.022 A 
BRANCH  67  71
ATOM     71  S   UNL A   1      35.345  32.365  30.022  1.00  0.00     0.124 S 
ATOM     72  O   UNL A   1      34.834  31.554  28.921  1.00  0.00    -0.237 OA
ATOM     73  O   UNL A   1      34.410  32.627  31.110  1.00  0.00    -0.237 OA
ATOM     74  O   UNL A   1      36.168  33.503  29.619  1.00  0.00    -0.744 OA
ENDBRANCH  67  71
ENDBRANCH  50  64
BRANCH  51  75
ATOM     75  C   UNL A   1      46.809  27.346  25.480  1.00  0.00     0.023 A 
ATOM     76  C   UNL A   1      46.986  27.829  24.173  1.00  0.00     0.031 A 
ATOM     77  C   UNL A   1      47.760  26.440  25.980  1.00  0.00     0.131 A 
ATOM     78  C   UNL A   1      48.050  27.356  23.390  1.00  0.00     0.055 A 
ATOM     79  C   UNL A   1      48.854  26.023  25.220  1.00  0.00     0.041 A 
ATOM     80  F   UNL A   1      47.640  25.945  27.222  1.00  0.00    -0.206 F 
ATOM     81  C   UNL A   1      48.994  26.468  23.909  1.00  0.00     0.022 A 
BRANCH  78  82
ATOM     82  S   UNL A   1      48.114  27.829  21.640  1.00  0.00     0.124 S 
ATOM     83  O   UNL A   1      49.260  28.729  21.619  1.00  0.00    -0.237 OA
ATOM     84  O   UNL A   1      48.300  26.538  20.985  1.00  0.00    -0.237 OA
ATOM     85  O   UNL A   1      46.818  28.461  21.410  1.00  0.00    -0.744 OA
ENDBRANCH  78  82
ENDBRANCH  51  75
BRANCH  63  86
ATOM     86  C   UNL A   1      45.160  33.055  29.126  1.00  0.00     0.023 A 
ATOM     87  C   UNL A   1      45.032  34.213  28.339  1.00  0.00     0.031 A 
ATOM     88  C   UNL A   1      46.044  33.094  30.219  1.00  0.00     0.131 A 
ATOM     89  C   UNL A   1      45.823  35.339  28.619  1.00  0.00     0.055 A 
ATOM     90  C   UNL A   1      46.777  34.240  30.533  1.00  0.00     0.041 A 
ATOM     91  F   UNL A   1      46.210  32.017  31.003  1.00  0.00    -0.206 F 
ATOM     92  C   UNL A   1      46.678  35.367  29.722  1.00  0.00     0.022 A 
BRANCH  89  93
ATOM     93  S   UNL A   1      45.790  36.735  27.460  1.00  0.00     0.124 S 
ATOM     94  O   UNL A   1      46.880  37.567  27.958  1.00  0.00    -0.237 OA
ATOM     95  O   UNL A   1      46.023  36.081  26.176  1.00  0.00    -0.237 OA
ATOM     96  O   UNL A   1      44.452  37.295  27.635  1.00  0.00    -0.744 OA
ENDBRANCH  89  93
ENDBRANCH  63  86
ENDBRANCH  37  38
ENDBRANCH  29  32
ENDBRANCH  27  28
ENDBRANCH  26  27
ENDBRANCH   1  26
TORSDOF 17
ENDMDL
MODEL 3
REMARK VINA RESULT:     -11.9      1.710      7.734
REMARK SMILES Cc1cc(C)c(C(=O)NC[C@H]2CC[C@@H](C(=O)NCCCCNC(=O)c3ccc(-c4c5nc(c(-c6cc(S(=O)(=O)[O-])ccc6F)c6ccc([nH]6)c(-c6cc(S(=O)(=O)[O-])ccc6F)c6nc(c(-c7cc(S(=O)(=O)[O-])ccc7F)c7ccc4[nH]7)C=C6)C=C5)cc3)O2)c(C)c1
REMARK SMILES IDX 19 1 18 2 17 3 15 4 16 5 14 7 11 8 12 9 88 10 13 11 10 12
REMARK SMILES IDX 9 13 7 14 8 15 6 17 1 18 2 19 3 20 91 21 4 22 89 23 5 24
REMARK SMILES IDX 90 25 20 26 21 27 22 28 23 29 24 31 25 32 26 33 87 34 27 35
REMARK SMILES IDX 86 36 28 37 29 38 30 39 80 40 31 41 85 42 79 43 81 44 32 45
REMARK SMILES IDX 84 46 78 47 77 48 33 50 65 51 45 52 64 53 46 54 49 55 63 56
REMARK SMILES IDX 82 57 47 58 48 59 62 61 83 62 50 63 34 64 35 65 43 66 36 67
REMARK SMILES IDX 42 68 44 69 41 70 37 71 38 72 39 73 40 74 66 75 67 76 75 77
REMARK SMILES IDX 68 78 74 79 76 80 73 81 69 82 70 83 71 84 72 85 51 86 52 87
REMARK SMILES IDX 60 88 53 89 59 90 61 91 58 92 54 93 55 94 56 95 57 96
REMARK H PARENT 17 6 9 16 22 30 81 49 49 60
REMARK Flexibility Score: inf
ROOT
ATOM      1  C   UNL A   1      31.746  29.933  26.905  1.00  0.00     0.023 C 
ENDROOT
BRANCH   1   2
ATOM      2  C   UNL A   1      31.606  29.104  25.632  1.00  0.00     0.116 C 
BRANCH   2   3
ATOM      3  N   UNL A   1      31.517  27.680  25.909  1.00  0.00    -0.354 N 
ATOM      4  C   UNL A   1      31.837  26.631  25.090  1.00  0.00     0.249 C 
ATOM      5  O   UNL A   1      31.712  25.486  25.525  1.00  0.00    -0.272 OA
ATOM      6  H   UNL A   1      31.183  27.438  26.803  1.00  0.00     0.163 HD
BRANCH   4   7
ATOM      7  C   UNL A   1      32.296  26.928  23.653  1.00  0.00     0.207 C 
ATOM      8  C   UNL A   1      33.594  25.535  22.283  1.00  0.00     0.138 C 
ATOM      9  C   UNL A   1      32.360  25.939  21.498  1.00  0.00     0.037 C 
ATOM     10  O   UNL A   1      33.615  26.403  23.423  1.00  0.00    -0.363 OA
ATOM     11  C   UNL A   1      31.390  26.319  22.589  1.00  0.00     0.045 C 
BRANCH   8  12
ATOM     12  C   UNL A   1      33.602  24.064  22.759  1.00  0.00     0.148 C 
BRANCH  12  13
ATOM     13  N   UNL A   1      34.269  23.934  24.040  1.00  0.00    -0.349 N 
ATOM     14  C   UNL A   1      34.280  23.027  25.067  1.00  0.00     0.251 C 
ATOM     15  O   UNL A   1      34.429  23.588  26.162  1.00  0.00    -0.269 OA
ATOM     16  H   UNL A   1      34.869  24.694  24.218  1.00  0.00     0.163 HD
BRANCH  14  17
ATOM     17  C   UNL A   1      34.197  21.508  25.042  1.00  0.00     0.045 A 
ATOM     18  C   UNL A   1      33.410  17.250  24.366  1.00  0.00     0.044 C 
ATOM     19  C   UNL A   1      33.673  18.698  24.648  1.00  0.00    -0.051 A 
ATOM     20  C   UNL A   1      32.628  19.594  24.790  1.00  0.00     0.007 A 
ATOM     21  C   UNL A   1      34.966  19.188  24.756  1.00  0.00     0.007 A 
ATOM     22  C   UNL A   1      32.862  20.969  25.023  1.00  0.00    -0.038 A 
ATOM     23  C   UNL A   1      35.254  20.568  24.934  1.00  0.00    -0.038 A 
ATOM     24  C   UNL A   1      31.594  21.783  25.194  1.00  0.00     0.045 C 
ATOM     25  C   UNL A   1      36.724  20.841  24.988  1.00  0.00     0.045 C 
ENDBRANCH  14  17
ENDBRANCH  12  13
ENDBRANCH   8  12
ENDBRANCH   4   7
ENDBRANCH   2   3
ENDBRANCH   1   2
BRANCH   1  26
ATOM     26  C   UNL A   1      31.652  31.446  26.709  1.00  0.00     0.023 C 
BRANCH  26  27
ATOM     27  C   UNL A   1      32.938  32.221  26.975  1.00  0.00     0.116 C 
BRANCH  27  28
ATOM     28  N   UNL A   1      32.695  33.576  27.444  1.00  0.00    -0.352 N 
ATOM     29  C   UNL A   1      33.283  34.264  28.481  1.00  0.00     0.251 C 
ATOM     30  H   UNL A   1      32.007  34.075  26.946  1.00  0.00     0.163 HD
ATOM     31  O   UNL A   1      32.829  35.349  28.821  1.00  0.00    -0.269 OA
BRANCH  29  32
ATOM     32  C   UNL A   1      34.436  33.674  29.203  1.00  0.00     0.039 A 
ATOM     33  C   UNL A   1      34.191  32.768  30.238  1.00  0.00     0.014 A 
ATOM     34  C   UNL A   1      35.749  34.000  28.855  1.00  0.00     0.014 A 
ATOM     35  C   UNL A   1      35.263  32.125  30.864  1.00  0.00     0.010 A 
ATOM     36  C   UNL A   1      36.811  33.302  29.426  1.00  0.00     0.010 A 
ATOM     37  C   UNL A   1      36.580  32.349  30.431  1.00  0.00    -0.014 A 
BRANCH  37  38
ATOM     38  C   UNL A   1      37.726  31.589  31.003  1.00  0.00     0.031 A 
ATOM     39  C   UNL A   1      38.219  31.895  32.392  1.00  0.00     0.074 A 
ATOM     40  C   UNL A   1      38.362  30.669  30.249  1.00  0.00     0.049 A 
ATOM     41  N   UNL A   1      39.260  31.418  33.024  1.00  0.00    -0.248 NA
ATOM     42  C   UNL A   1      37.451  32.888  33.158  1.00  0.00     0.031 C 
ATOM     43  C   UNL A   1      37.994  30.298  28.880  1.00  0.00     0.029 A 
ATOM     44  N   UNL A   1      39.457  29.886  30.519  1.00  0.00    -0.354 N 
ATOM     45  C   UNL A   1      39.277  32.053  34.261  1.00  0.00     0.074 A 
ATOM     46  C   UNL A   1      38.178  32.997  34.261  1.00  0.00     0.031 C 
ATOM     47  C   UNL A   1      38.831  29.343  28.444  1.00  0.00     0.029 A 
ATOM     48  C   UNL A   1      39.832  29.074  29.472  1.00  0.00     0.049 A 
ATOM     49  H   UNL A   1      39.931  29.904  31.382  1.00  0.00     0.167 HD
ATOM     50  C   UNL A   1      40.115  31.851  35.309  1.00  0.00     0.034 A 
ATOM     51  C   UNL A   1      40.872  28.226  29.345  1.00  0.00     0.034 A 
ATOM     52  C   UNL A   1      41.206  30.908  35.297  1.00  0.00     0.049 A 
ATOM     53  C   UNL A   1      41.831  28.072  30.499  1.00  0.00     0.074 A 
ATOM     54  C   UNL A   1      42.093  30.602  36.315  1.00  0.00     0.029 A 
ATOM     55  N   UNL A   1      41.568  30.122  34.209  1.00  0.00    -0.354 N 
ATOM     56  N   UNL A   1      41.811  28.655  31.677  1.00  0.00    -0.248 NA
ATOM     57  C   UNL A   1      42.952  27.142  30.312  1.00  0.00     0.031 C 
ATOM     58  C   UNL A   1      43.033  29.693  35.822  1.00  0.00     0.029 A 
ATOM     59  C   UNL A   1      42.685  29.361  34.522  1.00  0.00     0.049 A 
ATOM     60  H   UNL A   1      41.101  30.107  33.343  1.00  0.00     0.167 HD
ATOM     61  C   UNL A   1      42.894  28.132  32.378  1.00  0.00     0.074 A 
ATOM     62  C   UNL A   1      43.534  27.176  31.500  1.00  0.00     0.031 C 
ATOM     63  C   UNL A   1      43.321  28.416  33.635  1.00  0.00     0.034 A 
BRANCH  50  64
ATOM     64  C   UNL A   1      39.893  32.687  36.549  1.00  0.00     0.023 A 
ATOM     65  C   UNL A   1      38.993  32.291  37.553  1.00  0.00     0.031 A 
ATOM     66  C   UNL A   1      40.581  33.901  36.725  1.00  0.00     0.131 A 
ATOM     67  C   UNL A   1      38.751  33.131  38.650  1.00  0.00     0.055 A 
ATOM     68  C   UNL A   1      40.399  34.693  37.861  1.00  0.00     0.041 A 
ATOM     69  F   UNL A   1      41.437  34.345  35.791  1.00  0.00    -0.206 F 
ATOM     70  C   UNL A   1      39.469  34.316  38.825  1.00  0.00     0.022 A 
BRANCH  67  71
ATOM     71  S   UNL A   1      37.383  32.723  39.767  1.00  0.00     0.124 S 
ATOM     72  O   UNL A   1      37.417  33.847  40.699  1.00  0.00    -0.237 OA
ATOM     73  O   UNL A   1      36.240  32.677  38.863  1.00  0.00    -0.237 OA
ATOM     74  O   UNL A   1      37.779  31.437  40.338  1.00  0.00    -0.744 OA
ENDBRANCH  67  71
ENDBRANCH  50  64
BRANCH  51  75
ATOM     75  C   UNL A   1      41.090  27.467  28.077  1.00  0.00     0.023 A 
ATOM     76  C   UNL A   1      40.832  26.088  28.009  1.00  0.00     0.031 A 
ATOM     77  C   UNL A   1      41.624  28.093  26.936  1.00  0.00     0.131 A 
ATOM     78  C   UNL A   1      41.166  25.370  26.852  1.00  0.00     0.055 A 
ATOM     79  C   UNL A   1      41.893  27.385  25.764  1.00  0.00     0.041 A 
ATOM     80  F   UNL A   1      41.892  29.408  26.945  1.00  0.00    -0.206 F 
ATOM     81  C   UNL A   1      41.681  26.011  25.722  1.00  0.00     0.022 A 
BRANCH  78  82
ATOM     82  S   UNL A   1      41.028  23.561  26.885  1.00  0.00     0.124 S 
ATOM     83  O   UNL A   1      41.463  23.257  28.243  1.00  0.00    -0.237 OA
ATOM     84  O   UNL A   1      39.610  23.361  26.605  1.00  0.00    -0.237 OA
ATOM     85  O   UNL A   1      41.938  23.131  25.826  1.00  0.00    -0.744 OA
ENDBRANCH  78  82
ENDBRANCH  51  75
BRANCH  63  86
ATOM     86  C   UNL A   1      44.512  27.640  34.149  1.00  0.00     0.023 A 
ATOM     87  C   UNL A   1      44.369  26.387  34.769  1.00  0.00     0.031 A 
ATOM     88  C   UNL A   1      45.809  28.171  34.024  1.00  0.00     0.131 A 
ATOM     89  C   UNL A   1      45.495  25.735  35.296  1.00  0.00     0.055 A 
ATOM     90  C   UNL A   1      46.933  27.486  34.489  1.00  0.00     0.041 A 
ATOM     91  F   UNL A   1      46.006  29.365  33.444  1.00  0.00    -0.206 F 
ATOM     92  C   UNL A   1      46.777  26.266  35.142  1.00  0.00     0.022 A 
BRANCH  89  93
ATOM     93  S   UNL A   1      45.249  24.227  36.275  1.00  0.00     0.124 S 
ATOM     94  O   UNL A   1      44.814  24.767  37.558  1.00  0.00    -0.237 OA
ATOM     95  O   UNL A   1      44.233  23.516  35.505  1.00  0.00    -0.237 OA
ATOM     96  O   UNL A   1      46.570  23.603  36.280  1.00  0.00    -0.744 OA
ENDBRANCH  89  93
ENDBRANCH  63  86
ENDBRANCH  37  38
ENDBRANCH  29  32
ENDBRANCH  27  28
ENDBRANCH  26  27
ENDBRANCH   1  26
TORSDOF 17
ENDMDL
