MODEL 1
REMARK VINA RESULT:     -13.2      0.000      0.000
REMARK SMILES C[C@@H]1CC(C)(C)C[C@@](CC(=O)Nc2cccc(C(F)(F)F)c2)(C(=O)NCCCCNC(=O)c2ccc(-c3c4nc(c(-c5cc(S(=O)(=O)[O-])ccc5F)c5ccc([nH]5)c(-c5cc(S(=O)(=O)[O-])ccc5F)c5nc(c(-c6cc(S(=O)(=O)[O-])ccc6F)c6ccc3[nH]6)C=C5)C=C4)cc2)C1
REMARK SMILES IDX 27 1 26 2 25 3 23 4 24 5 8 7 1 8 2 9 3 10 96 11 4 12 5 13
REMARK SMILES IDX 6 14 7 15 9 16 10 17 11 18 12 19 13 21 14 22 22 23 15 24
REMARK SMILES IDX 17 25 16 26 18 27 19 28 20 29 21 30 28 31 29 32 30 33 31 34
REMARK SMILES IDX 32 36 33 37 34 38 95 39 35 40 94 41 36 42 37 43 38 44 88 45
REMARK SMILES IDX 39 46 93 47 87 48 89 49 40 50 92 51 86 52 85 53 41 55 73 56
REMARK SMILES IDX 53 57 72 58 54 59 57 60 71 61 90 62 55 63 56 64 70 66 91 67
REMARK SMILES IDX 58 68 42 69 43 70 51 71 44 72 50 73 52 74 49 75 45 76 46 77
REMARK SMILES IDX 47 78 48 79 74 80 75 81 83 82 76 83 82 84 84 85 81 86 77 87
REMARK SMILES IDX 78 88 79 89 80 90 59 91 60 92 68 93 61 94 67 95 69 96 66 97
REMARK SMILES IDX 62 98 63 99 64 100 65 101
REMARK H PARENT 25 6 12 20 30 35 89 54 57 65
REMARK Flexibility Score: inf
ROOT
ATOM      1  C   UNL A   1      37.164  20.714  24.642  1.00  0.00     0.023 C 
ENDROOT
BRANCH   1   2
ATOM      2  C   UNL A   1      35.676  20.418  24.891  1.00  0.00     0.116 C 
BRANCH   2   3
ATOM      3  N   UNL A   1      35.174  20.909  26.179  1.00  0.00    -0.356 N 
ATOM      4  C   UNL A   1      34.365  21.958  26.552  1.00  0.00     0.226 C 
ATOM      5  O   UNL A   1      34.157  22.059  27.765  1.00  0.00    -0.274 OA
ATOM      6  H   UNL A   1      35.485  20.372  26.944  1.00  0.00     0.163 HD
BRANCH   4   7
ATOM      7  C   UNL A   1      33.728  22.987  25.530  1.00  0.00     0.059 C 
ATOM      8  C   UNL A   1      33.802  25.575  23.294  1.00  0.00     0.008 C 
ATOM      9  C   UNL A   1      34.389  24.170  23.232  1.00  0.00    -0.013 C 
ATOM     10  C   UNL A   1      33.517  23.221  22.440  1.00  0.00     0.009 C 
ATOM     11  C   UNL A   1      34.807  23.492  24.538  1.00  0.00     0.020 C 
ATOM     12  C   UNL A   1      32.353  22.578  23.223  1.00  0.00    -0.034 C 
ATOM     13  C   UNL A   1      31.127  23.502  23.287  1.00  0.00     0.011 C 
ATOM     14  C   UNL A   1      31.946  21.347  22.369  1.00  0.00     0.011 C 
ATOM     15  C   UNL A   1      32.729  22.123  24.675  1.00  0.00     0.024 C 
BRANCH   7  16
ATOM     16  C   UNL A   1      33.165  24.081  26.470  1.00  0.00     0.117 C 
BRANCH  16  17
ATOM     17  C   UNL A   1      31.731  24.467  26.731  1.00  0.00     0.225 C 
ATOM     18  O   UNL A   1      30.997  23.602  27.239  1.00  0.00    -0.275 OA
ATOM     19  N   UNL A   1      31.146  25.675  26.575  1.00  0.00    -0.326 N 
ATOM     20  H   UNL A   1      30.282  25.693  27.048  1.00  0.00     0.169 HD
BRANCH  19  21
ATOM     21  C   UNL A   1      31.375  26.918  25.950  1.00  0.00     0.041 A 
ATOM     22  C   UNL A   1      32.058  27.839  26.765  1.00  0.00     0.026 A 
ATOM     23  C   UNL A   1      30.886  27.364  24.725  1.00  0.00     0.039 A 
ATOM     24  C   UNL A   1      32.128  29.193  26.444  1.00  0.00     0.003 A 
ATOM     25  C   UNL A   1      30.849  28.754  24.440  1.00  0.00     0.058 A 
ATOM     26  C   UNL A   1      31.492  29.656  25.303  1.00  0.00     0.013 A 
BRANCH  25  27
ATOM     27  C   UNL A   1      30.051  29.308  23.277  1.00  0.00     0.416 C 
ATOM     28  F   UNL A   1      30.817  29.490  22.159  1.00  0.00    -0.166 F 
ATOM     29  F   UNL A   1      29.030  28.499  22.896  1.00  0.00    -0.166 F 
ATOM     30  F   UNL A   1      29.509  30.528  23.533  1.00  0.00    -0.166 F 
ENDBRANCH  25  27
ENDBRANCH  19  21
ENDBRANCH  16  17
ENDBRANCH   7  16
ENDBRANCH   4   7
ENDBRANCH   2   3
ENDBRANCH   1   2
BRANCH   1  31
ATOM     31  C   UNL A   1      38.168  19.645  25.106  1.00  0.00     0.023 C 
BRANCH  31  32
ATOM     32  C   UNL A   1      39.356  20.114  25.951  1.00  0.00     0.116 C 
BRANCH  32  33
ATOM     33  N   UNL A   1      40.491  19.204  25.920  1.00  0.00    -0.352 N 
ATOM     34  C   UNL A   1      41.846  19.431  26.039  1.00  0.00     0.251 C 
ATOM     35  H   UNL A   1      40.249  18.258  25.789  1.00  0.00     0.163 HD
ATOM     36  O   UNL A   1      42.611  18.491  25.857  1.00  0.00    -0.269 OA
BRANCH  34  37
ATOM     37  C   UNL A   1      42.398  20.778  26.348  1.00  0.00     0.039 A 
ATOM     38  C   UNL A   1      42.711  21.629  25.280  1.00  0.00     0.014 A 
ATOM     39  C   UNL A   1      42.667  21.197  27.653  1.00  0.00     0.014 A 
ATOM     40  C   UNL A   1      43.226  22.909  25.522  1.00  0.00     0.010 A 
ATOM     41  C   UNL A   1      43.111  22.501  27.897  1.00  0.00     0.010 A 
ATOM     42  C   UNL A   1      43.398  23.375  26.835  1.00  0.00    -0.014 A 
BRANCH  42  43
ATOM     43  C   UNL A   1      43.877  24.764  27.099  1.00  0.00     0.031 A 
ATOM     44  C   UNL A   1      42.943  25.809  27.654  1.00  0.00     0.074 A 
ATOM     45  C   UNL A   1      45.147  25.104  26.797  1.00  0.00     0.049 A 
ATOM     46  N   UNL A   1      43.171  27.072  27.920  1.00  0.00    -0.248 NA
ATOM     47  C   UNL A   1      41.562  25.384  27.915  1.00  0.00     0.031 C 
ATOM     48  C   UNL A   1      46.139  24.205  26.203  1.00  0.00     0.029 A 
ATOM     49  N   UNL A   1      45.822  26.292  26.938  1.00  0.00    -0.354 N 
ATOM     50  C   UNL A   1      41.963  27.593  28.372  1.00  0.00     0.074 A 
ATOM     51  C   UNL A   1      40.991  26.524  28.271  1.00  0.00     0.031 C 
ATOM     52  C   UNL A   1      47.297  24.866  26.051  1.00  0.00     0.029 A 
ATOM     53  C   UNL A   1      47.124  26.246  26.496  1.00  0.00     0.049 A 
ATOM     54  H   UNL A   1      45.412  27.101  27.320  1.00  0.00     0.167 HD
ATOM     55  C   UNL A   1      41.693  28.835  28.852  1.00  0.00     0.034 A 
ATOM     56  C   UNL A   1      48.073  27.203  26.441  1.00  0.00     0.034 A 
ATOM     57  C   UNL A   1      42.673  29.892  28.944  1.00  0.00     0.049 A 
ATOM     58  C   UNL A   1      47.752  28.580  26.966  1.00  0.00     0.074 A 
ATOM     59  C   UNL A   1      42.521  31.169  29.458  1.00  0.00     0.029 A 
ATOM     60  N   UNL A   1      43.987  29.805  28.497  1.00  0.00    -0.354 N 
ATOM     61  N   UNL A   1      46.621  29.036  27.453  1.00  0.00    -0.248 NA
ATOM     62  C   UNL A   1      48.843  29.562  26.953  1.00  0.00     0.031 C 
ATOM     63  C   UNL A   1      43.713  31.874  29.253  1.00  0.00     0.029 A 
ATOM     64  C   UNL A   1      44.642  31.012  28.693  1.00  0.00     0.049 A 
ATOM     65  H   UNL A   1      44.393  29.001  28.098  1.00  0.00     0.167 HD
ATOM     66  C   UNL A   1      46.875  30.354  27.829  1.00  0.00     0.074 A 
ATOM     67  C   UNL A   1      48.270  30.606  27.532  1.00  0.00     0.031 C 
ATOM     68  C   UNL A   1      46.031  31.268  28.375  1.00  0.00     0.034 A 
BRANCH  55  69
ATOM     69  C   UNL A   1      40.269  29.113  29.286  1.00  0.00     0.023 A 
ATOM     70  C   UNL A   1      39.888  29.076  30.639  1.00  0.00     0.031 A 
ATOM     71  C   UNL A   1      39.265  29.371  28.333  1.00  0.00     0.131 A 
ATOM     72  C   UNL A   1      38.534  29.187  30.993  1.00  0.00     0.055 A 
ATOM     73  C   UNL A   1      37.933  29.580  28.701  1.00  0.00     0.041 A 
ATOM     74  F   UNL A   1      39.556  29.403  27.023  1.00  0.00    -0.206 F 
ATOM     75  C   UNL A   1      37.557  29.467  30.037  1.00  0.00     0.022 A 
BRANCH  72  76
ATOM     76  S   UNL A   1      38.050  28.775  32.693  1.00  0.00     0.124 S 
ATOM     77  O   UNL A   1      39.075  29.471  33.468  1.00  0.00    -0.237 OA
ATOM     78  O   UNL A   1      36.701  29.321  32.778  1.00  0.00    -0.237 OA
ATOM     79  O   UNL A   1      38.138  27.316  32.730  1.00  0.00    -0.744 OA
ENDBRANCH  72  76
ENDBRANCH  55  69
BRANCH  56  80
ATOM     80  C   UNL A   1      49.411  26.899  25.855  1.00  0.00     0.023 A 
ATOM     81  C   UNL A   1      49.739  27.273  24.542  1.00  0.00     0.031 A 
ATOM     82  C   UNL A   1      50.379  26.202  26.602  1.00  0.00     0.131 A 
ATOM     83  C   UNL A   1      50.986  26.916  24.004  1.00  0.00     0.055 A 
ATOM     84  C   UNL A   1      51.636  25.897  26.080  1.00  0.00     0.041 A 
ATOM     85  F   UNL A   1      50.118  25.824  27.864  1.00  0.00    -0.206 F 
ATOM     86  C   UNL A   1      51.943  26.245  24.769  1.00  0.00     0.022 A 
BRANCH  83  87
ATOM     87  S   UNL A   1      51.318  27.280  22.258  1.00  0.00     0.124 S 
ATOM     88  O   UNL A   1      50.047  26.930  21.633  1.00  0.00    -0.237 OA
ATOM     89  O   UNL A   1      51.642  28.702  22.299  1.00  0.00    -0.237 OA
ATOM     90  O   UNL A   1      52.437  26.398  21.933  1.00  0.00    -0.744 OA
ENDBRANCH  83  87
ENDBRANCH  56  80
BRANCH  68  91
ATOM     91  C   UNL A   1      46.613  32.619  28.724  1.00  0.00     0.023 A 
ATOM     92  C   UNL A   1      46.640  33.679  27.801  1.00  0.00     0.031 A 
ATOM     93  C   UNL A   1      47.181  32.838  29.992  1.00  0.00     0.131 A 
ATOM     94  C   UNL A   1      47.284  34.882  28.132  1.00  0.00     0.055 A 
ATOM     95  C   UNL A   1      47.756  34.061  30.342  1.00  0.00     0.041 A 
ATOM     96  F   UNL A   1      47.192  31.863  30.915  1.00  0.00    -0.206 F 
ATOM     97  C   UNL A   1      47.825  35.086  29.404  1.00  0.00     0.022 A 
BRANCH  94  98
ATOM     98  S   UNL A   1      47.515  36.133  26.838  1.00  0.00     0.124 S 
ATOM     99  O   UNL A   1      47.746  35.308  25.657  1.00  0.00    -0.237 OA
ATOM    100  O   UNL A   1      46.248  36.856  26.873  1.00  0.00    -0.237 OA
ATOM    101  O   UNL A   1      48.675  36.893  27.300  1.00  0.00    -0.744 OA
ENDBRANCH  94  98
ENDBRANCH  68  91
ENDBRANCH  42  43
ENDBRANCH  34  37
ENDBRANCH  32  33
ENDBRANCH  31  32
ENDBRANCH   1  31
TORSDOF 18
ENDMDL
MODEL 2
REMARK VINA RESULT:     -13.2      5.940     11.746
REMARK SMILES C[C@@H]1CC(C)(C)C[C@@](CC(=O)Nc2cccc(C(F)(F)F)c2)(C(=O)NCCCCNC(=O)c2ccc(-c3c4nc(c(-c5cc(S(=O)(=O)[O-])ccc5F)c5ccc([nH]5)c(-c5cc(S(=O)(=O)[O-])ccc5F)c5nc(c(-c6cc(S(=O)(=O)[O-])ccc6F)c6ccc3[nH]6)C=C5)C=C4)cc2)C1
REMARK SMILES IDX 27 1 26 2 25 3 23 4 24 5 8 7 1 8 2 9 3 10 96 11 4 12 5 13
REMARK SMILES IDX 6 14 7 15 9 16 10 17 11 18 12 19 13 21 14 22 22 23 15 24
REMARK SMILES IDX 17 25 16 26 18 27 19 28 20 29 21 30 28 31 29 32 30 33 31 34
REMARK SMILES IDX 32 36 33 37 34 38 95 39 35 40 94 41 36 42 37 43 38 44 88 45
REMARK SMILES IDX 39 46 93 47 87 48 89 49 40 50 92 51 86 52 85 53 41 55 73 56
REMARK SMILES IDX 53 57 72 58 54 59 57 60 71 61 90 62 55 63 56 64 70 66 91 67
REMARK SMILES IDX 58 68 42 69 43 70 51 71 44 72 50 73 52 74 49 75 45 76 46 77
REMARK SMILES IDX 47 78 48 79 74 80 75 81 83 82 76 83 82 84 84 85 81 86 77 87
REMARK SMILES IDX 78 88 79 89 80 90 59 91 60 92 68 93 61 94 67 95 69 96 66 97
REMARK SMILES IDX 62 98 63 99 64 100 65 101
REMARK H PARENT 25 6 12 20 30 35 89 54 57 65
REMARK Flexibility Score: inf
ROOT
ATOM      1  C   UNL A   1      31.464  30.516  26.209  1.00  0.00     0.023 C 
ENDROOT
BRANCH   1   2
ATOM      2  C   UNL A   1      32.853  29.872  26.059  1.00  0.00     0.116 C 
BRANCH   2   3
ATOM      3  N   UNL A   1      33.279  29.683  24.668  1.00  0.00    -0.356 N 
ATOM      4  C   UNL A   1      33.288  28.606  23.811  1.00  0.00     0.226 C 
ATOM      5  O   UNL A   1      33.734  28.835  22.681  1.00  0.00    -0.274 OA
ATOM      6  H   UNL A   1      33.636  30.504  24.259  1.00  0.00     0.163 HD
BRANCH   4   7
ATOM      7  C   UNL A   1      32.778  27.159  24.205  1.00  0.00     0.059 C 
ATOM      8  C   UNL A   1      32.333  24.503  26.314  1.00  0.00     0.008 C 
ATOM      9  C   UNL A   1      31.777  25.921  26.346  1.00  0.00    -0.013 C 
ATOM     10  C   UNL A   1      30.372  25.998  25.789  1.00  0.00     0.009 C 
ATOM     11  C   UNL A   1      32.615  27.051  25.742  1.00  0.00     0.020 C 
ATOM     12  C   UNL A   1      30.272  26.113  24.254  1.00  0.00    -0.034 C 
ATOM     13  C   UNL A   1      30.367  24.741  23.569  1.00  0.00     0.011 C 
ATOM     14  C   UNL A   1      28.835  26.644  23.999  1.00  0.00     0.011 C 
ATOM     15  C   UNL A   1      31.322  27.083  23.611  1.00  0.00     0.024 C 
BRANCH   7  16
ATOM     16  C   UNL A   1      33.882  26.247  23.615  1.00  0.00     0.117 C 
BRANCH  16  17
ATOM     17  C   UNL A   1      33.772  25.185  22.551  1.00  0.00     0.225 C 
ATOM     18  O   UNL A   1      33.480  25.562  21.404  1.00  0.00    -0.275 OA
ATOM     19  N   UNL A   1      34.044  23.864  22.653  1.00  0.00    -0.326 N 
ATOM     20  H   UNL A   1      34.121  23.468  21.755  1.00  0.00     0.169 HD
BRANCH  19  21
ATOM     21  C   UNL A   1      34.252  22.873  23.633  1.00  0.00     0.041 A 
ATOM     22  C   UNL A   1      35.527  22.928  24.227  1.00  0.00     0.026 A 
ATOM     23  C   UNL A   1      33.427  21.799  23.956  1.00  0.00     0.039 A 
ATOM     24  C   UNL A   1      36.024  21.880  24.998  1.00  0.00     0.003 A 
ATOM     25  C   UNL A   1      33.958  20.677  24.642  1.00  0.00     0.058 A 
ATOM     26  C   UNL A   1      35.256  20.740  25.174  1.00  0.00     0.013 A 
BRANCH  25  27
ATOM     27  C   UNL A   1      33.200  19.369  24.737  1.00  0.00     0.416 C 
ATOM     28  F   UNL A   1      33.851  18.342  24.110  1.00  0.00    -0.166 F 
ATOM     29  F   UNL A   1      33.005  18.955  26.015  1.00  0.00    -0.166 F 
ATOM     30  F   UNL A   1      31.975  19.416  24.150  1.00  0.00    -0.166 F 
ENDBRANCH  25  27
ENDBRANCH  19  21
ENDBRANCH  16  17
ENDBRANCH   7  16
ENDBRANCH   4   7
ENDBRANCH   2   3
ENDBRANCH   1   2
BRANCH   1  31
ATOM     31  C   UNL A   1      31.432  32.007  26.581  1.00  0.00     0.023 C 
BRANCH  31  32
ATOM     32  C   UNL A   1      32.692  32.602  27.216  1.00  0.00     0.116 C 
BRANCH  32  33
ATOM     33  N   UNL A   1      32.525  33.973  27.675  1.00  0.00    -0.352 N 
ATOM     34  C   UNL A   1      33.182  34.695  28.649  1.00  0.00     0.251 C 
ATOM     35  H   UNL A   1      31.817  34.472  27.208  1.00  0.00     0.163 HD
ATOM     36  O   UNL A   1      32.764  35.814  28.924  1.00  0.00    -0.269 OA
BRANCH  34  37
ATOM     37  C   UNL A   1      34.352  34.147  29.386  1.00  0.00     0.039 A 
ATOM     38  C   UNL A   1      34.113  33.302  30.477  1.00  0.00     0.014 A 
ATOM     39  C   UNL A   1      35.668  34.491  29.067  1.00  0.00     0.014 A 
ATOM     40  C   UNL A   1      35.183  32.755  31.197  1.00  0.00     0.010 A 
ATOM     41  C   UNL A   1      36.736  33.888  29.740  1.00  0.00     0.010 A 
ATOM     42  C   UNL A   1      36.510  33.012  30.815  1.00  0.00    -0.014 A 
BRANCH  42  43
ATOM     43  C   UNL A   1      37.652  32.374  31.533  1.00  0.00     0.031 A 
ATOM     44  C   UNL A   1      38.407  31.226  30.914  1.00  0.00     0.074 A 
ATOM     45  C   UNL A   1      37.987  32.798  32.769  1.00  0.00     0.049 A 
ATOM     46  N   UNL A   1      39.406  30.529  31.399  1.00  0.00    -0.248 NA
ATOM     47  C   UNL A   1      37.960  30.785  29.587  1.00  0.00     0.031 C 
ATOM     48  C   UNL A   1      37.303  33.862  33.507  1.00  0.00     0.029 A 
ATOM     49  N   UNL A   1      38.977  32.386  33.628  1.00  0.00    -0.354 N 
ATOM     50  C   UNL A   1      39.701  29.565  30.441  1.00  0.00     0.074 A 
ATOM     51  C   UNL A   1      38.724  29.723  29.384  1.00  0.00     0.031 C 
ATOM     52  C   UNL A   1      37.906  34.032  34.694  1.00  0.00     0.029 A 
ATOM     53  C   UNL A   1      38.991  33.065  34.825  1.00  0.00     0.049 A 
ATOM     54  H   UNL A   1      39.616  31.671  33.408  1.00  0.00     0.167 HD
ATOM     55  C   UNL A   1      40.705  28.651  30.429  1.00  0.00     0.034 A 
ATOM     56  C   UNL A   1      39.778  32.924  35.911  1.00  0.00     0.034 A 
ATOM     57  C   UNL A   1      41.671  28.502  31.493  1.00  0.00     0.049 A 
ATOM     58  C   UNL A   1      40.881  31.895  35.886  1.00  0.00     0.074 A 
ATOM     59  C   UNL A   1      42.757  27.645  31.561  1.00  0.00     0.029 A 
ATOM     60  N   UNL A   1      41.661  29.217  32.685  1.00  0.00    -0.354 N 
ATOM     61  N   UNL A   1      41.187  31.035  34.942  1.00  0.00    -0.248 NA
ATOM     62  C   UNL A   1      41.754  31.835  37.064  1.00  0.00     0.031 C 
ATOM     63  C   UNL A   1      43.353  27.786  32.820  1.00  0.00     0.029 A 
ATOM     64  C   UNL A   1      42.699  28.796  33.506  1.00  0.00     0.049 A 
ATOM     65  H   UNL A   1      41.011  29.920  32.915  1.00  0.00     0.167 HD
ATOM     66  C   UNL A   1      42.308  30.349  35.404  1.00  0.00     0.074 A 
ATOM     67  C   UNL A   1      42.633  30.913  36.698  1.00  0.00     0.031 C 
ATOM     68  C   UNL A   1      43.007  29.347  34.808  1.00  0.00     0.034 A 
BRANCH  55  69
ATOM     69  C   UNL A   1      40.784  27.726  29.232  1.00  0.00     0.023 A 
ATOM     70  C   UNL A   1      41.729  27.919  28.208  1.00  0.00     0.031 A 
ATOM     71  C   UNL A   1      39.870  26.665  29.083  1.00  0.00     0.131 A 
ATOM     72  C   UNL A   1      41.676  27.138  27.043  1.00  0.00     0.055 A 
ATOM     73  C   UNL A   1      39.886  25.828  27.964  1.00  0.00     0.041 A 
ATOM     74  F   UNL A   1      38.930  26.435  30.013  1.00  0.00    -0.206 F 
ATOM     75  C   UNL A   1      40.778  26.076  26.925  1.00  0.00     0.022 A 
BRANCH  72  76
ATOM     76  S   UNL A   1      42.667  27.653  25.614  1.00  0.00     0.124 S 
ATOM     77  O   UNL A   1      42.358  26.603  24.646  1.00  0.00    -0.237 OA
ATOM     78  O   UNL A   1      42.130  28.976  25.317  1.00  0.00    -0.237 OA
ATOM     79  O   UNL A   1      44.038  27.634  26.123  1.00  0.00    -0.744 OA
ENDBRANCH  72  76
ENDBRANCH  55  69
BRANCH  56  80
ATOM     80  C   UNL A   1      39.544  33.766  37.120  1.00  0.00     0.023 A 
ATOM     81  C   UNL A   1      38.849  33.272  38.236  1.00  0.00     0.031 A 
ATOM     82  C   UNL A   1      39.998  35.098  37.164  1.00  0.00     0.131 A 
ATOM     83  C   UNL A   1      38.595  34.114  39.330  1.00  0.00     0.055 A 
ATOM     84  C   UNL A   1      39.789  35.913  38.277  1.00  0.00     0.041 A 
ATOM     85  F   UNL A   1      40.671  35.619  36.126  1.00  0.00    -0.206 F 
ATOM     86  C   UNL A   1      39.074  35.426  39.365  1.00  0.00     0.022 A 
BRANCH  83  87
ATOM     87  S   UNL A   1      37.563  33.492  40.687  1.00  0.00     0.124 S 
ATOM     88  O   UNL A   1      37.117  34.730  41.314  1.00  0.00    -0.237 OA
ATOM     89  O   UNL A   1      36.544  32.732  39.971  1.00  0.00    -0.237 OA
ATOM     90  O   UNL A   1      38.492  32.689  41.481  1.00  0.00    -0.744 OA
ENDBRANCH  83  87
ENDBRANCH  56  80
BRANCH  68  91
ATOM     91  C   UNL A   1      44.223  28.828  35.542  1.00  0.00     0.023 A 
ATOM     92  C   UNL A   1      44.135  27.792  36.489  1.00  0.00     0.031 A 
ATOM     93  C   UNL A   1      45.487  29.401  35.312  1.00  0.00     0.131 A 
ATOM     94  C   UNL A   1      45.271  27.412  37.221  1.00  0.00     0.055 A 
ATOM     95  C   UNL A   1      46.627  28.970  35.991  1.00  0.00     0.041 A 
ATOM     96  F   UNL A   1      45.635  30.398  34.424  1.00  0.00    -0.206 F 
ATOM     97  C   UNL A   1      46.520  27.982  36.964  1.00  0.00     0.022 A 
BRANCH  94  98
ATOM     98  S   UNL A   1      45.071  26.252  38.601  1.00  0.00     0.124 S 
ATOM     99  O   UNL A   1      44.627  27.133  39.676  1.00  0.00    -0.237 OA
ATOM    100  O   UNL A   1      44.072  25.322  38.084  1.00  0.00    -0.237 OA
ATOM    101  O   UNL A   1      46.409  25.690  38.774  1.00  0.00    -0.744 OA
ENDBRANCH  94  98
ENDBRANCH  68  91
ENDBRANCH  42  43
ENDBRANCH  34  37
ENDBRANCH  32  33
ENDBRANCH  31  32
ENDBRANCH   1  31
TORSDOF 18
ENDMDL
MODEL 3
REMARK VINA RESULT:     -13.1      5.592      8.755
REMARK SMILES C[C@@H]1CC(C)(C)C[C@@](CC(=O)Nc2cccc(C(F)(F)F)c2)(C(=O)NCCCCNC(=O)c2ccc(-c3c4nc(c(-c5cc(S(=O)(=O)[O-])ccc5F)c5ccc([nH]5)c(-c5cc(S(=O)(=O)[O-])ccc5F)c5nc(c(-c6cc(S(=O)(=O)[O-])ccc6F)c6ccc3[nH]6)C=C5)C=C4)cc2)C1
REMARK SMILES IDX 27 1 26 2 25 3 23 4 24 5 8 7 1 8 2 9 3 10 96 11 4 12 5 13
REMARK SMILES IDX 6 14 7 15 9 16 10 17 11 18 12 19 13 21 14 22 22 23 15 24
REMARK SMILES IDX 17 25 16 26 18 27 19 28 20 29 21 30 28 31 29 32 30 33 31 34
REMARK SMILES IDX 32 36 33 37 34 38 95 39 35 40 94 41 36 42 37 43 38 44 88 45
REMARK SMILES IDX 39 46 93 47 87 48 89 49 40 50 92 51 86 52 85 53 41 55 73 56
REMARK SMILES IDX 53 57 72 58 54 59 57 60 71 61 90 62 55 63 56 64 70 66 91 67
REMARK SMILES IDX 58 68 42 69 43 70 51 71 44 72 50 73 52 74 49 75 45 76 46 77
REMARK SMILES IDX 47 78 48 79 74 80 75 81 83 82 76 83 82 84 84 85 81 86 77 87
REMARK SMILES IDX 78 88 79 89 80 90 59 91 60 92 68 93 61 94 67 95 69 96 66 97
REMARK SMILES IDX 62 98 63 99 64 100 65 101
REMARK H PARENT 25 6 12 20 30 35 89 54 57 65
REMARK Flexibility Score: inf
ROOT
ATOM      1  C   UNL A   1      32.928  29.326  24.741  1.00  0.00     0.023 C 
ENDROOT
BRANCH   1   2
ATOM      2  C   UNL A   1      33.405  28.003  25.364  1.00  0.00     0.116 C 
BRANCH   2   3
ATOM      3  N   UNL A   1      32.330  27.190  25.943  1.00  0.00    -0.356 N 
ATOM      4  C   UNL A   1      32.065  25.840  25.975  1.00  0.00     0.226 C 
ATOM      5  O   UNL A   1      31.033  25.519  26.575  1.00  0.00    -0.274 OA
ATOM      6  H   UNL A   1      31.648  27.728  26.408  1.00  0.00     0.163 HD
BRANCH   4   7
ATOM      7  C   UNL A   1      32.989  24.743  25.302  1.00  0.00     0.059 C 
ATOM      8  C   UNL A   1      35.834  23.601  23.787  1.00  0.00     0.008 C 
ATOM      9  C   UNL A   1      35.581  24.124  25.195  1.00  0.00    -0.013 C 
ATOM     10  C   UNL A   1      35.402  23.006  26.198  1.00  0.00     0.009 C 
ATOM     11  C   UNL A   1      34.477  25.163  25.404  1.00  0.00     0.020 C 
ATOM     12  C   UNL A   1      33.980  22.413  26.284  1.00  0.00    -0.034 C 
ATOM     13  C   UNL A   1      33.735  21.352  25.200  1.00  0.00     0.011 C 
ATOM     14  C   UNL A   1      33.952  21.674  27.650  1.00  0.00     0.011 C 
ATOM     15  C   UNL A   1      32.834  23.480  26.229  1.00  0.00     0.024 C 
BRANCH   7  16
ATOM     16  C   UNL A   1      32.438  24.689  23.856  1.00  0.00     0.117 C 
BRANCH  16  17
ATOM     17  C   UNL A   1      32.633  25.666  22.726  1.00  0.00     0.225 C 
ATOM     18  O   UNL A   1      33.650  25.526  22.026  1.00  0.00    -0.275 OA
ATOM     19  N   UNL A   1      31.792  26.636  22.300  1.00  0.00    -0.326 N 
ATOM     20  H   UNL A   1      32.065  26.947  21.406  1.00  0.00     0.169 HD
BRANCH  19  21
ATOM     21  C   UNL A   1      30.650  27.343  22.725  1.00  0.00     0.041 A 
ATOM     22  C   UNL A   1      29.733  26.553  23.442  1.00  0.00     0.026 A 
ATOM     23  C   UNL A   1      30.276  28.644  22.397  1.00  0.00     0.039 A 
ATOM     24  C   UNL A   1      28.433  26.984  23.697  1.00  0.00     0.003 A 
ATOM     25  C   UNL A   1      28.926  29.053  22.547  1.00  0.00     0.058 A 
ATOM     26  C   UNL A   1      28.018  28.217  23.218  1.00  0.00     0.013 A 
BRANCH  25  27
ATOM     27  C   UNL A   1      28.405  30.330  21.920  1.00  0.00     0.416 C 
ATOM     28  F   UNL A   1      27.599  31.038  22.769  1.00  0.00    -0.166 F 
ATOM     29  F   UNL A   1      29.393  31.187  21.552  1.00  0.00    -0.166 F 
ATOM     30  F   UNL A   1      27.644  30.113  20.815  1.00  0.00    -0.166 F 
ENDBRANCH  25  27
ENDBRANCH  19  21
ENDBRANCH  16  17
ENDBRANCH   7  16
ENDBRANCH   4   7
ENDBRANCH   2   3
ENDBRANCH   1   2
BRANCH   1  31
ATOM     31  C   UNL A   1      31.664  29.958  25.348  1.00  0.00     0.023 C 
BRANCH  31  32
ATOM     32  C   UNL A   1      31.765  30.498  26.778  1.00  0.00     0.116 C 
BRANCH  32  33
ATOM     33  N   UNL A   1      31.916  31.943  26.849  1.00  0.00    -0.352 N 
ATOM     34  C   UNL A   1      32.889  32.731  27.426  1.00  0.00     0.251 C 
ATOM     35  H   UNL A   1      31.195  32.447  26.407  1.00  0.00     0.163 HD
ATOM     36  O   UNL A   1      32.718  33.944  27.446  1.00  0.00    -0.269 OA
BRANCH  34  37
ATOM     37  C   UNL A   1      34.112  32.152  28.045  1.00  0.00     0.039 A 
ATOM     38  C   UNL A   1      35.107  33.029  28.496  1.00  0.00     0.014 A 
ATOM     39  C   UNL A   1      34.326  30.774  28.138  1.00  0.00     0.014 A 
ATOM     40  C   UNL A   1      36.272  32.531  29.093  1.00  0.00     0.010 A 
ATOM     41  C   UNL A   1      35.455  30.280  28.800  1.00  0.00     0.010 A 
ATOM     42  C   UNL A   1      36.445  31.150  29.286  1.00  0.00    -0.014 A 
BRANCH  42  43
ATOM     43  C   UNL A   1      37.651  30.620  29.987  1.00  0.00     0.031 A 
ATOM     44  C   UNL A   1      37.967  31.038  31.400  1.00  0.00     0.074 A 
ATOM     45  C   UNL A   1      38.493  29.790  29.337  1.00  0.00     0.049 A 
ATOM     46  N   UNL A   1      38.983  30.705  32.159  1.00  0.00    -0.248 NA
ATOM     47  C   UNL A   1      37.034  31.981  32.031  1.00  0.00     0.031 C 
ATOM     48  C   UNL A   1      38.335  29.349  27.949  1.00  0.00     0.029 A 
ATOM     49  N   UNL A   1      39.650  29.174  29.748  1.00  0.00    -0.354 N 
ATOM     50  C   UNL A   1      38.814  31.400  33.351  1.00  0.00     0.074 A 
ATOM     51  C   UNL A   1      37.640  32.230  33.182  1.00  0.00     0.031 C 
ATOM     52  C   UNL A   1      39.342  28.521  27.633  1.00  0.00     0.029 A 
ATOM     53  C   UNL A   1      40.242  28.401  28.776  1.00  0.00     0.049 A 
ATOM     54  H   UNL A   1      40.022  29.277  30.653  1.00  0.00     0.167 HD
ATOM     55  C   UNL A   1      39.551  31.336  34.491  1.00  0.00     0.034 A 
ATOM     56  C   UNL A   1      41.383  27.682  28.792  1.00  0.00     0.034 A 
ATOM     57  C   UNL A   1      40.724  30.505  34.644  1.00  0.00     0.049 A 
ATOM     58  C   UNL A   1      42.197  27.632  30.061  1.00  0.00     0.074 A 
ATOM     59  C   UNL A   1      41.514  30.326  35.767  1.00  0.00     0.029 A 
ATOM     60  N   UNL A   1      41.287  29.725  33.641  1.00  0.00    -0.354 N 
ATOM     61  N   UNL A   1      41.986  28.245  31.203  1.00  0.00    -0.248 NA
ATOM     62  C   UNL A   1      43.389  26.776  30.047  1.00  0.00     0.031 C 
ATOM     63  C   UNL A   1      42.593  29.504  35.422  1.00  0.00     0.029 A 
ATOM     64  C   UNL A   1      42.430  29.092  34.109  1.00  0.00     0.049 A 
ATOM     65  H   UNL A   1      40.926  29.635  32.729  1.00  0.00     0.167 HD
ATOM     66  C   UNL A   1      43.007  27.826  32.053  1.00  0.00     0.074 A 
ATOM     67  C   UNL A   1      43.816  26.892  31.296  1.00  0.00     0.031 C 
ATOM     68  C   UNL A   1      43.249  28.178  33.343  1.00  0.00     0.034 A 
BRANCH  55  69
ATOM     69  C   UNL A   1      39.116  32.213  35.646  1.00  0.00     0.023 A 
ATOM     70  C   UNL A   1      39.549  33.547  35.766  1.00  0.00     0.031 A 
ATOM     71  C   UNL A   1      38.298  31.700  36.670  1.00  0.00     0.131 A 
ATOM     72  C   UNL A   1      39.252  34.283  36.924  1.00  0.00     0.055 A 
ATOM     73  C   UNL A   1      37.924  32.471  37.774  1.00  0.00     0.041 A 
ATOM     74  F   UNL A   1      37.865  30.430  36.628  1.00  0.00    -0.206 F 
ATOM     75  C   UNL A   1      38.419  33.764  37.916  1.00  0.00     0.022 A 
BRANCH  72  76
ATOM     76  S   UNL A   1      40.123  35.851  37.196  1.00  0.00     0.124 S 
ATOM     77  O   UNL A   1      39.696  36.630  36.035  1.00  0.00    -0.237 OA
ATOM     78  O   UNL A   1      39.598  36.284  38.486  1.00  0.00    -0.237 OA
ATOM     79  O   UNL A   1      41.533  35.465  37.190  1.00  0.00    -0.744 OA
ENDBRANCH  72  76
ENDBRANCH  55  69
BRANCH  56  80
ATOM     80  C   UNL A   1      41.835  26.965  27.564  1.00  0.00     0.023 A 
ATOM     81  C   UNL A   1      41.712  25.571  27.441  1.00  0.00     0.031 A 
ATOM     82  C   UNL A   1      42.421  27.672  26.497  1.00  0.00     0.131 A 
ATOM     83  C   UNL A   1      42.204  24.925  26.296  1.00  0.00     0.055 A 
ATOM     84  C   UNL A   1      42.860  27.029  25.339  1.00  0.00     0.041 A 
ATOM     85  F   UNL A   1      42.559  29.005  26.562  1.00  0.00    -0.206 F 
ATOM     86  C   UNL A   1      42.762  25.646  25.237  1.00  0.00     0.022 A 
BRANCH  83  87
ATOM     87  S   UNL A   1      42.170  23.112  26.236  1.00  0.00     0.124 S 
ATOM     88  O   UNL A   1      43.046  22.761  27.347  1.00  0.00    -0.237 OA
ATOM     89  O   UNL A   1      40.751  22.828  26.423  1.00  0.00    -0.237 OA
ATOM     90  O   UNL A   1      42.693  22.805  24.906  1.00  0.00    -0.744 OA
ENDBRANCH  83  87
ENDBRANCH  56  80
BRANCH  68  91
ATOM     91  C   UNL A   1      44.421  27.511  34.029  1.00  0.00     0.023 A 
ATOM     92  C   UNL A   1      44.288  26.285  34.703  1.00  0.00     0.031 A 
ATOM     93  C   UNL A   1      45.684  28.131  34.034  1.00  0.00     0.131 A 
ATOM     94  C   UNL A   1      45.377  25.754  35.414  1.00  0.00     0.055 A 
ATOM     95  C   UNL A   1      46.781  27.562  34.681  1.00  0.00     0.041 A 
ATOM     96  F   UNL A   1      45.871  29.306  33.412  1.00  0.00    -0.206 F 
ATOM     97  C   UNL A   1      46.628  26.376  35.391  1.00  0.00     0.022 A 
BRANCH  94  98
ATOM     98  S   UNL A   1      45.105  24.306  36.472  1.00  0.00     0.124 S 
ATOM     99  O   UNL A   1      44.193  23.505  35.662  1.00  0.00    -0.237 OA
ATOM    100  O   UNL A   1      46.456  23.774  36.625  1.00  0.00    -0.237 OA
ATOM    101  O   UNL A   1      44.521  24.872  37.686  1.00  0.00    -0.744 OA
ENDBRANCH  94  98
ENDBRANCH  68  91
ENDBRANCH  42  43
ENDBRANCH  34  37
ENDBRANCH  32  33
ENDBRANCH  31  32
ENDBRANCH   1  31
TORSDOF 18
ENDMDL
