MODEL 1
REMARK VINA RESULT:     -13.3      0.000      0.000
REMARK SMILES C[C@@H](NC(=O)[C@H]1CC=CC[C@@H]1C(=O)NCCCCNC(=O)c1ccc(-c2c3nc(c(-c4cc(S(=O)(=O)[O-])ccc4F)c4ccc([nH]4)c(-c4cc(S(=O)(=O)[O-])ccc4F)c4nc(c(-c5cc(S(=O)(=O)[O-])ccc5F)c5ccc2[nH]5)C=C4)C=C3)cc1)c1ccc(-n2ccnc2)cc1
REMARK SMILES IDX 16 1 15 2 14 3 12 4 13 5 11 7 6 8 7 9 8 10 10 11 9 12 4 13
REMARK SMILES IDX 3 14 5 16 2 17 1 18 85 19 86 20 95 21 87 22 94 23 88 24
REMARK SMILES IDX 89 25 90 26 93 27 91 28 92 29 17 30 18 31 19 32 20 33 21 35
REMARK SMILES IDX 22 36 23 37 84 38 24 39 83 40 25 41 26 42 27 43 77 44 28 45
REMARK SMILES IDX 82 46 76 47 78 48 29 49 81 50 75 51 74 52 30 54 62 55 42 56
REMARK SMILES IDX 61 57 43 58 46 59 60 60 79 61 44 62 45 63 59 65 80 66 47 67
REMARK SMILES IDX 31 68 32 69 40 70 33 71 39 72 41 73 38 74 34 75 35 76 36 77
REMARK SMILES IDX 37 78 63 79 64 80 72 81 65 82 71 83 73 84 70 85 66 86 67 87
REMARK SMILES IDX 68 88 69 89 48 90 49 91 57 92 50 93 56 94 58 95 55 96 51 97
REMARK SMILES IDX 52 98 53 99 54 100
REMARK H PARENT 14 6 3 15 19 34 78 53 46 64
REMARK Flexibility Score: inf
ROOT
ATOM      1  C   UNL A   1      33.233  28.972  26.968  1.00  0.00     0.023 C 
ENDROOT
BRANCH   1   2
ATOM      2  C   UNL A   1      32.383  28.181  27.982  1.00  0.00     0.116 C 
BRANCH   2   3
ATOM      3  N   UNL A   1      31.141  27.572  27.434  1.00  0.00    -0.356 N 
ATOM      4  C   UNL A   1      31.062  26.664  26.246  1.00  0.00     0.224 C 
ATOM      5  O   UNL A   1      31.375  25.592  26.886  1.00  0.00    -0.275 OA
ATOM      6  H   UNL A   1      30.297  27.786  27.891  1.00  0.00     0.163 HD
BRANCH   4   7
ATOM      7  C   UNL A   1      30.518  27.033  24.160  1.00  0.00     0.095 C 
ATOM      8  C   UNL A   1      31.623  27.475  22.780  1.00  0.00     0.095 C 
ATOM      9  C   UNL A   1      31.421  28.833  22.068  1.00  0.00     0.041 C 
ATOM     10  C   UNL A   1      30.094  29.478  22.092  1.00  0.00    -0.030 C 
ATOM     11  C   UNL A   1      29.040  27.657  23.418  1.00  0.00     0.041 C 
ATOM     12  C   UNL A   1      29.035  28.961  22.702  1.00  0.00    -0.030 C 
BRANCH   8  13
ATOM     13  C   UNL A   1      31.929  26.272  21.854  1.00  0.00     0.224 C 
ATOM     14  N   UNL A   1      32.884  25.349  22.224  1.00  0.00    -0.349 N 
ATOM     15  H   UNL A   1      33.491  25.079  21.498  1.00  0.00     0.164 HD
ATOM     16  O   UNL A   1      31.528  26.225  20.690  1.00  0.00    -0.275 OA
BRANCH  14  17
ATOM     17  C   UNL A   1      33.157  24.691  23.524  1.00  0.00     0.109 C 
ATOM     18  C   UNL A   1      34.234  25.535  24.217  1.00  0.00     0.036 C 
BRANCH  17  19
ATOM     19  C   UNL A   1      33.545  23.232  23.333  1.00  0.00    -0.026 A 
ATOM     20  C   UNL A   1      32.283  22.085  22.709  1.00  0.00     0.008 A 
ATOM     21  C   UNL A   1      34.822  22.628  24.441  1.00  0.00     0.008 A 
ATOM     22  C   UNL A   1      32.266  20.397  23.261  1.00  0.00     0.027 A 
ATOM     23  C   UNL A   1      34.655  20.974  25.174  1.00  0.00     0.027 A 
ATOM     24  C   UNL A   1      33.394  19.838  24.545  1.00  0.00     0.046 A 
BRANCH  24  25
ATOM     25  N   UNL A   1      33.505  18.447  24.782  1.00  0.00    -0.306 N 
ATOM     26  C   UNL A   1      34.202  17.522  24.053  1.00  0.00     0.113 A 
ATOM     27  C   UNL A   1      32.757  17.736  25.692  1.00  0.00     0.204 A 
ATOM     28  C   UNL A   1      33.788  16.294  24.518  1.00  0.00     0.131 A 
ATOM     29  N   UNL A   1      32.902  16.439  25.550  1.00  0.00    -0.245 NA
ENDBRANCH  24  25
ENDBRANCH  17  19
ENDBRANCH  14  17
ENDBRANCH   8  13
ENDBRANCH   4   7
ENDBRANCH   2   3
ENDBRANCH   1   2
BRANCH   1  30
ATOM     30  C   UNL A   1      32.884  30.421  26.690  1.00  0.00     0.023 C 
BRANCH  30  31
ATOM     31  C   UNL A   1      33.589  31.442  27.547  1.00  0.00     0.116 C 
BRANCH  31  32
ATOM     32  N   UNL A   1      32.959  32.757  27.567  1.00  0.00    -0.352 N 
ATOM     33  C   UNL A   1      33.305  33.869  28.313  1.00  0.00     0.251 C 
ATOM     34  H   UNL A   1      32.183  32.869  26.971  1.00  0.00     0.163 HD
ATOM     35  O   UNL A   1      32.650  34.902  28.228  1.00  0.00    -0.269 OA
BRANCH  33  36
ATOM     36  C   UNL A   1      34.430  33.762  29.271  1.00  0.00     0.039 A 
ATOM     37  C   UNL A   1      34.239  33.063  30.466  1.00  0.00     0.014 A 
ATOM     38  C   UNL A   1      35.703  34.203  28.909  1.00  0.00     0.014 A 
ATOM     39  C   UNL A   1      35.351  32.675  31.219  1.00  0.00     0.010 A 
ATOM     40  C   UNL A   1      36.808  33.713  29.591  1.00  0.00     0.010 A 
ATOM     41  C   UNL A   1      36.648  32.923  30.742  1.00  0.00    -0.014 A 
BRANCH  41  42
ATOM     42  C   UNL A   1      37.859  32.356  31.399  1.00  0.00     0.031 A 
ATOM     43  C   UNL A   1      38.606  31.231  30.731  1.00  0.00     0.074 A 
ATOM     44  C   UNL A   1      38.204  32.753  32.642  1.00  0.00     0.049 A 
ATOM     45  N   UNL A   1      39.562  30.476  31.205  1.00  0.00    -0.248 NA
ATOM     46  C   UNL A   1      38.182  30.880  29.367  1.00  0.00     0.031 C 
ATOM     47  C   UNL A   1      37.518  33.780  33.432  1.00  0.00     0.029 A 
ATOM     48  N   UNL A   1      39.207  32.319  33.477  1.00  0.00    -0.354 N 
ATOM     49  C   UNL A   1      39.820  29.532  30.217  1.00  0.00     0.074 A 
ATOM     50  C   UNL A   1      38.886  29.781  29.141  1.00  0.00     0.031 C 
ATOM     51  C   UNL A   1      38.126  33.904  34.623  1.00  0.00     0.029 A 
ATOM     52  C   UNL A   1      39.213  32.936  34.708  1.00  0.00     0.049 A 
ATOM     53  H   UNL A   1      39.860  31.630  33.218  1.00  0.00     0.167 HD
ATOM     54  C   UNL A   1      40.766  28.562  30.198  1.00  0.00     0.034 A 
ATOM     55  C   UNL A   1      39.990  32.729  35.791  1.00  0.00     0.034 A 
ATOM     56  C   UNL A   1      41.736  28.369  31.245  1.00  0.00     0.049 A 
ATOM     57  C   UNL A   1      41.056  31.665  35.732  1.00  0.00     0.074 A 
ATOM     58  C   UNL A   1      42.822  27.513  31.264  1.00  0.00     0.029 A 
ATOM     59  N   UNL A   1      41.735  29.041  32.459  1.00  0.00    -0.354 N 
ATOM     60  N   UNL A   1      41.343  30.840  34.752  1.00  0.00    -0.248 NA
ATOM     61  C   UNL A   1      41.904  31.505  36.921  1.00  0.00     0.031 C 
ATOM     62  C   UNL A   1      43.449  27.629  32.509  1.00  0.00     0.029 A 
ATOM     63  C   UNL A   1      42.784  28.595  33.247  1.00  0.00     0.049 A 
ATOM     64  H   UNL A   1      41.087  29.733  32.721  1.00  0.00     0.167 HD
ATOM     65  C   UNL A   1      42.414  30.075  35.203  1.00  0.00     0.074 A 
ATOM     66  C   UNL A   1      42.736  30.549  36.534  1.00  0.00     0.031 C 
ATOM     67  C   UNL A   1      43.078  29.071  34.576  1.00  0.00     0.034 A 
BRANCH  54  68
ATOM     68  C   UNL A   1      40.788  27.635  29.011  1.00  0.00     0.023 A 
ATOM     69  C   UNL A   1      41.734  27.777  27.982  1.00  0.00     0.031 A 
ATOM     70  C   UNL A   1      39.836  26.607  28.898  1.00  0.00     0.131 A 
ATOM     71  C   UNL A   1      41.663  26.952  26.850  1.00  0.00     0.055 A 
ATOM     72  C   UNL A   1      39.818  25.742  27.803  1.00  0.00     0.041 A 
ATOM     73  F   UNL A   1      38.899  26.438  29.844  1.00  0.00    -0.206 F 
ATOM     74  C   UNL A   1      40.726  25.920  26.764  1.00  0.00     0.022 A 
BRANCH  71  75
ATOM     75  S   UNL A   1      42.742  27.323  25.440  1.00  0.00     0.124 S 
ATOM     76  O   UNL A   1      44.012  27.597  26.109  1.00  0.00    -0.237 OA
ATOM     77  O   UNL A   1      42.684  26.090  24.664  1.00  0.00    -0.237 OA
ATOM     78  O   UNL A   1      42.108  28.482  24.818  1.00  0.00    -0.744 OA
ENDBRANCH  71  75
ENDBRANCH  54  68
BRANCH  55  79
ATOM     79  C   UNL A   1      39.779  33.513  37.044  1.00  0.00     0.023 A 
ATOM     80  C   UNL A   1      40.526  34.673  37.305  1.00  0.00     0.031 A 
ATOM     81  C   UNL A   1      38.874  33.076  38.027  1.00  0.00     0.131 A 
ATOM     82  C   UNL A   1      40.391  35.329  38.540  1.00  0.00     0.055 A 
ATOM     83  C   UNL A   1      38.710  33.758  39.234  1.00  0.00     0.041 A 
ATOM     84  F   UNL A   1      38.131  31.976  37.824  1.00  0.00    -0.206 F 
ATOM     85  C   UNL A   1      39.483  34.884  39.502  1.00  0.00     0.022 A 
BRANCH  82  86
ATOM     86  S   UNL A   1      41.492  36.724  38.907  1.00  0.00     0.124 S 
ATOM     87  O   UNL A   1      40.541  37.785  39.217  1.00  0.00    -0.237 OA
ATOM     88  O   UNL A   1      42.267  36.209  40.031  1.00  0.00    -0.237 OA
ATOM     89  O   UNL A   1      42.243  36.901  37.665  1.00  0.00    -0.744 OA
ENDBRANCH  82  86
ENDBRANCH  55  79
BRANCH  67  90
ATOM     90  C   UNL A   1      44.229  28.446  35.317  1.00  0.00     0.023 A 
ATOM     91  C   UNL A   1      45.536  28.944  35.192  1.00  0.00     0.031 A 
ATOM     92  C   UNL A   1      44.012  27.340  36.157  1.00  0.00     0.131 A 
ATOM     93  C   UNL A   1      46.589  28.310  35.867  1.00  0.00     0.055 A 
ATOM     94  C   UNL A   1      45.056  26.743  36.864  1.00  0.00     0.041 A 
ATOM     95  F   UNL A   1      42.780  26.829  36.309  1.00  0.00    -0.206 F 
ATOM     96  C   UNL A   1      46.355  27.222  36.714  1.00  0.00     0.022 A 
BRANCH  93  97
ATOM     97  S   UNL A   1      48.283  28.892  35.583  1.00  0.00     0.124 S 
ATOM     98  O   UNL A   1      49.003  27.641  35.381  1.00  0.00    -0.237 OA
ATOM     99  O   UNL A   1      48.132  29.740  34.405  1.00  0.00    -0.237 OA
ATOM    100  O   UNL A   1      48.611  29.604  36.818  1.00  0.00    -0.744 OA
ENDBRANCH  93  97
ENDBRANCH  67  90
ENDBRANCH  41  42
ENDBRANCH  33  36
ENDBRANCH  31  32
ENDBRANCH  30  31
ENDBRANCH   1  30
TORSDOF 18
ENDMDL
MODEL 2
REMARK VINA RESULT:     -13.2      4.875      8.958
REMARK SMILES C[C@@H](NC(=O)[C@H]1CC=CC[C@@H]1C(=O)NCCCCNC(=O)c1ccc(-c2c3nc(c(-c4cc(S(=O)(=O)[O-])ccc4F)c4ccc([nH]4)c(-c4cc(S(=O)(=O)[O-])ccc4F)c4nc(c(-c5cc(S(=O)(=O)[O-])ccc5F)c5ccc2[nH]5)C=C4)C=C3)cc1)c1ccc(-n2ccnc2)cc1
REMARK SMILES IDX 16 1 15 2 14 3 12 4 13 5 11 7 6 8 7 9 8 10 10 11 9 12 4 13
REMARK SMILES IDX 3 14 5 16 2 17 1 18 85 19 86 20 95 21 87 22 94 23 88 24
REMARK SMILES IDX 89 25 90 26 93 27 91 28 92 29 17 30 18 31 19 32 20 33 21 35
REMARK SMILES IDX 22 36 23 37 84 38 24 39 83 40 25 41 26 42 27 43 77 44 28 45
REMARK SMILES IDX 82 46 76 47 78 48 29 49 81 50 75 51 74 52 30 54 62 55 42 56
REMARK SMILES IDX 61 57 43 58 46 59 60 60 79 61 44 62 45 63 59 65 80 66 47 67
REMARK SMILES IDX 31 68 32 69 40 70 33 71 39 72 41 73 38 74 34 75 35 76 36 77
REMARK SMILES IDX 37 78 63 79 64 80 72 81 65 82 71 83 73 84 70 85 66 86 67 87
REMARK SMILES IDX 68 88 69 89 48 90 49 91 57 92 50 93 56 94 58 95 55 96 51 97
REMARK SMILES IDX 52 98 53 99 54 100
REMARK H PARENT 14 6 3 15 19 34 78 53 46 64
REMARK Flexibility Score: inf
ROOT
ATOM      1  C   UNL A   1      35.306  20.681  25.325  1.00  0.00     0.023 C 
ENDROOT
BRANCH   1   2
ATOM      2  C   UNL A   1      34.197  19.830  24.674  1.00  0.00     0.116 C 
BRANCH   2   3
ATOM      3  N   UNL A   1      32.845  20.448  24.664  1.00  0.00    -0.356 N 
ATOM      4  C   UNL A   1      32.391  21.546  23.751  1.00  0.00     0.224 C 
ATOM      5  O   UNL A   1      32.111  20.777  22.758  1.00  0.00    -0.275 OA
ATOM      6  H   UNL A   1      32.190  20.108  25.315  1.00  0.00     0.163 HD
BRANCH   4   7
ATOM      7  C   UNL A   1      32.197  23.704  24.048  1.00  0.00     0.095 C 
ATOM      8  C   UNL A   1      32.600  24.667  25.542  1.00  0.00     0.095 C 
ATOM      9  C   UNL A   1      31.468  25.437  26.261  1.00  0.00     0.041 C 
ATOM     10  C   UNL A   1      30.274  25.855  25.501  1.00  0.00    -0.030 C 
ATOM     11  C   UNL A   1      31.090  24.896  23.356  1.00  0.00     0.041 C 
ATOM     12  C   UNL A   1      30.100  25.607  24.209  1.00  0.00    -0.030 C 
BRANCH   8  13
ATOM     13  C   UNL A   1      33.949  25.416  25.421  1.00  0.00     0.224 C 
ATOM     14  N   UNL A   1      34.042  26.533  24.618  1.00  0.00    -0.349 N 
ATOM     15  H   UNL A   1      34.852  26.564  24.058  1.00  0.00     0.164 HD
ATOM     16  O   UNL A   1      35.006  24.928  25.824  1.00  0.00    -0.275 OA
BRANCH  14  17
ATOM     17  C   UNL A   1      33.138  27.695  24.449  1.00  0.00     0.109 C 
ATOM     18  C   UNL A   1      33.680  28.494  23.258  1.00  0.00     0.036 C 
BRANCH  17  19
ATOM     19  C   UNL A   1      33.031  28.502  25.735  1.00  0.00    -0.026 A 
ATOM     20  C   UNL A   1      31.711  29.743  25.859  1.00  0.00     0.008 A 
ATOM     21  C   UNL A   1      34.579  28.763  26.606  1.00  0.00     0.008 A 
ATOM     22  C   UNL A   1      31.986  31.244  26.768  1.00  0.00     0.027 A 
ATOM     23  C   UNL A   1      34.929  30.392  27.329  1.00  0.00     0.027 A 
ATOM     24  C   UNL A   1      33.606  31.623  27.449  1.00  0.00     0.046 A 
BRANCH  24  25
ATOM     25  N   UNL A   1      33.717  32.703  28.357  1.00  0.00    -0.306 N 
ATOM     26  C   UNL A   1      33.400  34.018  28.143  1.00  0.00     0.113 A 
ATOM     27  C   UNL A   1      34.360  32.655  29.572  1.00  0.00     0.204 A 
ATOM     28  C   UNL A   1      33.928  34.706  29.213  1.00  0.00     0.131 A 
ATOM     29  N   UNL A   1      34.508  33.846  30.105  1.00  0.00    -0.245 NA
ENDBRANCH  24  25
ENDBRANCH  17  19
ENDBRANCH  14  17
ENDBRANCH   8  13
ENDBRANCH   4   7
ENDBRANCH   2   3
ENDBRANCH   1   2
BRANCH   1  30
ATOM     30  C   UNL A   1      35.993  21.749  24.497  1.00  0.00     0.023 C 
BRANCH  30  31
ATOM     31  C   UNL A   1      37.275  22.299  25.068  1.00  0.00     0.116 C 
BRANCH  31  32
ATOM     32  N   UNL A   1      38.280  21.290  25.385  1.00  0.00    -0.352 N 
ATOM     33  C   UNL A   1      39.397  21.408  26.192  1.00  0.00     0.251 C 
ATOM     34  H   UNL A   1      38.146  20.408  24.969  1.00  0.00     0.163 HD
ATOM     35  O   UNL A   1      40.161  20.460  26.337  1.00  0.00    -0.269 OA
BRANCH  33  36
ATOM     36  C   UNL A   1      39.693  22.721  26.812  1.00  0.00     0.039 A 
ATOM     37  C   UNL A   1      40.748  22.818  27.722  1.00  0.00     0.014 A 
ATOM     38  C   UNL A   1      39.040  23.870  26.366  1.00  0.00     0.014 A 
ATOM     39  C   UNL A   1      41.246  24.079  28.064  1.00  0.00     0.010 A 
ATOM     40  C   UNL A   1      39.612  25.111  26.609  1.00  0.00     0.010 A 
ATOM     41  C   UNL A   1      40.736  25.230  27.443  1.00  0.00    -0.014 A 
BRANCH  41  42
ATOM     42  C   UNL A   1      41.364  26.571  27.616  1.00  0.00     0.031 A 
ATOM     43  C   UNL A   1      42.725  26.833  27.030  1.00  0.00     0.074 A 
ATOM     44  C   UNL A   1      40.777  27.496  28.405  1.00  0.00     0.049 A 
ATOM     45  N   UNL A   1      43.524  27.851  27.215  1.00  0.00    -0.248 NA
ATOM     46  C   UNL A   1      43.280  25.784  26.161  1.00  0.00     0.031 C 
ATOM     47  C   UNL A   1      39.492  27.339  29.096  1.00  0.00     0.029 A 
ATOM     48  N   UNL A   1      41.198  28.749  28.786  1.00  0.00    -0.354 N 
ATOM     49  C   UNL A   1      44.692  27.544  26.525  1.00  0.00     0.074 A 
ATOM     50  C   UNL A   1      44.513  26.224  25.961  1.00  0.00     0.031 C 
ATOM     51  C   UNL A   1      39.228  28.453  29.799  1.00  0.00     0.029 A 
ATOM     52  C   UNL A   1      40.340  29.385  29.655  1.00  0.00     0.049 A 
ATOM     53  H   UNL A   1      42.037  29.153  28.466  1.00  0.00     0.167 HD
ATOM     54  C   UNL A   1      45.802  28.302  26.357  1.00  0.00     0.034 A 
ATOM     55  C   UNL A   1      40.447  30.573  30.284  1.00  0.00     0.034 A 
ATOM     56  C   UNL A   1      45.940  29.642  26.864  1.00  0.00     0.049 A 
ATOM     57  C   UNL A   1      41.679  31.412  30.053  1.00  0.00     0.074 A 
ATOM     58  C   UNL A   1      46.960  30.549  26.633  1.00  0.00     0.029 A 
ATOM     59  N   UNL A   1      45.032  30.268  27.706  1.00  0.00    -0.354 N 
ATOM     60  N   UNL A   1      42.737  31.140  29.325  1.00  0.00    -0.248 NA
ATOM     61  C   UNL A   1      41.732  32.717  30.727  1.00  0.00     0.031 C 
ATOM     62  C   UNL A   1      46.694  31.703  27.376  1.00  0.00     0.029 A 
ATOM     63  C   UNL A   1      45.484  31.537  28.031  1.00  0.00     0.049 A 
ATOM     64  H   UNL A   1      44.191  29.870  28.026  1.00  0.00     0.167 HD
ATOM     65  C   UNL A   1      43.571  32.247  29.441  1.00  0.00     0.074 A 
ATOM     66  C   UNL A   1      42.888  33.198  30.293  1.00  0.00     0.031 C 
ATOM     67  C   UNL A   1      44.793  32.464  28.893  1.00  0.00     0.034 A 
BRANCH  54  68
ATOM     68  C   UNL A   1      46.953  27.692  25.600  1.00  0.00     0.023 A 
ATOM     69  C   UNL A   1      47.209  28.022  24.258  1.00  0.00     0.031 A 
ATOM     70  C   UNL A   1      47.792  26.754  26.223  1.00  0.00     0.131 A 
ATOM     71  C   UNL A   1      48.234  27.364  23.561  1.00  0.00     0.055 A 
ATOM     72  C   UNL A   1      48.857  26.157  25.545  1.00  0.00     0.041 A 
ATOM     73  F   UNL A   1      47.581  26.389  27.497  1.00  0.00    -0.206 F 
ATOM     74  C   UNL A   1      49.074  26.450  24.202  1.00  0.00     0.022 A 
BRANCH  71  75
ATOM     75  S   UNL A   1      48.378  27.636  21.774  1.00  0.00     0.124 S 
ATOM     76  O   UNL A   1      47.115  28.309  21.478  1.00  0.00    -0.237 OA
ATOM     77  O   UNL A   1      49.578  28.459  21.675  1.00  0.00    -0.237 OA
ATOM     78  O   UNL A   1      48.501  26.286  21.230  1.00  0.00    -0.744 OA
ENDBRANCH  71  75
ENDBRANCH  54  68
BRANCH  55  79
ATOM     79  C   UNL A   1      39.385  31.041  31.221  1.00  0.00     0.023 A 
ATOM     80  C   UNL A   1      39.603  31.064  32.609  1.00  0.00     0.031 A 
ATOM     81  C   UNL A   1      38.114  31.411  30.748  1.00  0.00     0.131 A 
ATOM     82  C   UNL A   1      38.552  31.399  33.477  1.00  0.00     0.055 A 
ATOM     83  C   UNL A   1      37.086  31.789  31.614  1.00  0.00     0.041 A 
ATOM     84  F   UNL A   1      37.855  31.413  29.431  1.00  0.00    -0.206 F 
ATOM     85  C   UNL A   1      37.298  31.770  32.989  1.00  0.00     0.022 A 
BRANCH  82  86
ATOM     86  S   UNL A   1      38.824  31.255  35.266  1.00  0.00     0.124 S 
ATOM     87  O   UNL A   1      39.959  32.147  35.471  1.00  0.00    -0.237 OA
ATOM     88  O   UNL A   1      37.545  31.709  35.803  1.00  0.00    -0.237 OA
ATOM     89  O   UNL A   1      39.105  29.832  35.453  1.00  0.00    -0.744 OA
ENDBRANCH  82  86
ENDBRANCH  55  79
BRANCH  67  90
ATOM     90  C   UNL A   1      45.446  33.789  29.180  1.00  0.00     0.023 A 
ATOM     91  C   UNL A   1      45.086  34.950  28.477  1.00  0.00     0.031 A 
ATOM     92  C   UNL A   1      46.438  33.888  30.171  1.00  0.00     0.131 A 
ATOM     93  C   UNL A   1      45.746  36.158  28.745  1.00  0.00     0.055 A 
ATOM     94  C   UNL A   1      47.056  35.103  30.468  1.00  0.00     0.041 A 
ATOM     95  F   UNL A   1      46.815  32.806  30.871  1.00  0.00    -0.206 F 
ATOM     96  C   UNL A   1      46.717  36.245  29.747  1.00  0.00     0.022 A 
BRANCH  93  97
ATOM     97  S   UNL A   1      45.353  37.609  27.731  1.00  0.00     0.124 S 
ATOM     98  O   UNL A   1      44.238  37.123  26.926  1.00  0.00    -0.237 OA
ATOM     99  O   UNL A   1      45.025  38.616  28.734  1.00  0.00    -0.237 OA
ATOM    100  O   UNL A   1      46.591  37.855  26.991  1.00  0.00    -0.744 OA
ENDBRANCH  93  97
ENDBRANCH  67  90
ENDBRANCH  41  42
ENDBRANCH  33  36
ENDBRANCH  31  32
ENDBRANCH  30  31
ENDBRANCH   1  30
TORSDOF 18
ENDMDL
MODEL 3
REMARK VINA RESULT:     -12.9      2.644      7.987
REMARK SMILES C[C@@H](NC(=O)[C@H]1CC=CC[C@@H]1C(=O)NCCCCNC(=O)c1ccc(-c2c3nc(c(-c4cc(S(=O)(=O)[O-])ccc4F)c4ccc([nH]4)c(-c4cc(S(=O)(=O)[O-])ccc4F)c4nc(c(-c5cc(S(=O)(=O)[O-])ccc5F)c5ccc2[nH]5)C=C4)C=C3)cc1)c1ccc(-n2ccnc2)cc1
REMARK SMILES IDX 16 1 15 2 14 3 12 4 13 5 11 7 6 8 7 9 8 10 10 11 9 12 4 13
REMARK SMILES IDX 3 14 5 16 2 17 1 18 85 19 86 20 95 21 87 22 94 23 88 24
REMARK SMILES IDX 89 25 90 26 93 27 91 28 92 29 17 30 18 31 19 32 20 33 21 35
REMARK SMILES IDX 22 36 23 37 84 38 24 39 83 40 25 41 26 42 27 43 77 44 28 45
REMARK SMILES IDX 82 46 76 47 78 48 29 49 81 50 75 51 74 52 30 54 62 55 42 56
REMARK SMILES IDX 61 57 43 58 46 59 60 60 79 61 44 62 45 63 59 65 80 66 47 67
REMARK SMILES IDX 31 68 32 69 40 70 33 71 39 72 41 73 38 74 34 75 35 76 36 77
REMARK SMILES IDX 37 78 63 79 64 80 72 81 65 82 71 83 73 84 70 85 66 86 67 87
REMARK SMILES IDX 68 88 69 89 48 90 49 91 57 92 50 93 56 94 58 95 55 96 51 97
REMARK SMILES IDX 52 98 53 99 54 100
REMARK H PARENT 14 6 3 15 19 34 78 53 46 64
REMARK Flexibility Score: inf
ROOT
ATOM      1  C   UNL A   1      33.010  28.871  27.196  1.00  0.00     0.023 C 
ENDROOT
BRANCH   1   2
ATOM      2  C   UNL A   1      32.312  27.736  27.972  1.00  0.00     0.116 C 
BRANCH   2   3
ATOM      3  N   UNL A   1      31.038  27.250  27.379  1.00  0.00    -0.356 N 
ATOM      4  C   UNL A   1      30.913  26.387  26.162  1.00  0.00     0.224 C 
ATOM      5  O   UNL A   1      31.121  25.274  26.774  1.00  0.00    -0.275 OA
ATOM      6  H   UNL A   1      30.203  27.520  27.824  1.00  0.00     0.163 HD
BRANCH   4   7
ATOM      7  C   UNL A   1      30.452  26.861  24.077  1.00  0.00     0.095 C 
ATOM      8  C   UNL A   1      31.618  27.303  22.748  1.00  0.00     0.095 C 
ATOM      9  C   UNL A   1      31.502  28.696  22.085  1.00  0.00     0.041 C 
ATOM     10  C   UNL A   1      30.206  29.402  22.097  1.00  0.00    -0.030 C 
ATOM     11  C   UNL A   1      29.028  27.583  23.317  1.00  0.00     0.041 C 
ATOM     12  C   UNL A   1      29.106  28.912  22.654  1.00  0.00    -0.030 C 
BRANCH   8  13
ATOM     13  C   UNL A   1      31.897  26.124  21.785  1.00  0.00     0.224 C 
ATOM     14  N   UNL A   1      32.807  25.150  22.140  1.00  0.00    -0.349 N 
ATOM     15  H   UNL A   1      33.419  24.883  21.416  1.00  0.00     0.164 HD
ATOM     16  O   UNL A   1      31.521  26.135  20.612  1.00  0.00    -0.275 OA
BRANCH  14  17
ATOM     17  C   UNL A   1      33.025  24.435  23.420  1.00  0.00     0.109 C 
ATOM     18  C   UNL A   1      34.075  25.243  24.192  1.00  0.00     0.036 C 
BRANCH  17  19
ATOM     19  C   UNL A   1      33.418  22.984  23.180  1.00  0.00    -0.026 A 
ATOM     20  C   UNL A   1      32.215  21.896  22.364  1.00  0.00     0.008 A 
ATOM     21  C   UNL A   1      34.570  22.296  24.373  1.00  0.00     0.008 A 
ATOM     22  C   UNL A   1      32.126  20.178  22.808  1.00  0.00     0.027 A 
ATOM     23  C   UNL A   1      34.313  20.604  24.984  1.00  0.00     0.027 A 
ATOM     24  C   UNL A   1      33.112  19.527  24.163  1.00  0.00     0.046 A 
BRANCH  24  25
ATOM     25  N   UNL A   1      33.186  18.122  24.325  1.00  0.00    -0.306 N 
ATOM     26  C   UNL A   1      32.577  17.353  25.279  1.00  0.00     0.113 A 
ATOM     27  C   UNL A   1      34.055  17.292  23.658  1.00  0.00     0.204 A 
ATOM     28  C   UNL A   1      33.161  16.109  25.182  1.00  0.00     0.131 A 
ATOM     29  N   UNL A   1      34.067  16.077  24.158  1.00  0.00    -0.245 NA
ENDBRANCH  24  25
ENDBRANCH  17  19
ENDBRANCH  14  17
ENDBRANCH   8  13
ENDBRANCH   4   7
ENDBRANCH   2   3
ENDBRANCH   1   2
BRANCH   1  30
ATOM     30  C   UNL A   1      32.335  30.225  27.109  1.00  0.00     0.023 C 
BRANCH  30  31
ATOM     31  C   UNL A   1      33.221  31.375  26.702  1.00  0.00     0.116 C 
BRANCH  31  32
ATOM     32  N   UNL A   1      33.259  32.480  27.655  1.00  0.00    -0.352 N 
ATOM     33  C   UNL A   1      34.251  32.804  28.561  1.00  0.00     0.251 C 
ATOM     34  H   UNL A   1      32.473  33.073  27.653  1.00  0.00     0.163 HD
ATOM     35  O   UNL A   1      34.114  33.763  29.314  1.00  0.00    -0.269 OA
BRANCH  33  36
ATOM     36  C   UNL A   1      35.442  31.928  28.658  1.00  0.00     0.039 A 
ATOM     37  C   UNL A   1      36.707  32.478  28.435  1.00  0.00     0.014 A 
ATOM     38  C   UNL A   1      35.315  30.622  29.129  1.00  0.00     0.014 A 
ATOM     39  C   UNL A   1      37.843  31.767  28.833  1.00  0.00     0.010 A 
ATOM     40  C   UNL A   1      36.433  29.973  29.634  1.00  0.00     0.010 A 
ATOM     41  C   UNL A   1      37.710  30.547  29.513  1.00  0.00    -0.014 A 
BRANCH  41  42
ATOM     42  C   UNL A   1      38.872  29.852  30.136  1.00  0.00     0.031 A 
ATOM     43  C   UNL A   1      39.385  30.318  31.472  1.00  0.00     0.074 A 
ATOM     44  C   UNL A   1      39.541  28.902  29.447  1.00  0.00     0.049 A 
ATOM     45  N   UNL A   1      40.481  29.983  32.101  1.00  0.00    -0.248 NA
ATOM     46  C   UNL A   1      38.581  31.336  32.167  1.00  0.00     0.031 C 
ATOM     47  C   UNL A   1      39.194  28.412  28.110  1.00  0.00     0.029 A 
ATOM     48  N   UNL A   1      40.677  28.196  29.766  1.00  0.00    -0.354 N 
ATOM     49  C   UNL A   1      40.521  30.781  33.239  1.00  0.00     0.074 A 
ATOM     50  C   UNL A   1      39.366  31.650  33.186  1.00  0.00     0.031 C 
ATOM     51  C   UNL A   1      40.085  27.481  27.733  1.00  0.00     0.029 A 
ATOM     52  C   UNL A   1      41.097  27.338  28.774  1.00  0.00     0.049 A 
ATOM     53  H   UNL A   1      41.147  28.294  30.625  1.00  0.00     0.167 HD
ATOM     54  C   UNL A   1      41.425  30.774  34.248  1.00  0.00     0.034 A 
ATOM     55  C   UNL A   1      42.185  26.546  28.699  1.00  0.00     0.034 A 
ATOM     56  C   UNL A   1      42.532  29.856  34.325  1.00  0.00     0.049 A 
ATOM     57  C   UNL A   1      43.158  26.532  29.851  1.00  0.00     0.074 A 
ATOM     58  C   UNL A   1      43.423  29.667  35.367  1.00  0.00     0.029 A 
ATOM     59  N   UNL A   1      42.901  28.975  33.319  1.00  0.00    -0.354 N 
ATOM     60  N   UNL A   1      43.131  27.233  30.960  1.00  0.00    -0.248 NA
ATOM     61  C   UNL A   1      44.307  25.622  29.741  1.00  0.00     0.031 C 
ATOM     62  C   UNL A   1      44.361  28.709  34.971  1.00  0.00     0.029 A 
ATOM     63  C   UNL A   1      44.026  28.263  33.703  1.00  0.00     0.049 A 
ATOM     64  H   UNL A   1      42.433  28.869  32.460  1.00  0.00     0.167 HD
ATOM     65  C   UNL A   1      44.249  26.835  31.687  1.00  0.00     0.074 A 
ATOM     66  C   UNL A   1      44.920  25.820  30.900  1.00  0.00     0.031 C 
ATOM     67  C   UNL A   1      44.686  27.265  32.897  1.00  0.00     0.034 A 
BRANCH  54  68
ATOM     68  C   UNL A   1      41.254  31.795  35.343  1.00  0.00     0.023 A 
ATOM     69  C   UNL A   1      40.178  31.735  36.246  1.00  0.00     0.031 A 
ATOM     70  C   UNL A   1      42.169  32.853  35.472  1.00  0.00     0.131 A 
ATOM     71  C   UNL A   1      40.004  32.756  37.191  1.00  0.00     0.055 A 
ATOM     72  C   UNL A   1      42.030  33.826  36.464  1.00  0.00     0.041 A 
ATOM     73  F   UNL A   1      43.204  32.969  34.626  1.00  0.00    -0.206 F 
ATOM     74  C   UNL A   1      40.936  33.789  37.322  1.00  0.00     0.022 A 
BRANCH  71  75
ATOM     75  S   UNL A   1      38.479  32.774  38.173  1.00  0.00     0.124 S 
ATOM     76  O   UNL A   1      38.232  34.208  38.302  1.00  0.00    -0.237 OA
ATOM     77  O   UNL A   1      37.548  32.040  37.325  1.00  0.00    -0.237 OA
ATOM     78  O   UNL A   1      38.860  32.098  39.411  1.00  0.00    -0.744 OA
ENDBRANCH  71  75
ENDBRANCH  54  68
BRANCH  55  79
ATOM     79  C   UNL A   1      42.448  25.719  27.485  1.00  0.00     0.023 A 
ATOM     80  C   UNL A   1      42.029  24.381  27.416  1.00  0.00     0.031 A 
ATOM     81  C   UNL A   1      43.178  26.238  26.401  1.00  0.00     0.131 A 
ATOM     82  C   UNL A   1      42.386  23.591  26.311  1.00  0.00     0.055 A 
ATOM     83  C   UNL A   1      43.491  25.461  25.283  1.00  0.00     0.041 A 
ATOM     84  F   UNL A   1      43.596  27.514  26.413  1.00  0.00    -0.206 F 
ATOM     85  C   UNL A   1      43.107  24.124  25.241  1.00  0.00     0.022 A 
BRANCH  82  86
ATOM     86  S   UNL A   1      41.972  21.824  26.336  1.00  0.00     0.124 S 
ATOM     87  O   UNL A   1      42.875  21.289  25.323  1.00  0.00    -0.237 OA
ATOM     88  O   UNL A   1      42.272  21.464  27.717  1.00  0.00    -0.237 OA
ATOM     89  O   UNL A   1      40.554  21.802  25.982  1.00  0.00    -0.744 OA
ENDBRANCH  82  86
ENDBRANCH  55  79
BRANCH  67  90
ATOM     90  C   UNL A   1      45.927  26.616  33.446  1.00  0.00     0.023 A 
ATOM     91  C   UNL A   1      45.865  25.425  34.188  1.00  0.00     0.031 A 
ATOM     92  C   UNL A   1      47.188  27.197  33.221  1.00  0.00     0.131 A 
ATOM     93  C   UNL A   1      47.039  24.873  34.717  1.00  0.00     0.055 A 
ATOM     94  C   UNL A   1      48.359  26.616  33.708  1.00  0.00     0.041 A 
ATOM     95  F   UNL A   1      47.299  28.335  32.516  1.00  0.00    -0.206 F 
ATOM     96  C   UNL A   1      48.287  25.452  34.469  1.00  0.00     0.022 A 
BRANCH  93  97
ATOM     97  S   UNL A   1      46.912  23.410  35.781  1.00  0.00     0.124 S 
ATOM     98  O   UNL A   1      47.023  22.323  34.815  1.00  0.00    -0.237 OA
ATOM     99  O   UNL A   1      48.045  23.578  36.685  1.00  0.00    -0.237 OA
ATOM    100  O   UNL A   1      45.597  23.553  36.405  1.00  0.00    -0.744 OA
ENDBRANCH  93  97
ENDBRANCH  67  90
ENDBRANCH  41  42
ENDBRANCH  33  36
ENDBRANCH  31  32
ENDBRANCH  30  31
ENDBRANCH   1  30
TORSDOF 18
ENDMDL
