MODEL 1
REMARK VINA RESULT:     -12.2      0.000      0.000
REMARK SMILES Cc1ccc(-c2nn(-c3ccccc3)cc2[C@@H]2[NH2+][C@H](C(=O)NCCCCNC(=O)c3ccc(-c4c5nc(c(-c6cc(S(=O)(=O)[O-])ccc6F)c6ccc([nH]6)c(-c6cc(S(=O)(=O)[O-])ccc6F)c6nc(c(-c7cc(S(=O)(=O)[O-])ccc7F)c7ccc4[nH]7)C=C6)C=C5)cc3)CS2)cc1
REMARK SMILES IDX 25 1 24 2 23 3 22 4 20 5 21 6 19 8 17 9 18 10 94 11 93 14
REMARK SMILES IDX 16 15 6 16 7 17 8 18 15 19 5 20 1 21 2 22 3 23 96 24 4 25
REMARK SMILES IDX 95 26 9 27 10 28 14 29 11 30 13 31 12 32 26 33 27 34 28 35
REMARK SMILES IDX 29 37 30 38 31 39 92 40 32 41 91 42 33 43 34 44 35 45 85 46
REMARK SMILES IDX 36 47 90 48 84 49 86 50 37 51 89 52 83 53 82 54 38 56 70 57
REMARK SMILES IDX 50 58 69 59 51 60 54 61 68 62 87 63 52 64 53 65 67 67 88 68
REMARK SMILES IDX 55 69 39 70 40 71 48 72 41 73 47 74 49 75 46 76 42 77 43 78
REMARK SMILES IDX 44 79 45 80 71 81 72 82 80 83 73 84 79 85 81 86 78 87 74 88
REMARK SMILES IDX 75 89 76 90 77 91 56 92 57 93 65 94 58 95 64 96 66 97 63 98
REMARK SMILES IDX 59 99 60 100 61 101 62 102
REMARK H PARENT 22 7 18 12 18 13 27 36 86 55 54 66
REMARK Flexibility Score: inf
ROOT
ATOM      1  C   UNL A   1      34.946  31.522  28.159  1.00  0.00     0.023 C 
ENDROOT
BRANCH   1   2
ATOM      2  C   UNL A   1      34.236  30.510  27.133  1.00  0.00     0.023 C 
BRANCH   2   3
ATOM      3  C   UNL A   1      32.762  30.510  26.669  1.00  0.00     0.116 C 
BRANCH   3   4
ATOM      4  N   UNL A   1      32.003  29.270  26.549  1.00  0.00    -0.351 N 
ATOM      5  C   UNL A   1      32.505  28.041  26.158  1.00  0.00     0.279 C 
ATOM      6  O   UNL A   1      31.982  27.057  26.710  1.00  0.00    -0.268 OA
ATOM      7  H   UNL A   1      31.044  29.311  26.765  1.00  0.00     0.163 HD
BRANCH   5   8
ATOM      8  C   UNL A   1      33.540  27.760  25.017  1.00  0.00     0.283 C 
ATOM      9  C   UNL A   1      33.320  26.527  22.924  1.00  0.00     0.278 C 
ATOM     10  N   UNL A   1      33.538  26.408  24.388  1.00  0.00    -0.320 N 
ATOM     11  S   UNL A   1      34.173  28.051  22.466  1.00  0.00    -0.087 SA
ATOM     12  H   UNL A   1      34.435  25.955  24.560  1.00  0.00     0.348 HD
ATOM     13  H   UNL A   1      32.785  25.853  24.793  1.00  0.00     0.348 HD
ATOM     14  C   UNL A   1      33.608  28.885  23.972  1.00  0.00     0.151 C 
BRANCH   9  15
ATOM     15  C   UNL A   1      31.850  26.552  22.714  1.00  0.00     0.067 A 
ATOM     16  C   UNL A   1      30.897  25.642  23.264  1.00  0.00     0.103 A 
ATOM     17  N   UNL A   1      29.714  26.300  23.376  1.00  0.00    -0.167 NA
ATOM     18  N   UNL A   1      29.880  27.509  22.735  1.00  0.00    -0.240 N 
ATOM     19  C   UNL A   1      31.077  27.498  22.058  1.00  0.00     0.126 A 
BRANCH  16  20
ATOM     20  C   UNL A   1      31.189  24.288  23.846  1.00  0.00     0.003 A 
ATOM     21  C   UNL A   1      32.489  20.411  25.424  1.00  0.00     0.044 C 
ATOM     22  C   UNL A   1      32.024  21.732  24.887  1.00  0.00    -0.051 A 
ATOM     23  C   UNL A   1      31.420  22.682  25.709  1.00  0.00     0.004 A 
ATOM     24  C   UNL A   1      32.218  22.066  23.552  1.00  0.00     0.004 A 
ATOM     25  C   UNL A   1      31.022  23.938  25.197  1.00  0.00     0.011 A 
ATOM     26  C   UNL A   1      31.814  23.320  23.061  1.00  0.00     0.011 A 
ENDBRANCH  16  20
BRANCH  18  27
ATOM     27  C   UNL A   1      29.140  28.750  22.999  1.00  0.00     0.065 A 
ATOM     28  C   UNL A   1      27.737  28.859  22.973  1.00  0.00     0.028 A 
ATOM     29  C   UNL A   1      29.813  29.879  23.463  1.00  0.00     0.028 A 
ATOM     30  C   UNL A   1      27.041  30.030  23.321  1.00  0.00     0.002 A 
ATOM     31  C   UNL A   1      29.128  31.069  23.787  1.00  0.00     0.002 A 
ATOM     32  C   UNL A   1      27.746  31.156  23.695  1.00  0.00     0.000 A 
ENDBRANCH  18  27
ENDBRANCH   9  15
ENDBRANCH   5   8
ENDBRANCH   3   4
ENDBRANCH   2   3
ENDBRANCH   1   2
BRANCH   1  33
ATOM     33  C   UNL A   1      34.665  31.766  29.671  1.00  0.00     0.116 C 
BRANCH  33  34
ATOM     34  N   UNL A   1      34.447  33.123  30.193  1.00  0.00    -0.352 N 
ATOM     35  C   UNL A   1      35.325  33.998  30.860  1.00  0.00     0.251 C 
ATOM     36  H   UNL A   1      33.540  33.478  30.054  1.00  0.00     0.163 HD
ATOM     37  O   UNL A   1      34.896  35.101  31.211  1.00  0.00    -0.269 OA
BRANCH  35  38
ATOM     38  C   UNL A   1      36.776  33.698  31.144  1.00  0.00     0.039 A 
ATOM     39  C   UNL A   1      37.793  34.071  30.232  1.00  0.00     0.014 A 
ATOM     40  C   UNL A   1      37.180  32.997  32.263  1.00  0.00     0.014 A 
ATOM     41  C   UNL A   1      39.099  33.536  30.327  1.00  0.00     0.010 A 
ATOM     42  C   UNL A   1      38.440  32.446  32.342  1.00  0.00     0.010 A 
ATOM     43  C   UNL A   1      39.369  32.616  31.330  1.00  0.00    -0.014 A 
BRANCH  43  44
ATOM     44  C   UNL A   1      40.449  31.633  31.411  1.00  0.00     0.031 A 
ATOM     45  C   UNL A   1      40.467  30.428  30.558  1.00  0.00     0.074 A 
ATOM     46  C   UNL A   1      41.605  32.075  31.957  1.00  0.00     0.049 A 
ATOM     47  N   UNL A   1      41.292  29.447  30.677  1.00  0.00    -0.248 NA
ATOM     48  C   UNL A   1      39.530  30.248  29.459  1.00  0.00     0.031 C 
ATOM     49  C   UNL A   1      42.964  31.564  31.768  1.00  0.00     0.029 A 
ATOM     50  N   UNL A   1      41.791  33.106  32.859  1.00  0.00    -0.354 N 
ATOM     51  C   UNL A   1      41.202  28.662  29.545  1.00  0.00     0.074 A 
ATOM     52  C   UNL A   1      40.027  29.157  28.866  1.00  0.00     0.031 C 
ATOM     53  C   UNL A   1      43.788  32.143  32.664  1.00  0.00     0.029 A 
ATOM     54  C   UNL A   1      42.944  32.863  33.605  1.00  0.00     0.049 A 
ATOM     55  H   UNL A   1      41.202  33.888  32.960  1.00  0.00     0.167 HD
ATOM     56  C   UNL A   1      42.207  27.776  29.265  1.00  0.00     0.034 A 
ATOM     57  C   UNL A   1      42.815  32.489  34.919  1.00  0.00     0.034 A 
ATOM     58  C   UNL A   1      43.230  27.812  30.324  1.00  0.00     0.049 A 
ATOM     59  C   UNL A   1      43.199  31.048  35.146  1.00  0.00     0.074 A 
ATOM     60  C   UNL A   1      44.487  28.392  30.391  1.00  0.00     0.029 A 
ATOM     61  N   UNL A   1      42.892  27.461  31.630  1.00  0.00    -0.354 N 
ATOM     62  N   UNL A   1      43.268  30.155  34.196  1.00  0.00    -0.248 NA
ATOM     63  C   UNL A   1      43.551  30.512  36.452  1.00  0.00     0.031 C 
ATOM     64  C   UNL A   1      44.829  28.520  31.767  1.00  0.00     0.029 A 
ATOM     65  C   UNL A   1      43.813  27.966  32.531  1.00  0.00     0.049 A 
ATOM     66  H   UNL A   1      42.104  26.925  31.878  1.00  0.00     0.167 HD
ATOM     67  C   UNL A   1      43.607  28.951  34.724  1.00  0.00     0.074 A 
ATOM     68  C   UNL A   1      43.815  29.233  36.138  1.00  0.00     0.031 C 
ATOM     69  C   UNL A   1      43.630  27.810  33.972  1.00  0.00     0.034 A 
BRANCH  56  70
ATOM     70  C   UNL A   1      42.439  27.043  27.945  1.00  0.00     0.023 A 
ATOM     71  C   UNL A   1      43.727  27.081  27.358  1.00  0.00     0.031 A 
ATOM     72  C   UNL A   1      41.481  26.329  27.196  1.00  0.00     0.131 A 
ATOM     73  C   UNL A   1      43.991  26.516  26.092  1.00  0.00     0.055 A 
ATOM     74  C   UNL A   1      41.734  25.788  25.925  1.00  0.00     0.041 A 
ATOM     75  F   UNL A   1      40.257  26.068  27.659  1.00  0.00    -0.206 F 
ATOM     76  C   UNL A   1      42.993  25.885  25.361  1.00  0.00     0.022 A 
BRANCH  73  77
ATOM     77  S   UNL A   1      45.665  26.628  25.397  1.00  0.00     0.124 S 
ATOM     78  O   UNL A   1      46.490  26.713  26.599  1.00  0.00    -0.237 OA
ATOM     79  O   UNL A   1      45.765  25.393  24.627  1.00  0.00    -0.237 OA
ATOM     80  O   UNL A   1      45.619  27.850  24.595  1.00  0.00    -0.744 OA
ENDBRANCH  73  77
ENDBRANCH  56  70
BRANCH  57  81
ATOM     81  C   UNL A   1      41.665  33.170  35.586  1.00  0.00     0.023 A 
ATOM     82  C   UNL A   1      40.430  32.506  35.518  1.00  0.00     0.031 A 
ATOM     83  C   UNL A   1      41.879  34.068  36.648  1.00  0.00     0.131 A 
ATOM     84  C   UNL A   1      39.548  32.585  36.600  1.00  0.00     0.055 A 
ATOM     85  C   UNL A   1      40.970  34.166  37.705  1.00  0.00     0.041 A 
ATOM     86  F   UNL A   1      43.044  34.722  36.764  1.00  0.00    -0.206 F 
ATOM     87  C   UNL A   1      39.832  33.370  37.718  1.00  0.00     0.022 A 
BRANCH  84  88
ATOM     88  S   UNL A   1      38.166  31.446  36.686  1.00  0.00     0.124 S 
ATOM     89  O   UNL A   1      38.738  30.200  36.187  1.00  0.00    -0.237 OA
ATOM     90  O   UNL A   1      37.821  31.440  38.107  1.00  0.00    -0.237 OA
ATOM     91  O   UNL A   1      37.182  32.075  35.809  1.00  0.00    -0.744 OA
ENDBRANCH  84  88
ENDBRANCH  57  81
BRANCH  69  92
ATOM     92  C   UNL A   1      43.573  26.454  34.611  1.00  0.00     0.023 A 
ATOM     93  C   UNL A   1      44.744  25.761  34.944  1.00  0.00     0.031 A 
ATOM     94  C   UNL A   1      42.362  25.824  34.954  1.00  0.00     0.131 A 
ATOM     95  C   UNL A   1      44.704  24.434  35.370  1.00  0.00     0.055 A 
ATOM     96  C   UNL A   1      42.323  24.545  35.516  1.00  0.00     0.041 A 
ATOM     97  F   UNL A   1      41.178  26.422  34.760  1.00  0.00    -0.206 F 
ATOM     98  C   UNL A   1      43.497  23.820  35.684  1.00  0.00     0.022 A 
BRANCH  95  99
ATOM     99  S   UNL A   1      46.254  23.502  35.322  1.00  0.00     0.124 S 
ATOM    100  O   UNL A   1      47.233  24.573  35.123  1.00  0.00    -0.237 OA
ATOM    101  O   UNL A   1      46.282  22.870  36.644  1.00  0.00    -0.237 OA
ATOM    102  O   UNL A   1      46.079  22.598  34.201  1.00  0.00    -0.744 OA
ENDBRANCH  95  99
ENDBRANCH  69  92
ENDBRANCH  43  44
ENDBRANCH  35  38
ENDBRANCH  33  34
ENDBRANCH   1  33
TORSDOF 17
ENDMDL
MODEL 2
REMARK VINA RESULT:     -12.1      3.961      9.026
REMARK SMILES Cc1ccc(-c2nn(-c3ccccc3)cc2[C@@H]2[NH2+][C@H](C(=O)NCCCCNC(=O)c3ccc(-c4c5nc(c(-c6cc(S(=O)(=O)[O-])ccc6F)c6ccc([nH]6)c(-c6cc(S(=O)(=O)[O-])ccc6F)c6nc(c(-c7cc(S(=O)(=O)[O-])ccc7F)c7ccc4[nH]7)C=C6)C=C5)cc3)CS2)cc1
REMARK SMILES IDX 25 1 24 2 23 3 22 4 20 5 21 6 19 8 17 9 18 10 94 11 93 14
REMARK SMILES IDX 16 15 6 16 7 17 8 18 15 19 5 20 1 21 2 22 3 23 96 24 4 25
REMARK SMILES IDX 95 26 9 27 10 28 14 29 11 30 13 31 12 32 26 33 27 34 28 35
REMARK SMILES IDX 29 37 30 38 31 39 92 40 32 41 91 42 33 43 34 44 35 45 85 46
REMARK SMILES IDX 36 47 90 48 84 49 86 50 37 51 89 52 83 53 82 54 38 56 70 57
REMARK SMILES IDX 50 58 69 59 51 60 54 61 68 62 87 63 52 64 53 65 67 67 88 68
REMARK SMILES IDX 55 69 39 70 40 71 48 72 41 73 47 74 49 75 46 76 42 77 43 78
REMARK SMILES IDX 44 79 45 80 71 81 72 82 80 83 73 84 79 85 81 86 78 87 74 88
REMARK SMILES IDX 75 89 76 90 77 91 56 92 57 93 65 94 58 95 64 96 66 97 63 98
REMARK SMILES IDX 59 99 60 100 61 101 62 102
REMARK H PARENT 22 7 18 12 18 13 27 36 86 55 54 66
REMARK Flexibility Score: inf
ROOT
ATOM      1  C   UNL A   1      39.549  25.292  27.297  1.00  0.00     0.023 C 
ENDROOT
BRANCH   1   2
ATOM      2  C   UNL A   1      38.562  24.107  26.847  1.00  0.00     0.023 C 
BRANCH   2   3
ATOM      3  C   UNL A   1      38.060  23.781  25.423  1.00  0.00     0.116 C 
BRANCH   3   4
ATOM      4  N   UNL A   1      37.326  22.553  25.138  1.00  0.00    -0.351 N 
ATOM      5  C   UNL A   1      35.963  22.364  25.285  1.00  0.00     0.279 C 
ATOM      6  O   UNL A   1      35.442  21.607  24.447  1.00  0.00    -0.268 OA
ATOM      7  H   UNL A   1      37.849  21.785  24.812  1.00  0.00     0.163 HD
BRANCH   5   8
ATOM      8  C   UNL A   1      35.056  22.879  26.452  1.00  0.00     0.283 C 
ATOM      9  C   UNL A   1      32.680  23.428  26.512  1.00  0.00     0.278 C 
ATOM     10  N   UNL A   1      34.032  23.916  26.138  1.00  0.00    -0.320 N 
ATOM     11  S   UNL A   1      32.955  22.440  27.998  1.00  0.00    -0.087 SA
ATOM     12  H   UNL A   1      34.242  24.765  26.662  1.00  0.00     0.348 HD
ATOM     13  H   UNL A   1      34.051  24.110  25.138  1.00  0.00     0.348 HD
ATOM     14  C   UNL A   1      34.486  21.745  27.320  1.00  0.00     0.151 C 
BRANCH   9  15
ATOM     15  C   UNL A   1      32.167  22.664  25.346  1.00  0.00     0.067 A 
ATOM     16  C   UNL A   1      32.159  23.095  23.984  1.00  0.00     0.103 A 
ATOM     17  N   UNL A   1      32.213  21.987  23.201  1.00  0.00    -0.167 NA
ATOM     18  N   UNL A   1      32.058  20.907  24.044  1.00  0.00    -0.240 N 
ATOM     19  C   UNL A   1      31.702  21.359  25.293  1.00  0.00     0.126 A 
BRANCH  16  20
ATOM     20  C   UNL A   1      32.314  24.506  23.494  1.00  0.00     0.003 A 
ATOM     21  C   UNL A   1      32.749  28.756  22.514  1.00  0.00     0.044 C 
ATOM     22  C   UNL A   1      32.598  27.298  22.829  1.00  0.00    -0.051 A 
ATOM     23  C   UNL A   1      33.576  26.369  22.473  1.00  0.00     0.004 A 
ATOM     24  C   UNL A   1      31.489  26.830  23.523  1.00  0.00     0.004 A 
ATOM     25  C   UNL A   1      33.438  25.003  22.811  1.00  0.00     0.011 A 
ATOM     26  C   UNL A   1      31.369  25.468  23.849  1.00  0.00     0.011 A 
ENDBRANCH  16  20
BRANCH  18  27
ATOM     27  C   UNL A   1      32.542  19.539  23.814  1.00  0.00     0.065 A 
ATOM     28  C   UNL A   1      32.341  18.815  22.624  1.00  0.00     0.028 A 
ATOM     29  C   UNL A   1      33.392  18.935  24.739  1.00  0.00     0.028 A 
ATOM     30  C   UNL A   1      32.891  17.544  22.385  1.00  0.00     0.002 A 
ATOM     31  C   UNL A   1      33.927  17.648  24.522  1.00  0.00     0.002 A 
ATOM     32  C   UNL A   1      33.660  16.940  23.358  1.00  0.00     0.000 A 
ENDBRANCH  18  27
ENDBRANCH   9  15
ENDBRANCH   5   8
ENDBRANCH   3   4
ENDBRANCH   2   3
ENDBRANCH   1   2
BRANCH   1  33
ATOM     33  C   UNL A   1      40.381  25.450  28.604  1.00  0.00     0.116 C 
BRANCH  33  34
ATOM     34  N   UNL A   1      41.800  25.832  28.559  1.00  0.00    -0.352 N 
ATOM     35  C   UNL A   1      42.436  27.033  28.922  1.00  0.00     0.251 C 
ATOM     36  H   UNL A   1      42.404  25.132  28.220  1.00  0.00     0.163 HD
ATOM     37  O   UNL A   1      43.660  27.112  28.783  1.00  0.00    -0.269 OA
BRANCH  35  38
ATOM     38  C   UNL A   1      41.729  28.229  29.511  1.00  0.00     0.039 A 
ATOM     39  C   UNL A   1      41.768  29.492  28.871  1.00  0.00     0.014 A 
ATOM     40  C   UNL A   1      41.068  28.174  30.721  1.00  0.00     0.014 A 
ATOM     41  C   UNL A   1      41.383  30.672  29.547  1.00  0.00     0.010 A 
ATOM     42  C   UNL A   1      40.724  29.324  31.398  1.00  0.00     0.010 A 
ATOM     43  C   UNL A   1      40.978  30.578  30.870  1.00  0.00    -0.014 A 
BRANCH  43  44
ATOM     44  C   UNL A   1      40.928  31.621  31.895  1.00  0.00     0.031 A 
ATOM     45  C   UNL A   1      42.051  31.848  32.826  1.00  0.00     0.074 A 
ATOM     46  C   UNL A   1      40.036  32.615  31.678  1.00  0.00     0.049 A 
ATOM     47  N   UNL A   1      42.022  32.634  33.846  1.00  0.00    -0.248 NA
ATOM     48  C   UNL A   1      43.339  31.192  32.655  1.00  0.00     0.031 C 
ATOM     49  C   UNL A   1      40.048  33.986  32.191  1.00  0.00     0.029 A 
ATOM     50  N   UNL A   1      38.869  32.576  30.939  1.00  0.00    -0.354 N 
ATOM     51  C   UNL A   1      43.316  32.816  34.291  1.00  0.00     0.074 A 
ATOM     52  C   UNL A   1      44.080  31.824  33.571  1.00  0.00     0.031 C 
ATOM     53  C   UNL A   1      38.865  34.574  31.918  1.00  0.00     0.029 A 
ATOM     54  C   UNL A   1      37.978  33.528  31.433  1.00  0.00     0.049 A 
ATOM     55  H   UNL A   1      38.693  31.971  30.182  1.00  0.00     0.167 HD
ATOM     56  C   UNL A   1      43.594  33.868  35.122  1.00  0.00     0.034 A 
ATOM     57  C   UNL A   1      36.881  33.104  32.139  1.00  0.00     0.034 A 
ATOM     58  C   UNL A   1      42.364  34.619  35.426  1.00  0.00     0.049 A 
ATOM     59  C   UNL A   1      36.976  33.440  33.607  1.00  0.00     0.074 A 
ATOM     60  C   UNL A   1      41.860  35.820  34.953  1.00  0.00     0.029 A 
ATOM     61  N   UNL A   1      41.315  33.991  36.096  1.00  0.00    -0.354 N 
ATOM     62  N   UNL A   1      38.093  33.736  34.214  1.00  0.00    -0.248 NA
ATOM     63  C   UNL A   1      35.822  33.487  34.492  1.00  0.00     0.031 C 
ATOM     64  C   UNL A   1      40.461  35.833  35.217  1.00  0.00     0.029 A 
ATOM     65  C   UNL A   1      40.127  34.674  35.902  1.00  0.00     0.049 A 
ATOM     66  H   UNL A   1      41.407  33.173  36.637  1.00  0.00     0.167 HD
ATOM     67  C   UNL A   1      37.853  33.957  35.532  1.00  0.00     0.074 A 
ATOM     68  C   UNL A   1      36.407  33.830  35.651  1.00  0.00     0.031 C 
ATOM     69  C   UNL A   1      38.863  34.165  36.429  1.00  0.00     0.034 A 
BRANCH  56  70
ATOM     70  C   UNL A   1      44.977  34.407  35.485  1.00  0.00     0.023 A 
ATOM     71  C   UNL A   1      45.803  34.920  34.456  1.00  0.00     0.031 A 
ATOM     72  C   UNL A   1      45.565  34.429  36.767  1.00  0.00     0.131 A 
ATOM     73  C   UNL A   1      47.129  35.340  34.698  1.00  0.00     0.055 A 
ATOM     74  C   UNL A   1      46.892  34.821  37.006  1.00  0.00     0.041 A 
ATOM     75  F   UNL A   1      44.886  34.118  37.873  1.00  0.00    -0.206 F 
ATOM     76  C   UNL A   1      47.686  35.274  35.969  1.00  0.00     0.022 A 
BRANCH  73  77
ATOM     77  S   UNL A   1      48.132  35.964  33.319  1.00  0.00     0.124 S 
ATOM     78  O   UNL A   1      47.135  36.132  32.267  1.00  0.00    -0.237 OA
ATOM     79  O   UNL A   1      48.700  37.187  33.877  1.00  0.00    -0.237 OA
ATOM     80  O   UNL A   1      49.096  34.889  33.087  1.00  0.00    -0.744 OA
ENDBRANCH  73  77
ENDBRANCH  56  70
BRANCH  57  81
ATOM     81  C   UNL A   1      36.330  31.823  31.603  1.00  0.00     0.023 A 
ATOM     82  C   UNL A   1      35.654  31.907  30.376  1.00  0.00     0.031 A 
ATOM     83  C   UNL A   1      36.898  30.589  31.965  1.00  0.00     0.131 A 
ATOM     84  C   UNL A   1      35.747  30.849  29.466  1.00  0.00     0.055 A 
ATOM     85  C   UNL A   1      36.951  29.524  31.060  1.00  0.00     0.041 A 
ATOM     86  F   UNL A   1      37.561  30.455  33.122  1.00  0.00    -0.206 F 
ATOM     87  C   UNL A   1      36.436  29.677  29.779  1.00  0.00     0.022 A 
BRANCH  84  88
ATOM     88  S   UNL A   1      35.223  31.105  27.771  1.00  0.00     0.124 S 
ATOM     89  O   UNL A   1      33.775  30.948  27.850  1.00  0.00    -0.237 OA
ATOM     90  O   UNL A   1      35.681  32.462  27.476  1.00  0.00    -0.237 OA
ATOM     91  O   UNL A   1      35.926  30.042  27.059  1.00  0.00    -0.744 OA
ENDBRANCH  84  88
ENDBRANCH  57  81
BRANCH  69  92
ATOM     92  C   UNL A   1      38.649  33.977  37.901  1.00  0.00     0.023 A 
ATOM     93  C   UNL A   1      38.242  32.741  38.421  1.00  0.00     0.031 A 
ATOM     94  C   UNL A   1      38.886  34.996  38.842  1.00  0.00     0.131 A 
ATOM     95  C   UNL A   1      37.870  32.605  39.758  1.00  0.00     0.055 A 
ATOM     96  C   UNL A   1      38.649  34.818  40.208  1.00  0.00     0.041 A 
ATOM     97  F   UNL A   1      39.356  36.198  38.475  1.00  0.00    -0.206 F 
ATOM     98  C   UNL A   1      38.091  33.631  40.670  1.00  0.00     0.022 A 
BRANCH  95  99
ATOM     99  S   UNL A   1      36.932  31.126  40.210  1.00  0.00     0.124 S 
ATOM    100  O   UNL A   1      36.800  30.456  38.914  1.00  0.00    -0.237 OA
ATOM    101  O   UNL A   1      37.827  30.466  41.164  1.00  0.00    -0.237 OA
ATOM    102  O   UNL A   1      35.701  31.654  40.768  1.00  0.00    -0.744 OA
ENDBRANCH  95  99
ENDBRANCH  69  92
ENDBRANCH  43  44
ENDBRANCH  35  38
ENDBRANCH  33  34
ENDBRANCH   1  33
TORSDOF 17
ENDMDL
MODEL 3
REMARK VINA RESULT:     -12.0      5.386      9.096
REMARK SMILES Cc1ccc(-c2nn(-c3ccccc3)cc2[C@@H]2[NH2+][C@H](C(=O)NCCCCNC(=O)c3ccc(-c4c5nc(c(-c6cc(S(=O)(=O)[O-])ccc6F)c6ccc([nH]6)c(-c6cc(S(=O)(=O)[O-])ccc6F)c6nc(c(-c7cc(S(=O)(=O)[O-])ccc7F)c7ccc4[nH]7)C=C6)C=C5)cc3)CS2)cc1
REMARK SMILES IDX 25 1 24 2 23 3 22 4 20 5 21 6 19 8 17 9 18 10 94 11 93 14
REMARK SMILES IDX 16 15 6 16 7 17 8 18 15 19 5 20 1 21 2 22 3 23 96 24 4 25
REMARK SMILES IDX 95 26 9 27 10 28 14 29 11 30 13 31 12 32 26 33 27 34 28 35
REMARK SMILES IDX 29 37 30 38 31 39 92 40 32 41 91 42 33 43 34 44 35 45 85 46
REMARK SMILES IDX 36 47 90 48 84 49 86 50 37 51 89 52 83 53 82 54 38 56 70 57
REMARK SMILES IDX 50 58 69 59 51 60 54 61 68 62 87 63 52 64 53 65 67 67 88 68
REMARK SMILES IDX 55 69 39 70 40 71 48 72 41 73 47 74 49 75 46 76 42 77 43 78
REMARK SMILES IDX 44 79 45 80 71 81 72 82 80 83 73 84 79 85 81 86 78 87 74 88
REMARK SMILES IDX 75 89 76 90 77 91 56 92 57 93 65 94 58 95 64 96 66 97 63 98
REMARK SMILES IDX 59 99 60 100 61 101 62 102
REMARK H PARENT 22 7 18 12 18 13 27 36 86 55 54 66
REMARK Flexibility Score: inf
ROOT
ATOM      1  C   UNL A   1      40.099  33.516  31.670  1.00  0.00     0.023 C 
ENDROOT
BRANCH   1   2
ATOM      2  C   UNL A   1      39.410  33.967  30.291  1.00  0.00     0.023 C 
BRANCH   2   3
ATOM      3  C   UNL A   1      38.146  33.378  29.625  1.00  0.00     0.116 C 
BRANCH   3   4
ATOM      4  N   UNL A   1      36.971  34.202  29.364  1.00  0.00    -0.351 N 
ATOM      5  C   UNL A   1      35.722  33.745  28.984  1.00  0.00     0.279 C 
ATOM      6  O   UNL A   1      34.762  34.399  29.428  1.00  0.00    -0.268 OA
ATOM      7  H   UNL A   1      37.077  35.176  29.466  1.00  0.00     0.163 HD
BRANCH   5   8
ATOM      8  C   UNL A   1      35.402  32.602  27.963  1.00  0.00     0.283 C 
ATOM      9  C   UNL A   1      36.057  30.252  27.931  1.00  0.00     0.278 C 
ATOM     10  N   UNL A   1      36.490  31.640  27.626  1.00  0.00    -0.320 N 
ATOM     11  S   UNL A   1      34.294  30.238  27.544  1.00  0.00    -0.087 SA
ATOM     12  H   UNL A   1      36.710  31.715  26.633  1.00  0.00     0.348 HD
ATOM     13  H   UNL A   1      37.315  31.862  28.182  1.00  0.00     0.348 HD
ATOM     14  C   UNL A   1      34.068  31.893  28.247  1.00  0.00     0.151 C 
BRANCH   9  15
ATOM     15  C   UNL A   1      36.379  30.013  29.361  1.00  0.00     0.067 A 
ATOM     16  C   UNL A   1      37.606  29.497  29.882  1.00  0.00     0.103 A 
ATOM     17  N   UNL A   1      37.757  29.983  31.141  1.00  0.00    -0.167 NA
ATOM     18  N   UNL A   1      36.573  30.614  31.458  1.00  0.00    -0.240 N 
ATOM     19  C   UNL A   1      35.639  30.332  30.489  1.00  0.00     0.126 A 
BRANCH  16  20
ATOM     20  C   UNL A   1      38.661  28.757  29.111  1.00  0.00     0.003 A 
ATOM     21  C   UNL A   1      41.392  26.340  26.679  1.00  0.00     0.044 C 
ATOM     22  C   UNL A   1      40.474  27.176  27.520  1.00  0.00    -0.051 A 
ATOM     23  C   UNL A   1      40.390  28.558  27.357  1.00  0.00     0.004 A 
ATOM     24  C   UNL A   1      39.645  26.588  28.470  1.00  0.00     0.004 A 
ATOM     25  C   UNL A   1      39.492  29.328  28.130  1.00  0.00     0.011 A 
ATOM     26  C   UNL A   1      38.759  27.371  29.230  1.00  0.00     0.011 A 
ENDBRANCH  16  20
BRANCH  18  27
ATOM     27  C   UNL A   1      36.394  31.705  32.426  1.00  0.00     0.065 A 
ATOM     28  C   UNL A   1      35.291  32.578  32.444  1.00  0.00     0.028 A 
ATOM     29  C   UNL A   1      37.262  31.825  33.511  1.00  0.00     0.028 A 
ATOM     30  C   UNL A   1      35.087  33.555  33.434  1.00  0.00     0.002 A 
ATOM     31  C   UNL A   1      37.084  32.821  34.494  1.00  0.00     0.002 A 
ATOM     32  C   UNL A   1      36.012  33.702  34.447  1.00  0.00     0.000 A 
ENDBRANCH  18  27
ENDBRANCH   9  15
ENDBRANCH   5   8
ENDBRANCH   3   4
ENDBRANCH   2   3
ENDBRANCH   1   2
BRANCH   1  33
ATOM     33  C   UNL A   1      40.815  32.182  32.034  1.00  0.00     0.116 C 
BRANCH  33  34
ATOM     34  N   UNL A   1      40.587  31.527  33.331  1.00  0.00    -0.352 N 
ATOM     35  C   UNL A   1      40.913  30.231  33.772  1.00  0.00     0.251 C 
ATOM     36  H   UNL A   1      40.132  32.087  34.001  1.00  0.00     0.163 HD
ATOM     37  O   UNL A   1      40.605  29.910  34.923  1.00  0.00    -0.269 OA
BRANCH  35  38
ATOM     38  C   UNL A   1      41.653  29.210  32.944  1.00  0.00     0.039 A 
ATOM     39  C   UNL A   1      43.000  28.875  33.227  1.00  0.00     0.014 A 
ATOM     40  C   UNL A   1      41.087  28.601  31.842  1.00  0.00     0.014 A 
ATOM     41  C   UNL A   1      43.793  28.167  32.295  1.00  0.00     0.010 A 
ATOM     42  C   UNL A   1      41.863  27.941  30.915  1.00  0.00     0.010 A 
ATOM     43  C   UNL A   1      43.232  27.815  31.076  1.00  0.00    -0.014 A 
BRANCH  43  44
ATOM     44  C   UNL A   1      43.900  27.470  29.821  1.00  0.00     0.031 A 
ATOM     45  C   UNL A   1      44.063  26.067  29.389  1.00  0.00     0.074 A 
ATOM     46  C   UNL A   1      43.964  28.458  28.899  1.00  0.00     0.049 A 
ATOM     47  N   UNL A   1      44.769  25.677  28.385  1.00  0.00    -0.248 NA
ATOM     48  C   UNL A   1      43.403  24.967  30.077  1.00  0.00     0.031 C 
ATOM     49  C   UNL A   1      44.104  28.350  27.446  1.00  0.00     0.029 A 
ATOM     50  N   UNL A   1      43.944  29.825  29.102  1.00  0.00    -0.354 N 
ATOM     51  C   UNL A   1      44.449  24.362  28.114  1.00  0.00     0.074 A 
ATOM     52  C   UNL A   1      43.664  23.947  29.253  1.00  0.00     0.031 C 
ATOM     53  C   UNL A   1      44.353  29.570  26.929  1.00  0.00     0.029 A 
ATOM     54  C   UNL A   1      44.613  30.456  28.053  1.00  0.00     0.049 A 
ATOM     55  H   UNL A   1      43.525  30.282  29.867  1.00  0.00     0.167 HD
ATOM     56  C   UNL A   1      44.786  23.831  26.898  1.00  0.00     0.034 A 
ATOM     57  C   UNL A   1      45.847  31.006  28.291  1.00  0.00     0.034 A 
ATOM     58  C   UNL A   1      45.508  24.826  26.087  1.00  0.00     0.049 A 
ATOM     59  C   UNL A   1      46.957  30.237  27.619  1.00  0.00     0.074 A 
ATOM     60  C   UNL A   1      45.119  25.630  25.027  1.00  0.00     0.029 A 
ATOM     61  N   UNL A   1      46.730  25.329  26.530  1.00  0.00    -0.354 N 
ATOM     62  N   UNL A   1      46.839  29.007  27.197  1.00  0.00    -0.248 NA
ATOM     63  C   UNL A   1      48.273  30.800  27.356  1.00  0.00     0.031 C 
ATOM     64  C   UNL A   1      46.045  26.707  24.941  1.00  0.00     0.029 A 
ATOM     65  C   UNL A   1      47.028  26.527  25.904  1.00  0.00     0.049 A 
ATOM     66  H   UNL A   1      47.305  24.891  27.199  1.00  0.00     0.167 HD
ATOM     67  C   UNL A   1      48.019  28.588  26.670  1.00  0.00     0.074 A 
ATOM     68  C   UNL A   1      48.877  29.763  26.754  1.00  0.00     0.031 C 
ATOM     69  C   UNL A   1      48.214  27.298  26.264  1.00  0.00     0.034 A 
BRANCH  56  70
ATOM     70  C   UNL A   1      44.277  22.520  26.299  1.00  0.00     0.023 A 
ATOM     71  C   UNL A   1      42.944  22.121  26.558  1.00  0.00     0.031 A 
ATOM     72  C   UNL A   1      45.014  21.610  25.512  1.00  0.00     0.131 A 
ATOM     73  C   UNL A   1      42.436  20.877  26.126  1.00  0.00     0.055 A 
ATOM     74  C   UNL A   1      44.520  20.361  25.103  1.00  0.00     0.041 A 
ATOM     75  F   UNL A   1      46.236  21.884  25.051  1.00  0.00    -0.206 F 
ATOM     76  C   UNL A   1      43.226  19.983  25.414  1.00  0.00     0.022 A 
BRANCH  73  77
ATOM     77  S   UNL A   1      40.721  20.428  26.519  1.00  0.00     0.124 S 
ATOM     78  O   UNL A   1      40.778  20.244  27.966  1.00  0.00    -0.237 OA
ATOM     79  O   UNL A   1      39.979  21.590  26.041  1.00  0.00    -0.237 OA
ATOM     80  O   UNL A   1      40.507  19.202  25.751  1.00  0.00    -0.744 OA
ENDBRANCH  73  77
ENDBRANCH  56  70
BRANCH  57  81
ATOM     81  C   UNL A   1      45.942  31.602  29.657  1.00  0.00     0.023 A 
ATOM     82  C   UNL A   1      46.652  30.854  30.609  1.00  0.00     0.031 A 
ATOM     83  C   UNL A   1      45.845  32.993  29.843  1.00  0.00     0.131 A 
ATOM     84  C   UNL A   1      47.412  31.519  31.577  1.00  0.00     0.055 A 
ATOM     85  C   UNL A   1      46.580  33.642  30.839  1.00  0.00     0.041 A 
ATOM     86  F   UNL A   1      45.185  33.755  28.959  1.00  0.00    -0.206 F 
ATOM     87  C   UNL A   1      47.422  32.911  31.667  1.00  0.00     0.022 A 
BRANCH  84  88
ATOM     88  S   UNL A   1      48.611  30.593  32.535  1.00  0.00     0.124 S 
ATOM     89  O   UNL A   1      48.301  30.978  33.907  1.00  0.00    -0.237 OA
ATOM     90  O   UNL A   1      48.309  29.202  32.202  1.00  0.00    -0.237 OA
ATOM     91  O   UNL A   1      49.882  31.094  32.019  1.00  0.00    -0.744 OA
ENDBRANCH  84  88
ENDBRANCH  57  81
BRANCH  69  92
ATOM     92  C   UNL A   1      49.594  26.734  26.099  1.00  0.00     0.023 A 
ATOM     93  C   UNL A   1      50.455  27.208  25.100  1.00  0.00     0.031 A 
ATOM     94  C   UNL A   1      50.120  25.746  26.951  1.00  0.00     0.131 A 
ATOM     95  C   UNL A   1      51.664  26.571  24.824  1.00  0.00     0.055 A 
ATOM     96  C   UNL A   1      51.394  25.203  26.764  1.00  0.00     0.041 A 
ATOM     97  F   UNL A   1      49.422  25.271  27.994  1.00  0.00    -0.206 F 
ATOM     98  C   UNL A   1      52.159  25.581  25.665  1.00  0.00     0.022 A 
BRANCH  95  99
ATOM     99  S   UNL A   1      52.462  26.957  23.248  1.00  0.00     0.124 S 
ATOM    100  O   UNL A   1      53.440  25.872  23.141  1.00  0.00    -0.237 OA
ATOM    101  O   UNL A   1      51.345  26.884  22.303  1.00  0.00    -0.237 OA
ATOM    102  O   UNL A   1      53.019  28.281  23.456  1.00  0.00    -0.744 OA
ENDBRANCH  95  99
ENDBRANCH  69  92
ENDBRANCH  43  44
ENDBRANCH  35  38
ENDBRANCH  33  34
ENDBRANCH   1  33
TORSDOF 17
ENDMDL
