MODEL 1
REMARK VINA RESULT:     -13.2      0.000      0.000
REMARK SMILES O=C(NCCCCNC(=O)c1ccc(-c2c3nc(c(-c4cc(S(=O)(=O)[O-])ccc4F)c4ccc([nH]4)c(-c4cc(S(=O)(=O)[O-])ccc4F)c4nc(c(-c5cc(S(=O)(=O)[O-])ccc5F)c5ccc2[nH]5)C=C4)C=C3)cc1)C1=Cc2c(ccc(Cl)c2Cl)O[C@H]1C(F)(F)F
REMARK SMILES IDX 6 1 5 2 4 3 3 4 1 5 2 6 74 8 75 9 85 10 76 11 84 12 77 13
REMARK SMILES IDX 82 14 78 15 80 16 83 17 79 18 81 19 86 20 87 21 88 22 89 23
REMARK SMILES IDX 7 24 8 25 9 26 10 28 11 29 12 30 73 31 13 32 72 33 14 34
REMARK SMILES IDX 15 35 16 36 66 37 17 38 71 39 65 40 67 41 18 42 70 43 64 44
REMARK SMILES IDX 63 45 19 47 51 48 31 49 50 50 32 51 35 52 49 53 68 54 33 55
REMARK SMILES IDX 34 56 48 58 69 59 36 60 20 61 21 62 29 63 22 64 28 65 30 66
REMARK SMILES IDX 27 67 23 68 24 69 25 70 26 71 52 72 53 73 61 74 54 75 60 76
REMARK SMILES IDX 62 77 59 78 55 79 56 80 57 81 58 82 37 83 38 84 46 85 39 86
REMARK SMILES IDX 45 87 47 88 44 89 40 90 41 91 42 92 43 93
REMARK H PARENT 3 7 8 27 67 46 35 57
REMARK Flexibility Score: inf
ROOT
ATOM      1  C   UNL A   1      35.948  20.929  25.347  1.00  0.00     0.023 C 
ENDROOT
BRANCH   1   2
ATOM      2  C   UNL A   1      35.099  21.717  26.340  1.00  0.00     0.023 C 
BRANCH   2   3
ATOM      3  C   UNL A   1      33.806  21.051  26.790  1.00  0.00     0.116 C 
BRANCH   3   4
ATOM      4  N   UNL A   1      32.830  21.926  27.415  1.00  0.00    -0.352 N 
ATOM      5  O   UNL A   1      31.444  23.708  27.557  1.00  0.00    -0.270 OA
ATOM      6  C   UNL A   1      32.203  23.024  26.879  1.00  0.00     0.251 C 
ATOM      7  H   UNL A   1      32.586  21.705  28.342  1.00  0.00     0.163 HD
BRANCH   6   8
ATOM      8  C   UNL A   1      32.477  23.423  25.471  1.00  0.00     0.067 C 
ATOM      9  C   UNL A   1      33.072  24.616  25.315  1.00  0.00     0.027 C 
ATOM     10  C   UNL A   1      31.529  22.864  24.445  1.00  0.00     0.314 C 
ATOM     11  C   UNL A   1      32.198  25.631  24.692  1.00  0.00     0.037 A 
ATOM     12  O   UNL A   1      30.844  23.881  23.654  1.00  0.00    -0.475 OA
ATOM     13  C   UNL A   1      31.089  25.197  23.951  1.00  0.00     0.129 A 
ATOM     14  C   UNL A   1      32.343  26.998  25.006  1.00  0.00     0.070 A 
ATOM     15  C   UNL A   1      30.109  26.105  23.559  1.00  0.00     0.049 A 
ATOM     16  C   UNL A   1      31.336  27.898  24.635  1.00  0.00     0.060 A 
ATOM     17  Cl  UNL A   1      33.719  27.530  25.923  1.00  0.00    -0.082 Cl
ATOM     18  C   UNL A   1      30.217  27.447  23.927  1.00  0.00     0.026 A 
ATOM     19  Cl  UNL A   1      31.381  29.568  25.073  1.00  0.00    -0.083 Cl
BRANCH  10  20
ATOM     20  C   UNL A   1      32.228  21.845  23.520  1.00  0.00     0.429 C 
ATOM     21  F   UNL A   1      32.260  20.593  24.031  1.00  0.00    -0.167 F 
ATOM     22  F   UNL A   1      31.598  21.769  22.321  1.00  0.00    -0.167 F 
ATOM     23  F   UNL A   1      33.515  22.189  23.265  1.00  0.00    -0.167 F 
ENDBRANCH  10  20
ENDBRANCH   6   8
ENDBRANCH   3   4
ENDBRANCH   2   3
ENDBRANCH   1   2
BRANCH   1  24
ATOM     24  C   UNL A   1      37.354  21.462  25.065  1.00  0.00     0.116 C 
BRANCH  24  25
ATOM     25  N   UNL A   1      38.434  20.547  25.407  1.00  0.00    -0.352 N 
ATOM     26  C   UNL A   1      39.572  20.775  26.159  1.00  0.00     0.251 C 
ATOM     27  H   UNL A   1      38.340  19.634  25.051  1.00  0.00     0.163 HD
ATOM     28  O   UNL A   1      40.387  19.877  26.306  1.00  0.00    -0.269 OA
BRANCH  26  29
ATOM     29  C   UNL A   1      39.828  22.127  26.715  1.00  0.00     0.039 A 
ATOM     30  C   UNL A   1      40.827  22.275  27.681  1.00  0.00     0.014 A 
ATOM     31  C   UNL A   1      39.152  23.250  26.232  1.00  0.00     0.014 A 
ATOM     32  C   UNL A   1      41.239  23.557  28.062  1.00  0.00     0.010 A 
ATOM     33  C   UNL A   1      39.615  24.525  26.555  1.00  0.00     0.010 A 
ATOM     34  C   UNL A   1      40.685  24.693  27.448  1.00  0.00    -0.014 A 
BRANCH  34  35
ATOM     35  C   UNL A   1      41.255  26.050  27.674  1.00  0.00     0.031 A 
ATOM     36  C   UNL A   1      42.628  26.397  27.172  1.00  0.00     0.074 A 
ATOM     37  C   UNL A   1      40.569  26.940  28.421  1.00  0.00     0.049 A 
ATOM     38  N   UNL A   1      43.326  27.490  27.356  1.00  0.00    -0.248 NA
ATOM     39  C   UNL A   1      43.320  25.366  26.386  1.00  0.00     0.031 C 
ATOM     40  C   UNL A   1      39.253  26.704  29.023  1.00  0.00     0.029 A 
ATOM     41  N   UNL A   1      40.885  28.217  28.817  1.00  0.00    -0.354 N 
ATOM     42  C   UNL A   1      44.547  27.271  26.727  1.00  0.00     0.074 A 
ATOM     43  C   UNL A   1      44.509  25.922  26.203  1.00  0.00     0.031 C 
ATOM     44  C   UNL A   1      38.871  27.803  29.693  1.00  0.00     0.029 A 
ATOM     45  C   UNL A   1      39.924  28.808  29.607  1.00  0.00     0.049 A 
ATOM     46  H   UNL A   1      41.722  28.668  28.561  1.00  0.00     0.167 HD
ATOM     47  C   UNL A   1      45.595  28.123  26.586  1.00  0.00     0.034 A 
ATOM     48  C   UNL A   1      39.897  30.015  30.205  1.00  0.00     0.034 A 
ATOM     49  C   UNL A   1      45.613  29.472  27.099  1.00  0.00     0.049 A 
ATOM     50  C   UNL A   1      41.064  30.950  30.021  1.00  0.00     0.074 A 
ATOM     51  C   UNL A   1      46.595  30.437  26.952  1.00  0.00     0.029 A 
ATOM     52  N   UNL A   1      44.608  30.046  27.865  1.00  0.00    -0.354 N 
ATOM     53  N   UNL A   1      42.188  30.748  29.372  1.00  0.00    -0.248 NA
ATOM     54  C   UNL A   1      40.953  32.278  30.638  1.00  0.00     0.031 C 
ATOM     55  C   UNL A   1      46.210  31.572  27.674  1.00  0.00     0.029 A 
ATOM     56  C   UNL A   1      44.956  31.342  28.217  1.00  0.00     0.049 A 
ATOM     57  H   UNL A   1      43.769  29.600  28.120  1.00  0.00     0.167 HD
ATOM     58  C   UNL A   1      42.906  31.934  29.483  1.00  0.00     0.074 A 
ATOM     59  C   UNL A   1      42.083  32.849  30.247  1.00  0.00     0.031 C 
ATOM     60  C   UNL A   1      44.134  32.241  28.992  1.00  0.00     0.034 A 
BRANCH  47  61
ATOM     61  C   UNL A   1      46.814  27.602  25.864  1.00  0.00     0.023 A 
ATOM     62  C   UNL A   1      47.091  27.959  24.533  1.00  0.00     0.031 A 
ATOM     63  C   UNL A   1      47.696  26.714  26.504  1.00  0.00     0.131 A 
ATOM     64  C   UNL A   1      48.172  27.371  23.860  1.00  0.00     0.055 A 
ATOM     65  C   UNL A   1      48.818  26.194  25.854  1.00  0.00     0.041 A 
ATOM     66  F   UNL A   1      47.476  26.324  27.770  1.00  0.00    -0.206 F 
ATOM     67  C   UNL A   1      49.051  26.508  24.518  1.00  0.00     0.022 A 
BRANCH  64  68
ATOM     68  S   UNL A   1      48.329  27.640  22.073  1.00  0.00     0.124 S 
ATOM     69  O   UNL A   1      49.471  28.549  22.012  1.00  0.00    -0.237 OA
ATOM     70  O   UNL A   1      48.558  26.291  21.570  1.00  0.00    -0.237 OA
ATOM     71  O   UNL A   1      47.047  28.236  21.702  1.00  0.00    -0.744 OA
ENDBRANCH  64  68
ENDBRANCH  47  61
BRANCH  48  72
ATOM     72  C   UNL A   1      38.731  30.414  31.045  1.00  0.00     0.023 A 
ATOM     73  C   UNL A   1      37.645  31.109  30.491  1.00  0.00     0.031 A 
ATOM     74  C   UNL A   1      38.704  30.134  32.422  1.00  0.00     0.131 A 
ATOM     75  C   UNL A   1      36.595  31.538  31.318  1.00  0.00     0.055 A 
ATOM     76  C   UNL A   1      37.637  30.524  33.232  1.00  0.00     0.041 A 
ATOM     77  F   UNL A   1      39.715  29.463  32.998  1.00  0.00    -0.206 F 
ATOM     78  C   UNL A   1      36.578  31.240  32.682  1.00  0.00     0.022 A 
BRANCH  75  79
ATOM     79  S   UNL A   1      35.277  32.551  30.592  1.00  0.00     0.124 S 
ATOM     80  O   UNL A   1      34.874  31.742  29.448  1.00  0.00    -0.237 OA
ATOM     81  O   UNL A   1      34.319  32.633  31.690  1.00  0.00    -0.237 OA
ATOM     82  O   UNL A   1      35.954  33.804  30.264  1.00  0.00    -0.744 OA
ENDBRANCH  75  79
ENDBRANCH  48  72
BRANCH  60  83
ATOM     83  C   UNL A   1      44.637  33.642  29.235  1.00  0.00     0.023 A 
ATOM     84  C   UNL A   1      44.219  34.726  28.444  1.00  0.00     0.031 A 
ATOM     85  C   UNL A   1      45.560  33.890  30.266  1.00  0.00     0.131 A 
ATOM     86  C   UNL A   1      44.763  36.001  28.663  1.00  0.00     0.055 A 
ATOM     87  C   UNL A   1      46.057  35.169  30.515  1.00  0.00     0.041 A 
ATOM     88  F   UNL A   1      45.994  32.890  31.049  1.00  0.00    -0.206 F 
ATOM     89  C   UNL A   1      45.668  36.232  29.704  1.00  0.00     0.022 A 
BRANCH  86  90
ATOM     90  S   UNL A   1      44.335  37.340  27.519  1.00  0.00     0.124 S 
ATOM     91  O   UNL A   1      43.344  36.701  26.658  1.00  0.00    -0.237 OA
ATOM     92  O   UNL A   1      43.827  38.370  28.418  1.00  0.00    -0.237 OA
ATOM     93  O   UNL A   1      45.606  37.658  26.870  1.00  0.00    -0.744 OA
ENDBRANCH  86  90
ENDBRANCH  60  83
ENDBRANCH  34  35
ENDBRANCH  26  29
ENDBRANCH  24  25
ENDBRANCH   1  24
TORSDOF 15
ENDMDL
MODEL 2
REMARK VINA RESULT:     -13.1      0.938      7.556
REMARK SMILES O=C(NCCCCNC(=O)c1ccc(-c2c3nc(c(-c4cc(S(=O)(=O)[O-])ccc4F)c4ccc([nH]4)c(-c4cc(S(=O)(=O)[O-])ccc4F)c4nc(c(-c5cc(S(=O)(=O)[O-])ccc5F)c5ccc2[nH]5)C=C4)C=C3)cc1)C1=Cc2c(ccc(Cl)c2Cl)O[C@H]1C(F)(F)F
REMARK SMILES IDX 6 1 5 2 4 3 3 4 1 5 2 6 74 8 75 9 85 10 76 11 84 12 77 13
REMARK SMILES IDX 82 14 78 15 80 16 83 17 79 18 81 19 86 20 87 21 88 22 89 23
REMARK SMILES IDX 7 24 8 25 9 26 10 28 11 29 12 30 73 31 13 32 72 33 14 34
REMARK SMILES IDX 15 35 16 36 66 37 17 38 71 39 65 40 67 41 18 42 70 43 64 44
REMARK SMILES IDX 63 45 19 47 51 48 31 49 50 50 32 51 35 52 49 53 68 54 33 55
REMARK SMILES IDX 34 56 48 58 69 59 36 60 20 61 21 62 29 63 22 64 28 65 30 66
REMARK SMILES IDX 27 67 23 68 24 69 25 70 26 71 52 72 53 73 61 74 54 75 60 76
REMARK SMILES IDX 62 77 59 78 55 79 56 80 57 81 58 82 37 83 38 84 46 85 39 86
REMARK SMILES IDX 45 87 47 88 44 89 40 90 41 91 42 92 43 93
REMARK H PARENT 3 7 8 27 67 46 35 57
REMARK Flexibility Score: inf
ROOT
ATOM      1  C   UNL A   1      35.840  20.474  24.999  1.00  0.00     0.023 C 
ENDROOT
BRANCH   1   2
ATOM      2  C   UNL A   1      34.556  21.203  25.383  1.00  0.00     0.023 C 
BRANCH   2   3
ATOM      3  C   UNL A   1      34.717  22.393  26.320  1.00  0.00     0.116 C 
BRANCH   3   4
ATOM      4  N   UNL A   1      33.487  22.936  26.867  1.00  0.00    -0.352 N 
ATOM      5  O   UNL A   1      31.787  24.415  27.062  1.00  0.00    -0.270 OA
ATOM      6  C   UNL A   1      32.784  24.040  26.455  1.00  0.00     0.251 C 
ATOM      7  H   UNL A   1      33.106  22.449  27.633  1.00  0.00     0.163 HD
BRANCH   6   8
ATOM      8  C   UNL A   1      33.258  24.827  25.282  1.00  0.00     0.067 C 
ATOM      9  C   UNL A   1      33.810  26.017  25.570  1.00  0.00     0.027 C 
ATOM     10  C   UNL A   1      32.513  24.584  23.998  1.00  0.00     0.314 C 
ATOM     11  C   UNL A   1      32.996  27.165  25.124  1.00  0.00     0.037 A 
ATOM     12  O   UNL A   1      31.912  25.783  23.423  1.00  0.00    -0.475 OA
ATOM     13  C   UNL A   1      32.042  26.960  24.116  1.00  0.00     0.129 A 
ATOM     14  C   UNL A   1      33.020  28.385  25.830  1.00  0.00     0.070 A 
ATOM     15  C   UNL A   1      31.092  27.939  23.839  1.00  0.00     0.049 A 
ATOM     16  C   UNL A   1      32.042  29.351  25.566  1.00  0.00     0.060 A 
ATOM     17  Cl  UNL A   1      34.206  28.636  27.075  1.00  0.00    -0.082 Cl
ATOM     18  C   UNL A   1      31.073  29.120  24.584  1.00  0.00     0.026 A 
ATOM     19  Cl  UNL A   1      31.934  30.826  26.459  1.00  0.00    -0.083 Cl
BRANCH  10  20
ATOM     20  C   UNL A   1      33.400  23.874  22.952  1.00  0.00     0.429 C 
ATOM     21  F   UNL A   1      33.322  24.429  21.720  1.00  0.00    -0.167 F 
ATOM     22  F   UNL A   1      34.704  23.907  23.321  1.00  0.00    -0.167 F 
ATOM     23  F   UNL A   1      33.067  22.568  22.806  1.00  0.00    -0.167 F 
ENDBRANCH  10  20
ENDBRANCH   6   8
ENDBRANCH   3   4
ENDBRANCH   2   3
ENDBRANCH   1   2
BRANCH   1  24
ATOM     24  C   UNL A   1      37.158  21.149  25.381  1.00  0.00     0.116 C 
BRANCH  24  25
ATOM     25  N   UNL A   1      38.301  20.251  25.470  1.00  0.00    -0.352 N 
ATOM     26  C   UNL A   1      39.545  20.467  26.034  1.00  0.00     0.251 C 
ATOM     27  H   UNL A   1      38.168  19.361  25.071  1.00  0.00     0.163 HD
ATOM     28  O   UNL A   1      40.393  19.589  25.977  1.00  0.00    -0.269 OA
BRANCH  26  29
ATOM     29  C   UNL A   1      39.862  21.788  26.633  1.00  0.00     0.039 A 
ATOM     30  C   UNL A   1      40.818  21.848  27.651  1.00  0.00     0.014 A 
ATOM     31  C   UNL A   1      39.289  22.963  26.143  1.00  0.00     0.014 A 
ATOM     32  C   UNL A   1      41.294  23.091  28.083  1.00  0.00     0.010 A 
ATOM     33  C   UNL A   1      39.819  24.197  26.518  1.00  0.00     0.010 A 
ATOM     34  C   UNL A   1      40.850  24.274  27.468  1.00  0.00    -0.014 A 
BRANCH  34  35
ATOM     35  C   UNL A   1      41.497  25.584  27.754  1.00  0.00     0.031 A 
ATOM     36  C   UNL A   1      40.757  26.658  28.501  1.00  0.00     0.074 A 
ATOM     37  C   UNL A   1      42.723  25.841  27.250  1.00  0.00     0.049 A 
ATOM     38  N   UNL A   1      41.120  27.890  28.756  1.00  0.00    -0.248 NA
ATOM     39  C   UNL A   1      39.418  26.309  28.997  1.00  0.00     0.031 C 
ATOM     40  C   UNL A   1      43.522  24.907  26.451  1.00  0.00     0.029 A 
ATOM     41  N   UNL A   1      43.508  26.966  27.319  1.00  0.00    -0.354 N 
ATOM     42  C   UNL A   1      40.047  28.470  29.426  1.00  0.00     0.074 A 
ATOM     43  C   UNL A   1      39.003  27.468  29.487  1.00  0.00     0.031 C 
ATOM     44  C   UNL A   1      44.686  25.491  26.123  1.00  0.00     0.029 A 
ATOM     45  C   UNL A   1      44.704  26.851  26.648  1.00  0.00     0.049 A 
ATOM     46  H   UNL A   1      43.239  27.780  27.804  1.00  0.00     0.167 HD
ATOM     47  C   UNL A   1      39.949  29.717  29.954  1.00  0.00     0.034 A 
ATOM     48  C   UNL A   1      45.699  27.741  26.464  1.00  0.00     0.034 A 
ATOM     49  C   UNL A   1      41.004  30.701  29.900  1.00  0.00     0.049 A 
ATOM     50  C   UNL A   1      45.576  29.113  27.073  1.00  0.00     0.074 A 
ATOM     51  C   UNL A   1      41.031  31.967  30.462  1.00  0.00     0.029 A 
ATOM     52  N   UNL A   1      42.214  30.536  29.241  1.00  0.00    -0.354 N 
ATOM     53  N   UNL A   1      44.578  29.627  27.755  1.00  0.00    -0.248 NA
ATOM     54  C   UNL A   1      46.717  30.020  26.900  1.00  0.00     0.031 C 
ATOM     55  C   UNL A   1      42.231  32.586  30.095  1.00  0.00     0.029 A 
ATOM     56  C   UNL A   1      42.984  31.683  29.361  1.00  0.00     0.049 A 
ATOM     57  H   UNL A   1      42.487  29.723  28.759  1.00  0.00     0.167 HD
ATOM     58  C   UNL A   1      44.983  30.908  28.112  1.00  0.00     0.074 A 
ATOM     59  C   UNL A   1      46.320  31.084  27.584  1.00  0.00     0.031 C 
ATOM     60  C   UNL A   1      44.312  31.853  28.818  1.00  0.00     0.034 A 
BRANCH  47  61
ATOM     61  C   UNL A   1      38.643  30.085  30.615  1.00  0.00     0.023 A 
ATOM     62  C   UNL A   1      37.647  30.804  29.931  1.00  0.00     0.031 A 
ATOM     63  C   UNL A   1      38.399  29.739  31.956  1.00  0.00     0.131 A 
ATOM     64  C   UNL A   1      36.494  31.223  30.609  1.00  0.00     0.055 A 
ATOM     65  C   UNL A   1      37.212  30.089  32.603  1.00  0.00     0.041 A 
ATOM     66  F   UNL A   1      39.319  29.066  32.666  1.00  0.00    -0.206 F 
ATOM     67  C   UNL A   1      36.258  30.850  31.934  1.00  0.00     0.022 A 
BRANCH  64  68
ATOM     68  S   UNL A   1      35.372  32.380  29.776  1.00  0.00     0.124 S 
ATOM     69  O   UNL A   1      36.287  33.455  29.399  1.00  0.00    -0.237 OA
ATOM     70  O   UNL A   1      34.846  31.576  28.681  1.00  0.00    -0.237 OA
ATOM     71  O   UNL A   1      34.405  32.729  30.815  1.00  0.00    -0.744 OA
ENDBRANCH  64  68
ENDBRANCH  47  61
BRANCH  48  72
ATOM     72  C   UNL A   1      46.900  27.373  25.661  1.00  0.00     0.023 A 
ATOM     73  C   UNL A   1      47.032  27.785  24.325  1.00  0.00     0.031 A 
ATOM     74  C   UNL A   1      47.919  26.575  26.210  1.00  0.00     0.131 A 
ATOM     75  C   UNL A   1      48.137  27.363  23.570  1.00  0.00     0.055 A 
ATOM     76  C   UNL A   1      49.038  26.195  25.468  1.00  0.00     0.041 A 
ATOM     77  F   UNL A   1      47.845  26.163  27.486  1.00  0.00    -0.206 F 
ATOM     78  C   UNL A   1      49.146  26.581  24.135  1.00  0.00     0.022 A 
BRANCH  75  79
ATOM     79  S   UNL A   1      48.204  27.801  21.811  1.00  0.00     0.124 S 
ATOM     80  O   UNL A   1      49.350  28.701  21.771  1.00  0.00    -0.237 OA
ATOM     81  O   UNL A   1      48.388  26.498  21.182  1.00  0.00    -0.237 OA
ATOM     82  O   UNL A   1      46.907  28.430  21.568  1.00  0.00    -0.744 OA
ENDBRANCH  75  79
ENDBRANCH  48  72
BRANCH  60  83
ATOM     83  C   UNL A   1      45.038  33.146  29.093  1.00  0.00     0.023 A 
ATOM     84  C   UNL A   1      44.845  34.287  28.296  1.00  0.00     0.031 A 
ATOM     85  C   UNL A   1      45.949  33.229  30.161  1.00  0.00     0.131 A 
ATOM     86  C   UNL A   1      45.591  35.449  28.547  1.00  0.00     0.055 A 
ATOM     87  C   UNL A   1      46.648  34.404  30.439  1.00  0.00     0.041 A 
ATOM     88  F   UNL A   1      46.173  32.168  30.952  1.00  0.00    -0.206 F 
ATOM     89  C   UNL A   1      46.480  35.519  29.624  1.00  0.00     0.022 A 
BRANCH  86  90
ATOM     90  S   UNL A   1      45.445  36.844  27.398  1.00  0.00     0.124 S 
ATOM     91  O   UNL A   1      46.497  36.551  26.429  1.00  0.00    -0.237 OA
ATOM     92  O   UNL A   1      44.076  36.709  26.914  1.00  0.00    -0.237 OA
ATOM     93  O   UNL A   1      45.690  38.013  28.243  1.00  0.00    -0.744 OA
ENDBRANCH  86  90
ENDBRANCH  60  83
ENDBRANCH  34  35
ENDBRANCH  26  29
ENDBRANCH  24  25
ENDBRANCH   1  24
TORSDOF 15
ENDMDL
MODEL 3
REMARK VINA RESULT:     -13.1      5.116     10.254
REMARK SMILES O=C(NCCCCNC(=O)c1ccc(-c2c3nc(c(-c4cc(S(=O)(=O)[O-])ccc4F)c4ccc([nH]4)c(-c4cc(S(=O)(=O)[O-])ccc4F)c4nc(c(-c5cc(S(=O)(=O)[O-])ccc5F)c5ccc2[nH]5)C=C4)C=C3)cc1)C1=Cc2c(ccc(Cl)c2Cl)O[C@H]1C(F)(F)F
REMARK SMILES IDX 6 1 5 2 4 3 3 4 1 5 2 6 74 8 75 9 85 10 76 11 84 12 77 13
REMARK SMILES IDX 82 14 78 15 80 16 83 17 79 18 81 19 86 20 87 21 88 22 89 23
REMARK SMILES IDX 7 24 8 25 9 26 10 28 11 29 12 30 73 31 13 32 72 33 14 34
REMARK SMILES IDX 15 35 16 36 66 37 17 38 71 39 65 40 67 41 18 42 70 43 64 44
REMARK SMILES IDX 63 45 19 47 51 48 31 49 50 50 32 51 35 52 49 53 68 54 33 55
REMARK SMILES IDX 34 56 48 58 69 59 36 60 20 61 21 62 29 63 22 64 28 65 30 66
REMARK SMILES IDX 27 67 23 68 24 69 25 70 26 71 52 72 53 73 61 74 54 75 60 76
REMARK SMILES IDX 62 77 59 78 55 79 56 80 57 81 58 82 37 83 38 84 46 85 39 86
REMARK SMILES IDX 45 87 47 88 44 89 40 90 41 91 42 92 43 93
REMARK H PARENT 3 7 8 27 67 46 35 57
REMARK Flexibility Score: inf
ROOT
ATOM      1  C   UNL A   1      31.474  29.844  25.255  1.00  0.00     0.023 C 
ENDROOT
BRANCH   1   2
ATOM      2  C   UNL A   1      31.733  28.508  24.567  1.00  0.00     0.023 C 
BRANCH   2   3
ATOM      3  C   UNL A   1      33.195  28.118  24.393  1.00  0.00     0.116 C 
BRANCH   3   4
ATOM      4  N   UNL A   1      33.473  27.173  23.326  1.00  0.00    -0.352 N 
ATOM      5  O   UNL A   1      33.901  25.145  22.421  1.00  0.00    -0.270 OA
ATOM      6  C   UNL A   1      33.599  25.809  23.407  1.00  0.00     0.251 C 
ATOM      7  H   UNL A   1      33.586  27.560  22.428  1.00  0.00     0.163 HD
BRANCH   6   8
ATOM      8  C   UNL A   1      33.412  25.121  24.714  1.00  0.00     0.067 C 
ATOM      9  C   UNL A   1      34.543  24.751  25.338  1.00  0.00     0.027 C 
ATOM     10  C   UNL A   1      32.131  24.347  24.860  1.00  0.00     0.314 C 
ATOM     11  C   UNL A   1      34.730  23.287  25.392  1.00  0.00     0.037 A 
ATOM     12  O   UNL A   1      32.322  22.933  25.163  1.00  0.00    -0.475 OA
ATOM     13  C   UNL A   1      33.608  22.460  25.231  1.00  0.00     0.129 A 
ATOM     14  C   UNL A   1      36.023  22.725  25.390  1.00  0.00     0.070 A 
ATOM     15  C   UNL A   1      33.768  21.092  25.029  1.00  0.00     0.049 A 
ATOM     16  C   UNL A   1      36.175  21.353  25.154  1.00  0.00     0.060 A 
ATOM     17  Cl  UNL A   1      37.409  23.752  25.591  1.00  0.00    -0.082 Cl
ATOM     18  C   UNL A   1      35.050  20.545  24.959  1.00  0.00     0.026 A 
ATOM     19  Cl  UNL A   1      37.726  20.602  25.028  1.00  0.00    -0.083 Cl
BRANCH  10  20
ATOM     20  C   UNL A   1      31.190  24.995  25.899  1.00  0.00     0.429 C 
ATOM     21  F   UNL A   1      30.179  25.699  25.339  1.00  0.00    -0.167 F 
ATOM     22  F   UNL A   1      30.626  24.054  26.695  1.00  0.00    -0.167 F 
ATOM     23  F   UNL A   1      31.850  25.854  26.715  1.00  0.00    -0.167 F 
ENDBRANCH  10  20
ENDBRANCH   6   8
ENDBRANCH   3   4
ENDBRANCH   2   3
ENDBRANCH   1   2
BRANCH   1  24
ATOM     24  C   UNL A   1      32.367  30.192  26.447  1.00  0.00     0.116 C 
BRANCH  24  25
ATOM     25  N   UNL A   1      32.338  31.592  26.844  1.00  0.00    -0.352 N 
ATOM     26  C   UNL A   1      33.309  32.346  27.477  1.00  0.00     0.251 C 
ATOM     27  H   UNL A   1      31.505  32.072  26.631  1.00  0.00     0.163 HD
ATOM     28  O   UNL A   1      33.079  33.512  27.760  1.00  0.00    -0.269 OA
BRANCH  26  29
ATOM     29  C   UNL A   1      34.591  31.711  27.873  1.00  0.00     0.039 A 
ATOM     30  C   UNL A   1      35.708  32.527  28.073  1.00  0.00     0.014 A 
ATOM     31  C   UNL A   1      34.674  30.340  28.127  1.00  0.00     0.014 A 
ATOM     32  C   UNL A   1      36.864  31.990  28.652  1.00  0.00     0.010 A 
ATOM     33  C   UNL A   1      35.796  29.824  28.774  1.00  0.00     0.010 A 
ATOM     34  C   UNL A   1      36.891  30.650  29.074  1.00  0.00    -0.014 A 
BRANCH  34  35
ATOM     35  C   UNL A   1      38.019  30.118  29.886  1.00  0.00     0.031 A 
ATOM     36  C   UNL A   1      38.237  30.589  31.297  1.00  0.00     0.074 A 
ATOM     37  C   UNL A   1      38.909  29.279  29.314  1.00  0.00     0.049 A 
ATOM     38  N   UNL A   1      39.217  30.312  32.120  1.00  0.00    -0.248 NA
ATOM     39  C   UNL A   1      37.238  31.520  31.840  1.00  0.00     0.031 C 
ATOM     40  C   UNL A   1      38.849  28.796  27.931  1.00  0.00     0.029 A 
ATOM     41  N   UNL A   1      40.047  28.694  29.815  1.00  0.00    -0.354 N 
ATOM     42  C   UNL A   1      38.964  31.050  33.272  1.00  0.00     0.074 A 
ATOM     43  C   UNL A   1      37.767  31.823  33.016  1.00  0.00     0.031 C 
ATOM     44  C   UNL A   1      39.889  27.978  27.703  1.00  0.00     0.029 A 
ATOM     45  C   UNL A   1      40.714  27.907  28.904  1.00  0.00     0.049 A 
ATOM     46  H   UNL A   1      40.357  28.827  30.740  1.00  0.00     0.167 HD
ATOM     47  C   UNL A   1      39.656  31.066  34.440  1.00  0.00     0.034 A 
ATOM     48  C   UNL A   1      41.865  27.216  29.014  1.00  0.00     0.034 A 
ATOM     49  C   UNL A   1      40.839  30.277  34.688  1.00  0.00     0.049 A 
ATOM     50  C   UNL A   1      42.608  27.236  30.325  1.00  0.00     0.074 A 
ATOM     51  C   UNL A   1      41.574  30.170  35.857  1.00  0.00     0.029 A 
ATOM     52  N   UNL A   1      41.466  29.466  33.752  1.00  0.00    -0.354 N 
ATOM     53  N   UNL A   1      42.322  27.893  31.425  1.00  0.00    -0.248 NA
ATOM     54  C   UNL A   1      43.820  26.412  30.412  1.00  0.00     0.031 C 
ATOM     55  C   UNL A   1      42.675  29.341  35.611  1.00  0.00     0.029 A 
ATOM     56  C   UNL A   1      42.591  28.875  34.308  1.00  0.00     0.049 A 
ATOM     57  H   UNL A   1      41.157  29.329  32.828  1.00  0.00     0.167 HD
ATOM     58  C   UNL A   1      43.306  27.541  32.343  1.00  0.00     0.074 A 
ATOM     59  C   UNL A   1      44.184  26.603  31.672  1.00  0.00     0.031 C 
ATOM     60  C   UNL A   1      43.467  27.952  33.626  1.00  0.00     0.034 A 
BRANCH  47  61
ATOM     61  C   UNL A   1      39.156  31.988  35.525  1.00  0.00     0.023 A 
ATOM     62  C   UNL A   1      39.604  33.317  35.629  1.00  0.00     0.031 A 
ATOM     63  C   UNL A   1      38.239  31.527  36.487  1.00  0.00     0.131 A 
ATOM     64  C   UNL A   1      39.201  34.110  36.713  1.00  0.00     0.055 A 
ATOM     65  C   UNL A   1      37.779  32.348  37.519  1.00  0.00     0.041 A 
ATOM     66  F   UNL A   1      37.786  30.263  36.449  1.00  0.00    -0.206 F 
ATOM     67  C   UNL A   1      38.273  33.643  37.646  1.00  0.00     0.022 A 
BRANCH  64  68
ATOM     68  S   UNL A   1      40.016  35.711  36.964  1.00  0.00     0.124 S 
ATOM     69  O   UNL A   1      41.420  35.315  37.053  1.00  0.00    -0.237 OA
ATOM     70  O   UNL A   1      39.635  36.450  35.768  1.00  0.00    -0.237 OA
ATOM     71  O   UNL A   1      39.434  36.200  38.213  1.00  0.00    -0.744 OA
ENDBRANCH  64  68
ENDBRANCH  47  61
BRANCH  48  72
ATOM     72  C   UNL A   1      42.399  26.450  27.852  1.00  0.00     0.023 A 
ATOM     73  C   UNL A   1      41.972  25.138  27.592  1.00  0.00     0.031 A 
ATOM     74  C   UNL A   1      43.372  27.009  27.005  1.00  0.00     0.131 A 
ATOM     75  C   UNL A   1      42.545  24.414  26.535  1.00  0.00     0.055 A 
ATOM     76  C   UNL A   1      43.906  26.299  25.928  1.00  0.00     0.041 A 
ATOM     77  F   UNL A   1      43.807  28.264  27.206  1.00  0.00    -0.206 F 
ATOM     78  C   UNL A   1      43.501  24.989  25.696  1.00  0.00     0.022 A 
BRANCH  75  79
ATOM     79  S   UNL A   1      42.067  22.678  26.314  1.00  0.00     0.124 S 
ATOM     80  O   UNL A   1      40.612  22.760  26.365  1.00  0.00    -0.237 OA
ATOM     81  O   UNL A   1      42.648  22.368  25.011  1.00  0.00    -0.237 OA
ATOM     82  O   UNL A   1      42.696  22.006  27.449  1.00  0.00    -0.744 OA
ENDBRANCH  75  79
ENDBRANCH  48  72
BRANCH  60  83
ATOM     83  C   UNL A   1      44.615  27.351  34.398  1.00  0.00     0.023 A 
ATOM     84  C   UNL A   1      44.497  26.116  35.059  1.00  0.00     0.031 A 
ATOM     85  C   UNL A   1      45.840  28.034  34.484  1.00  0.00     0.131 A 
ATOM     86  C   UNL A   1      45.569  25.625  35.819  1.00  0.00     0.055 A 
ATOM     87  C   UNL A   1      46.921  27.517  35.197  1.00  0.00     0.041 A 
ATOM     88  F   UNL A   1      46.006  29.219  33.874  1.00  0.00    -0.206 F 
ATOM     89  C   UNL A   1      46.786  26.311  35.880  1.00  0.00     0.022 A 
BRANCH  86  90
ATOM     90  S   UNL A   1      45.327  24.118  36.797  1.00  0.00     0.124 S 
ATOM     91  O   UNL A   1      46.683  23.585  36.876  1.00  0.00    -0.237 OA
ATOM     92  O   UNL A   1      44.773  24.638  38.042  1.00  0.00    -0.237 OA
ATOM     93  O   UNL A   1      44.398  23.329  35.989  1.00  0.00    -0.744 OA
ENDBRANCH  86  90
ENDBRANCH  60  83
ENDBRANCH  34  35
ENDBRANCH  26  29
ENDBRANCH  24  25
ENDBRANCH   1  24
TORSDOF 15
ENDMDL
