MODEL 1
REMARK VINA RESULT:     -11.0      0.000      0.000
REMARK SMILES CCN1C(=O)N/C(=C/c2cc(Cl)c(OCc3cccc(C(=O)NCCCCNC(=O)c4ccc(-c5c6nc(c(-c7cc(S(=O)(=O)[O-])ccc7F)c7ccc([nH]7)c(-c7cc(S(=O)(=O)[O-])ccc7F)c7nc(c(-c8cc(S(=O)(=O)[O-])ccc8F)c8ccc5[nH]8)C=C7)C=C6)cc4)c3)c(OC)c2)C1=O
REMARK SMILES IDX 24 1 23 2 21 3 22 4 20 6 16 7 17 8 94 9 18 10 19 11 15 12
REMARK SMILES IDX 14 13 13 14 9 15 10 16 98 17 11 18 95 19 12 20 8 21 3 22
REMARK SMILES IDX 4 23 99 24 5 25 6 26 7 27 100 28 2 30 1 31 96 32 97 33 25 34
REMARK SMILES IDX 26 35 27 36 28 37 29 38 30 40 31 41 32 42 93 43 33 44 92 45
REMARK SMILES IDX 34 46 35 47 36 48 86 49 37 50 91 51 85 52 87 53 38 54 90 55
REMARK SMILES IDX 84 56 83 57 39 59 71 60 51 61 70 62 52 63 55 64 69 65 88 66
REMARK SMILES IDX 53 67 54 68 68 70 89 71 56 72 40 73 41 74 49 75 42 76 48 77
REMARK SMILES IDX 50 78 47 79 43 80 44 81 45 82 46 83 72 84 73 85 81 86 74 87
REMARK SMILES IDX 80 88 82 89 79 90 75 91 76 92 77 93 78 94 57 95 58 96 66 97
REMARK SMILES IDX 59 98 65 99 67 100 64 101 60 102 61 103 62 104 63 105
REMARK H PARENT 23 5 6 29 28 39 87 58 55 69
REMARK Flexibility Score: inf
ROOT
ATOM      1  C   UNL A   1      36.998  23.311  26.134  1.00  0.00     0.116 C 
ENDROOT
BRANCH   1   2
ATOM      2  N   UNL A   1      37.092  21.887  25.841  1.00  0.00    -0.352 N 
ATOM      3  C   UNL A   1      36.279  21.044  25.111  1.00  0.00     0.251 C 
ATOM      4  O   UNL A   1      36.598  19.861  25.000  1.00  0.00    -0.269 OA
ATOM      5  H   UNL A   1      37.880  21.446  26.234  1.00  0.00     0.163 HD
BRANCH   3   6
ATOM      6  C   UNL A   1      34.984  21.503  24.542  1.00  0.00     0.040 A 
ATOM      7  C   UNL A   1      33.634  23.313  23.620  1.00  0.00    -0.010 A 
ATOM      8  C   UNL A   1      32.488  22.598  23.981  1.00  0.00     0.007 A 
ATOM      9  C   UNL A   1      34.868  22.666  23.781  1.00  0.00     0.021 A 
ATOM     10  C   UNL A   1      32.582  21.317  24.538  1.00  0.00     0.001 A 
ATOM     11  C   UNL A   1      33.829  20.786  24.859  1.00  0.00     0.014 A 
BRANCH   7  12
ATOM     12  C   UNL A   1      33.683  24.741  23.089  1.00  0.00     0.265 C 
BRANCH  12  13
ATOM     13  O   UNL A   1      32.626  25.664  23.361  1.00  0.00    -0.483 OA
BRANCH  13  14
ATOM     14  C   UNL A   1      32.862  26.814  24.060  1.00  0.00     0.180 A 
ATOM     15  C   UNL A   1      32.857  29.148  25.612  1.00  0.00    -0.018 A 
ATOM     16  C   UNL A   1      33.395  29.160  24.325  1.00  0.00     0.033 A 
ATOM     17  C   UNL A   1      32.432  27.945  26.176  1.00  0.00     0.058 A 
ATOM     18  C   UNL A   1      33.424  27.995  23.556  1.00  0.00     0.087 A 
ATOM     19  C   UNL A   1      32.450  26.772  25.414  1.00  0.00     0.162 A 
ATOM     20  Cl  UNL A   1      34.200  28.141  22.020  1.00  0.00    -0.080 Cl
BRANCH  15  21
ATOM     21  C   UNL A   1      32.729  30.403  26.350  1.00  0.00     0.040 C 
ATOM     22  N   UNL A   1      35.357  31.017  28.722  1.00  0.00    -0.259 N 
ATOM     23  C   UNL A   1      34.515  32.093  28.894  1.00  0.00     0.328 C 
ATOM     24  C   UNL A   1      34.885  30.169  27.746  1.00  0.00     0.278 C 
ATOM     25  O   UNL A   1      34.640  33.021  29.676  1.00  0.00    -0.248 OA
ATOM     26  N   UNL A   1      33.459  31.952  28.010  1.00  0.00    -0.303 N 
ATOM     27  C   UNL A   1      33.602  30.808  27.279  1.00  0.00     0.109 C 
ATOM     28  O   UNL A   1      35.385  29.143  27.334  1.00  0.00    -0.267 OA
ATOM     29  H   UNL A   1      32.712  32.586  27.921  1.00  0.00     0.172 HD
BRANCH  22  30
ATOM     30  C   UNL A   1      36.590  30.824  29.455  1.00  0.00     0.127 C 
ATOM     31  C   UNL A   1      37.775  31.466  28.750  1.00  0.00     0.028 C 
ENDBRANCH  22  30
ENDBRANCH  15  21
BRANCH  19  32
ATOM     32  O   UNL A   1      32.017  25.556  25.891  1.00  0.00    -0.493 OA
ATOM     33  C   UNL A   1      30.616  25.406  26.098  1.00  0.00     0.278 C 
ENDBRANCH  19  32
ENDBRANCH  13  14
ENDBRANCH  12  13
ENDBRANCH   7  12
ENDBRANCH   3   6
ENDBRANCH   1   2
BRANCH   1  34
ATOM     34  C   UNL A   1      38.286  24.096  25.943  1.00  0.00     0.023 C 
BRANCH  34  35
ATOM     35  C   UNL A   1      38.825  24.798  27.178  1.00  0.00     0.023 C 
BRANCH  35  36
ATOM     36  C   UNL A   1      40.317  24.626  27.424  1.00  0.00     0.116 C 
BRANCH  36  37
ATOM     37  N   UNL A   1      41.119  24.688  26.211  1.00  0.00    -0.352 N 
ATOM     38  C   UNL A   1      41.894  25.723  25.740  1.00  0.00     0.251 C 
ATOM     39  H   UNL A   1      41.106  23.879  25.651  1.00  0.00     0.163 HD
ATOM     40  O   UNL A   1      42.410  25.643  24.629  1.00  0.00    -0.269 OA
BRANCH  38  41
ATOM     41  C   UNL A   1      42.063  26.939  26.564  1.00  0.00     0.039 A 
ATOM     42  C   UNL A   1      43.038  26.952  27.564  1.00  0.00     0.014 A 
ATOM     43  C   UNL A   1      41.286  28.075  26.325  1.00  0.00     0.014 A 
ATOM     44  C   UNL A   1      43.270  28.127  28.284  1.00  0.00     0.010 A 
ATOM     45  C   UNL A   1      41.593  29.270  26.965  1.00  0.00     0.010 A 
ATOM     46  C   UNL A   1      42.571  29.304  27.970  1.00  0.00    -0.014 A 
BRANCH  46  47
ATOM     47  C   UNL A   1      42.803  30.566  28.722  1.00  0.00     0.031 A 
ATOM     48  C   UNL A   1      43.910  31.493  28.292  1.00  0.00     0.074 A 
ATOM     49  C   UNL A   1      42.055  30.858  29.805  1.00  0.00     0.049 A 
ATOM     50  N   UNL A   1      44.318  32.609  28.839  1.00  0.00    -0.248 NA
ATOM     51  C   UNL A   1      44.685  31.090  27.108  1.00  0.00     0.031 C 
ATOM     52  C   UNL A   1      40.980  30.020  30.342  1.00  0.00     0.029 A 
ATOM     53  N   UNL A   1      42.083  31.939  30.650  1.00  0.00    -0.354 N 
ATOM     54  C   UNL A   1      45.401  33.031  28.074  1.00  0.00     0.074 A 
ATOM     55  C   UNL A   1      45.636  32.009  27.080  1.00  0.00     0.031 C 
ATOM     56  C   UNL A   1      40.429  30.637  31.401  1.00  0.00     0.029 A 
ATOM     57  C   UNL A   1      41.140  31.886  31.651  1.00  0.00     0.049 A 
ATOM     58  H   UNL A   1      42.719  32.684  30.550  1.00  0.00     0.167 HD
ATOM     59  C   UNL A   1      46.113  34.181  28.172  1.00  0.00     0.034 A 
ATOM     60  C   UNL A   1      40.883  32.745  32.659  1.00  0.00     0.034 A 
ATOM     61  C   UNL A   1      45.854  35.196  29.161  1.00  0.00     0.049 A 
ATOM     62  C   UNL A   1      41.709  34.005  32.767  1.00  0.00     0.074 A 
ATOM     63  C   UNL A   1      46.482  36.418  29.326  1.00  0.00     0.029 A 
ATOM     64  N   UNL A   1      44.893  35.105  30.162  1.00  0.00    -0.354 N 
ATOM     65  N   UNL A   1      42.700  34.412  32.007  1.00  0.00    -0.248 NA
ATOM     66  C   UNL A   1      41.371  34.926  33.858  1.00  0.00     0.031 C 
ATOM     67  C   UNL A   1      45.956  37.029  30.470  1.00  0.00     0.029 A 
ATOM     68  C   UNL A   1      44.933  36.235  30.963  1.00  0.00     0.049 A 
ATOM     69  H   UNL A   1      44.275  34.349  30.283  1.00  0.00     0.167 HD
ATOM     70  C   UNL A   1      43.073  35.658  32.504  1.00  0.00     0.074 A 
ATOM     71  C   UNL A   1      42.192  35.937  33.620  1.00  0.00     0.031 C 
ATOM     72  C   UNL A   1      44.048  36.500  32.074  1.00  0.00     0.034 A 
BRANCH  59  73
ATOM     73  C   UNL A   1      47.250  34.379  27.194  1.00  0.00     0.023 A 
ATOM     74  C   UNL A   1      48.564  33.974  27.494  1.00  0.00     0.031 A 
ATOM     75  C   UNL A   1      47.026  35.012  25.959  1.00  0.00     0.131 A 
ATOM     76  C   UNL A   1      49.612  34.281  26.614  1.00  0.00     0.055 A 
ATOM     77  C   UNL A   1      48.059  35.230  25.046  1.00  0.00     0.041 A 
ATOM     78  F   UNL A   1      45.800  35.443  25.625  1.00  0.00    -0.206 F 
ATOM     79  C   UNL A   1      49.363  34.881  25.377  1.00  0.00     0.022 A 
BRANCH  76  80
ATOM     80  S   UNL A   1      51.317  34.035  27.179  1.00  0.00     0.124 S 
ATOM     81  O   UNL A   1      51.209  32.771  27.904  1.00  0.00    -0.237 OA
ATOM     82  O   UNL A   1      52.062  33.991  25.926  1.00  0.00    -0.237 OA
ATOM     83  O   UNL A   1      51.573  35.205  28.017  1.00  0.00    -0.744 OA
ENDBRANCH  76  80
ENDBRANCH  59  73
BRANCH  60  84
ATOM     84  C   UNL A   1      39.806  32.454  33.651  1.00  0.00     0.023 A 
ATOM     85  C   UNL A   1      38.524  33.010  33.515  1.00  0.00     0.031 A 
ATOM     86  C   UNL A   1      40.059  31.657  34.783  1.00  0.00     0.131 A 
ATOM     87  C   UNL A   1      37.562  32.811  34.518  1.00  0.00     0.055 A 
ATOM     88  C   UNL A   1      39.080  31.411  35.747  1.00  0.00     0.041 A 
ATOM     89  F   UNL A   1      41.266  31.100  34.965  1.00  0.00    -0.206 F 
ATOM     90  C   UNL A   1      37.826  32.002  35.626  1.00  0.00     0.022 A 
BRANCH  87  91
ATOM     91  S   UNL A   1      35.991  33.712  34.408  1.00  0.00     0.124 S 
ATOM     92  O   UNL A   1      35.623  33.836  35.813  1.00  0.00    -0.237 OA
ATOM     93  O   UNL A   1      36.394  34.944  33.737  1.00  0.00    -0.237 OA
ATOM     94  O   UNL A   1      35.143  32.822  33.616  1.00  0.00    -0.744 OA
ENDBRANCH  87  91
ENDBRANCH  60  84
BRANCH  72  95
ATOM     95  C   UNL A   1      44.168  37.834  32.774  1.00  0.00     0.023 A 
ATOM     96  C   UNL A   1      43.401  38.948  32.396  1.00  0.00     0.031 A 
ATOM     97  C   UNL A   1      45.080  37.991  33.834  1.00  0.00     0.131 A 
ATOM     98  C   UNL A   1      43.605  40.185  33.026  1.00  0.00     0.055 A 
ATOM     99  C   UNL A   1      45.225  39.204  34.508  1.00  0.00     0.041 A 
ATOM    100  F   UNL A   1      45.844  36.962  34.237  1.00  0.00    -0.206 F 
ATOM    101  C   UNL A   1      44.498  40.314  34.094  1.00  0.00     0.022 A 
BRANCH  98 102
ATOM    102  S   UNL A   1      42.775  41.652  32.357  1.00  0.00     0.124 S 
ATOM    103  O   UNL A   1      42.314  42.319  33.570  1.00  0.00    -0.237 OA
ATOM    104  O   UNL A   1      43.855  42.318  31.634  1.00  0.00    -0.237 OA
ATOM    105  O   UNL A   1      41.718  41.095  31.514  1.00  0.00    -0.744 OA
ENDBRANCH  98 102
ENDBRANCH  72  95
ENDBRANCH  46  47
ENDBRANCH  38  41
ENDBRANCH  36  37
ENDBRANCH  35  36
ENDBRANCH  34  35
ENDBRANCH   1  34
TORSDOF 20
ENDMDL
MODEL 2
REMARK VINA RESULT:     -10.9      4.166      9.340
REMARK SMILES CCN1C(=O)N/C(=C/c2cc(Cl)c(OCc3cccc(C(=O)NCCCCNC(=O)c4ccc(-c5c6nc(c(-c7cc(S(=O)(=O)[O-])ccc7F)c7ccc([nH]7)c(-c7cc(S(=O)(=O)[O-])ccc7F)c7nc(c(-c8cc(S(=O)(=O)[O-])ccc8F)c8ccc5[nH]8)C=C7)C=C6)cc4)c3)c(OC)c2)C1=O
REMARK SMILES IDX 24 1 23 2 21 3 22 4 20 6 16 7 17 8 94 9 18 10 19 11 15 12
REMARK SMILES IDX 14 13 13 14 9 15 10 16 98 17 11 18 95 19 12 20 8 21 3 22
REMARK SMILES IDX 4 23 99 24 5 25 6 26 7 27 100 28 2 30 1 31 96 32 97 33 25 34
REMARK SMILES IDX 26 35 27 36 28 37 29 38 30 40 31 41 32 42 93 43 33 44 92 45
REMARK SMILES IDX 34 46 35 47 36 48 86 49 37 50 91 51 85 52 87 53 38 54 90 55
REMARK SMILES IDX 84 56 83 57 39 59 71 60 51 61 70 62 52 63 55 64 69 65 88 66
REMARK SMILES IDX 53 67 54 68 68 70 89 71 56 72 40 73 41 74 49 75 42 76 48 77
REMARK SMILES IDX 50 78 47 79 43 80 44 81 45 82 46 83 72 84 73 85 81 86 74 87
REMARK SMILES IDX 80 88 82 89 79 90 75 91 76 92 77 93 78 94 57 95 58 96 66 97
REMARK SMILES IDX 59 98 65 99 67 100 64 101 60 102 61 103 62 104 63 105
REMARK H PARENT 23 5 6 29 28 39 87 58 55 69
REMARK Flexibility Score: inf
ROOT
ATOM      1  C   UNL A   1      38.019  23.243  26.113  1.00  0.00     0.116 C 
ENDROOT
BRANCH   1   2
ATOM      2  N   UNL A   1      37.764  23.595  24.722  1.00  0.00    -0.352 N 
ATOM      3  C   UNL A   1      36.792  23.181  23.834  1.00  0.00     0.251 C 
ATOM      4  O   UNL A   1      36.786  23.653  22.698  1.00  0.00    -0.269 OA
ATOM      5  H   UNL A   1      38.401  24.245  24.348  1.00  0.00     0.163 HD
BRANCH   3   6
ATOM      6  C   UNL A   1      35.815  22.115  24.182  1.00  0.00     0.040 A 
ATOM      7  C   UNL A   1      33.575  21.497  24.921  1.00  0.00    -0.010 A 
ATOM      8  C   UNL A   1      34.093  20.275  25.360  1.00  0.00     0.007 A 
ATOM      9  C   UNL A   1      34.438  22.335  24.199  1.00  0.00     0.021 A 
ATOM     10  C   UNL A   1      35.433  19.938  25.140  1.00  0.00     0.001 A 
ATOM     11  C   UNL A   1      36.305  20.873  24.590  1.00  0.00     0.014 A 
BRANCH   7  12
ATOM     12  C   UNL A   1      32.168  22.028  25.169  1.00  0.00     0.265 C 
BRANCH  12  13
ATOM     13  O   UNL A   1      31.481  22.788  24.170  1.00  0.00    -0.483 OA
BRANCH  13  14
ATOM     14  C   UNL A   1      31.221  24.116  24.356  1.00  0.00     0.180 A 
ATOM     15  C   UNL A   1      31.177  26.903  24.652  1.00  0.00    -0.018 A 
ATOM     16  C   UNL A   1      30.604  26.083  25.623  1.00  0.00     0.033 A 
ATOM     17  C   UNL A   1      31.665  26.343  23.471  1.00  0.00     0.058 A 
ATOM     18  C   UNL A   1      30.599  24.695  25.470  1.00  0.00     0.087 A 
ATOM     19  C   UNL A   1      31.672  24.954  23.308  1.00  0.00     0.162 A 
ATOM     20  Cl  UNL A   1      29.775  23.817  26.708  1.00  0.00    -0.080 Cl
BRANCH  15  21
ATOM     21  C   UNL A   1      31.278  28.341  24.891  1.00  0.00     0.040 C 
ATOM     22  N   UNL A   1      28.796  30.313  23.200  1.00  0.00    -0.259 N 
ATOM     23  C   UNL A   1      29.576  31.256  23.831  1.00  0.00     0.328 C 
ATOM     24  C   UNL A   1      29.250  29.040  23.459  1.00  0.00     0.278 C 
ATOM     25  O   UNL A   1      29.449  32.469  23.805  1.00  0.00    -0.248 OA
ATOM     26  N   UNL A   1      30.571  30.590  24.525  1.00  0.00    -0.303 N 
ATOM     27  C   UNL A   1      30.450  29.242  24.348  1.00  0.00     0.109 C 
ATOM     28  O   UNL A   1      28.788  27.984  23.078  1.00  0.00    -0.267 OA
ATOM     29  H   UNL A   1      31.267  31.025  25.067  1.00  0.00     0.172 HD
BRANCH  22  30
ATOM     30  C   UNL A   1      27.635  30.626  22.394  1.00  0.00     0.127 C 
ATOM     31  C   UNL A   1      27.998  30.815  20.928  1.00  0.00     0.028 C 
ENDBRANCH  22  30
ENDBRANCH  15  21
BRANCH  19  32
ATOM     32  O   UNL A   1      32.165  24.329  22.185  1.00  0.00    -0.493 OA
ATOM     33  C   UNL A   1      32.847  25.148  21.239  1.00  0.00     0.278 C 
ENDBRANCH  19  32
ENDBRANCH  13  14
ENDBRANCH  12  13
ENDBRANCH   7  12
ENDBRANCH   3   6
ENDBRANCH   1   2
BRANCH   1  34
ATOM     34  C   UNL A   1      39.455  22.857  26.428  1.00  0.00     0.023 C 
BRANCH  34  35
ATOM     35  C   UNL A   1      39.673  21.421  26.875  1.00  0.00     0.023 C 
BRANCH  35  36
ATOM     36  C   UNL A   1      39.829  20.406  25.752  1.00  0.00     0.116 C 
BRANCH  36  37
ATOM     37  N   UNL A   1      40.836  19.390  26.020  1.00  0.00    -0.352 N 
ATOM     38  C   UNL A   1      42.166  19.552  26.329  1.00  0.00     0.251 C 
ATOM     39  H   UNL A   1      40.522  18.458  25.972  1.00  0.00     0.163 HD
ATOM     40  O   UNL A   1      42.900  18.571  26.405  1.00  0.00    -0.269 OA
BRANCH  38  41
ATOM     41  C   UNL A   1      42.706  20.915  26.529  1.00  0.00     0.039 A 
ATOM     42  C   UNL A   1      42.980  21.707  25.413  1.00  0.00     0.014 A 
ATOM     43  C   UNL A   1      42.908  21.419  27.815  1.00  0.00     0.014 A 
ATOM     44  C   UNL A   1      43.401  23.027  25.592  1.00  0.00     0.010 A 
ATOM     45  C   UNL A   1      43.220  22.762  27.991  1.00  0.00     0.010 A 
ATOM     46  C   UNL A   1      43.495  23.576  26.882  1.00  0.00    -0.014 A 
BRANCH  46  47
ATOM     47  C   UNL A   1      43.939  24.978  27.096  1.00  0.00     0.031 A 
ATOM     48  C   UNL A   1      42.970  25.986  27.658  1.00  0.00     0.074 A 
ATOM     49  C   UNL A   1      45.187  25.356  26.751  1.00  0.00     0.049 A 
ATOM     50  N   UNL A   1      43.133  27.266  27.870  1.00  0.00    -0.248 NA
ATOM     51  C   UNL A   1      41.625  25.491  27.994  1.00  0.00     0.031 C 
ATOM     52  C   UNL A   1      46.203  24.481  26.162  1.00  0.00     0.029 A 
ATOM     53  N   UNL A   1      45.815  26.572  26.846  1.00  0.00    -0.354 N 
ATOM     54  C   UNL A   1      41.911  27.728  28.348  1.00  0.00     0.074 A 
ATOM     55  C   UNL A   1      40.997  26.609  28.317  1.00  0.00     0.031 C 
ATOM     56  C   UNL A   1      47.336  25.180  25.984  1.00  0.00     0.029 A 
ATOM     57  C   UNL A   1      47.116  26.562  26.397  1.00  0.00     0.049 A 
ATOM     58  H   UNL A   1      45.376  27.378  27.203  1.00  0.00     0.167 HD
ATOM     59  C   UNL A   1      41.590  28.965  28.804  1.00  0.00     0.034 A 
ATOM     60  C   UNL A   1      48.024  27.557  26.320  1.00  0.00     0.034 A 
ATOM     61  C   UNL A   1      42.519  30.065  28.842  1.00  0.00     0.049 A 
ATOM     62  C   UNL A   1      47.635  28.933  26.805  1.00  0.00     0.074 A 
ATOM     63  C   UNL A   1      42.317  31.347  29.323  1.00  0.00     0.029 A 
ATOM     64  N   UNL A   1      43.828  30.018  28.374  1.00  0.00    -0.354 N 
ATOM     65  N   UNL A   1      46.489  29.343  27.300  1.00  0.00    -0.248 NA
ATOM     66  C   UNL A   1      48.666  29.975  26.736  1.00  0.00     0.031 C 
ATOM     67  C   UNL A   1      43.473  32.095  29.074  1.00  0.00     0.029 A 
ATOM     68  C   UNL A   1      44.432  31.256  28.528  1.00  0.00     0.049 A 
ATOM     69  H   UNL A   1      44.260  29.222  27.990  1.00  0.00     0.167 HD
ATOM     70  C   UNL A   1      46.678  30.680  27.640  1.00  0.00     0.074 A 
ATOM     71  C   UNL A   1      48.051  31.000  27.305  1.00  0.00     0.031 C 
ATOM     72  C   UNL A   1      45.803  31.562  28.187  1.00  0.00     0.034 A 
BRANCH  59  73
ATOM     73  C   UNL A   1      40.168  29.186  29.272  1.00  0.00     0.023 A 
ATOM     74  C   UNL A   1      39.816  29.113  30.632  1.00  0.00     0.031 A 
ATOM     75  C   UNL A   1      39.144  29.439  28.343  1.00  0.00     0.131 A 
ATOM     76  C   UNL A   1      38.470  29.205  31.015  1.00  0.00     0.055 A 
ATOM     77  C   UNL A   1      37.819  29.624  28.741  1.00  0.00     0.041 A 
ATOM     78  F   UNL A   1      39.411  29.496  27.029  1.00  0.00    -0.206 F 
ATOM     79  C   UNL A   1      37.472  29.490  30.081  1.00  0.00     0.022 A 
BRANCH  76  80
ATOM     80  S   UNL A   1      38.025  28.786  32.723  1.00  0.00     0.124 S 
ATOM     81  O   UNL A   1      36.679  29.344  32.823  1.00  0.00    -0.237 OA
ATOM     82  O   UNL A   1      38.115  27.330  32.724  1.00  0.00    -0.237 OA
ATOM     83  O   UNL A   1      39.038  29.474  33.520  1.00  0.00    -0.744 OA
ENDBRANCH  76  80
ENDBRANCH  59  73
BRANCH  60  84
ATOM     84  C   UNL A   1      49.386  27.302  25.764  1.00  0.00     0.023 A 
ATOM     85  C   UNL A   1      50.495  27.131  26.609  1.00  0.00     0.031 A 
ATOM     86  C   UNL A   1      49.609  27.280  24.376  1.00  0.00     0.131 A 
ATOM     87  C   UNL A   1      51.781  27.005  26.062  1.00  0.00     0.055 A 
ATOM     88  C   UNL A   1      50.882  27.091  23.835  1.00  0.00     0.041 A 
ATOM     89  F   UNL A   1      48.587  27.438  23.520  1.00  0.00    -0.206 F 
ATOM     90  C   UNL A   1      51.981  26.967  24.680  1.00  0.00     0.022 A 
BRANCH  87  91
ATOM     91  S   UNL A   1      53.207  26.994  27.184  1.00  0.00     0.124 S 
ATOM     92  O   UNL A   1      53.315  25.576  27.509  1.00  0.00    -0.237 OA
ATOM     93  O   UNL A   1      54.262  27.542  26.339  1.00  0.00    -0.237 OA
ATOM     94  O   UNL A   1      52.779  27.856  28.284  1.00  0.00    -0.744 OA
ENDBRANCH  87  91
ENDBRANCH  60  84
BRANCH  72  95
ATOM     95  C   UNL A   1      46.325  32.940  28.519  1.00  0.00     0.023 A 
ATOM     96  C   UNL A   1      46.878  33.248  29.773  1.00  0.00     0.031 A 
ATOM     97  C   UNL A   1      46.255  33.967  27.560  1.00  0.00     0.131 A 
ATOM     98  C   UNL A   1      47.279  34.562  30.058  1.00  0.00     0.055 A 
ATOM     99  C   UNL A   1      46.724  35.255  27.822  1.00  0.00     0.041 A 
ATOM    100  F   UNL A   1      45.732  33.734  26.345  1.00  0.00    -0.206 F 
ATOM    101  C   UNL A   1      47.224  35.563  29.083  1.00  0.00     0.022 A 
BRANCH  98 102
ATOM    102  S   UNL A   1      47.763  34.978  31.756  1.00  0.00     0.124 S 
ATOM    103  O   UNL A   1      46.992  34.016  32.535  1.00  0.00    -0.237 OA
ATOM    104  O   UNL A   1      49.207  34.766  31.728  1.00  0.00    -0.237 OA
ATOM    105  O   UNL A   1      47.345  36.371  31.901  1.00  0.00    -0.744 OA
ENDBRANCH  98 102
ENDBRANCH  72  95
ENDBRANCH  46  47
ENDBRANCH  38  41
ENDBRANCH  36  37
ENDBRANCH  35  36
ENDBRANCH  34  35
ENDBRANCH   1  34
TORSDOF 20
ENDMDL
MODEL 3
REMARK VINA RESULT:     -10.7      5.925     12.773
REMARK SMILES CCN1C(=O)N/C(=C/c2cc(Cl)c(OCc3cccc(C(=O)NCCCCNC(=O)c4ccc(-c5c6nc(c(-c7cc(S(=O)(=O)[O-])ccc7F)c7ccc([nH]7)c(-c7cc(S(=O)(=O)[O-])ccc7F)c7nc(c(-c8cc(S(=O)(=O)[O-])ccc8F)c8ccc5[nH]8)C=C7)C=C6)cc4)c3)c(OC)c2)C1=O
REMARK SMILES IDX 24 1 23 2 21 3 22 4 20 6 16 7 17 8 94 9 18 10 19 11 15 12
REMARK SMILES IDX 14 13 13 14 9 15 10 16 98 17 11 18 95 19 12 20 8 21 3 22
REMARK SMILES IDX 4 23 99 24 5 25 6 26 7 27 100 28 2 30 1 31 96 32 97 33 25 34
REMARK SMILES IDX 26 35 27 36 28 37 29 38 30 40 31 41 32 42 93 43 33 44 92 45
REMARK SMILES IDX 34 46 35 47 36 48 86 49 37 50 91 51 85 52 87 53 38 54 90 55
REMARK SMILES IDX 84 56 83 57 39 59 71 60 51 61 70 62 52 63 55 64 69 65 88 66
REMARK SMILES IDX 53 67 54 68 68 70 89 71 56 72 40 73 41 74 49 75 42 76 48 77
REMARK SMILES IDX 50 78 47 79 43 80 44 81 45 82 46 83 72 84 73 85 81 86 74 87
REMARK SMILES IDX 80 88 82 89 79 90 75 91 76 92 77 93 78 94 57 95 58 96 66 97
REMARK SMILES IDX 59 98 65 99 67 100 64 101 60 102 61 103 62 104 63 105
REMARK H PARENT 23 5 6 29 28 39 87 58 55 69
REMARK Flexibility Score: inf
ROOT
ATOM      1  C   UNL A   1      34.264  34.616  31.440  1.00  0.00     0.116 C 
ENDROOT
BRANCH   1   2
ATOM      2  N   UNL A   1      34.380  33.185  31.689  1.00  0.00    -0.352 N 
ATOM      3  C   UNL A   1      35.461  32.397  32.028  1.00  0.00     0.251 C 
ATOM      4  O   UNL A   1      35.285  31.192  32.203  1.00  0.00    -0.269 OA
ATOM      5  H   UNL A   1      33.534  32.691  31.598  1.00  0.00     0.163 HD
BRANCH   3   6
ATOM      6  C   UNL A   1      36.841  32.946  32.094  1.00  0.00     0.040 A 
ATOM      7  C   UNL A   1      38.610  33.997  33.403  1.00  0.00    -0.010 A 
ATOM      8  C   UNL A   1      39.166  34.470  32.211  1.00  0.00     0.007 A 
ATOM      9  C   UNL A   1      37.528  33.110  33.296  1.00  0.00     0.021 A 
ATOM     10  C   UNL A   1      38.621  34.119  30.971  1.00  0.00     0.001 A 
ATOM     11  C   UNL A   1      37.434  33.393  30.912  1.00  0.00     0.014 A 
BRANCH   7  12
ATOM     12  C   UNL A   1      39.043  34.368  34.817  1.00  0.00     0.265 C 
BRANCH  12  13
ATOM     13  O   UNL A   1      38.099  34.400  35.891  1.00  0.00    -0.483 OA
BRANCH  13  14
ATOM     14  C   UNL A   1      38.488  34.142  37.175  1.00  0.00     0.180 A 
ATOM     15  C   UNL A   1      38.796  33.551  39.897  1.00  0.00    -0.018 A 
ATOM     16  C   UNL A   1      39.402  34.681  39.349  1.00  0.00     0.033 A 
ATOM     17  C   UNL A   1      38.137  32.645  39.066  1.00  0.00     0.058 A 
ATOM     18  C   UNL A   1      39.275  34.968  37.989  1.00  0.00     0.087 A 
ATOM     19  C   UNL A   1      37.997  32.924  37.702  1.00  0.00     0.162 A 
ATOM     20  Cl  UNL A   1      40.152  36.349  37.439  1.00  0.00    -0.080 Cl
BRANCH  15  21
ATOM     21  C   UNL A   1      38.843  33.337  41.342  1.00  0.00     0.040 C 
ATOM     22  N   UNL A   1      41.683  31.454  42.482  1.00  0.00    -0.259 N 
ATOM     23  C   UNL A   1      40.964  31.675  43.635  1.00  0.00     0.328 C 
ATOM     24  C   UNL A   1      41.062  32.023  41.393  1.00  0.00     0.278 C 
ATOM     25  O   UNL A   1      41.234  31.305  44.766  1.00  0.00    -0.248 OA
ATOM     26  N   UNL A   1      39.838  32.408  43.301  1.00  0.00    -0.303 N 
ATOM     27  C   UNL A   1      39.817  32.657  41.959  1.00  0.00     0.109 C 
ATOM     28  O   UNL A   1      41.430  32.032  40.237  1.00  0.00    -0.267 OA
ATOM     29  H   UNL A   1      39.151  32.706  43.939  1.00  0.00     0.172 HD
BRANCH  22  30
ATOM     30  C   UNL A   1      42.942  30.741  42.432  1.00  0.00     0.127 C 
ATOM     31  C   UNL A   1      44.105  31.610  42.886  1.00  0.00     0.028 C 
ENDBRANCH  22  30
ENDBRANCH  15  21
BRANCH  19  32
ATOM     32  O   UNL A   1      37.334  32.093  36.827  1.00  0.00    -0.493 OA
ATOM     33  C   UNL A   1      38.056  30.968  36.335  1.00  0.00     0.278 C 
ENDBRANCH  19  32
ENDBRANCH  13  14
ENDBRANCH  12  13
ENDBRANCH   7  12
ENDBRANCH   3   6
ENDBRANCH   1   2
BRANCH   1  34
ATOM     34  C   UNL A   1      34.289  35.021  29.975  1.00  0.00     0.023 C 
BRANCH  34  35
ATOM     35  C   UNL A   1      33.686  34.023  29.000  1.00  0.00     0.023 C 
BRANCH  35  36
ATOM     36  C   UNL A   1      34.651  32.979  28.458  1.00  0.00     0.116 C 
BRANCH  36  37
ATOM     37  N   UNL A   1      33.996  31.903  27.726  1.00  0.00    -0.352 N 
ATOM     38  C   UNL A   1      34.458  30.637  27.456  1.00  0.00     0.251 C 
ATOM     39  H   UNL A   1      33.100  32.112  27.377  1.00  0.00     0.163 HD
ATOM     40  O   UNL A   1      33.815  29.897  26.716  1.00  0.00    -0.269 OA
BRANCH  38  41
ATOM     41  C   UNL A   1      35.747  30.193  28.030  1.00  0.00     0.039 A 
ATOM     42  C   UNL A   1      35.760  29.600  29.294  1.00  0.00     0.014 A 
ATOM     43  C   UNL A   1      36.933  30.331  27.306  1.00  0.00     0.014 A 
ATOM     44  C   UNL A   1      36.957  29.093  29.804  1.00  0.00     0.010 A 
ATOM     45  C   UNL A   1      38.098  29.730  27.767  1.00  0.00     0.010 A 
ATOM     46  C   UNL A   1      38.131  29.126  29.032  1.00  0.00    -0.014 A 
BRANCH  46  47
ATOM     47  C   UNL A   1      39.416  28.591  29.555  1.00  0.00     0.031 A 
ATOM     48  C   UNL A   1      40.044  29.224  30.769  1.00  0.00     0.074 A 
ATOM     49  C   UNL A   1      40.035  27.574  28.923  1.00  0.00     0.049 A 
ATOM     50  N   UNL A   1      41.183  28.953  31.352  1.00  0.00    -0.248 NA
ATOM     51  C   UNL A   1      39.307  30.338  31.388  1.00  0.00     0.031 C 
ATOM     52  C   UNL A   1      39.545  26.903  27.716  1.00  0.00     0.029 A 
ATOM     53  N   UNL A   1      41.210  26.923  29.206  1.00  0.00    -0.354 N 
ATOM     54  C   UNL A   1      41.302  29.868  32.393  1.00  0.00     0.074 A 
ATOM     55  C   UNL A   1      40.162  30.752  32.308  1.00  0.00     0.031 C 
ATOM     56  C   UNL A   1      40.393  25.915  27.387  1.00  0.00     0.029 A 
ATOM     57  C   UNL A   1      41.511  25.910  28.324  1.00  0.00     0.049 A 
ATOM     58  H   UNL A   1      41.785  27.159  29.970  1.00  0.00     0.167 HD
ATOM     59  C   UNL A   1      42.258  29.943  33.353  1.00  0.00     0.034 A 
ATOM     60  C   UNL A   1      42.571  25.078  28.275  1.00  0.00     0.034 A 
ATOM     61  C   UNL A   1      43.380  29.042  33.431  1.00  0.00     0.049 A 
ATOM     62  C   UNL A   1      43.639  25.200  29.336  1.00  0.00     0.074 A 
ATOM     63  C   UNL A   1      44.383  28.997  34.382  1.00  0.00     0.029 A 
ATOM     64  N   UNL A   1      43.654  28.031  32.517  1.00  0.00    -0.354 N 
ATOM     65  N   UNL A   1      43.714  26.041  30.343  1.00  0.00    -0.248 NA
ATOM     66  C   UNL A   1      44.756  24.251  29.262  1.00  0.00     0.031 C 
ATOM     67  C   UNL A   1      45.303  28.014  34.002  1.00  0.00     0.029 A 
ATOM     68  C   UNL A   1      44.826  27.379  32.867  1.00  0.00     0.049 A 
ATOM     69  H   UNL A   1      43.097  27.812  31.735  1.00  0.00     0.167 HD
ATOM     70  C   UNL A   1      44.863  25.691  31.046  1.00  0.00     0.074 A 
ATOM     71  C   UNL A   1      45.441  24.557  30.353  1.00  0.00     0.031 C 
ATOM     72  C   UNL A   1      45.391  26.249  32.166  1.00  0.00     0.034 A 
BRANCH  59  73
ATOM     73  C   UNL A   1      42.132  31.053  34.373  1.00  0.00     0.023 A 
ATOM     74  C   UNL A   1      42.506  32.376  34.078  1.00  0.00     0.031 A 
ATOM     75  C   UNL A   1      41.664  30.778  35.670  1.00  0.00     0.131 A 
ATOM     76  C   UNL A   1      42.488  33.353  35.084  1.00  0.00     0.055 A 
ATOM     77  C   UNL A   1      41.559  31.776  36.641  1.00  0.00     0.041 A 
ATOM     78  F   UNL A   1      41.314  29.531  36.021  1.00  0.00    -0.206 F 
ATOM     79  C   UNL A   1      41.988  33.068  36.357  1.00  0.00     0.022 A 
BRANCH  76  80
ATOM     80  S   UNL A   1      43.277  34.952  34.754  1.00  0.00     0.124 S 
ATOM     81  O   UNL A   1      42.215  35.665  34.048  1.00  0.00    -0.237 OA
ATOM     82  O   UNL A   1      43.587  35.434  36.095  1.00  0.00    -0.237 OA
ATOM     83  O   UNL A   1      44.434  34.600  33.933  1.00  0.00    -0.744 OA
ENDBRANCH  76  80
ENDBRANCH  59  73
BRANCH  60  84
ATOM     84  C   UNL A   1      42.689  24.059  27.190  1.00  0.00     0.023 A 
ATOM     85  C   UNL A   1      41.925  22.881  27.215  1.00  0.00     0.031 A 
ATOM     86  C   UNL A   1      43.608  24.224  26.138  1.00  0.00     0.131 A 
ATOM     87  C   UNL A   1      42.134  21.888  26.244  1.00  0.00     0.055 A 
ATOM     88  C   UNL A   1      43.768  23.261  25.139  1.00  0.00     0.041 A 
ATOM     89  F   UNL A   1      44.364  25.330  26.063  1.00  0.00    -0.206 F 
ATOM     90  C   UNL A   1      43.039  22.077  25.197  1.00  0.00     0.022 A 
BRANCH  87  91
ATOM     91  S   UNL A   1      41.280  20.298  26.428  1.00  0.00     0.124 S 
ATOM     92  O   UNL A   1      41.485  20.015  27.844  1.00  0.00    -0.237 OA
ATOM     93  O   UNL A   1      39.918  20.638  26.030  1.00  0.00    -0.237 OA
ATOM     94  O   UNL A   1      41.997  19.419  25.506  1.00  0.00    -0.744 OA
ENDBRANCH  87  91
ENDBRANCH  60  84
BRANCH  72  95
ATOM     95  C   UNL A   1      46.622  25.596  32.750  1.00  0.00     0.023 A 
ATOM     96  C   UNL A   1      47.910  25.841  32.244  1.00  0.00     0.031 A 
ATOM     97  C   UNL A   1      46.497  24.702  33.829  1.00  0.00     0.131 A 
ATOM     98  C   UNL A   1      49.011  25.151  32.772  1.00  0.00     0.055 A 
ATOM     99  C   UNL A   1      47.605  24.075  34.399  1.00  0.00     0.041 A 
ATOM    100  F   UNL A   1      45.291  24.425  34.352  1.00  0.00    -0.206 F 
ATOM    101  C   UNL A   1      48.870  24.285  33.860  1.00  0.00     0.022 A 
BRANCH  98 102
ATOM    102  S   UNL A   1      50.617  25.308  31.943  1.00  0.00     0.124 S 
ATOM    103  O   UNL A   1      51.415  25.993  32.954  1.00  0.00    -0.237 OA
ATOM    104  O   UNL A   1      50.972  23.916  31.686  1.00  0.00    -0.237 OA
ATOM    105  O   UNL A   1      50.313  26.099  30.752  1.00  0.00    -0.744 OA
ENDBRANCH  98 102
ENDBRANCH  72  95
ENDBRANCH  46  47
ENDBRANCH  38  41
ENDBRANCH  36  37
ENDBRANCH  35  36
ENDBRANCH  34  35
ENDBRANCH   1  34
TORSDOF 20
ENDMDL
